MODEL 1
REMARK VINA RESULT:     -11.3      0.000      0.000
REMARK SMILES C[C@@]([NH3+])(C(=O)Nc1cc(C(=O)NCCCCNC(=O)c2ccc(-c3c4nc(c(-c5c(F)cccc5F)c5ccc([nH]5)c(-c5c(F)cccc5F)c5nc(c(-c6c(F)cccc6F)c6ccc3[nH]6)C=C5)C=C4)cc2)ccc1F)C(F)(F)F
REMARK SMILES IDX 14 1 13 2 12 3 10 4 11 5 9 7 7 8 8 9 76 10 75 11 77 12 74 13
REMARK SMILES IDX 6 14 4 15 5 16 2 18 1 19 3 20 78 24 79 25 80 26 81 27 15 28
REMARK SMILES IDX 16 29 17 30 18 31 19 33 20 34 21 35 73 36 22 37 72 38 23 39
REMARK SMILES IDX 24 40 25 41 66 42 26 43 71 44 65 45 67 46 27 47 70 48 64 49
REMARK SMILES IDX 63 50 28 52 54 53 37 54 53 55 38 56 41 57 52 58 68 59 39 60
REMARK SMILES IDX 40 61 51 63 69 64 42 65 29 66 30 67 35 68 31 69 32 70 34 71
REMARK SMILES IDX 36 72 33 73 55 74 56 75 61 76 57 77 58 78 60 79 62 80 59 81
REMARK SMILES IDX 43 82 44 83 49 84 45 85 46 86 48 87 50 88 47 89
REMARK H PARENT 12 6 6 17 3 21 3 22 3 23 17 32 67 51 41 62
REMARK Flexibility Score: inf
ROOT
ATOM      1  C   UNL A   1      36.869  20.394  25.001  1.00  0.00     0.023 C 
ENDROOT
BRANCH   1   2
ATOM      2  C   UNL A   1      37.045  21.699  24.220  1.00  0.00     0.116 C 
BRANCH   2   3
ATOM      3  N   UNL A   1      37.521  22.761  25.082  1.00  0.00    -0.352 N 
ATOM      4  C   UNL A   1      36.871  23.745  25.781  1.00  0.00     0.251 C 
ATOM      5  O   UNL A   1      37.563  24.468  26.501  1.00  0.00    -0.269 OA
ATOM      6  H   UNL A   1      38.499  22.781  25.185  1.00  0.00     0.163 HD
BRANCH   4   7
ATOM      7  C   UNL A   1      35.396  23.976  25.740  1.00  0.00     0.042 A 
ATOM      8  C   UNL A   1      33.565  25.127  24.621  1.00  0.00     0.078 A 
ATOM      9  C   UNL A   1      34.922  24.816  24.714  1.00  0.00     0.043 A 
ATOM     10  C   UNL A   1      32.660  24.485  25.462  1.00  0.00     0.146 A 
ATOM     11  C   UNL A   1      33.098  23.641  26.468  1.00  0.00     0.042 A 
ATOM     12  F   UNL A   1      31.340  24.629  25.277  1.00  0.00    -0.205 F 
ATOM     13  C   UNL A   1      34.465  23.392  26.609  1.00  0.00     0.017 A 
BRANCH   8  14
ATOM     14  N   UNL A   1      33.139  26.022  23.635  1.00  0.00    -0.318 N 
ATOM     15  C   UNL A   1      32.663  27.304  23.783  1.00  0.00     0.295 C 
ATOM     16  O   UNL A   1      32.088  27.787  22.801  1.00  0.00    -0.267 OA
ATOM     17  H   UNL A   1      33.187  25.689  22.709  1.00  0.00     0.170 HD
BRANCH  15  18
ATOM     18  C   UNL A   1      32.987  28.155  25.050  1.00  0.00     0.267 C 
ATOM     19  C   UNL A   1      34.208  27.692  25.849  1.00  0.00     0.100 C 
BRANCH  18  20
ATOM     20  N   UNL A   1      33.228  29.593  24.626  1.00  0.00    -0.337 N 
ATOM     21  H   UNL A   1      32.871  29.733  23.681  1.00  0.00     0.345 HD
ATOM     22  H   UNL A   1      34.228  29.789  24.645  1.00  0.00     0.345 HD
ATOM     23  H   UNL A   1      32.745  30.221  25.269  1.00  0.00     0.345 HD
ENDBRANCH  18  20
BRANCH  18  24
ATOM     24  C   UNL A   1      31.755  28.010  25.990  1.00  0.00     0.453 C 
ATOM     25  F   UNL A   1      30.679  27.472  25.382  1.00  0.00    -0.164 F 
ATOM     26  F   UNL A   1      32.076  27.179  27.024  1.00  0.00    -0.164 F 
ATOM     27  F   UNL A   1      31.403  29.185  26.561  1.00  0.00    -0.164 F 
ENDBRANCH  18  24
ENDBRANCH  15  18
ENDBRANCH   8  14
ENDBRANCH   4   7
ENDBRANCH   2   3
ENDBRANCH   1   2
BRANCH   1  28
ATOM     28  C   UNL A   1      38.061  19.438  24.924  1.00  0.00     0.023 C 
BRANCH  28  29
ATOM     29  C   UNL A   1      39.273  19.848  25.751  1.00  0.00     0.116 C 
BRANCH  29  30
ATOM     30  N   UNL A   1      40.309  18.828  25.810  1.00  0.00    -0.352 N 
ATOM     31  C   UNL A   1      41.648  18.987  26.068  1.00  0.00     0.251 C 
ATOM     32  H   UNL A   1      40.010  17.905  25.644  1.00  0.00     0.163 HD
ATOM     33  O   UNL A   1      42.414  18.033  25.984  1.00  0.00    -0.269 OA
BRANCH  31  34
ATOM     34  C   UNL A   1      42.162  20.328  26.408  1.00  0.00     0.039 A 
ATOM     35  C   UNL A   1      42.573  21.172  25.375  1.00  0.00     0.014 A 
ATOM     36  C   UNL A   1      42.208  20.759  27.736  1.00  0.00     0.014 A 
ATOM     37  C   UNL A   1      42.976  22.474  25.672  1.00  0.00     0.010 A 
ATOM     38  C   UNL A   1      42.533  22.079  28.023  1.00  0.00     0.010 A 
ATOM     39  C   UNL A   1      42.930  22.947  26.995  1.00  0.00    -0.014 A 
BRANCH  39  40
ATOM     40  C   UNL A   1      43.312  24.343  27.320  1.00  0.00     0.031 A 
ATOM     41  C   UNL A   1      44.750  24.770  27.219  1.00  0.00     0.074 A 
ATOM     42  C   UNL A   1      42.374  25.211  27.745  1.00  0.00     0.049 A 
ATOM     43  N   UNL A   1      45.287  25.933  27.492  1.00  0.00    -0.248 NA
ATOM     44  C   UNL A   1      45.719  23.753  26.776  1.00  0.00     0.031 C 
ATOM     45  C   UNL A   1      40.955  24.901  27.928  1.00  0.00     0.029 A 
ATOM     46  N   UNL A   1      42.473  26.534  28.096  1.00  0.00    -0.354 N 
ATOM     47  C   UNL A   1      46.648  25.783  27.261  1.00  0.00     0.074 A 
ATOM     48  C   UNL A   1      46.867  24.404  26.888  1.00  0.00     0.031 C 
ATOM     49  C   UNL A   1      40.310  26.012  28.320  1.00  0.00     0.029 A 
ATOM     50  C   UNL A   1      41.273  27.102  28.451  1.00  0.00     0.049 A 
ATOM     51  H   UNL A   1      43.324  27.030  28.095  1.00  0.00     0.167 HD
ATOM     52  C   UNL A   1      47.622  26.719  27.322  1.00  0.00     0.037 A 
ATOM     53  C   UNL A   1      40.981  28.360  28.832  1.00  0.00     0.037 A 
ATOM     54  C   UNL A   1      47.395  28.098  27.663  1.00  0.00     0.049 A 
ATOM     55  C   UNL A   1      42.084  29.381  28.896  1.00  0.00     0.074 A 
ATOM     56  C   UNL A   1      48.311  29.134  27.708  1.00  0.00     0.029 A 
ATOM     57  N   UNL A   1      46.164  28.634  28.009  1.00  0.00    -0.354 N 
ATOM     58  N   UNL A   1      43.358  29.238  28.625  1.00  0.00    -0.248 NA
ATOM     59  C   UNL A   1      41.708  30.741  29.312  1.00  0.00     0.031 C 
ATOM     60  C   UNL A   1      47.643  30.289  28.121  1.00  0.00     0.029 A 
ATOM     61  C   UNL A   1      46.301  29.984  28.282  1.00  0.00     0.049 A 
ATOM     62  H   UNL A   1      45.320  28.130  28.053  1.00  0.00     0.167 HD
ATOM     63  C   UNL A   1      43.930  30.490  28.807  1.00  0.00     0.074 A 
ATOM     64  C   UNL A   1      42.862  31.385  29.201  1.00  0.00     0.031 C 
ATOM     65  C   UNL A   1      45.224  30.865  28.660  1.00  0.00     0.037 A 
BRANCH  52  66
ATOM     66  C   UNL A   1      49.022  26.294  26.989  1.00  0.00     0.057 A 
ATOM     67  C   UNL A   1      49.910  25.896  27.996  1.00  0.00     0.134 A 
ATOM     68  C   UNL A   1      49.513  26.347  25.677  1.00  0.00     0.134 A 
ATOM     69  F   UNL A   1      49.506  25.828  29.273  1.00  0.00    -0.206 F 
ATOM     70  C   UNL A   1      51.239  25.578  27.711  1.00  0.00     0.040 A 
ATOM     71  C   UNL A   1      50.832  26.007  25.377  1.00  0.00     0.040 A 
ATOM     72  F   UNL A   1      48.709  26.709  24.666  1.00  0.00    -0.206 F 
ATOM     73  C   UNL A   1      51.703  25.630  26.398  1.00  0.00     0.006 A 
ENDBRANCH  52  66
BRANCH  53  74
ATOM     74  C   UNL A   1      39.577  28.734  29.137  1.00  0.00     0.057 A 
ATOM     75  C   UNL A   1      39.050  28.623  30.429  1.00  0.00     0.134 A 
ATOM     76  C   UNL A   1      38.722  29.200  28.131  1.00  0.00     0.134 A 
ATOM     77  F   UNL A   1      39.816  28.175  31.436  1.00  0.00    -0.206 F 
ATOM     78  C   UNL A   1      37.723  28.951  30.709  1.00  0.00     0.040 A 
ATOM     79  C   UNL A   1      37.399  29.555  28.400  1.00  0.00     0.040 A 
ATOM     80  F   UNL A   1      39.172  29.343  26.876  1.00  0.00    -0.206 F 
ATOM     81  C   UNL A   1      36.894  29.424  29.692  1.00  0.00     0.006 A 
ENDBRANCH  53  74
BRANCH  65  82
ATOM     82  C   UNL A   1      45.563  32.308  28.890  1.00  0.00     0.057 A 
ATOM     83  C   UNL A   1      45.851  32.772  30.181  1.00  0.00     0.134 A 
ATOM     84  C   UNL A   1      45.523  33.250  27.856  1.00  0.00     0.134 A 
ATOM     85  F   UNL A   1      45.893  31.924  31.218  1.00  0.00    -0.206 F 
ATOM     86  C   UNL A   1      46.071  34.126  30.436  1.00  0.00     0.040 A 
ATOM     87  C   UNL A   1      45.769  34.603  28.093  1.00  0.00     0.040 A 
ATOM     88  F   UNL A   1      45.262  32.867  26.597  1.00  0.00    -0.206 F 
ATOM     89  C   UNL A   1      46.033  35.046  29.389  1.00  0.00     0.006 A 
ENDBRANCH  65  82
ENDBRANCH  39  40
ENDBRANCH  31  34
ENDBRANCH  29  30
ENDBRANCH  28  29
ENDBRANCH   1  28
TORSDOF 15
ENDMDL
MODEL 2
REMARK VINA RESULT:     -11.3      4.815      9.980
REMARK SMILES C[C@@]([NH3+])(C(=O)Nc1cc(C(=O)NCCCCNC(=O)c2ccc(-c3c4nc(c(-c5c(F)cccc5F)c5ccc([nH]5)c(-c5c(F)cccc5F)c5nc(c(-c6c(F)cccc6F)c6ccc3[nH]6)C=C5)C=C4)cc2)ccc1F)C(F)(F)F
REMARK SMILES IDX 14 1 13 2 12 3 10 4 11 5 9 7 7 8 8 9 76 10 75 11 77 12 74 13
REMARK SMILES IDX 6 14 4 15 5 16 2 18 1 19 3 20 78 24 79 25 80 26 81 27 15 28
REMARK SMILES IDX 16 29 17 30 18 31 19 33 20 34 21 35 73 36 22 37 72 38 23 39
REMARK SMILES IDX 24 40 25 41 66 42 26 43 71 44 65 45 67 46 27 47 70 48 64 49
REMARK SMILES IDX 63 50 28 52 54 53 37 54 53 55 38 56 41 57 52 58 68 59 39 60
REMARK SMILES IDX 40 61 51 63 69 64 42 65 29 66 30 67 35 68 31 69 32 70 34 71
REMARK SMILES IDX 36 72 33 73 55 74 56 75 61 76 57 77 58 78 60 79 62 80 59 81
REMARK SMILES IDX 43 82 44 83 49 84 45 85 46 86 48 87 50 88 47 89
REMARK H PARENT 12 6 6 17 3 21 3 22 3 23 17 32 67 51 41 62
REMARK Flexibility Score: inf
ROOT
ATOM      1  C   UNL A   1      31.609  30.684  26.067  1.00  0.00     0.023 C 
ENDROOT
BRANCH   1   2
ATOM      2  C   UNL A   1      31.847  29.681  27.198  1.00  0.00     0.116 C 
BRANCH   2   3
ATOM      3  N   UNL A   1      33.261  29.457  27.408  1.00  0.00    -0.352 N 
ATOM      4  C   UNL A   1      34.165  28.623  26.801  1.00  0.00     0.251 C 
ATOM      5  O   UNL A   1      35.341  28.720  27.159  1.00  0.00    -0.269 OA
ATOM      6  H   UNL A   1      33.649  30.010  28.123  1.00  0.00     0.163 HD
BRANCH   4   7
ATOM      7  C   UNL A   1      33.819  27.637  25.736  1.00  0.00     0.042 A 
ATOM      8  C   UNL A   1      33.074  25.369  25.252  1.00  0.00     0.078 A 
ATOM      9  C   UNL A   1      33.378  26.372  26.172  1.00  0.00     0.043 A 
ATOM     10  C   UNL A   1      33.070  25.670  23.892  1.00  0.00     0.146 A 
ATOM     11  C   UNL A   1      33.483  26.911  23.437  1.00  0.00     0.042 A 
ATOM     12  F   UNL A   1      32.611  24.781  22.999  1.00  0.00    -0.205 F 
ATOM     13  C   UNL A   1      33.862  27.889  24.358  1.00  0.00     0.017 A 
BRANCH   8  14
ATOM     14  N   UNL A   1      32.708  24.104  25.721  1.00  0.00    -0.318 N 
ATOM     15  C   UNL A   1      33.419  22.927  25.669  1.00  0.00     0.295 C 
ATOM     16  O   UNL A   1      32.778  21.894  25.890  1.00  0.00    -0.267 OA
ATOM     17  H   UNL A   1      31.822  24.047  26.147  1.00  0.00     0.170 HD
BRANCH  15  18
ATOM     18  C   UNL A   1      34.973  22.917  25.517  1.00  0.00     0.267 C 
ATOM     19  C   UNL A   1      35.679  24.196  25.976  1.00  0.00     0.100 C 
BRANCH  18  20
ATOM     20  N   UNL A   1      35.536  21.761  26.323  1.00  0.00    -0.337 N 
ATOM     21  H   UNL A   1      35.979  22.120  27.168  1.00  0.00     0.345 HD
ATOM     22  H   UNL A   1      36.226  21.261  25.764  1.00  0.00     0.345 HD
ATOM     23  H   UNL A   1      34.780  21.126  26.579  1.00  0.00     0.345 HD
ENDBRANCH  18  20
BRANCH  18  24
ATOM     24  C   UNL A   1      35.253  22.773  23.994  1.00  0.00     0.453 C 
ATOM     25  F   UNL A   1      35.667  23.918  23.415  1.00  0.00    -0.164 F 
ATOM     26  F   UNL A   1      36.249  21.858  23.805  1.00  0.00    -0.164 F 
ATOM     27  F   UNL A   1      34.184  22.294  23.317  1.00  0.00    -0.164 F 
ENDBRANCH  18  24
ENDBRANCH  15  18
ENDBRANCH   8  14
ENDBRANCH   4   7
ENDBRANCH   2   3
ENDBRANCH   1   2
BRANCH   1  28
ATOM     28  C   UNL A   1      31.372  32.124  26.529  1.00  0.00     0.023 C 
BRANCH  28  29
ATOM     29  C   UNL A   1      32.571  32.800  27.180  1.00  0.00     0.116 C 
BRANCH  29  30
ATOM     30  N   UNL A   1      32.300  34.157  27.631  1.00  0.00    -0.352 N 
ATOM     31  C   UNL A   1      32.994  34.903  28.551  1.00  0.00     0.251 C 
ATOM     32  H   UNL A   1      31.520  34.595  27.223  1.00  0.00     0.163 HD
ATOM     33  O   UNL A   1      32.577  36.004  28.899  1.00  0.00    -0.269 OA
BRANCH  31  34
ATOM     34  C   UNL A   1      34.225  34.350  29.149  1.00  0.00     0.039 A 
ATOM     35  C   UNL A   1      34.120  33.577  30.307  1.00  0.00     0.014 A 
ATOM     36  C   UNL A   1      35.468  34.566  28.550  1.00  0.00     0.014 A 
ATOM     37  C   UNL A   1      35.262  32.973  30.832  1.00  0.00     0.010 A 
ATOM     38  C   UNL A   1      36.589  33.900  29.029  1.00  0.00     0.010 A 
ATOM     39  C   UNL A   1      36.499  33.104  30.180  1.00  0.00    -0.014 A 
BRANCH  39  40
ATOM     40  C   UNL A   1      37.714  32.429  30.702  1.00  0.00     0.031 A 
ATOM     41  C   UNL A   1      38.397  32.959  31.932  1.00  0.00     0.074 A 
ATOM     42  C   UNL A   1      38.222  31.367  30.048  1.00  0.00     0.049 A 
ATOM     43  N   UNL A   1      39.484  32.531  32.521  1.00  0.00    -0.248 NA
ATOM     44  C   UNL A   1      37.796  34.142  32.571  1.00  0.00     0.031 C 
ATOM     45  C   UNL A   1      37.674  30.789  28.818  1.00  0.00     0.029 A 
ATOM     46  N   UNL A   1      39.312  30.582  30.327  1.00  0.00    -0.354 N 
ATOM     47  C   UNL A   1      39.698  33.391  33.590  1.00  0.00     0.074 A 
ATOM     48  C   UNL A   1      38.667  34.404  33.533  1.00  0.00     0.031 C 
ATOM     49  C   UNL A   1      38.408  29.719  28.472  1.00  0.00     0.029 A 
ATOM     50  C   UNL A   1      39.497  29.556  29.431  1.00  0.00     0.049 A 
ATOM     51  H   UNL A   1      39.906  30.739  31.096  1.00  0.00     0.167 HD
ATOM     52  C   UNL A   1      40.647  33.324  34.551  1.00  0.00     0.037 A 
ATOM     53  C   UNL A   1      40.434  28.590  29.392  1.00  0.00     0.037 A 
ATOM     54  C   UNL A   1      41.651  32.297  34.622  1.00  0.00     0.049 A 
ATOM     55  C   UNL A   1      41.481  28.540  30.470  1.00  0.00     0.074 A 
ATOM     56  C   UNL A   1      42.630  32.117  35.583  1.00  0.00     0.029 A 
ATOM     57  N   UNL A   1      41.800  31.273  33.700  1.00  0.00    -0.354 N 
ATOM     58  N   UNL A   1      41.640  29.330  31.504  1.00  0.00    -0.248 NA
ATOM     59  C   UNL A   1      42.476  27.461  30.382  1.00  0.00     0.031 C 
ATOM     60  C   UNL A   1      43.398  31.007  35.222  1.00  0.00     0.029 A 
ATOM     61  C   UNL A   1      42.864  30.465  34.063  1.00  0.00     0.049 A 
ATOM     62  H   UNL A   1      41.233  31.139  32.905  1.00  0.00     0.167 HD
ATOM     63  C   UNL A   1      42.729  28.828  32.204  1.00  0.00     0.074 A 
ATOM     64  C   UNL A   1      43.187  27.659  31.484  1.00  0.00     0.031 C 
ATOM     65  C   UNL A   1      43.298  29.295  33.342  1.00  0.00     0.037 A 
BRANCH  52  66
ATOM     66  C   UNL A   1      40.634  34.375  35.622  1.00  0.00     0.057 A 
ATOM     67  C   UNL A   1      39.876  34.203  36.787  1.00  0.00     0.134 A 
ATOM     68  C   UNL A   1      41.317  35.589  35.468  1.00  0.00     0.134 A 
ATOM     69  F   UNL A   1      39.194  33.067  36.996  1.00  0.00    -0.206 F 
ATOM     70  C   UNL A   1      39.787  35.207  37.753  1.00  0.00     0.040 A 
ATOM     71  C   UNL A   1      41.257  36.589  36.439  1.00  0.00     0.040 A 
ATOM     72  F   UNL A   1      42.071  35.810  34.380  1.00  0.00    -0.206 F 
ATOM     73  C   UNL A   1      40.482  36.403  37.582  1.00  0.00     0.006 A 
ENDBRANCH  52  66
BRANCH  53  74
ATOM     74  C   UNL A   1      40.396  27.565  28.319  1.00  0.00     0.057 A 
ATOM     75  C   UNL A   1      39.694  26.363  28.474  1.00  0.00     0.134 A 
ATOM     76  C   UNL A   1      41.078  27.761  27.112  1.00  0.00     0.134 A 
ATOM     77  F   UNL A   1      39.027  26.111  29.610  1.00  0.00    -0.206 F 
ATOM     78  C   UNL A   1      39.680  25.390  27.474  1.00  0.00     0.040 A 
ATOM     79  C   UNL A   1      41.054  26.807  26.094  1.00  0.00     0.040 A 
ATOM     80  F   UNL A   1      41.755  28.898  26.897  1.00  0.00    -0.206 F 
ATOM     81  C   UNL A   1      40.358  25.613  26.276  1.00  0.00     0.006 A 
ENDBRANCH  53  74
BRANCH  65  82
ATOM     82  C   UNL A   1      44.458  28.529  33.907  1.00  0.00     0.057 A 
ATOM     83  C   UNL A   1      44.243  27.492  34.826  1.00  0.00     0.134 A 
ATOM     84  C   UNL A   1      45.782  28.868  33.610  1.00  0.00     0.134 A 
ATOM     85  F   UNL A   1      42.998  27.125  35.162  1.00  0.00    -0.206 F 
ATOM     86  C   UNL A   1      45.307  26.831  35.440  1.00  0.00     0.040 A 
ATOM     87  C   UNL A   1      46.855  28.196  34.198  1.00  0.00     0.040 A 
ATOM     88  F   UNL A   1      46.054  29.846  32.733  1.00  0.00    -0.206 F 
ATOM     89  C   UNL A   1      46.618  27.181  35.124  1.00  0.00     0.006 A 
ENDBRANCH  65  82
ENDBRANCH  39  40
ENDBRANCH  31  34
ENDBRANCH  29  30
ENDBRANCH  28  29
ENDBRANCH   1  28
TORSDOF 15
ENDMDL
MODEL 3
REMARK VINA RESULT:     -11.3      4.845      9.494
REMARK SMILES C[C@@]([NH3+])(C(=O)Nc1cc(C(=O)NCCCCNC(=O)c2ccc(-c3c4nc(c(-c5c(F)cccc5F)c5ccc([nH]5)c(-c5c(F)cccc5F)c5nc(c(-c6c(F)cccc6F)c6ccc3[nH]6)C=C5)C=C4)cc2)ccc1F)C(F)(F)F
REMARK SMILES IDX 14 1 13 2 12 3 10 4 11 5 9 7 7 8 8 9 76 10 75 11 77 12 74 13
REMARK SMILES IDX 6 14 4 15 5 16 2 18 1 19 3 20 78 24 79 25 80 26 81 27 15 28
REMARK SMILES IDX 16 29 17 30 18 31 19 33 20 34 21 35 73 36 22 37 72 38 23 39
REMARK SMILES IDX 24 40 25 41 66 42 26 43 71 44 65 45 67 46 27 47 70 48 64 49
REMARK SMILES IDX 63 50 28 52 54 53 37 54 53 55 38 56 41 57 52 58 68 59 39 60
REMARK SMILES IDX 40 61 51 63 69 64 42 65 29 66 30 67 35 68 31 69 32 70 34 71
REMARK SMILES IDX 36 72 33 73 55 74 56 75 61 76 57 77 58 78 60 79 62 80 59 81
REMARK SMILES IDX 43 82 44 83 49 84 45 85 46 86 48 87 50 88 47 89
REMARK H PARENT 12 6 6 17 3 21 3 22 3 23 17 32 67 51 41 62
REMARK Flexibility Score: inf
ROOT
ATOM      1  C   UNL A   1      34.517  31.020  27.631  1.00  0.00     0.023 C 
ENDROOT
BRANCH   1   2
ATOM      2  C   UNL A   1      34.380  29.566  27.169  1.00  0.00     0.116 C 
BRANCH   2   3
ATOM      3  N   UNL A   1      33.205  28.946  27.745  1.00  0.00    -0.352 N 
ATOM      4  C   UNL A   1      32.234  28.136  27.215  1.00  0.00     0.251 C 
ATOM      5  O   UNL A   1      31.386  27.697  27.995  1.00  0.00    -0.269 OA
ATOM      6  H   UNL A   1      33.079  29.145  28.700  1.00  0.00     0.163 HD
BRANCH   4   7
ATOM      7  C   UNL A   1      32.157  27.741  25.778  1.00  0.00     0.042 A 
ATOM      8  C   UNL A   1      30.723  27.516  23.821  1.00  0.00     0.078 A 
ATOM      9  C   UNL A   1      30.906  27.900  25.151  1.00  0.00     0.043 A 
ATOM     10  C   UNL A   1      31.824  27.110  23.072  1.00  0.00     0.146 A 
ATOM     11  C   UNL A   1      33.069  26.962  23.660  1.00  0.00     0.042 A 
ATOM     12  F   UNL A   1      31.712  26.908  21.752  1.00  0.00    -0.205 F 
ATOM     13  C   UNL A   1      33.233  27.272  25.012  1.00  0.00     0.017 A 
BRANCH   8  14
ATOM     14  N   UNL A   1      29.450  27.621  23.253  1.00  0.00    -0.318 N 
ATOM     15  C   UNL A   1      28.734  28.755  22.949  1.00  0.00     0.295 C 
ATOM     16  O   UNL A   1      27.530  28.593  22.720  1.00  0.00    -0.267 OA
ATOM     17  H   UNL A   1      29.007  26.768  23.041  1.00  0.00     0.170 HD
BRANCH  15  18
ATOM     18  C   UNL A   1      29.436  30.133  22.733  1.00  0.00     0.267 C 
ATOM     19  C   UNL A   1      29.972  30.795  24.005  1.00  0.00     0.100 C 
BRANCH  18  20
ATOM     20  N   UNL A   1      30.603  29.944  21.781  1.00  0.00    -0.337 N 
ATOM     21  H   UNL A   1      30.984  29.005  21.893  1.00  0.00     0.345 HD
ATOM     22  H   UNL A   1      31.326  30.632  21.989  1.00  0.00     0.345 HD
ATOM     23  H   UNL A   1      30.281  30.068  20.821  1.00  0.00     0.345 HD
ENDBRANCH  18  20
BRANCH  18  24
ATOM     24  C   UNL A   1      28.346  31.083  22.158  1.00  0.00     0.453 C 
ATOM     25  F   UNL A   1      27.372  31.376  23.042  1.00  0.00    -0.164 F 
ATOM     26  F   UNL A   1      28.924  32.269  21.807  1.00  0.00    -0.164 F 
ATOM     27  F   UNL A   1      27.788  30.599  21.025  1.00  0.00    -0.164 F 
ENDBRANCH  18  24
ENDBRANCH  15  18
ENDBRANCH   8  14
ENDBRANCH   4   7
ENDBRANCH   2   3
ENDBRANCH   1   2
BRANCH   1  28
ATOM     28  C   UNL A   1      33.190  31.757  27.824  1.00  0.00     0.023 C 
BRANCH  28  29
ATOM     29  C   UNL A   1      33.103  33.118  27.146  1.00  0.00     0.116 C 
BRANCH  29  30
ATOM     30  N   UNL A   1      32.641  34.179  28.028  1.00  0.00    -0.352 N 
ATOM     31  C   UNL A   1      33.233  34.655  29.172  1.00  0.00     0.251 C 
ATOM     32  H   UNL A   1      31.795  34.611  27.772  1.00  0.00     0.163 HD
ATOM     33  O   UNL A   1      32.664  35.492  29.864  1.00  0.00    -0.269 OA
BRANCH  31  34
ATOM     34  C   UNL A   1      34.546  34.117  29.581  1.00  0.00     0.039 A 
ATOM     35  C   UNL A   1      34.612  33.287  30.701  1.00  0.00     0.014 A 
ATOM     36  C   UNL A   1      35.696  34.406  28.844  1.00  0.00     0.014 A 
ATOM     37  C   UNL A   1      35.828  32.699  31.048  1.00  0.00     0.010 A 
ATOM     38  C   UNL A   1      36.888  33.758  29.143  1.00  0.00     0.010 A 
ATOM     39  C   UNL A   1      36.968  32.905  30.253  1.00  0.00    -0.014 A 
BRANCH  39  40
ATOM     40  C   UNL A   1      38.258  32.250  30.584  1.00  0.00     0.031 A 
ATOM     41  C   UNL A   1      39.192  32.888  31.574  1.00  0.00     0.074 A 
ATOM     42  C   UNL A   1      38.605  31.106  29.963  1.00  0.00     0.049 A 
ATOM     43  N   UNL A   1      40.375  32.489  31.968  1.00  0.00    -0.248 NA
ATOM     44  C   UNL A   1      38.753  34.154  32.185  1.00  0.00     0.031 C 
ATOM     45  C   UNL A   1      37.803  30.416  28.950  1.00  0.00     0.029 A 
ATOM     46  N   UNL A   1      39.720  30.319  30.096  1.00  0.00    -0.354 N 
ATOM     47  C   UNL A   1      40.819  33.454  32.862  1.00  0.00     0.074 A 
ATOM     48  C   UNL A   1      39.812  34.489  32.907  1.00  0.00     0.031 C 
ATOM     49  C   UNL A   1      38.435  29.289  28.583  1.00  0.00     0.029 A 
ATOM     50  C   UNL A   1      39.700  29.195  29.306  1.00  0.00     0.049 A 
ATOM     51  H   UNL A   1      40.466  30.538  30.701  1.00  0.00     0.167 HD
ATOM     52  C   UNL A   1      41.950  33.459  33.605  1.00  0.00     0.037 A 
ATOM     53  C   UNL A   1      40.597  28.198  29.182  1.00  0.00     0.037 A 
ATOM     54  C   UNL A   1      42.935  32.412  33.581  1.00  0.00     0.049 A 
ATOM     55  C   UNL A   1      41.848  28.230  30.016  1.00  0.00     0.074 A 
ATOM     56  C   UNL A   1      44.094  32.304  34.331  1.00  0.00     0.029 A 
ATOM     57  N   UNL A   1      42.874  31.288  32.772  1.00  0.00    -0.354 N 
ATOM     58  N   UNL A   1      42.231  29.122  30.896  1.00  0.00    -0.248 NA
ATOM     59  C   UNL A   1      42.790  27.113  29.846  1.00  0.00     0.031 C 
ATOM     60  C   UNL A   1      44.755  31.135  33.946  1.00  0.00     0.029 A 
ATOM     61  C   UNL A   1      43.982  30.488  32.995  1.00  0.00     0.049 A 
ATOM     62  H   UNL A   1      42.151  31.088  32.135  1.00  0.00     0.167 HD
ATOM     63  C   UNL A   1      43.438  28.663  31.406  1.00  0.00     0.074 A 
ATOM     64  C   UNL A   1      43.721  27.406  30.744  1.00  0.00     0.031 C 
ATOM     65  C   UNL A   1      44.241  29.232  32.338  1.00  0.00     0.037 A 
BRANCH  52  66
ATOM     66  C   UNL A   1      42.175  34.621  34.527  1.00  0.00     0.057 A 
ATOM     67  C   UNL A   1      42.874  35.755  34.097  1.00  0.00     0.134 A 
ATOM     68  C   UNL A   1      41.760  34.586  35.866  1.00  0.00     0.134 A 
ATOM     69  F   UNL A   1      43.304  35.851  32.830  1.00  0.00    -0.206 F 
ATOM     70  C   UNL A   1      43.164  36.807  34.968  1.00  0.00     0.040 A 
ATOM     71  C   UNL A   1      42.021  35.643  36.739  1.00  0.00     0.040 A 
ATOM     72  F   UNL A   1      41.075  33.534  36.337  1.00  0.00    -0.206 F 
ATOM     73  C   UNL A   1      42.734  36.754  36.292  1.00  0.00     0.006 A 
ENDBRANCH  52  66
BRANCH  53  74
ATOM     74  C   UNL A   1      40.321  27.063  28.266  1.00  0.00     0.057 A 
ATOM     75  C   UNL A   1      40.878  27.001  26.983  1.00  0.00     0.134 A 
ATOM     76  C   UNL A   1      39.475  26.016  28.651  1.00  0.00     0.134 A 
ATOM     77  F   UNL A   1      41.691  27.977  26.550  1.00  0.00    -0.206 F 
ATOM     78  C   UNL A   1      40.597  25.946  26.113  1.00  0.00     0.040 A 
ATOM     79  C   UNL A   1      39.204  24.943  27.802  1.00  0.00     0.040 A 
ATOM     80  F   UNL A   1      38.923  26.011  29.873  1.00  0.00    -0.206 F 
ATOM     81  C   UNL A   1      39.761  24.909  26.525  1.00  0.00     0.006 A 
ENDBRANCH  53  74
BRANCH  65  82
ATOM     82  C   UNL A   1      45.485  28.492  32.732  1.00  0.00     0.057 A 
ATOM     83  C   UNL A   1      46.681  28.691  32.030  1.00  0.00     0.134 A 
ATOM     84  C   UNL A   1      45.481  27.527  33.746  1.00  0.00     0.134 A 
ATOM     85  F   UNL A   1      46.750  29.592  31.039  1.00  0.00    -0.206 F 
ATOM     86  C   UNL A   1      47.825  27.944  32.312  1.00  0.00     0.040 A 
ATOM     87  C   UNL A   1      46.626  26.792  34.056  1.00  0.00     0.040 A 
ATOM     88  F   UNL A   1      44.370  27.296  34.461  1.00  0.00    -0.206 F 
ATOM     89  C   UNL A   1      47.800  26.992  33.330  1.00  0.00     0.006 A 
ENDBRANCH  65  82
ENDBRANCH  39  40
ENDBRANCH  31  34
ENDBRANCH  29  30
ENDBRANCH  28  29
ENDBRANCH   1  28
TORSDOF 15
ENDMDL
