MODEL 1
REMARK VINA RESULT:     -11.5      0.000      0.000
REMARK SMILES CNC(=O)C[N@H+]1CC[C@@H](C(=O)NCCCCNC(=O)c2ccc(-c3c4nc(c(-c5c(F)cccc5F)c5ccc([nH]5)c(-c5c(F)cccc5F)c5nc(c(-c6c(F)cccc6F)c6ccc3[nH]6)C=C5)C=C4)cc2)[C@H]1C
REMARK SMILES IDX 14 1 13 2 12 3 10 4 11 5 9 7 6 8 7 9 74 10 8 12 75 13 5 14
REMARK SMILES IDX 3 15 1 16 2 17 4 19 15 20 16 21 17 22 18 23 19 25 20 26
REMARK SMILES IDX 21 27 73 28 22 29 72 30 23 31 24 32 25 33 66 34 26 35 71 36
REMARK SMILES IDX 65 37 67 38 27 39 70 40 64 41 63 42 28 44 54 45 37 46 53 47
REMARK SMILES IDX 38 48 41 49 52 50 68 51 39 52 40 53 51 55 69 56 42 57 29 58
REMARK SMILES IDX 30 59 35 60 31 61 32 62 34 63 36 64 33 65 55 66 56 67 61 68
REMARK SMILES IDX 57 69 58 70 60 71 62 72 59 73 43 74 44 75 49 76 45 77 46 78
REMARK SMILES IDX 48 79 50 80 47 81
REMARK H PARENT 12 6 6 11 2 18 17 24 67 43 41 54
REMARK Flexibility Score: inf
ROOT
ATOM      1  C   UNL A   1      31.934  30.505  26.818  1.00  0.00     0.023 C 
ENDROOT
BRANCH   1   2
ATOM      2  C   UNL A   1      33.378  30.068  26.571  1.00  0.00     0.116 C 
BRANCH   2   3
ATOM      3  N   UNL A   1      33.540  29.462  25.265  1.00  0.00    -0.356 N 
ATOM      4  C   UNL A   1      33.658  28.163  24.892  1.00  0.00     0.229 C 
ATOM      5  O   UNL A   1      33.862  27.946  23.693  1.00  0.00    -0.275 OA
ATOM      6  H   UNL A   1      33.567  30.104  24.520  1.00  0.00     0.163 HD
BRANCH   4   7
ATOM      7  C   UNL A   1      33.533  26.996  25.861  1.00  0.00     0.142 C 
ATOM      8  N   UNL A   1      32.169  25.076  26.417  1.00  0.00    -0.324 N 
ATOM      9  C   UNL A   1      33.529  24.613  26.132  1.00  0.00     0.263 C 
ATOM     10  C   UNL A   1      32.141  26.554  26.350  1.00  0.00     0.194 C 
ATOM     11  H   UNL A   1      31.885  24.873  27.374  1.00  0.00     0.348 HD
ATOM     12  C   UNL A   1      34.262  25.736  25.429  1.00  0.00     0.081 C 
ATOM     13  C   UNL A   1      30.929  27.237  25.721  1.00  0.00     0.076 C 
BRANCH   8  14
ATOM     14  C   UNL A   1      31.148  24.299  25.698  1.00  0.00     0.363 C 
BRANCH  14  15
ATOM     15  C   UNL A   1      30.618  23.109  26.505  1.00  0.00     0.274 C 
ATOM     16  C   UNL A   1      31.910  21.417  25.147  1.00  0.00     0.143 C 
ATOM     17  N   UNL A   1      30.999  21.837  26.183  1.00  0.00    -0.354 N 
ATOM     18  H   UNL A   1      30.603  21.118  26.727  1.00  0.00     0.163 HD
ATOM     19  O   UNL A   1      29.806  23.268  27.420  1.00  0.00    -0.269 OA
ENDBRANCH  14  15
ENDBRANCH   8  14
ENDBRANCH   4   7
ENDBRANCH   2   3
ENDBRANCH   1   2
BRANCH   1  20
ATOM     20  C   UNL A   1      31.696  32.010  26.784  1.00  0.00     0.023 C 
BRANCH  20  21
ATOM     21  C   UNL A   1      32.841  32.852  27.318  1.00  0.00     0.116 C 
BRANCH  21  22
ATOM     22  N   UNL A   1      32.450  34.214  27.648  1.00  0.00    -0.352 N 
ATOM     23  C   UNL A   1      32.965  35.055  28.609  1.00  0.00     0.251 C 
ATOM     24  H   UNL A   1      31.715  34.586  27.109  1.00  0.00     0.163 HD
ATOM     25  O   UNL A   1      32.447  36.137  28.835  1.00  0.00    -0.269 OA
BRANCH  23  26
ATOM     26  C   UNL A   1      34.136  34.610  29.391  1.00  0.00     0.039 A 
ATOM     27  C   UNL A   1      33.940  34.110  30.681  1.00  0.00     0.014 A 
ATOM     28  C   UNL A   1      35.410  34.629  28.821  1.00  0.00     0.014 A 
ATOM     29  C   UNL A   1      35.019  33.554  31.370  1.00  0.00     0.010 A 
ATOM     30  C   UNL A   1      36.457  33.985  29.467  1.00  0.00     0.010 A 
ATOM     31  C   UNL A   1      36.275  33.450  30.751  1.00  0.00    -0.014 A 
BRANCH  31  32
ATOM     32  C   UNL A   1      37.424  32.807  31.432  1.00  0.00     0.031 A 
ATOM     33  C   UNL A   1      38.106  31.631  30.791  1.00  0.00     0.074 A 
ATOM     34  C   UNL A   1      37.806  33.231  32.652  1.00  0.00     0.049 A 
ATOM     35  N   UNL A   1      39.076  30.884  31.251  1.00  0.00    -0.248 NA
ATOM     36  C   UNL A   1      37.601  31.216  29.471  1.00  0.00     0.031 C 
ATOM     37  C   UNL A   1      37.189  34.327  33.403  1.00  0.00     0.029 A 
ATOM     38  N   UNL A   1      38.808  32.787  33.477  1.00  0.00    -0.354 N 
ATOM     39  C   UNL A   1      39.279  29.901  30.291  1.00  0.00     0.074 A 
ATOM     40  C   UNL A   1      38.288  30.105  29.258  1.00  0.00     0.031 C 
ATOM     41  C   UNL A   1      37.855  34.497  34.557  1.00  0.00     0.029 A 
ATOM     42  C   UNL A   1      38.919  33.503  34.643  1.00  0.00     0.049 A 
ATOM     43  H   UNL A   1      39.391  32.026  33.253  1.00  0.00     0.167 HD
ATOM     44  C   UNL A   1      40.227  28.935  30.253  1.00  0.00     0.037 A 
ATOM     45  C   UNL A   1      39.791  33.375  35.660  1.00  0.00     0.037 A 
ATOM     46  C   UNL A   1      41.234  28.760  31.262  1.00  0.00     0.049 A 
ATOM     47  C   UNL A   1      40.837  32.299  35.597  1.00  0.00     0.074 A 
ATOM     48  C   UNL A   1      42.281  27.856  31.292  1.00  0.00     0.029 A 
ATOM     49  N   UNL A   1      41.321  29.512  32.425  1.00  0.00    -0.354 N 
ATOM     50  N   UNL A   1      41.060  31.416  34.654  1.00  0.00    -0.248 NA
ATOM     51  C   UNL A   1      41.755  32.204  36.741  1.00  0.00     0.031 C 
ATOM     52  C   UNL A   1      42.982  28.040  32.489  1.00  0.00     0.029 A 
ATOM     53  C   UNL A   1      42.395  29.084  33.187  1.00  0.00     0.049 A 
ATOM     54  H   UNL A   1      40.709  30.243  32.671  1.00  0.00     0.167 HD
ATOM     55  C   UNL A   1      42.160  30.681  35.074  1.00  0.00     0.074 A 
ATOM     56  C   UNL A   1      42.563  31.227  36.354  1.00  0.00     0.031 C 
ATOM     57  C   UNL A   1      42.782  29.647  34.455  1.00  0.00     0.037 A 
BRANCH  44  58
ATOM     58  C   UNL A   1      40.210  28.011  29.071  1.00  0.00     0.057 A 
ATOM     59  C   UNL A   1      39.499  26.802  29.089  1.00  0.00     0.134 A 
ATOM     60  C   UNL A   1      40.924  28.321  27.907  1.00  0.00     0.134 A 
ATOM     61  F   UNL A   1      38.808  26.437  30.181  1.00  0.00    -0.206 F 
ATOM     62  C   UNL A   1      39.535  25.916  28.012  1.00  0.00     0.040 A 
ATOM     63  C   UNL A   1      40.943  27.456  26.811  1.00  0.00     0.040 A 
ATOM     64  F   UNL A   1      41.622  29.462  27.819  1.00  0.00    -0.206 F 
ATOM     65  C   UNL A   1      40.257  26.244  26.867  1.00  0.00     0.006 A 
ENDBRANCH  44  58
BRANCH  45  66
ATOM     66  C   UNL A   1      39.748  34.329  36.796  1.00  0.00     0.057 A 
ATOM     67  C   UNL A   1      40.393  35.568  36.710  1.00  0.00     0.134 A 
ATOM     68  C   UNL A   1      39.065  34.036  37.982  1.00  0.00     0.134 A 
ATOM     69  F   UNL A   1      41.077  35.896  35.605  1.00  0.00    -0.206 F 
ATOM     70  C   UNL A   1      40.370  36.480  37.766  1.00  0.00     0.040 A 
ATOM     71  C   UNL A   1      39.018  34.947  39.040  1.00  0.00     0.040 A 
ATOM     72  F   UNL A   1      38.422  32.867  38.124  1.00  0.00    -0.206 F 
ATOM     73  C   UNL A   1      39.676  36.171  38.935  1.00  0.00     0.006 A 
ENDBRANCH  45  66
BRANCH  57  74
ATOM     74  C   UNL A   1      43.981  29.064  35.140  1.00  0.00     0.057 A 
ATOM     75  C   UNL A   1      43.871  28.001  36.043  1.00  0.00     0.134 A 
ATOM     76  C   UNL A   1      45.265  29.549  34.859  1.00  0.00     0.134 A 
ATOM     77  F   UNL A   1      42.667  27.502  36.363  1.00  0.00    -0.206 F 
ATOM     78  C   UNL A   1      44.997  27.452  36.661  1.00  0.00     0.040 A 
ATOM     79  C   UNL A   1      46.400  28.993  35.453  1.00  0.00     0.040 A 
ATOM     80  F   UNL A   1      45.438  30.562  33.997  1.00  0.00    -0.206 F 
ATOM     81  C   UNL A   1      46.265  27.944  36.360  1.00  0.00     0.006 A 
ENDBRANCH  57  74
ENDBRANCH  31  32
ENDBRANCH  23  26
ENDBRANCH  21  22
ENDBRANCH  20  21
ENDBRANCH   1  20
TORSDOF 13
ENDMDL
MODEL 2
REMARK VINA RESULT:     -11.4      0.793      6.589
REMARK SMILES CNC(=O)C[N@H+]1CC[C@@H](C(=O)NCCCCNC(=O)c2ccc(-c3c4nc(c(-c5c(F)cccc5F)c5ccc([nH]5)c(-c5c(F)cccc5F)c5nc(c(-c6c(F)cccc6F)c6ccc3[nH]6)C=C5)C=C4)cc2)[C@H]1C
REMARK SMILES IDX 14 1 13 2 12 3 10 4 11 5 9 7 6 8 7 9 74 10 8 12 75 13 5 14
REMARK SMILES IDX 3 15 1 16 2 17 4 19 15 20 16 21 17 22 18 23 19 25 20 26
REMARK SMILES IDX 21 27 73 28 22 29 72 30 23 31 24 32 25 33 66 34 26 35 71 36
REMARK SMILES IDX 65 37 67 38 27 39 70 40 64 41 63 42 28 44 54 45 37 46 53 47
REMARK SMILES IDX 38 48 41 49 52 50 68 51 39 52 40 53 51 55 69 56 42 57 29 58
REMARK SMILES IDX 30 59 35 60 31 61 32 62 34 63 36 64 33 65 55 66 56 67 61 68
REMARK SMILES IDX 57 69 58 70 60 71 62 72 59 73 43 74 44 75 49 76 45 77 46 78
REMARK SMILES IDX 48 79 50 80 47 81
REMARK H PARENT 12 6 6 11 2 18 17 24 67 43 41 54
REMARK Flexibility Score: inf
ROOT
ATOM      1  C   UNL A   1      31.791  30.600  26.631  1.00  0.00     0.023 C 
ENDROOT
BRANCH   1   2
ATOM      2  C   UNL A   1      33.237  30.194  26.348  1.00  0.00     0.116 C 
BRANCH   2   3
ATOM      3  N   UNL A   1      33.376  29.577  25.044  1.00  0.00    -0.356 N 
ATOM      4  C   UNL A   1      33.521  28.277  24.683  1.00  0.00     0.229 C 
ATOM      5  O   UNL A   1      33.693  28.051  23.480  1.00  0.00    -0.275 OA
ATOM      6  H   UNL A   1      33.362  30.210  24.291  1.00  0.00     0.163 HD
BRANCH   4   7
ATOM      7  C   UNL A   1      33.459  27.119  25.668  1.00  0.00     0.142 C 
ATOM      8  N   UNL A   1      32.230  25.111  26.226  1.00  0.00    -0.324 N 
ATOM      9  C   UNL A   1      33.627  24.747  25.981  1.00  0.00     0.263 C 
ATOM     10  C   UNL A   1      32.093  26.582  26.133  1.00  0.00     0.194 C 
ATOM     11  H   UNL A   1      31.939  24.902  27.180  1.00  0.00     0.348 HD
ATOM     12  C   UNL A   1      34.291  25.911  25.275  1.00  0.00     0.081 C 
ATOM     13  C   UNL A   1      30.849  27.162  25.465  1.00  0.00     0.076 C 
BRANCH   8  14
ATOM     14  C   UNL A   1      31.288  24.248  25.497  1.00  0.00     0.363 C 
BRANCH  14  15
ATOM     15  C   UNL A   1      30.698  23.131  26.366  1.00  0.00     0.274 C 
ATOM     16  C   UNL A   1      31.932  21.309  25.128  1.00  0.00     0.143 C 
ATOM     17  N   UNL A   1      31.028  21.828  26.125  1.00  0.00    -0.354 N 
ATOM     18  H   UNL A   1      30.595  21.160  26.705  1.00  0.00     0.163 HD
ATOM     19  O   UNL A   1      29.883  23.379  27.258  1.00  0.00    -0.269 OA
ENDBRANCH  14  15
ENDBRANCH   8  14
ENDBRANCH   4   7
ENDBRANCH   2   3
ENDBRANCH   1   2
BRANCH   1  20
ATOM     20  C   UNL A   1      31.566  32.091  26.853  1.00  0.00     0.023 C 
BRANCH  20  21
ATOM     21  C   UNL A   1      32.805  32.873  27.253  1.00  0.00     0.116 C 
BRANCH  21  22
ATOM     22  N   UNL A   1      32.511  34.219  27.722  1.00  0.00    -0.352 N 
ATOM     23  C   UNL A   1      33.094  34.926  28.750  1.00  0.00     0.251 C 
ATOM     24  H   UNL A   1      31.794  34.689  27.238  1.00  0.00     0.163 HD
ATOM     25  O   UNL A   1      32.653  36.012  29.091  1.00  0.00    -0.269 OA
BRANCH  23  26
ATOM     26  C   UNL A   1      34.244  34.330  29.459  1.00  0.00     0.039 A 
ATOM     27  C   UNL A   1      34.007  33.469  30.533  1.00  0.00     0.014 A 
ATOM     28  C   UNL A   1      35.546  34.577  29.020  1.00  0.00     0.014 A 
ATOM     29  C   UNL A   1      35.078  32.790  31.115  1.00  0.00     0.010 A 
ATOM     30  C   UNL A   1      36.595  33.826  29.533  1.00  0.00     0.010 A 
ATOM     31  C   UNL A   1      36.373  32.932  30.591  1.00  0.00    -0.014 A 
BRANCH  31  32
ATOM     32  C   UNL A   1      37.521  32.176  31.147  1.00  0.00     0.031 A 
ATOM     33  C   UNL A   1      38.039  32.510  32.518  1.00  0.00     0.074 A 
ATOM     34  C   UNL A   1      38.140  31.245  30.395  1.00  0.00     0.049 A 
ATOM     35  N   UNL A   1      39.072  32.023  33.155  1.00  0.00    -0.248 NA
ATOM     36  C   UNL A   1      37.321  33.564  33.254  1.00  0.00     0.031 C 
ATOM     37  C   UNL A   1      37.767  30.868  29.030  1.00  0.00     0.029 A 
ATOM     38  N   UNL A   1      39.218  30.445  30.677  1.00  0.00    -0.354 N 
ATOM     39  C   UNL A   1      39.140  32.725  34.351  1.00  0.00     0.074 A 
ATOM     40  C   UNL A   1      38.088  33.717  34.321  1.00  0.00     0.031 C 
ATOM     41  C   UNL A   1      38.574  29.880  28.611  1.00  0.00     0.029 A 
ATOM     42  C   UNL A   1      39.542  29.580  29.661  1.00  0.00     0.049 A 
ATOM     43  H   UNL A   1      39.713  30.489  31.527  1.00  0.00     0.167 HD
ATOM     44  C   UNL A   1      39.979  32.538  35.398  1.00  0.00     0.037 A 
ATOM     45  C   UNL A   1      40.505  28.642  29.593  1.00  0.00     0.037 A 
ATOM     46  C   UNL A   1      40.997  31.526  35.439  1.00  0.00     0.049 A 
ATOM     47  C   UNL A   1      41.424  28.450  30.766  1.00  0.00     0.074 A 
ATOM     48  C   UNL A   1      41.859  31.208  36.473  1.00  0.00     0.029 A 
ATOM     49  N   UNL A   1      41.288  30.660  34.394  1.00  0.00    -0.354 N 
ATOM     50  N   UNL A   1      41.437  29.077  31.919  1.00  0.00    -0.248 NA
ATOM     51  C   UNL A   1      42.460  27.417  30.630  1.00  0.00     0.031 C 
ATOM     52  C   UNL A   1      42.694  30.171  36.042  1.00  0.00     0.029 A 
ATOM     53  C   UNL A   1      42.327  29.818  34.752  1.00  0.00     0.049 A 
ATOM     54  H   UNL A   1      40.824  30.648  33.526  1.00  0.00     0.167 HD
ATOM     55  C   UNL A   1      42.461  28.495  32.655  1.00  0.00     0.074 A 
ATOM     56  C   UNL A   1      43.039  27.461  31.822  1.00  0.00     0.031 C 
ATOM     57  C   UNL A   1      42.882  28.791  33.909  1.00  0.00     0.037 A 
BRANCH  44  58
ATOM     58  C   UNL A   1      39.808  33.451  36.576  1.00  0.00     0.057 A 
ATOM     59  C   UNL A   1      40.531  34.647  36.694  1.00  0.00     0.134 A 
ATOM     60  C   UNL A   1      38.927  33.125  37.615  1.00  0.00     0.134 A 
ATOM     61  F   UNL A   1      41.405  35.009  35.742  1.00  0.00    -0.206 F 
ATOM     62  C   UNL A   1      40.417  35.463  37.820  1.00  0.00     0.040 A 
ATOM     63  C   UNL A   1      38.782  33.949  38.733  1.00  0.00     0.040 A 
ATOM     64  F   UNL A   1      38.202  31.999  37.566  1.00  0.00    -0.206 F 
ATOM     65  C   UNL A   1      39.537  35.116  38.843  1.00  0.00     0.006 A 
ENDBRANCH  44  58
BRANCH  45  66
ATOM     66  C   UNL A   1      40.612  27.775  28.394  1.00  0.00     0.057 A 
ATOM     67  C   UNL A   1      39.950  26.542  28.347  1.00  0.00     0.134 A 
ATOM     68  C   UNL A   1      41.361  28.150  27.273  1.00  0.00     0.134 A 
ATOM     69  F   UNL A   1      39.231  26.123  29.398  1.00  0.00    -0.206 F 
ATOM     70  C   UNL A   1      40.037  25.708  27.232  1.00  0.00     0.040 A 
ATOM     71  C   UNL A   1      41.441  27.334  26.143  1.00  0.00     0.040 A 
ATOM     72  F   UNL A   1      42.013  29.323  27.256  1.00  0.00    -0.206 F 
ATOM     73  C   UNL A   1      40.782  26.106  26.123  1.00  0.00     0.006 A 
ENDBRANCH  45  66
BRANCH  57  74
ATOM     74  C   UNL A   1      44.001  27.962  34.465  1.00  0.00     0.057 A 
ATOM     75  C   UNL A   1      45.337  28.363  34.364  1.00  0.00     0.134 A 
ATOM     76  C   UNL A   1      43.730  26.767  35.145  1.00  0.00     0.134 A 
ATOM     77  F   UNL A   1      45.662  29.491  33.713  1.00  0.00    -0.206 F 
ATOM     78  C   UNL A   1      46.371  27.594  34.903  1.00  0.00     0.040 A 
ATOM     79  C   UNL A   1      44.753  26.001  35.708  1.00  0.00     0.040 A 
ATOM     80  F   UNL A   1      42.469  26.331  35.282  1.00  0.00    -0.206 F 
ATOM     81  C   UNL A   1      46.078  26.413  35.582  1.00  0.00     0.006 A 
ENDBRANCH  57  74
ENDBRANCH  31  32
ENDBRANCH  23  26
ENDBRANCH  21  22
ENDBRANCH  20  21
ENDBRANCH   1  20
TORSDOF 13
ENDMDL
MODEL 3
REMARK VINA RESULT:     -11.1      4.761      9.465
REMARK SMILES CNC(=O)C[N@H+]1CC[C@@H](C(=O)NCCCCNC(=O)c2ccc(-c3c4nc(c(-c5c(F)cccc5F)c5ccc([nH]5)c(-c5c(F)cccc5F)c5nc(c(-c6c(F)cccc6F)c6ccc3[nH]6)C=C5)C=C4)cc2)[C@H]1C
REMARK SMILES IDX 14 1 13 2 12 3 10 4 11 5 9 7 6 8 7 9 74 10 8 12 75 13 5 14
REMARK SMILES IDX 3 15 1 16 2 17 4 19 15 20 16 21 17 22 18 23 19 25 20 26
REMARK SMILES IDX 21 27 73 28 22 29 72 30 23 31 24 32 25 33 66 34 26 35 71 36
REMARK SMILES IDX 65 37 67 38 27 39 70 40 64 41 63 42 28 44 54 45 37 46 53 47
REMARK SMILES IDX 38 48 41 49 52 50 68 51 39 52 40 53 51 55 69 56 42 57 29 58
REMARK SMILES IDX 30 59 35 60 31 61 32 62 34 63 36 64 33 65 55 66 56 67 61 68
REMARK SMILES IDX 57 69 58 70 60 71 62 72 59 73 43 74 44 75 49 76 45 77 46 78
REMARK SMILES IDX 48 79 50 80 47 81
REMARK H PARENT 12 6 6 11 2 18 17 24 67 43 41 54
REMARK Flexibility Score: inf
ROOT
ATOM      1  C   UNL A   1      39.059  22.613  26.380  1.00  0.00     0.023 C 
ENDROOT
BRANCH   1   2
ATOM      2  C   UNL A   1      37.797  23.427  26.092  1.00  0.00     0.116 C 
BRANCH   2   3
ATOM      3  N   UNL A   1      36.595  22.644  26.294  1.00  0.00    -0.356 N 
ATOM      4  C   UNL A   1      35.286  22.961  26.136  1.00  0.00     0.229 C 
ATOM      5  O   UNL A   1      34.462  22.098  26.459  1.00  0.00    -0.275 OA
ATOM      6  H   UNL A   1      36.758  21.722  26.597  1.00  0.00     0.163 HD
BRANCH   4   7
ATOM      7  C   UNL A   1      34.805  24.290  25.572  1.00  0.00     0.142 C 
ATOM      8  N   UNL A   1      33.525  25.285  23.776  1.00  0.00    -0.324 N 
ATOM      9  C   UNL A   1      32.920  25.678  25.050  1.00  0.00     0.263 C 
ATOM     10  C   UNL A   1      34.749  24.498  24.047  1.00  0.00     0.194 C 
ATOM     11  H   UNL A   1      33.867  26.087  23.248  1.00  0.00     0.348 HD
ATOM     12  C   UNL A   1      33.475  24.767  26.125  1.00  0.00     0.081 C 
ATOM     13  C   UNL A   1      35.057  23.292  23.164  1.00  0.00     0.076 C 
BRANCH   8  14
ATOM     14  C   UNL A   1      32.534  24.774  22.816  1.00  0.00     0.363 C 
BRANCH  14  15
ATOM     15  C   UNL A   1      32.522  25.548  21.493  1.00  0.00     0.274 C 
ATOM     16  C   UNL A   1      30.884  27.273  22.341  1.00  0.00     0.143 C 
ATOM     17  N   UNL A   1      31.739  26.658  21.355  1.00  0.00    -0.354 N 
ATOM     18  H   UNL A   1      31.761  27.094  20.472  1.00  0.00     0.163 HD
ATOM     19  O   UNL A   1      33.175  25.161  20.521  1.00  0.00    -0.269 OA
ENDBRANCH  14  15
ENDBRANCH   8  14
ENDBRANCH   4   7
ENDBRANCH   2   3
ENDBRANCH   1   2
BRANCH   1  20
ATOM     20  C   UNL A   1      39.169  21.295  25.624  1.00  0.00     0.023 C 
BRANCH  20  21
ATOM     21  C   UNL A   1      39.580  20.103  26.470  1.00  0.00     0.116 C 
BRANCH  21  22
ATOM     22  N   UNL A   1      40.704  19.362  25.915  1.00  0.00    -0.352 N 
ATOM     23  C   UNL A   1      42.022  19.744  25.801  1.00  0.00     0.251 C 
ATOM     24  H   UNL A   1      40.491  18.464  25.574  1.00  0.00     0.163 HD
ATOM     25  O   UNL A   1      42.825  19.044  25.205  1.00  0.00    -0.269 OA
BRANCH  23  26
ATOM     26  C   UNL A   1      42.441  21.036  26.380  1.00  0.00     0.039 A 
ATOM     27  C   UNL A   1      42.795  22.080  25.523  1.00  0.00     0.014 A 
ATOM     28  C   UNL A   1      42.421  21.226  27.763  1.00  0.00     0.014 A 
ATOM     29  C   UNL A   1      43.053  23.344  26.056  1.00  0.00     0.010 A 
ATOM     30  C   UNL A   1      42.578  22.505  28.279  1.00  0.00     0.010 A 
ATOM     31  C   UNL A   1      42.904  23.575  27.433  1.00  0.00    -0.014 A 
BRANCH  31  32
ATOM     32  C   UNL A   1      43.108  24.921  28.020  1.00  0.00     0.031 A 
ATOM     33  C   UNL A   1      44.485  25.346  28.445  1.00  0.00     0.074 A 
ATOM     34  C   UNL A   1      42.051  25.727  28.237  1.00  0.00     0.049 A 
ATOM     35  N   UNL A   1      44.865  26.446  29.044  1.00  0.00    -0.248 NA
ATOM     36  C   UNL A   1      45.576  24.388  28.200  1.00  0.00     0.031 C 
ATOM     37  C   UNL A   1      40.657  25.406  27.918  1.00  0.00     0.029 A 
ATOM     38  N   UNL A   1      41.986  26.985  28.779  1.00  0.00    -0.354 N 
ATOM     39  C   UNL A   1      46.228  26.300  29.266  1.00  0.00     0.074 A 
ATOM     40  C   UNL A   1      46.595  24.980  28.801  1.00  0.00     0.031 C 
ATOM     41  C   UNL A   1      39.883  26.459  28.230  1.00  0.00     0.029 A 
ATOM     42  C   UNL A   1      40.718  27.510  28.802  1.00  0.00     0.049 A 
ATOM     43  H   UNL A   1      42.775  27.465  29.120  1.00  0.00     0.167 HD
ATOM     44  C   UNL A   1      47.105  27.196  29.777  1.00  0.00     0.037 A 
ATOM     45  C   UNL A   1      40.282  28.711  29.227  1.00  0.00     0.037 A 
ATOM     46  C   UNL A   1      46.743  28.520  30.202  1.00  0.00     0.049 A 
ATOM     47  C   UNL A   1      41.272  29.692  29.788  1.00  0.00     0.074 A 
ATOM     48  C   UNL A   1      47.561  29.530  30.675  1.00  0.00     0.029 A 
ATOM     49  N   UNL A   1      45.449  29.019  30.199  1.00  0.00    -0.354 N 
ATOM     50  N   UNL A   1      42.569  29.566  29.934  1.00  0.00    -0.248 NA
ATOM     51  C   UNL A   1      40.736  30.982  30.244  1.00  0.00     0.031 C 
ATOM     52  C   UNL A   1      46.756  30.631  30.990  1.00  0.00     0.029 A 
ATOM     53  C   UNL A   1      45.442  30.319  30.677  1.00  0.00     0.049 A 
ATOM     54  H   UNL A   1      44.652  28.523  29.902  1.00  0.00     0.167 HD
ATOM     55  C   UNL A   1      43.009  30.770  30.468  1.00  0.00     0.074 A 
ATOM     56  C   UNL A   1      41.841  31.614  30.613  1.00  0.00     0.031 C 
ATOM     57  C   UNL A   1      44.268  31.143  30.807  1.00  0.00     0.037 A 
BRANCH  44  58
ATOM     58  C   UNL A   1      48.536  26.759  29.889  1.00  0.00     0.057 A 
ATOM     59  C   UNL A   1      49.028  26.131  31.043  1.00  0.00     0.134 A 
ATOM     60  C   UNL A   1      49.438  26.982  28.842  1.00  0.00     0.134 A 
ATOM     61  F   UNL A   1      48.220  25.904  32.090  1.00  0.00    -0.206 F 
ATOM     62  C   UNL A   1      50.373  25.783  31.168  1.00  0.00     0.040 A 
ATOM     63  C   UNL A   1      50.780  26.609  28.944  1.00  0.00     0.040 A 
ATOM     64  F   UNL A   1      49.035  27.573  27.708  1.00  0.00    -0.206 F 
ATOM     65  C   UNL A   1      51.254  26.019  30.115  1.00  0.00     0.006 A 
ENDBRANCH  44  58
BRANCH  45  66
ATOM     66  C   UNL A   1      38.851  29.074  29.082  1.00  0.00     0.057 A 
ATOM     67  C   UNL A   1      37.984  29.002  30.179  1.00  0.00     0.134 A 
ATOM     68  C   UNL A   1      38.317  29.505  27.862  1.00  0.00     0.134 A 
ATOM     69  F   UNL A   1      38.435  28.579  31.368  1.00  0.00    -0.206 F 
ATOM     70  C   UNL A   1      36.634  29.335  30.066  1.00  0.00     0.040 A 
ATOM     71  C   UNL A   1      36.972  29.861  27.740  1.00  0.00     0.040 A 
ATOM     72  F   UNL A   1      39.099  29.601  26.777  1.00  0.00    -0.206 F 
ATOM     73  C   UNL A   1      36.125  29.771  28.844  1.00  0.00     0.006 A 
ENDBRANCH  45  66
BRANCH  57  74
ATOM     74  C   UNL A   1      44.448  32.535  31.334  1.00  0.00     0.057 A 
ATOM     75  C   UNL A   1      44.412  32.814  32.705  1.00  0.00     0.134 A 
ATOM     76  C   UNL A   1      44.699  33.600  30.459  1.00  0.00     0.134 A 
ATOM     77  F   UNL A   1      44.162  31.839  33.592  1.00  0.00    -0.206 F 
ATOM     78  C   UNL A   1      44.601  34.111  33.188  1.00  0.00     0.040 A 
ATOM     79  C   UNL A   1      44.912  34.896  30.932  1.00  0.00     0.040 A 
ATOM     80  F   UNL A   1      44.752  33.396  29.135  1.00  0.00    -0.206 F 
ATOM     81  C   UNL A   1      44.858  35.154  32.300  1.00  0.00     0.006 A 
ENDBRANCH  57  74
ENDBRANCH  31  32
ENDBRANCH  23  26
ENDBRANCH  21  22
ENDBRANCH  20  21
ENDBRANCH   1  20
TORSDOF 13
ENDMDL
