MODEL 1
REMARK VINA RESULT:     -11.6      0.000      0.000
REMARK SMILES C[C@@H]1CN(C(=O)C[N@H+]2CCO[C@H](CC(=O)NCCCCNC(=O)c3ccc(-c4c5nc(c(-c6c(F)cccc6F)c6ccc([nH]6)c(-c6c(F)cccc6F)c6nc(c(-c7c(F)cccc7F)c7ccc4[nH]7)C=C6)C=C5)cc3)C2)C[C@H](C)O1
REMARK SMILES IDX 17 1 16 2 14 3 15 4 13 6 12 7 8 8 9 9 78 10 10 12 11 13 7 14
REMARK SMILES IDX 5 15 6 16 4 17 1 18 2 19 3 20 82 21 80 22 79 23 81 24 18 25
REMARK SMILES IDX 19 26 20 27 21 28 22 29 23 31 24 32 25 33 77 34 26 35 76 36
REMARK SMILES IDX 27 37 28 38 29 39 70 40 30 41 75 42 69 43 71 44 31 45 74 46
REMARK SMILES IDX 68 47 67 48 32 50 58 51 41 52 57 53 42 54 45 55 56 56 72 57
REMARK SMILES IDX 43 58 44 59 55 61 73 62 46 63 33 64 34 65 39 66 35 67 36 68
REMARK SMILES IDX 38 69 40 70 37 71 59 72 60 73 65 74 61 75 62 76 64 77 66 78
REMARK SMILES IDX 63 79 47 80 48 81 53 82 49 83 50 84 52 85 54 86 51 87
REMARK H PARENT 16 5 8 11 21 30 71 49 45 60
REMARK Flexibility Score: inf
ROOT
ATOM      1  C   UNL A   1      35.966  21.171  25.599  1.00  0.00     0.116 C 
ENDROOT
BRANCH   1   2
ATOM      2  N   UNL A   1      34.804  20.356  25.293  1.00  0.00    -0.356 N 
ATOM      3  C   UNL A   1      33.511  20.457  25.709  1.00  0.00     0.222 C 
ATOM      4  O   UNL A   1      32.706  19.629  25.278  1.00  0.00    -0.275 OA
ATOM      5  H   UNL A   1      34.981  19.603  24.682  1.00  0.00     0.163 HD
BRANCH   3   6
ATOM      6  C   UNL A   1      33.045  21.577  26.616  1.00  0.00     0.138 C 
BRANCH   6   7
ATOM      7  C   UNL A   1      32.546  22.805  25.860  1.00  0.00     0.182 C 
ATOM      8  N   UNL A   1      30.472  23.997  24.949  1.00  0.00    -0.323 N 
ATOM      9  C   UNL A   1      31.032  23.608  23.639  1.00  0.00     0.291 C 
ATOM     10  C   UNL A   1      31.005  23.005  25.928  1.00  0.00     0.295 C 
ATOM     11  H   UNL A   1      29.452  23.978  24.927  1.00  0.00     0.348 HD
ATOM     12  C   UNL A   1      32.551  23.596  23.609  1.00  0.00     0.222 C 
ATOM     13  O   UNL A   1      33.014  22.609  24.511  1.00  0.00    -0.366 OA
BRANCH   8  14
ATOM     14  C   UNL A   1      30.776  25.403  25.323  1.00  0.00     0.363 C 
BRANCH  14  15
ATOM     15  C   UNL A   1      30.116  26.426  24.371  1.00  0.00     0.277 C 
ATOM     16  O   UNL A   1      28.904  26.336  24.137  1.00  0.00    -0.268 OA
BRANCH  15  17
ATOM     17  N   UNL A   1      30.862  27.475  23.848  1.00  0.00    -0.333 N 
ATOM     18  C   UNL A   1      31.804  29.018  26.471  1.00  0.00     0.040 C 
ATOM     19  C   UNL A   1      31.834  29.427  24.999  1.00  0.00     0.135 C 
ATOM     20  C   UNL A   1      30.687  28.897  24.104  1.00  0.00     0.151 C 
ATOM     21  O   UNL A   1      33.118  29.111  24.423  1.00  0.00    -0.372 OA
ATOM     22  C   UNL A   1      33.308  27.741  24.010  1.00  0.00     0.135 C 
ATOM     23  C   UNL A   1      32.131  27.208  23.172  1.00  0.00     0.151 C 
ATOM     24  C   UNL A   1      33.653  26.819  25.176  1.00  0.00     0.040 C 
ENDBRANCH  15  17
ENDBRANCH  14  15
ENDBRANCH   8  14
ENDBRANCH   6   7
ENDBRANCH   3   6
ENDBRANCH   1   2
BRANCH   1  25
ATOM     25  C   UNL A   1      37.109  20.956  24.598  1.00  0.00     0.023 C 
BRANCH  25  26
ATOM     26  C   UNL A   1      38.029  19.785  24.930  1.00  0.00     0.023 C 
BRANCH  26  27
ATOM     27  C   UNL A   1      39.233  20.164  25.773  1.00  0.00     0.116 C 
BRANCH  27  28
ATOM     28  N   UNL A   1      40.221  19.098  25.853  1.00  0.00    -0.352 N 
ATOM     29  C   UNL A   1      41.570  19.206  26.083  1.00  0.00     0.251 C 
ATOM     30  H   UNL A   1      39.879  18.183  25.725  1.00  0.00     0.163 HD
ATOM     31  O   UNL A   1      42.303  18.227  25.984  1.00  0.00    -0.269 OA
BRANCH  29  32
ATOM     32  C   UNL A   1      42.129  20.530  26.413  1.00  0.00     0.039 A 
ATOM     33  C   UNL A   1      42.491  21.389  25.374  1.00  0.00     0.014 A 
ATOM     34  C   UNL A   1      42.231  20.940  27.745  1.00  0.00     0.014 A 
ATOM     35  C   UNL A   1      42.893  22.691  25.673  1.00  0.00     0.010 A 
ATOM     36  C   UNL A   1      42.547  22.260  28.034  1.00  0.00     0.010 A 
ATOM     37  C   UNL A   1      42.886  23.147  27.002  1.00  0.00    -0.014 A 
BRANCH  37  38
ATOM     38  C   UNL A   1      43.238  24.547  27.338  1.00  0.00     0.031 A 
ATOM     39  C   UNL A   1      44.674  24.988  27.300  1.00  0.00     0.074 A 
ATOM     40  C   UNL A   1      42.276  25.399  27.742  1.00  0.00     0.049 A 
ATOM     41  N   UNL A   1      45.193  26.144  27.624  1.00  0.00    -0.248 NA
ATOM     42  C   UNL A   1      45.661  23.986  26.867  1.00  0.00     0.031 C 
ATOM     43  C   UNL A   1      40.853  25.074  27.868  1.00  0.00     0.029 A 
ATOM     44  N   UNL A   1      42.352  26.713  28.130  1.00  0.00    -0.354 N 
ATOM     45  C   UNL A   1      46.563  26.004  27.447  1.00  0.00     0.074 A 
ATOM     46  C   UNL A   1      46.801  24.635  27.048  1.00  0.00     0.031 C 
ATOM     47  C   UNL A   1      40.187  26.168  28.273  1.00  0.00     0.029 A 
ATOM     48  C   UNL A   1      41.139  27.256  28.474  1.00  0.00     0.049 A 
ATOM     49  H   UNL A   1      43.196  27.217  28.158  1.00  0.00     0.167 HD
ATOM     50  C   UNL A   1      47.533  26.939  27.577  1.00  0.00     0.037 A 
ATOM     51  C   UNL A   1      40.831  28.494  28.907  1.00  0.00     0.037 A 
ATOM     52  C   UNL A   1      47.289  28.305  27.953  1.00  0.00     0.049 A 
ATOM     53  C   UNL A   1      41.928  29.510  29.059  1.00  0.00     0.074 A 
ATOM     54  C   UNL A   1      48.195  29.346  28.063  1.00  0.00     0.029 A 
ATOM     55  N   UNL A   1      46.045  28.822  28.285  1.00  0.00    -0.354 N 
ATOM     56  N   UNL A   1      43.212  29.383  28.824  1.00  0.00    -0.248 NA
ATOM     57  C   UNL A   1      41.532  30.844  29.534  1.00  0.00     0.031 C 
ATOM     58  C   UNL A   1      47.506  30.481  28.502  1.00  0.00     0.029 A 
ATOM     59  C   UNL A   1      46.162  30.161  28.619  1.00  0.00     0.049 A 
ATOM     60  H   UNL A   1      45.203  28.312  28.283  1.00  0.00     0.167 HD
ATOM     61  C   UNL A   1      43.771  30.626  29.091  1.00  0.00     0.074 A 
ATOM     62  C   UNL A   1      42.685  31.496  29.496  1.00  0.00     0.031 C 
ATOM     63  C   UNL A   1      45.068  31.013  29.010  1.00  0.00     0.037 A 
BRANCH  50  64
ATOM     64  C   UNL A   1      48.944  26.510  27.302  1.00  0.00     0.057 A 
ATOM     65  C   UNL A   1      49.783  26.036  28.320  1.00  0.00     0.134 A 
ATOM     66  C   UNL A   1      49.467  26.552  26.003  1.00  0.00     0.134 A 
ATOM     67  F   UNL A   1      49.350  25.984  29.589  1.00  0.00    -0.206 F 
ATOM     68  C   UNL A   1      51.100  25.651  28.063  1.00  0.00     0.040 A 
ATOM     69  C   UNL A   1      50.772  26.142  25.729  1.00  0.00     0.040 A 
ATOM     70  F   UNL A   1      48.718  26.990  24.981  1.00  0.00    -0.206 F 
ATOM     71  C   UNL A   1      51.596  25.697  26.761  1.00  0.00     0.006 A 
ENDBRANCH  50  64
BRANCH  51  72
ATOM     72  C   UNL A   1      39.419  28.852  29.197  1.00  0.00     0.057 A 
ATOM     73  C   UNL A   1      38.595  29.389  28.202  1.00  0.00     0.134 A 
ATOM     74  C   UNL A   1      38.864  28.676  30.471  1.00  0.00     0.134 A 
ATOM     75  F   UNL A   1      39.075  29.597  26.968  1.00  0.00    -0.206 F 
ATOM     76  C   UNL A   1      37.275  29.758  28.466  1.00  0.00     0.040 A 
ATOM     77  C   UNL A   1      37.538  29.017  30.742  1.00  0.00     0.040 A 
ATOM     78  F   UNL A   1      39.599  28.157  31.465  1.00  0.00    -0.206 F 
ATOM     79  C   UNL A   1      36.742  29.568  29.740  1.00  0.00     0.006 A 
ENDBRANCH  51  72
BRANCH  63  80
ATOM     80  C   UNL A   1      45.377  32.448  29.325  1.00  0.00     0.057 A 
ATOM     81  C   UNL A   1      45.313  33.449  28.349  1.00  0.00     0.134 A 
ATOM     82  C   UNL A   1      45.702  32.834  30.631  1.00  0.00     0.134 A 
ATOM     83  F   UNL A   1      45.020  33.143  27.077  1.00  0.00    -0.206 F 
ATOM     84  C   UNL A   1      45.585  34.784  28.657  1.00  0.00     0.040 A 
ATOM     85  C   UNL A   1      45.949  34.168  30.957  1.00  0.00     0.040 A 
ATOM     86  F   UNL A   1      45.771  31.924  31.614  1.00  0.00    -0.206 F 
ATOM     87  C   UNL A   1      45.897  35.147  29.966  1.00  0.00     0.006 A 
ENDBRANCH  63  80
ENDBRANCH  37  38
ENDBRANCH  29  32
ENDBRANCH  27  28
ENDBRANCH  26  27
ENDBRANCH  25  26
ENDBRANCH   1  25
TORSDOF 15
ENDMDL
MODEL 2
REMARK VINA RESULT:     -11.5      4.876      9.750
REMARK SMILES C[C@@H]1CN(C(=O)C[N@H+]2CCO[C@H](CC(=O)NCCCCNC(=O)c3ccc(-c4c5nc(c(-c6c(F)cccc6F)c6ccc([nH]6)c(-c6c(F)cccc6F)c6nc(c(-c7c(F)cccc7F)c7ccc4[nH]7)C=C6)C=C5)cc3)C2)C[C@H](C)O1
REMARK SMILES IDX 17 1 16 2 14 3 15 4 13 6 12 7 8 8 9 9 78 10 10 12 11 13 7 14
REMARK SMILES IDX 5 15 6 16 4 17 1 18 2 19 3 20 82 21 80 22 79 23 81 24 18 25
REMARK SMILES IDX 19 26 20 27 21 28 22 29 23 31 24 32 25 33 77 34 26 35 76 36
REMARK SMILES IDX 27 37 28 38 29 39 70 40 30 41 75 42 69 43 71 44 31 45 74 46
REMARK SMILES IDX 68 47 67 48 32 50 58 51 41 52 57 53 42 54 45 55 56 56 72 57
REMARK SMILES IDX 43 58 44 59 55 61 73 62 46 63 33 64 34 65 39 66 35 67 36 68
REMARK SMILES IDX 38 69 40 70 37 71 59 72 60 73 65 74 61 75 62 76 64 77 66 78
REMARK SMILES IDX 63 79 47 80 48 81 53 82 49 83 50 84 52 85 54 86 51 87
REMARK H PARENT 16 5 8 11 21 30 71 49 45 60
REMARK Flexibility Score: inf
ROOT
ATOM      1  C   UNL A   1      32.311  29.828  25.377  1.00  0.00     0.116 C 
ENDROOT
BRANCH   1   2
ATOM      2  N   UNL A   1      31.211  29.681  24.441  1.00  0.00    -0.356 N 
ATOM      3  C   UNL A   1      31.135  29.015  23.256  1.00  0.00     0.222 C 
ATOM      4  O   UNL A   1      30.057  29.037  22.657  1.00  0.00    -0.275 OA
ATOM      5  H   UNL A   1      30.380  30.138  24.709  1.00  0.00     0.163 HD
BRANCH   3   6
ATOM      6  C   UNL A   1      32.299  28.219  22.705  1.00  0.00     0.138 C 
BRANCH   6   7
ATOM      7  C   UNL A   1      32.306  26.761  23.153  1.00  0.00     0.182 C 
ATOM      8  N   UNL A   1      31.723  24.363  22.474  1.00  0.00    -0.323 N 
ATOM      9  C   UNL A   1      30.664  24.512  23.492  1.00  0.00     0.291 C 
ATOM     10  C   UNL A   1      32.033  25.746  22.007  1.00  0.00     0.295 C 
ATOM     11  H   UNL A   1      31.402  23.779  21.701  1.00  0.00     0.348 HD
ATOM     12  C   UNL A   1      31.070  25.389  24.665  1.00  0.00     0.222 C 
ATOM     13  O   UNL A   1      31.305  26.701  24.189  1.00  0.00    -0.366 OA
BRANCH   8  14
ATOM     14  C   UNL A   1      32.919  23.636  22.973  1.00  0.00     0.363 C 
BRANCH  14  15
ATOM     15  C   UNL A   1      32.617  22.159  23.315  1.00  0.00     0.277 C 
ATOM     16  O   UNL A   1      32.048  21.451  22.475  1.00  0.00    -0.268 OA
BRANCH  15  17
ATOM     17  N   UNL A   1      33.047  21.620  24.521  1.00  0.00    -0.333 N 
ATOM     18  C   UNL A   1      36.211  21.927  24.317  1.00  0.00     0.040 C 
ATOM     19  C   UNL A   1      35.339  21.124  25.281  1.00  0.00     0.135 C 
ATOM     20  C   UNL A   1      34.016  20.552  24.715  1.00  0.00     0.151 C 
ATOM     21  O   UNL A   1      35.093  21.887  26.480  1.00  0.00    -0.372 OA
ATOM     22  C   UNL A   1      34.039  22.870  26.400  1.00  0.00     0.135 C 
ATOM     23  C   UNL A   1      32.749  22.304  25.779  1.00  0.00     0.151 C 
ATOM     24  C   UNL A   1      34.490  24.161  25.723  1.00  0.00     0.040 C 
ENDBRANCH  15  17
ENDBRANCH  14  15
ENDBRANCH   8  14
ENDBRANCH   6   7
ENDBRANCH   3   6
ENDBRANCH   1   2
BRANCH   1  25
ATOM     25  C   UNL A   1      31.860  30.418  26.719  1.00  0.00     0.023 C 
BRANCH  25  26
ATOM     26  C   UNL A   1      31.657  31.931  26.710  1.00  0.00     0.023 C 
BRANCH  26  27
ATOM     27  C   UNL A   1      32.768  32.708  27.393  1.00  0.00     0.116 C 
BRANCH  27  28
ATOM     28  N   UNL A   1      32.412  34.098  27.638  1.00  0.00    -0.352 N 
ATOM     29  C   UNL A   1      32.965  34.968  28.544  1.00  0.00     0.251 C 
ATOM     30  H   UNL A   1      31.681  34.459  27.086  1.00  0.00     0.163 HD
ATOM     31  O   UNL A   1      32.468  36.073  28.736  1.00  0.00    -0.269 OA
BRANCH  29  32
ATOM     32  C   UNL A   1      34.149  34.536  29.311  1.00  0.00     0.039 A 
ATOM     33  C   UNL A   1      33.968  34.005  30.589  1.00  0.00     0.014 A 
ATOM     34  C   UNL A   1      35.421  34.597  28.737  1.00  0.00     0.014 A 
ATOM     35  C   UNL A   1      35.064  33.471  31.267  1.00  0.00     0.010 A 
ATOM     36  C   UNL A   1      36.492  33.987  29.377  1.00  0.00     0.010 A 
ATOM     37  C   UNL A   1      36.325  33.423  30.650  1.00  0.00    -0.014 A 
BRANCH  37  38
ATOM     38  C   UNL A   1      37.488  32.793  31.320  1.00  0.00     0.031 A 
ATOM     39  C   UNL A   1      38.154  31.600  30.696  1.00  0.00     0.074 A 
ATOM     40  C   UNL A   1      37.899  33.253  32.517  1.00  0.00     0.049 A 
ATOM     41  N   UNL A   1      39.136  30.867  31.156  1.00  0.00    -0.248 NA
ATOM     42  C   UNL A   1      37.628  31.152  29.397  1.00  0.00     0.031 C 
ATOM     43  C   UNL A   1      37.300  34.374  33.247  1.00  0.00     0.029 A 
ATOM     44  N   UNL A   1      38.913  32.827  33.337  1.00  0.00    -0.354 N 
ATOM     45  C   UNL A   1      39.334  29.869  30.211  1.00  0.00     0.074 A 
ATOM     46  C   UNL A   1      38.332  30.051  29.185  1.00  0.00     0.031 C 
ATOM     47  C   UNL A   1      37.979  34.566  34.390  1.00  0.00     0.029 A 
ATOM     48  C   UNL A   1      39.030  33.559  34.493  1.00  0.00     0.049 A 
ATOM     49  H   UNL A   1      39.501  32.070  33.116  1.00  0.00     0.167 HD
ATOM     50  C   UNL A   1      40.283  28.905  30.185  1.00  0.00     0.037 A 
ATOM     51  C   UNL A   1      39.889  33.428  35.522  1.00  0.00     0.037 A 
ATOM     52  C   UNL A   1      41.292  28.740  31.198  1.00  0.00     0.049 A 
ATOM     53  C   UNL A   1      40.923  32.339  35.478  1.00  0.00     0.074 A 
ATOM     54  C   UNL A   1      42.332  27.828  31.240  1.00  0.00     0.029 A 
ATOM     55  N   UNL A   1      41.385  29.507  32.350  1.00  0.00    -0.354 N 
ATOM     56  N   UNL A   1      41.142  31.443  34.547  1.00  0.00    -0.248 NA
ATOM     57  C   UNL A   1      41.833  32.245  36.629  1.00  0.00     0.031 C 
ATOM     58  C   UNL A   1      43.028  28.015  32.439  1.00  0.00     0.029 A 
ATOM     59  C   UNL A   1      42.452  29.076  33.120  1.00  0.00     0.049 A 
ATOM     60  H   UNL A   1      40.781  30.248  32.586  1.00  0.00     0.167 HD
ATOM     61  C   UNL A   1      42.232  30.700  34.983  1.00  0.00     0.074 A 
ATOM     62  C   UNL A   1      42.636  31.259  36.257  1.00  0.00     0.031 C 
ATOM     63  C   UNL A   1      42.845  29.651  34.382  1.00  0.00     0.037 A 
BRANCH  50  64
ATOM     64  C   UNL A   1      40.274  27.960  29.019  1.00  0.00     0.057 A 
ATOM     65  C   UNL A   1      41.002  28.223  27.850  1.00  0.00     0.134 A 
ATOM     66  C   UNL A   1      39.545  26.765  29.069  1.00  0.00     0.134 A 
ATOM     67  F   UNL A   1      41.710  29.357  27.731  1.00  0.00    -0.206 F 
ATOM     68  C   UNL A   1      40.980  27.349  26.762  1.00  0.00     0.040 A 
ATOM     69  C   UNL A   1      39.539  25.869  28.000  1.00  0.00     0.040 A 
ATOM     70  F   UNL A   1      38.830  26.448  30.159  1.00  0.00    -0.206 F 
ATOM     71  C   UNL A   1      40.252  26.163  26.839  1.00  0.00     0.006 A 
ENDBRANCH  50  64
BRANCH  51  72
ATOM     72  C   UNL A   1      39.828  34.372  36.667  1.00  0.00     0.057 A 
ATOM     73  C   UNL A   1      39.087  34.063  37.814  1.00  0.00     0.134 A 
ATOM     74  C   UNL A   1      40.497  35.602  36.643  1.00  0.00     0.134 A 
ATOM     75  F   UNL A   1      38.411  32.908  37.890  1.00  0.00    -0.206 F 
ATOM     76  C   UNL A   1      38.996  34.951  38.887  1.00  0.00     0.040 A 
ATOM     77  C   UNL A   1      40.434  36.488  37.719  1.00  0.00     0.040 A 
ATOM     78  F   UNL A   1      41.231  35.953  35.577  1.00  0.00    -0.206 F 
ATOM     79  C   UNL A   1      39.675  36.167  38.842  1.00  0.00     0.006 A 
ENDBRANCH  51  72
BRANCH  63  80
ATOM     80  C   UNL A   1      44.039  29.064  35.076  1.00  0.00     0.057 A 
ATOM     81  C   UNL A   1      45.339  29.514  34.818  1.00  0.00     0.134 A 
ATOM     82  C   UNL A   1      43.879  28.064  36.044  1.00  0.00     0.134 A 
ATOM     83  F   UNL A   1      45.561  30.459  33.893  1.00  0.00    -0.206 F 
ATOM     84  C   UNL A   1      46.442  28.973  35.482  1.00  0.00     0.040 A 
ATOM     85  C   UNL A   1      44.970  27.536  36.735  1.00  0.00     0.040 A 
ATOM     86  F   UNL A   1      42.658  27.596  36.345  1.00  0.00    -0.206 F 
ATOM     87  C   UNL A   1      46.258  27.987  36.450  1.00  0.00     0.006 A 
ENDBRANCH  63  80
ENDBRANCH  37  38
ENDBRANCH  29  32
ENDBRANCH  27  28
ENDBRANCH  26  27
ENDBRANCH  25  26
ENDBRANCH   1  25
TORSDOF 15
ENDMDL
MODEL 3
REMARK VINA RESULT:     -11.4      0.939      6.293
REMARK SMILES C[C@@H]1CN(C(=O)C[N@H+]2CCO[C@H](CC(=O)NCCCCNC(=O)c3ccc(-c4c5nc(c(-c6c(F)cccc6F)c6ccc([nH]6)c(-c6c(F)cccc6F)c6nc(c(-c7c(F)cccc7F)c7ccc4[nH]7)C=C6)C=C5)cc3)C2)C[C@H](C)O1
REMARK SMILES IDX 17 1 16 2 14 3 15 4 13 6 12 7 8 8 9 9 78 10 10 12 11 13 7 14
REMARK SMILES IDX 5 15 6 16 4 17 1 18 2 19 3 20 82 21 80 22 79 23 81 24 18 25
REMARK SMILES IDX 19 26 20 27 21 28 22 29 23 31 24 32 25 33 77 34 26 35 76 36
REMARK SMILES IDX 27 37 28 38 29 39 70 40 30 41 75 42 69 43 71 44 31 45 74 46
REMARK SMILES IDX 68 47 67 48 32 50 58 51 41 52 57 53 42 54 45 55 56 56 72 57
REMARK SMILES IDX 43 58 44 59 55 61 73 62 46 63 33 64 34 65 39 66 35 67 36 68
REMARK SMILES IDX 38 69 40 70 37 71 59 72 60 73 65 74 61 75 62 76 64 77 66 78
REMARK SMILES IDX 63 79 47 80 48 81 53 82 49 83 50 84 52 85 54 86 51 87
REMARK H PARENT 16 5 8 11 21 30 71 49 45 60
REMARK Flexibility Score: inf
ROOT
ATOM      1  C   UNL A   1      35.642  21.306  25.752  1.00  0.00     0.116 C 
ENDROOT
BRANCH   1   2
ATOM      2  N   UNL A   1      34.650  20.333  25.331  1.00  0.00    -0.356 N 
ATOM      3  C   UNL A   1      33.604  20.445  24.466  1.00  0.00     0.222 C 
ATOM      4  O   UNL A   1      32.914  19.442  24.271  1.00  0.00    -0.275 OA
ATOM      5  H   UNL A   1      34.751  19.441  25.739  1.00  0.00     0.163 HD
BRANCH   3   6
ATOM      6  C   UNL A   1      33.320  21.727  23.712  1.00  0.00     0.138 C 
BRANCH   6   7
ATOM      7  C   UNL A   1      32.403  22.686  24.465  1.00  0.00     0.182 C 
ATOM      8  N   UNL A   1      32.321  24.582  26.183  1.00  0.00    -0.323 N 
ATOM      9  C   UNL A   1      31.693  23.553  27.037  1.00  0.00     0.291 C 
ATOM     10  C   UNL A   1      33.154  23.834  25.196  1.00  0.00     0.295 C 
ATOM     11  H   UNL A   1      32.894  25.215  26.741  1.00  0.00     0.348 HD
ATOM     12  C   UNL A   1      30.839  22.562  26.263  1.00  0.00     0.222 C 
ATOM     13  O   UNL A   1      31.673  21.841  25.377  1.00  0.00    -0.366 OA
BRANCH   8  14
ATOM     14  C   UNL A   1      31.337  25.493  25.542  1.00  0.00     0.363 C 
BRANCH  14  15
ATOM     15  C   UNL A   1      31.458  26.948  26.048  1.00  0.00     0.277 C 
ATOM     16  O   UNL A   1      31.033  27.231  27.175  1.00  0.00    -0.268 OA
BRANCH  15  17
ATOM     17  N   UNL A   1      32.104  27.904  25.274  1.00  0.00    -0.333 N 
ATOM     18  C   UNL A   1      32.455  26.403  22.486  1.00  0.00     0.040 C 
ATOM     19  C   UNL A   1      33.083  27.688  23.022  1.00  0.00     0.135 C 
ATOM     20  C   UNL A   1      33.354  27.752  24.545  1.00  0.00     0.151 C 
ATOM     21  O   UNL A   1      32.315  28.832  22.592  1.00  0.00    -0.372 OA
ATOM     22  C   UNL A   1      31.133  29.128  23.366  1.00  0.00     0.135 C 
ATOM     23  C   UNL A   1      31.404  29.127  24.883  1.00  0.00     0.151 C 
ATOM     24  C   UNL A   1      29.948  28.244  22.990  1.00  0.00     0.040 C 
ENDBRANCH  15  17
ENDBRANCH  14  15
ENDBRANCH   8  14
ENDBRANCH   6   7
ENDBRANCH   3   6
ENDBRANCH   1   2
BRANCH   1  25
ATOM     25  C   UNL A   1      36.870  21.321  24.834  1.00  0.00     0.023 C 
BRANCH  25  26
ATOM     26  C   UNL A   1      37.798  20.121  24.998  1.00  0.00     0.023 C 
BRANCH  26  27
ATOM     27  C   UNL A   1      39.070  20.423  25.770  1.00  0.00     0.116 C 
BRANCH  27  28
ATOM     28  N   UNL A   1      39.951  19.269  25.876  1.00  0.00    -0.352 N 
ATOM     29  C   UNL A   1      41.303  19.252  26.113  1.00  0.00     0.251 C 
ATOM     30  H   UNL A   1      39.524  18.390  25.760  1.00  0.00     0.163 HD
ATOM     31  O   UNL A   1      41.940  18.207  26.037  1.00  0.00    -0.269 OA
BRANCH  29  32
ATOM     32  C   UNL A   1      41.984  20.524  26.424  1.00  0.00     0.039 A 
ATOM     33  C   UNL A   1      42.343  21.372  25.376  1.00  0.00     0.014 A 
ATOM     34  C   UNL A   1      42.204  20.898  27.752  1.00  0.00     0.014 A 
ATOM     35  C   UNL A   1      42.864  22.633  25.667  1.00  0.00     0.010 A 
ATOM     36  C   UNL A   1      42.641  22.184  28.039  1.00  0.00     0.010 A 
ATOM     37  C   UNL A   1      42.980  23.062  26.999  1.00  0.00    -0.014 A 
BRANCH  37  38
ATOM     38  C   UNL A   1      43.461  24.424  27.332  1.00  0.00     0.031 A 
ATOM     39  C   UNL A   1      42.484  25.473  27.785  1.00  0.00     0.074 A 
ATOM     40  C   UNL A   1      44.760  24.734  27.161  1.00  0.00     0.049 A 
ATOM     41  N   UNL A   1      42.693  26.735  28.055  1.00  0.00    -0.248 NA
ATOM     42  C   UNL A   1      41.081  25.053  27.924  1.00  0.00     0.031 C 
ATOM     43  C   UNL A   1      45.795  23.816  26.680  1.00  0.00     0.029 A 
ATOM     44  N   UNL A   1      45.431  25.913  27.366  1.00  0.00    -0.354 N 
ATOM     45  C   UNL A   1      41.450  27.260  28.383  1.00  0.00     0.074 A 
ATOM     46  C   UNL A   1      40.483  26.198  28.216  1.00  0.00     0.031 C 
ATOM     47  C   UNL A   1      46.975  24.458  26.656  1.00  0.00     0.029 A 
ATOM     48  C   UNL A   1      46.772  25.839  27.081  1.00  0.00     0.049 A 
ATOM     49  H   UNL A   1      44.993  26.733  27.687  1.00  0.00     0.167 HD
ATOM     50  C   UNL A   1      41.144  28.507  28.810  1.00  0.00     0.037 A 
ATOM     51  C   UNL A   1      47.730  26.784  27.151  1.00  0.00     0.037 A 
ATOM     52  C   UNL A   1      42.112  29.556  28.994  1.00  0.00     0.049 A 
ATOM     53  C   UNL A   1      47.363  28.166  27.613  1.00  0.00     0.074 A 
ATOM     54  C   UNL A   1      41.914  30.839  29.474  1.00  0.00     0.029 A 
ATOM     55  N   UNL A   1      43.464  29.441  28.704  1.00  0.00    -0.354 N 
ATOM     56  N   UNL A   1      46.194  28.631  27.983  1.00  0.00    -0.248 NA
ATOM     57  C   UNL A   1      48.449  29.154  27.670  1.00  0.00     0.031 C 
ATOM     58  C   UNL A   1      43.139  31.514  29.432  1.00  0.00     0.029 A 
ATOM     59  C   UNL A   1      44.109  30.636  28.974  1.00  0.00     0.049 A 
ATOM     60  H   UNL A   1      43.900  28.629  28.357  1.00  0.00     0.167 HD
ATOM     61  C   UNL A   1      46.410  29.954  28.347  1.00  0.00     0.074 A 
ATOM     62  C   UNL A   1      47.824  30.213  28.163  1.00  0.00     0.031 C 
ATOM     63  C   UNL A   1      45.519  30.872  28.793  1.00  0.00     0.037 A 
BRANCH  50  64
ATOM     64  C   UNL A   1      39.703  28.797  29.114  1.00  0.00     0.057 A 
ATOM     65  C   UNL A   1      38.819  29.252  28.126  1.00  0.00     0.134 A 
ATOM     66  C   UNL A   1      39.188  28.604  30.401  1.00  0.00     0.134 A 
ATOM     67  F   UNL A   1      39.251  29.472  26.875  1.00  0.00    -0.206 F 
ATOM     68  C   UNL A   1      37.482  29.534  28.415  1.00  0.00     0.040 A 
ATOM     69  C   UNL A   1      37.847  28.854  30.696  1.00  0.00     0.040 A 
ATOM     70  F   UNL A   1      39.978  28.166  31.393  1.00  0.00    -0.206 F 
ATOM     71  C   UNL A   1      36.992  29.328  29.703  1.00  0.00     0.006 A 
ENDBRANCH  50  64
BRANCH  51  72
ATOM     72  C   UNL A   1      49.135  26.448  26.804  1.00  0.00     0.057 A 
ATOM     73  C   UNL A   1      49.627  26.665  25.512  1.00  0.00     0.134 A 
ATOM     74  C   UNL A   1      50.013  25.897  27.745  1.00  0.00     0.134 A 
ATOM     75  F   UNL A   1      48.830  27.174  24.563  1.00  0.00    -0.206 F 
ATOM     76  C   UNL A   1      50.936  26.328  25.162  1.00  0.00     0.040 A 
ATOM     77  C   UNL A   1      51.330  25.578  27.415  1.00  0.00     0.040 A 
ATOM     78  F   UNL A   1      49.604  25.673  29.003  1.00  0.00    -0.206 F 
ATOM     79  C   UNL A   1      51.793  25.786  26.117  1.00  0.00     0.006 A 
ENDBRANCH  51  72
BRANCH  63  80
ATOM     80  C   UNL A   1      46.052  32.229  29.152  1.00  0.00     0.057 A 
ATOM     81  C   UNL A   1      46.113  33.270  28.219  1.00  0.00     0.134 A 
ATOM     82  C   UNL A   1      46.472  32.504  30.460  1.00  0.00     0.134 A 
ATOM     83  F   UNL A   1      45.739  33.067  26.947  1.00  0.00    -0.206 F 
ATOM     84  C   UNL A   1      46.594  34.534  28.568  1.00  0.00     0.040 A 
ATOM     85  C   UNL A   1      46.929  33.770  30.828  1.00  0.00     0.040 A 
ATOM     86  F   UNL A   1      46.430  31.552  31.404  1.00  0.00    -0.206 F 
ATOM     87  C   UNL A   1      46.996  34.788  29.878  1.00  0.00     0.006 A 
ENDBRANCH  63  80
ENDBRANCH  37  38
ENDBRANCH  29  32
ENDBRANCH  27  28
ENDBRANCH  26  27
ENDBRANCH  25  26
ENDBRANCH   1  25
TORSDOF 15
ENDMDL
