MODEL 1
REMARK VINA RESULT:     -12.2      0.000      0.000
REMARK SMILES C[C@H](c1ccccc1)N1C(=O)c2ccc(C(=O)NCCCCNC(=O)c3ccc(-c4c5nc(c(-c6c(F)cccc6F)c6ccc([nH]6)c(-c6c(F)cccc6F)c6nc(c(-c7c(F)cccc7F)c7ccc4[nH]7)C=C6)C=C5)cc3)cc2C1=O
REMARK SMILES IDX 20 1 19 2 18 3 16 4 17 5 15 7 9 8 10 9 82 10 11 11 12 12
REMARK SMILES IDX 81 13 83 14 13 15 80 16 14 17 2 18 1 19 3 20 4 21 8 22 5 23
REMARK SMILES IDX 7 24 6 25 21 26 22 27 23 28 24 29 25 31 26 32 27 33 79 34
REMARK SMILES IDX 28 35 78 36 29 37 30 38 31 39 72 40 32 41 77 42 71 43 73 44
REMARK SMILES IDX 33 45 76 46 70 47 69 48 34 50 60 51 43 52 59 53 44 54 47 55
REMARK SMILES IDX 58 56 74 57 45 58 46 59 57 61 75 62 48 63 35 64 36 65 41 66
REMARK SMILES IDX 37 67 38 68 40 69 42 70 39 71 61 72 62 73 67 74 63 75 64 76
REMARK SMILES IDX 66 77 68 78 65 79 49 80 50 81 55 82 51 83 52 84 54 85 56 86
REMARK SMILES IDX 53 87
REMARK H PARENT 18 6 23 30 73 49 47 60
REMARK Flexibility Score: inf
ROOT
ATOM      1  C   UNL A   1      32.943  29.700  25.014  1.00  0.00     0.023 C 
ENDROOT
BRANCH   1   2
ATOM      2  C   UNL A   1      31.429  29.772  25.210  1.00  0.00     0.116 C 
BRANCH   2   3
ATOM      3  N   UNL A   1      30.675  29.392  24.030  1.00  0.00    -0.352 N 
ATOM      4  C   UNL A   1      30.500  28.182  23.413  1.00  0.00     0.251 C 
ATOM      5  O   UNL A   1      29.847  28.128  22.373  1.00  0.00    -0.269 OA
ATOM      6  H   UNL A   1      30.203  30.139  23.594  1.00  0.00     0.163 HD
BRANCH   4   7
ATOM      7  C   UNL A   1      31.131  26.945  23.923  1.00  0.00     0.040 A 
ATOM      8  N   UNL A   1      33.784  23.210  24.359  1.00  0.00    -0.267 N 
ATOM      9  C   UNL A   1      32.746  23.328  25.243  1.00  0.00     0.262 C 
ATOM     10  C   UNL A   1      33.750  24.228  23.438  1.00  0.00     0.262 C 
ATOM     11  O   UNL A   1      32.278  22.549  26.048  1.00  0.00    -0.269 OA
ATOM     12  C   UNL A   1      32.118  24.616  24.991  1.00  0.00     0.053 A 
ATOM     13  C   UNL A   1      32.687  25.150  23.853  1.00  0.00     0.054 A 
ATOM     14  O   UNL A   1      34.405  24.375  22.423  1.00  0.00    -0.269 OA
ATOM     15  C   UNL A   1      31.097  25.240  25.676  1.00  0.00     0.015 A 
ATOM     16  C   UNL A   1      32.220  26.326  23.291  1.00  0.00     0.028 A 
ATOM     17  C   UNL A   1      30.609  26.428  25.135  1.00  0.00     0.015 A 
BRANCH   8  18
ATOM     18  C   UNL A   1      34.683  22.055  24.236  1.00  0.00     0.121 C 
ATOM     19  C   UNL A   1      33.978  20.753  24.634  1.00  0.00     0.037 C 
BRANCH  18  20
ATOM     20  C   UNL A   1      36.015  22.265  24.949  1.00  0.00    -0.025 A 
ATOM     21  C   UNL A   1      36.334  23.476  25.586  1.00  0.00     0.006 A 
ATOM     22  C   UNL A   1      36.989  21.255  24.933  1.00  0.00     0.006 A 
ATOM     23  C   UNL A   1      37.602  23.699  26.125  1.00  0.00     0.000 A 
ATOM     24  C   UNL A   1      38.249  21.466  25.502  1.00  0.00     0.000 A 
ATOM     25  C   UNL A   1      38.561  22.694  26.080  1.00  0.00     0.000 A 
ENDBRANCH  18  20
ENDBRANCH   8  18
ENDBRANCH   4   7
ENDBRANCH   2   3
ENDBRANCH   1   2
BRANCH   1  26
ATOM     26  C   UNL A   1      33.682  28.604  25.786  1.00  0.00     0.023 C 
BRANCH  26  27
ATOM     27  C   UNL A   1      33.659  28.704  27.308  1.00  0.00     0.116 C 
BRANCH  27  28
ATOM     28  N   UNL A   1      33.667  30.066  27.811  1.00  0.00    -0.352 N 
ATOM     29  C   UNL A   1      34.697  30.786  28.371  1.00  0.00     0.251 C 
ATOM     30  H   UNL A   1      32.809  30.545  27.741  1.00  0.00     0.163 HD
ATOM     31  O   UNL A   1      34.492  31.924  28.784  1.00  0.00    -0.269 OA
BRANCH  29  32
ATOM     32  C   UNL A   1      36.039  30.181  28.524  1.00  0.00     0.039 A 
ATOM     33  C   UNL A   1      36.907  30.207  27.427  1.00  0.00     0.014 A 
ATOM     34  C   UNL A   1      36.450  29.598  29.725  1.00  0.00     0.014 A 
ATOM     35  C   UNL A   1      38.211  29.722  27.558  1.00  0.00     0.010 A 
ATOM     36  C   UNL A   1      37.768  29.168  29.872  1.00  0.00     0.010 A 
ATOM     37  C   UNL A   1      38.664  29.236  28.794  1.00  0.00    -0.014 A 
BRANCH  37  38
ATOM     38  C   UNL A   1      40.075  28.814  28.982  1.00  0.00     0.031 A 
ATOM     39  C   UNL A   1      41.086  29.773  29.543  1.00  0.00     0.074 A 
ATOM     40  C   UNL A   1      40.461  27.588  28.580  1.00  0.00     0.049 A 
ATOM     41  N   UNL A   1      42.376  29.615  29.702  1.00  0.00    -0.248 NA
ATOM     42  C   UNL A   1      40.585  31.093  29.955  1.00  0.00     0.031 C 
ATOM     43  C   UNL A   1      39.586  26.580  27.977  1.00  0.00     0.029 A 
ATOM     44  N   UNL A   1      41.694  26.987  28.605  1.00  0.00    -0.354 N 
ATOM     45  C   UNL A   1      42.844  30.818  30.213  1.00  0.00     0.074 A 
ATOM     46  C   UNL A   1      41.707  31.710  30.302  1.00  0.00     0.031 C 
ATOM     47  C   UNL A   1      40.307  25.480  27.704  1.00  0.00     0.029 A 
ATOM     48  C   UNL A   1      41.697  25.715  28.082  1.00  0.00     0.049 A 
ATOM     49  H   UNL A   1      42.500  27.424  28.963  1.00  0.00     0.167 HD
ATOM     50  C   UNL A   1      44.104  31.146  30.588  1.00  0.00     0.037 A 
ATOM     51  C   UNL A   1      42.707  24.841  27.922  1.00  0.00     0.037 A 
ATOM     52  C   UNL A   1      45.229  30.250  30.530  1.00  0.00     0.049 A 
ATOM     53  C   UNL A   1      44.092  25.221  28.364  1.00  0.00     0.074 A 
ATOM     54  C   UNL A   1      46.530  30.470  30.947  1.00  0.00     0.029 A 
ATOM     55  N   UNL A   1      45.184  28.960  30.024  1.00  0.00    -0.354 N 
ATOM     56  N   UNL A   1      44.508  26.343  28.898  1.00  0.00    -0.248 NA
ATOM     57  C   UNL A   1      45.146  24.211  28.185  1.00  0.00     0.031 C 
ATOM     58  C   UNL A   1      47.279  29.322  30.669  1.00  0.00     0.029 A 
ATOM     59  C   UNL A   1      46.437  28.376  30.108  1.00  0.00     0.049 A 
ATOM     60  H   UNL A   1      44.380  28.523  29.660  1.00  0.00     0.167 HD
ATOM     61  C   UNL A   1      45.864  26.167  29.141  1.00  0.00     0.074 A 
ATOM     62  C   UNL A   1      46.198  24.827  28.705  1.00  0.00     0.031 C 
ATOM     63  C   UNL A   1      46.751  27.038  29.678  1.00  0.00     0.037 A 
BRANCH  50  64
ATOM     64  C   UNL A   1      44.327  32.535  31.102  1.00  0.00     0.057 A 
ATOM     65  C   UNL A   1      44.661  33.592  30.247  1.00  0.00     0.134 A 
ATOM     66  C   UNL A   1      44.179  32.827  32.464  1.00  0.00     0.134 A 
ATOM     67  F   UNL A   1      44.829  33.376  28.933  1.00  0.00    -0.206 F 
ATOM     68  C   UNL A   1      44.864  34.886  30.730  1.00  0.00     0.040 A 
ATOM     69  C   UNL A   1      44.358  34.121  32.956  1.00  0.00     0.040 A 
ATOM     70  F   UNL A   1      43.855  31.860  33.336  1.00  0.00    -0.206 F 
ATOM     71  C   UNL A   1      44.708  35.154  32.088  1.00  0.00     0.006 A 
ENDBRANCH  50  64
BRANCH  51  72
ATOM     72  C   UNL A   1      42.442  23.504  27.337  1.00  0.00     0.057 A 
ATOM     73  C   UNL A   1      42.091  22.422  28.151  1.00  0.00     0.134 A 
ATOM     74  C   UNL A   1      42.534  23.276  25.959  1.00  0.00     0.134 A 
ATOM     75  F   UNL A   1      42.008  22.577  29.481  1.00  0.00    -0.206 F 
ATOM     76  C   UNL A   1      41.854  21.154  27.618  1.00  0.00     0.040 A 
ATOM     77  C   UNL A   1      42.279  22.018  25.410  1.00  0.00     0.040 A 
ATOM     78  F   UNL A   1      42.859  24.276  25.128  1.00  0.00    -0.206 F 
ATOM     79  C   UNL A   1      41.945  20.951  26.243  1.00  0.00     0.006 A 
ENDBRANCH  51  72
BRANCH  63  80
ATOM     80  C   UNL A   1      48.161  26.560  29.849  1.00  0.00     0.057 A 
ATOM     81  C   UNL A   1      49.130  26.758  28.860  1.00  0.00     0.134 A 
ATOM     82  C   UNL A   1      48.558  25.925  31.033  1.00  0.00     0.134 A 
ATOM     83  F   UNL A   1      48.807  27.348  27.699  1.00  0.00    -0.206 F 
ATOM     84  C   UNL A   1      50.446  26.328  29.034  1.00  0.00     0.040 A 
ATOM     85  C   UNL A   1      49.875  25.508  31.226  1.00  0.00     0.040 A 
ATOM     86  F   UNL A   1      47.676  25.711  32.019  1.00  0.00    -0.206 F 
ATOM     87  C   UNL A   1      50.823  25.706  30.224  1.00  0.00     0.006 A 
ENDBRANCH  63  80
ENDBRANCH  37  38
ENDBRANCH  29  32
ENDBRANCH  27  28
ENDBRANCH  26  27
ENDBRANCH   1  26
TORSDOF 13
ENDMDL
MODEL 2
REMARK VINA RESULT:     -11.9      2.144      7.893
REMARK SMILES C[C@H](c1ccccc1)N1C(=O)c2ccc(C(=O)NCCCCNC(=O)c3ccc(-c4c5nc(c(-c6c(F)cccc6F)c6ccc([nH]6)c(-c6c(F)cccc6F)c6nc(c(-c7c(F)cccc7F)c7ccc4[nH]7)C=C6)C=C5)cc3)cc2C1=O
REMARK SMILES IDX 20 1 19 2 18 3 16 4 17 5 15 7 9 8 10 9 82 10 11 11 12 12
REMARK SMILES IDX 81 13 83 14 13 15 80 16 14 17 2 18 1 19 3 20 4 21 8 22 5 23
REMARK SMILES IDX 7 24 6 25 21 26 22 27 23 28 24 29 25 31 26 32 27 33 79 34
REMARK SMILES IDX 28 35 78 36 29 37 30 38 31 39 72 40 32 41 77 42 71 43 73 44
REMARK SMILES IDX 33 45 76 46 70 47 69 48 34 50 60 51 43 52 59 53 44 54 47 55
REMARK SMILES IDX 58 56 74 57 45 58 46 59 57 61 75 62 48 63 35 64 36 65 41 66
REMARK SMILES IDX 37 67 38 68 40 69 42 70 39 71 61 72 62 73 67 74 63 75 64 76
REMARK SMILES IDX 66 77 68 78 65 79 49 80 50 81 55 82 51 83 52 84 54 85 56 86
REMARK SMILES IDX 53 87
REMARK H PARENT 18 6 23 30 73 49 47 60
REMARK Flexibility Score: inf
ROOT
ATOM      1  C   UNL A   1      36.758  19.251  24.937  1.00  0.00     0.023 C 
ENDROOT
BRANCH   1   2
ATOM      2  C   UNL A   1      35.452  20.017  25.148  1.00  0.00     0.116 C 
BRANCH   2   3
ATOM      3  N   UNL A   1      34.271  19.175  25.085  1.00  0.00    -0.352 N 
ATOM      4  C   UNL A   1      32.958  19.469  24.831  1.00  0.00     0.251 C 
ATOM      5  O   UNL A   1      32.121  18.572  24.891  1.00  0.00    -0.269 OA
ATOM      6  H   UNL A   1      34.446  18.221  25.255  1.00  0.00     0.163 HD
BRANCH   4   7
ATOM      7  C   UNL A   1      32.505  20.850  24.553  1.00  0.00     0.040 A 
ATOM      8  N   UNL A   1      30.647  25.040  24.953  1.00  0.00    -0.267 N 
ATOM      9  C   UNL A   1      31.015  24.654  23.693  1.00  0.00     0.262 C 
ATOM     10  C   UNL A   1      30.836  24.014  25.846  1.00  0.00     0.262 C 
ATOM     11  O   UNL A   1      30.806  25.148  22.603  1.00  0.00    -0.269 OA
ATOM     12  C   UNL A   1      31.665  23.359  23.819  1.00  0.00     0.053 A 
ATOM     13  C   UNL A   1      31.511  22.933  25.122  1.00  0.00     0.054 A 
ATOM     14  O   UNL A   1      30.489  23.928  27.009  1.00  0.00    -0.269 OA
ATOM     15  C   UNL A   1      32.295  22.599  22.856  1.00  0.00     0.015 A 
ATOM     16  C   UNL A   1      31.929  21.677  25.530  1.00  0.00     0.028 A 
ATOM     17  C   UNL A   1      32.729  21.331  23.238  1.00  0.00     0.015 A 
BRANCH   8  18
ATOM     18  C   UNL A   1      29.934  26.278  25.300  1.00  0.00     0.121 C 
ATOM     19  C   UNL A   1      28.884  26.633  24.242  1.00  0.00     0.037 C 
BRANCH  18  20
ATOM     20  C   UNL A   1      30.878  27.430  25.629  1.00  0.00    -0.025 A 
ATOM     21  C   UNL A   1      31.500  27.546  26.883  1.00  0.00     0.006 A 
ATOM     22  C   UNL A   1      31.100  28.447  24.688  1.00  0.00     0.006 A 
ATOM     23  C   UNL A   1      32.260  28.668  27.214  1.00  0.00     0.000 A 
ATOM     24  C   UNL A   1      31.889  29.558  25.007  1.00  0.00     0.000 A 
ATOM     25  C   UNL A   1      32.452  29.676  26.277  1.00  0.00     0.000 A 
ENDBRANCH  18  20
ENDBRANCH   8  18
ENDBRANCH   4   7
ENDBRANCH   2   3
ENDBRANCH   1   2
BRANCH   1  26
ATOM     26  C   UNL A   1      38.009  20.091  24.672  1.00  0.00     0.023 C 
BRANCH  26  27
ATOM     27  C   UNL A   1      38.992  20.239  25.830  1.00  0.00     0.116 C 
BRANCH  27  28
ATOM     28  N   UNL A   1      40.110  19.315  25.778  1.00  0.00    -0.352 N 
ATOM     29  C   UNL A   1      41.425  19.511  26.131  1.00  0.00     0.251 C 
ATOM     30  H   UNL A   1      39.897  18.415  25.439  1.00  0.00     0.163 HD
ATOM     31  O   UNL A   1      42.242  18.610  25.968  1.00  0.00    -0.269 OA
BRANCH  29  32
ATOM     32  C   UNL A   1      41.872  20.819  26.662  1.00  0.00     0.039 A 
ATOM     33  C   UNL A   1      42.337  21.778  25.757  1.00  0.00     0.014 A 
ATOM     34  C   UNL A   1      41.834  21.109  28.028  1.00  0.00     0.014 A 
ATOM     35  C   UNL A   1      42.689  23.053  26.210  1.00  0.00     0.010 A 
ATOM     36  C   UNL A   1      42.128  22.397  28.472  1.00  0.00     0.010 A 
ATOM     37  C   UNL A   1      42.549  23.384  27.566  1.00  0.00    -0.014 A 
BRANCH  37  38
ATOM     38  C   UNL A   1      42.816  24.762  28.052  1.00  0.00     0.031 A 
ATOM     39  C   UNL A   1      44.204  25.168  28.458  1.00  0.00     0.074 A 
ATOM     40  C   UNL A   1      41.793  25.625  28.195  1.00  0.00     0.049 A 
ATOM     41  N   UNL A   1      44.615  26.295  28.982  1.00  0.00    -0.248 NA
ATOM     42  C   UNL A   1      45.265  24.167  28.273  1.00  0.00     0.031 C 
ATOM     43  C   UNL A   1      40.391  25.338  27.881  1.00  0.00     0.029 A 
ATOM     44  N   UNL A   1      41.772  26.917  28.657  1.00  0.00    -0.354 N 
ATOM     45  C   UNL A   1      45.975  26.132  29.209  1.00  0.00     0.074 A 
ATOM     46  C   UNL A   1      46.313  24.785  28.800  1.00  0.00     0.031 C 
ATOM     47  C   UNL A   1      39.650  26.427  28.145  1.00  0.00     0.029 A 
ATOM     48  C   UNL A   1      40.516  27.476  28.673  1.00  0.00     0.049 A 
ATOM     49  H   UNL A   1      42.579  27.399  28.948  1.00  0.00     0.167 HD
ATOM     50  C   UNL A   1      46.865  27.028  29.699  1.00  0.00     0.037 A 
ATOM     51  C   UNL A   1      40.109  28.694  29.075  1.00  0.00     0.037 A 
ATOM     52  C   UNL A   1      46.537  28.378  30.075  1.00  0.00     0.049 A 
ATOM     53  C   UNL A   1      41.118  29.677  29.596  1.00  0.00     0.074 A 
ATOM     54  C   UNL A   1      47.382  29.379  30.521  1.00  0.00     0.029 A 
ATOM     55  N   UNL A   1      45.259  28.915  30.047  1.00  0.00    -0.354 N 
ATOM     56  N   UNL A   1      42.411  29.528  29.751  1.00  0.00    -0.248 NA
ATOM     57  C   UNL A   1      40.612  31.000  29.993  1.00  0.00     0.031 C 
ATOM     58  C   UNL A   1      46.611  30.516  30.789  1.00  0.00     0.029 A 
ATOM     59  C   UNL A   1      45.291  30.231  30.478  1.00  0.00     0.049 A 
ATOM     60  H   UNL A   1      44.449  28.434  29.761  1.00  0.00     0.167 HD
ATOM     61  C   UNL A   1      42.877  30.741  30.240  1.00  0.00     0.074 A 
ATOM     62  C   UNL A   1      41.731  31.618  30.346  1.00  0.00     0.031 C 
ATOM     63  C   UNL A   1      44.142  31.094  30.571  1.00  0.00     0.037 A 
BRANCH  50  64
ATOM     64  C   UNL A   1      48.285  26.574  29.848  1.00  0.00     0.057 A 
ATOM     65  C   UNL A   1      48.726  25.900  30.993  1.00  0.00     0.134 A 
ATOM     66  C   UNL A   1      49.216  26.786  28.823  1.00  0.00     0.134 A 
ATOM     67  F   UNL A   1      47.886  25.675  32.015  1.00  0.00    -0.206 F 
ATOM     68  C   UNL A   1      50.049  25.475  31.126  1.00  0.00     0.040 A 
ATOM     69  C   UNL A   1      50.536  26.347  28.935  1.00  0.00     0.040 A 
ATOM     70  F   UNL A   1      48.857  27.422  27.698  1.00  0.00    -0.206 F 
ATOM     71  C   UNL A   1      50.957  25.695  30.093  1.00  0.00     0.006 A 
ENDBRANCH  50  64
BRANCH  51  72
ATOM     72  C   UNL A   1      38.676  29.065  28.974  1.00  0.00     0.057 A 
ATOM     73  C   UNL A   1      38.137  29.525  27.768  1.00  0.00     0.134 A 
ATOM     74  C   UNL A   1      37.817  28.971  30.074  1.00  0.00     0.134 A 
ATOM     75  F   UNL A   1      38.919  29.654  26.686  1.00  0.00    -0.206 F 
ATOM     76  C   UNL A   1      36.795  29.893  27.661  1.00  0.00     0.040 A 
ATOM     77  C   UNL A   1      36.468  29.317  29.977  1.00  0.00     0.040 A 
ATOM     78  F   UNL A   1      38.274  28.531  31.255  1.00  0.00    -0.206 F 
ATOM     79  C   UNL A   1      35.956  29.786  28.768  1.00  0.00     0.006 A 
ENDBRANCH  51  72
BRANCH  63  80
ATOM     80  C   UNL A   1      44.356  32.498  31.051  1.00  0.00     0.057 A 
ATOM     81  C   UNL A   1      44.617  33.547  30.163  1.00  0.00     0.134 A 
ATOM     82  C   UNL A   1      44.264  32.805  32.414  1.00  0.00     0.134 A 
ATOM     83  F   UNL A   1      44.730  33.312  28.847  1.00  0.00    -0.206 F 
ATOM     84  C   UNL A   1      44.796  34.855  30.615  1.00  0.00     0.040 A 
ATOM     85  C   UNL A   1      44.421  34.113  32.876  1.00  0.00     0.040 A 
ATOM     86  F   UNL A   1      44.011  31.844  33.314  1.00  0.00    -0.206 F 
ATOM     87  C   UNL A   1      44.692  35.141  31.975  1.00  0.00     0.006 A 
ENDBRANCH  63  80
ENDBRANCH  37  38
ENDBRANCH  29  32
ENDBRANCH  27  28
ENDBRANCH  26  27
ENDBRANCH   1  26
TORSDOF 13
ENDMDL
MODEL 3
REMARK VINA RESULT:     -11.9      2.057      7.791
REMARK SMILES C[C@H](c1ccccc1)N1C(=O)c2ccc(C(=O)NCCCCNC(=O)c3ccc(-c4c5nc(c(-c6c(F)cccc6F)c6ccc([nH]6)c(-c6c(F)cccc6F)c6nc(c(-c7c(F)cccc7F)c7ccc4[nH]7)C=C6)C=C5)cc3)cc2C1=O
REMARK SMILES IDX 20 1 19 2 18 3 16 4 17 5 15 7 9 8 10 9 82 10 11 11 12 12
REMARK SMILES IDX 81 13 83 14 13 15 80 16 14 17 2 18 1 19 3 20 4 21 8 22 5 23
REMARK SMILES IDX 7 24 6 25 21 26 22 27 23 28 24 29 25 31 26 32 27 33 79 34
REMARK SMILES IDX 28 35 78 36 29 37 30 38 31 39 72 40 32 41 77 42 71 43 73 44
REMARK SMILES IDX 33 45 76 46 70 47 69 48 34 50 60 51 43 52 59 53 44 54 47 55
REMARK SMILES IDX 58 56 74 57 45 58 46 59 57 61 75 62 48 63 35 64 36 65 41 66
REMARK SMILES IDX 37 67 38 68 40 69 42 70 39 71 61 72 62 73 67 74 63 75 64 76
REMARK SMILES IDX 66 77 68 78 65 79 49 80 50 81 55 82 51 83 52 84 54 85 56 86
REMARK SMILES IDX 53 87
REMARK H PARENT 18 6 23 30 73 49 47 60
REMARK Flexibility Score: inf
ROOT
ATOM      1  C   UNL A   1      36.310  21.428  24.857  1.00  0.00     0.023 C 
ENDROOT
BRANCH   1   2
ATOM      2  C   UNL A   1      35.252  21.372  25.958  1.00  0.00     0.116 C 
BRANCH   2   3
ATOM      3  N   UNL A   1      34.089  20.579  25.602  1.00  0.00    -0.352 N 
ATOM      4  C   UNL A   1      32.793  20.933  25.338  1.00  0.00     0.251 C 
ATOM      5  O   UNL A   1      31.965  20.054  25.112  1.00  0.00    -0.269 OA
ATOM      6  H   UNL A   1      34.264  19.612  25.540  1.00  0.00     0.163 HD
BRANCH   4   7
ATOM      7  C   UNL A   1      32.342  22.342  25.383  1.00  0.00     0.040 A 
ATOM      8  N   UNL A   1      31.644  26.777  24.376  1.00  0.00    -0.267 N 
ATOM      9  C   UNL A   1      31.273  26.370  25.629  1.00  0.00     0.262 C 
ATOM     10  C   UNL A   1      32.254  25.751  23.697  1.00  0.00     0.262 C 
ATOM     11  O   UNL A   1      30.926  26.994  26.611  1.00  0.00    -0.269 OA
ATOM     12  C   UNL A   1      31.484  24.932  25.688  1.00  0.00     0.053 A 
ATOM     13  C   UNL A   1      32.136  24.552  24.532  1.00  0.00     0.054 A 
ATOM     14  O   UNL A   1      32.843  25.771  22.633  1.00  0.00    -0.269 OA
ATOM     15  C   UNL A   1      31.174  24.043  26.695  1.00  0.00     0.015 A 
ATOM     16  C   UNL A   1      32.576  23.253  24.341  1.00  0.00     0.028 A 
ATOM     17  C   UNL A   1      31.602  22.727  26.529  1.00  0.00     0.015 A 
BRANCH   8  18
ATOM     18  C   UNL A   1      31.622  28.160  23.879  1.00  0.00     0.121 C 
ATOM     19  C   UNL A   1      32.474  29.083  24.757  1.00  0.00     0.037 C 
BRANCH  18  20
ATOM     20  C   UNL A   1      30.208  28.680  23.644  1.00  0.00    -0.025 A 
ATOM     21  C   UNL A   1      29.147  27.823  23.310  1.00  0.00     0.006 A 
ATOM     22  C   UNL A   1      29.947  30.058  23.702  1.00  0.00     0.006 A 
ATOM     23  C   UNL A   1      27.888  28.325  22.975  1.00  0.00     0.000 A 
ATOM     24  C   UNL A   1      28.677  30.560  23.399  1.00  0.00     0.000 A 
ATOM     25  C   UNL A   1      27.654  29.694  23.017  1.00  0.00     0.000 A 
ENDBRANCH  18  20
ENDBRANCH   8  18
ENDBRANCH   4   7
ENDBRANCH   2   3
ENDBRANCH   1   2
BRANCH   1  26
ATOM     26  C   UNL A   1      37.405  20.361  24.905  1.00  0.00     0.023 C 
BRANCH  26  27
ATOM     27  C   UNL A   1      38.674  20.715  25.675  1.00  0.00     0.116 C 
BRANCH  27  28
ATOM     28  N   UNL A   1      39.699  19.689  25.629  1.00  0.00    -0.352 N 
ATOM     29  C   UNL A   1      41.013  19.746  26.034  1.00  0.00     0.251 C 
ATOM     30  H   UNL A   1      39.413  18.825  25.253  1.00  0.00     0.163 HD
ATOM     31  O   UNL A   1      41.746  18.775  25.867  1.00  0.00    -0.269 OA
BRANCH  29  32
ATOM     32  C   UNL A   1      41.563  20.986  26.625  1.00  0.00     0.039 A 
ATOM     33  C   UNL A   1      42.058  21.970  25.761  1.00  0.00     0.014 A 
ATOM     34  C   UNL A   1      41.593  21.191  28.006  1.00  0.00     0.014 A 
ATOM     35  C   UNL A   1      42.507  23.188  26.276  1.00  0.00     0.010 A 
ATOM     36  C   UNL A   1      41.987  22.428  28.515  1.00  0.00     0.010 A 
ATOM     37  C   UNL A   1      42.438  23.442  27.655  1.00  0.00    -0.014 A 
BRANCH  37  38
ATOM     38  C   UNL A   1      42.812  24.766  28.211  1.00  0.00     0.031 A 
ATOM     39  C   UNL A   1      41.764  25.821  28.433  1.00  0.00     0.074 A 
ATOM     40  C   UNL A   1      44.108  25.045  28.449  1.00  0.00     0.049 A 
ATOM     41  N   UNL A   1      41.910  27.059  28.831  1.00  0.00    -0.248 NA
ATOM     42  C   UNL A   1      40.373  25.438  28.147  1.00  0.00     0.031 C 
ATOM     43  C   UNL A   1      45.226  24.125  28.231  1.00  0.00     0.029 A 
ATOM     44  N   UNL A   1      44.705  26.190  28.913  1.00  0.00    -0.354 N 
ATOM     45  C   UNL A   1      40.635  27.610  28.823  1.00  0.00     0.074 A 
ATOM     46  C   UNL A   1      39.734  26.583  28.346  1.00  0.00     0.031 C 
ATOM     47  C   UNL A   1      46.371  24.736  28.576  1.00  0.00     0.029 A 
ATOM     48  C   UNL A   1      46.073  26.097  29.009  1.00  0.00     0.049 A 
ATOM     49  H   UNL A   1      44.202  27.000  29.156  1.00  0.00     0.167 HD
ATOM     50  C   UNL A   1      40.249  28.854  29.194  1.00  0.00     0.037 A 
ATOM     51  C   UNL A   1      46.984  27.009  29.397  1.00  0.00     0.037 A 
ATOM     52  C   UNL A   1      41.139  29.866  29.699  1.00  0.00     0.049 A 
ATOM     53  C   UNL A   1      46.528  28.376  29.823  1.00  0.00     0.074 A 
ATOM     54  C   UNL A   1      40.831  31.134  30.160  1.00  0.00     0.029 A 
ATOM     55  N   UNL A   1      42.513  29.722  29.810  1.00  0.00    -0.354 N 
ATOM     56  N   UNL A   1      45.312  28.863  29.864  1.00  0.00    -0.248 NA
ATOM     57  C   UNL A   1      47.570  29.316  30.260  1.00  0.00     0.031 C 
ATOM     58  C   UNL A   1      42.023  31.768  30.526  1.00  0.00     0.029 A 
ATOM     59  C   UNL A   1      43.070  30.883  30.323  1.00  0.00     0.049 A 
ATOM     60  H   UNL A   1      43.019  28.915  29.563  1.00  0.00     0.167 HD
ATOM     61  C   UNL A   1      45.439  30.157  30.353  1.00  0.00     0.074 A 
ATOM     62  C   UNL A   1      46.848  30.374  30.603  1.00  0.00     0.031 C 
ATOM     63  C   UNL A   1      44.474  31.080  30.574  1.00  0.00     0.037 A 
BRANCH  50  64
ATOM     64  C   UNL A   1      38.792  29.185  29.072  1.00  0.00     0.057 A 
ATOM     65  C   UNL A   1      38.223  29.561  27.849  1.00  0.00     0.134 A 
ATOM     66  C   UNL A   1      37.943  29.100  30.182  1.00  0.00     0.134 A 
ATOM     67  F   UNL A   1      38.984  29.673  26.750  1.00  0.00    -0.206 F 
ATOM     68  C   UNL A   1      36.864  29.865  27.739  1.00  0.00     0.040 A 
ATOM     69  C   UNL A   1      36.580  29.380  30.081  1.00  0.00     0.040 A 
ATOM     70  F   UNL A   1      38.425  28.741  31.382  1.00  0.00    -0.206 F 
ATOM     71  C   UNL A   1      36.038  29.770  28.857  1.00  0.00     0.006 A 
ENDBRANCH  50  64
BRANCH  51  72
ATOM     72  C   UNL A   1      48.423  26.649  29.427  1.00  0.00     0.057 A 
ATOM     73  C   UNL A   1      49.253  26.922  28.335  1.00  0.00     0.134 A 
ATOM     74  C   UNL A   1      48.998  26.027  30.540  1.00  0.00     0.134 A 
ATOM     75  F   UNL A   1      48.751  27.499  27.233  1.00  0.00    -0.206 F 
ATOM     76  C   UNL A   1      50.605  26.576  28.341  1.00  0.00     0.040 A 
ATOM     77  C   UNL A   1      50.354  25.693  30.569  1.00  0.00     0.040 A 
ATOM     78  F   UNL A   1      48.254  25.746  31.620  1.00  0.00    -0.206 F 
ATOM     79  C   UNL A   1      51.159  25.963  29.463  1.00  0.00     0.006 A 
ENDBRANCH  51  72
BRANCH  63  80
ATOM     80  C   UNL A   1      44.906  32.399  31.140  1.00  0.00     0.057 A 
ATOM     81  C   UNL A   1      44.996  32.612  32.521  1.00  0.00     0.134 A 
ATOM     82  C   UNL A   1      45.268  33.453  30.293  1.00  0.00     0.134 A 
ATOM     83  F   UNL A   1      44.649  31.644  33.383  1.00  0.00    -0.206 F 
ATOM     84  C   UNL A   1      45.418  33.836  33.041  1.00  0.00     0.040 A 
ATOM     85  C   UNL A   1      45.710  34.675  30.802  1.00  0.00     0.040 A 
ATOM     86  F   UNL A   1      45.207  33.308  28.962  1.00  0.00    -0.206 F 
ATOM     87  C   UNL A   1      45.783  34.869  32.180  1.00  0.00     0.006 A 
ENDBRANCH  63  80
ENDBRANCH  37  38
ENDBRANCH  29  32
ENDBRANCH  27  28
ENDBRANCH  26  27
ENDBRANCH   1  26
TORSDOF 13
ENDMDL
