MODEL 1
REMARK VINA RESULT:     -11.4      0.000      0.000
REMARK SMILES CCCc1nc(C[N@H+]2CCCC[C@@H]2C(=O)NCCCCNC(=O)c2ccc(-c3c4nc(c(-c5c(F)cccc5F)c5ccc([nH]5)c(-c5c(F)cccc5F)c5nc(c(-c6c(F)cccc6F)c6ccc3[nH]6)C=C5)C=C4)cc2)cs1
REMARK SMILES IDX 17 1 16 2 14 3 15 4 13 6 8 7 9 8 10 10 12 11 11 12 7 13 6 14
REMARK SMILES IDX 4 15 5 16 79 17 78 18 3 19 2 20 1 21 18 22 19 23 20 24 21 25
REMARK SMILES IDX 22 26 23 28 24 29 25 30 77 31 26 32 76 33 27 34 28 35 29 36
REMARK SMILES IDX 70 37 30 38 75 39 69 40 71 41 31 42 74 43 68 44 67 45 32 47
REMARK SMILES IDX 58 48 41 49 57 50 42 51 45 52 56 53 72 54 43 55 44 56 55 58
REMARK SMILES IDX 73 59 46 60 33 61 34 62 39 63 35 64 36 65 38 66 40 67 37 68
REMARK SMILES IDX 59 69 60 70 65 71 61 72 62 73 64 74 66 75 63 76 47 77 48 78
REMARK SMILES IDX 53 79 49 80 50 81 52 82 54 83 51 84
REMARK H PARENT 16 5 8 9 21 27 71 46 45 57
REMARK Flexibility Score: inf
ROOT
ATOM      1  C   UNL A   1      36.099  21.470  25.749  1.00  0.00     0.116 C 
ENDROOT
BRANCH   1   2
ATOM      2  N   UNL A   1      35.151  21.500  26.846  1.00  0.00    -0.351 N 
ATOM      3  C   UNL A   1      34.061  22.301  27.034  1.00  0.00     0.278 C 
ATOM      4  O   UNL A   1      33.438  22.173  28.093  1.00  0.00    -0.268 OA
ATOM      5  H   UNL A   1      35.317  20.845  27.562  1.00  0.00     0.163 HD
BRANCH   3   6
ATOM      6  C   UNL A   1      33.590  23.303  25.953  1.00  0.00     0.274 C 
ATOM      7  N   UNL A   1      33.123  22.583  24.741  1.00  0.00    -0.320 N 
ATOM      8  C   UNL A   1      32.786  23.486  23.638  1.00  0.00     0.263 C 
ATOM      9  H   UNL A   1      33.930  22.031  24.448  1.00  0.00     0.349 HD
ATOM     10  C   UNL A   1      33.966  24.392  23.288  1.00  0.00     0.062 C 
ATOM     11  C   UNL A   1      34.699  24.334  25.673  1.00  0.00     0.076 C 
ATOM     12  C   UNL A   1      34.369  25.233  24.491  1.00  0.00     0.012 C 
BRANCH   7  13
ATOM     13  C   UNL A   1      32.038  21.609  24.997  1.00  0.00     0.321 C 
BRANCH  13  14
ATOM     14  C   UNL A   1      32.328  20.200  24.553  1.00  0.00     0.106 A 
ATOM     15  C   UNL A   1      32.657  18.030  24.938  1.00  0.00     0.093 A 
ATOM     16  N   UNL A   1      32.495  19.206  25.511  1.00  0.00    -0.240 NA
ATOM     17  S   UNL A   1      32.624  18.054  23.219  1.00  0.00    -0.127 S 
ATOM     18  C   UNL A   1      32.392  19.747  23.249  1.00  0.00     0.096 A 
BRANCH  15  19
ATOM     19  C   UNL A   1      32.754  16.750  25.722  1.00  0.00     0.067 C 
BRANCH  19  20
ATOM     20  C   UNL A   1      33.657  15.656  25.149  1.00  0.00     0.004 C 
ATOM     21  C   UNL A   1      35.143  15.964  25.271  1.00  0.00     0.004 C 
ENDBRANCH  19  20
ENDBRANCH  15  19
ENDBRANCH  13  14
ENDBRANCH   7  13
ENDBRANCH   3   6
ENDBRANCH   1   2
BRANCH   1  22
ATOM     22  C   UNL A   1      36.031  20.136  25.007  1.00  0.00     0.023 C 
BRANCH  22  23
ATOM     23  C   UNL A   1      37.386  19.457  24.804  1.00  0.00     0.023 C 
BRANCH  23  24
ATOM     24  C   UNL A   1      38.551  20.130  25.517  1.00  0.00     0.116 C 
BRANCH  24  25
ATOM     25  N   UNL A   1      39.705  19.255  25.664  1.00  0.00    -0.352 N 
ATOM     26  C   UNL A   1      40.974  19.570  26.084  1.00  0.00     0.251 C 
ATOM     27  H   UNL A   1      39.556  18.310  25.431  1.00  0.00     0.163 HD
ATOM     28  O   UNL A   1      41.876  18.740  26.020  1.00  0.00    -0.269 OA
BRANCH  26  29
ATOM     29  C   UNL A   1      41.252  20.930  26.585  1.00  0.00     0.039 A 
ATOM     30  C   UNL A   1      41.130  21.184  27.953  1.00  0.00     0.014 A 
ATOM     31  C   UNL A   1      41.663  21.939  25.710  1.00  0.00     0.014 A 
ATOM     32  C   UNL A   1      41.488  22.436  28.454  1.00  0.00     0.010 A 
ATOM     33  C   UNL A   1      42.090  23.160  26.220  1.00  0.00     0.010 A 
ATOM     34  C   UNL A   1      42.005  23.420  27.596  1.00  0.00    -0.014 A 
BRANCH  34  35
ATOM     35  C   UNL A   1      42.464  24.731  28.118  1.00  0.00     0.031 A 
ATOM     36  C   UNL A   1      41.475  25.834  28.363  1.00  0.00     0.074 A 
ATOM     37  C   UNL A   1      43.780  24.950  28.303  1.00  0.00     0.049 A 
ATOM     38  N   UNL A   1      41.688  27.066  28.750  1.00  0.00    -0.248 NA
ATOM     39  C   UNL A   1      40.059  25.520  28.110  1.00  0.00     0.031 C 
ATOM     40  C   UNL A   1      44.845  23.977  28.050  1.00  0.00     0.029 A 
ATOM     41  N   UNL A   1      44.449  26.067  28.736  1.00  0.00    -0.354 N 
ATOM     42  C   UNL A   1      40.439  27.675  28.772  1.00  0.00     0.074 A 
ATOM     43  C   UNL A   1      39.482  26.695  28.305  1.00  0.00     0.031 C 
ATOM     44  C   UNL A   1      46.029  24.532  28.353  1.00  0.00     0.029 A 
ATOM     45  C   UNL A   1      45.812  25.909  28.787  1.00  0.00     0.049 A 
ATOM     46  H   UNL A   1      43.993  26.903  28.988  1.00  0.00     0.167 HD
ATOM     47  C   UNL A   1      40.116  28.929  29.167  1.00  0.00     0.037 A 
ATOM     48  C   UNL A   1      46.778  26.777  29.138  1.00  0.00     0.037 A 
ATOM     49  C   UNL A   1      41.068  29.893  29.651  1.00  0.00     0.049 A 
ATOM     50  C   UNL A   1      46.396  28.164  29.574  1.00  0.00     0.074 A 
ATOM     51  C   UNL A   1      40.835  31.168  30.136  1.00  0.00     0.029 A 
ATOM     52  N   UNL A   1      42.440  29.688  29.709  1.00  0.00    -0.354 N 
ATOM     53  N   UNL A   1      45.205  28.704  29.660  1.00  0.00    -0.248 NA
ATOM     54  C   UNL A   1      47.492  29.059  29.970  1.00  0.00     0.031 C 
ATOM     55  C   UNL A   1      42.069  31.751  30.446  1.00  0.00     0.029 A 
ATOM     56  C   UNL A   1      43.067  30.821  30.200  1.00  0.00     0.049 A 
ATOM     57  H   UNL A   1      42.898  28.860  29.440  1.00  0.00     0.167 HD
ATOM     58  C   UNL A   1      45.404  29.991  30.143  1.00  0.00     0.074 A 
ATOM     59  C   UNL A   1      46.830  30.145  30.344  1.00  0.00     0.031 C 
ATOM     60  C   UNL A   1      44.487  30.958  30.398  1.00  0.00     0.037 A 
BRANCH  47  61
ATOM     61  C   UNL A   1      38.670  29.323  29.093  1.00  0.00     0.057 A 
ATOM     62  C   UNL A   1      38.076  29.731  27.891  1.00  0.00     0.134 A 
ATOM     63  C   UNL A   1      37.856  29.279  30.231  1.00  0.00     0.134 A 
ATOM     64  F   UNL A   1      38.802  29.809  26.765  1.00  0.00    -0.206 F 
ATOM     65  C   UNL A   1      36.735  30.115  27.831  1.00  0.00     0.040 A 
ATOM     66  C   UNL A   1      36.506  29.631  30.178  1.00  0.00     0.040 A 
ATOM     67  F   UNL A   1      38.357  28.891  31.414  1.00  0.00    -0.206 F 
ATOM     68  C   UNL A   1      35.945  30.059  28.977  1.00  0.00     0.006 A 
ENDBRANCH  47  61
BRANCH  48  69
ATOM     69  C   UNL A   1      48.199  26.350  29.118  1.00  0.00     0.057 A 
ATOM     70  C   UNL A   1      48.784  25.740  30.233  1.00  0.00     0.134 A 
ATOM     71  C   UNL A   1      49.002  26.533  27.986  1.00  0.00     0.134 A 
ATOM     72  F   UNL A   1      48.070  25.554  31.352  1.00  0.00    -0.206 F 
ATOM     73  C   UNL A   1      50.122  25.341  30.231  1.00  0.00     0.040 A 
ATOM     74  C   UNL A   1      50.335  26.117  27.961  1.00  0.00     0.040 A 
ATOM     75  F   UNL A   1      48.499  27.104  26.882  1.00  0.00    -0.206 F 
ATOM     76  C   UNL A   1      50.899  25.524  29.089  1.00  0.00     0.006 A 
ENDBRANCH  48  69
BRANCH  60  77
ATOM     77  C   UNL A   1      44.996  32.255  30.952  1.00  0.00     0.057 A 
ATOM     78  C   UNL A   1      45.354  33.325  30.121  1.00  0.00     0.134 A 
ATOM     79  C   UNL A   1      45.090  32.450  32.336  1.00  0.00     0.134 A 
ATOM     80  F   UNL A   1      45.299  33.198  28.787  1.00  0.00    -0.206 F 
ATOM     81  C   UNL A   1      45.807  34.536  30.648  1.00  0.00     0.040 A 
ATOM     82  C   UNL A   1      45.517  33.665  32.875  1.00  0.00     0.040 A 
ATOM     83  F   UNL A   1      44.755  31.469  33.187  1.00  0.00    -0.206 F 
ATOM     84  C   UNL A   1      45.883  34.710  32.029  1.00  0.00     0.006 A 
ENDBRANCH  60  77
ENDBRANCH  34  35
ENDBRANCH  26  29
ENDBRANCH  24  25
ENDBRANCH  23  24
ENDBRANCH  22  23
ENDBRANCH   1  22
TORSDOF 15
ENDMDL
MODEL 2
REMARK VINA RESULT:     -11.4      5.446     10.094
REMARK SMILES CCCc1nc(C[N@H+]2CCCC[C@@H]2C(=O)NCCCCNC(=O)c2ccc(-c3c4nc(c(-c5c(F)cccc5F)c5ccc([nH]5)c(-c5c(F)cccc5F)c5nc(c(-c6c(F)cccc6F)c6ccc3[nH]6)C=C5)C=C4)cc2)cs1
REMARK SMILES IDX 17 1 16 2 14 3 15 4 13 6 8 7 9 8 10 10 12 11 11 12 7 13 6 14
REMARK SMILES IDX 4 15 5 16 79 17 78 18 3 19 2 20 1 21 18 22 19 23 20 24 21 25
REMARK SMILES IDX 22 26 23 28 24 29 25 30 77 31 26 32 76 33 27 34 28 35 29 36
REMARK SMILES IDX 70 37 30 38 75 39 69 40 71 41 31 42 74 43 68 44 67 45 32 47
REMARK SMILES IDX 58 48 41 49 57 50 42 51 45 52 56 53 72 54 43 55 44 56 55 58
REMARK SMILES IDX 73 59 46 60 33 61 34 62 39 63 35 64 36 65 38 66 40 67 37 68
REMARK SMILES IDX 59 69 60 70 65 71 61 72 62 73 64 74 66 75 63 76 47 77 48 78
REMARK SMILES IDX 53 79 49 80 50 81 52 82 54 83 51 84
REMARK H PARENT 16 5 8 9 21 27 71 46 45 57
REMARK Flexibility Score: inf
ROOT
ATOM      1  C   UNL A   1      32.430  29.818  25.642  1.00  0.00     0.116 C 
ENDROOT
BRANCH   1   2
ATOM      2  N   UNL A   1      33.195  29.724  24.412  1.00  0.00    -0.351 N 
ATOM      3  C   UNL A   1      33.620  28.618  23.733  1.00  0.00     0.278 C 
ATOM      4  O   UNL A   1      34.318  28.801  22.730  1.00  0.00    -0.268 OA
ATOM      5  H   UNL A   1      33.444  30.586  24.007  1.00  0.00     0.163 HD
BRANCH   3   6
ATOM      6  C   UNL A   1      33.216  27.189  24.169  1.00  0.00     0.274 C 
ATOM      7  N   UNL A   1      31.745  27.008  24.067  1.00  0.00    -0.320 N 
ATOM      8  C   UNL A   1      31.295  25.715  24.588  1.00  0.00     0.263 C 
ATOM      9  H   UNL A   1      31.359  27.734  24.672  1.00  0.00     0.349 HD
ATOM     10  C   UNL A   1      31.749  25.515  26.033  1.00  0.00     0.062 C 
ATOM     11  C   UNL A   1      33.783  26.886  25.568  1.00  0.00     0.076 C 
ATOM     12  C   UNL A   1      33.267  25.568  26.129  1.00  0.00     0.012 C 
BRANCH   7  13
ATOM     13  C   UNL A   1      31.197  27.271  22.718  1.00  0.00     0.321 C 
BRANCH  13  14
ATOM     14  C   UNL A   1      30.004  28.190  22.683  1.00  0.00     0.106 A 
ATOM     15  C   UNL A   1      28.931  30.019  21.995  1.00  0.00     0.093 A 
ATOM     16  N   UNL A   1      30.090  29.390  21.984  1.00  0.00    -0.240 NA
ATOM     17  S   UNL A   1      27.678  29.207  22.849  1.00  0.00    -0.127 S 
ATOM     18  C   UNL A   1      28.762  27.945  23.237  1.00  0.00     0.096 A 
BRANCH  15  19
ATOM     19  C   UNL A   1      28.689  31.291  21.231  1.00  0.00     0.067 C 
BRANCH  19  20
ATOM     20  C   UNL A   1      28.059  32.451  22.003  1.00  0.00     0.004 C 
ATOM     21  C   UNL A   1      29.026  33.156  22.943  1.00  0.00     0.004 C 
ENDBRANCH  19  20
ENDBRANCH  15  19
ENDBRANCH  13  14
ENDBRANCH   7  13
ENDBRANCH   3   6
ENDBRANCH   1   2
BRANCH   1  22
ATOM     22  C   UNL A   1      31.126  30.581  25.413  1.00  0.00     0.023 C 
BRANCH  22  23
ATOM     23  C   UNL A   1      31.033  31.909  26.166  1.00  0.00     0.023 C 
BRANCH  23  24
ATOM     24  C   UNL A   1      32.310  32.331  26.880  1.00  0.00     0.116 C 
BRANCH  24  25
ATOM     25  N   UNL A   1      32.270  33.709  27.345  1.00  0.00    -0.352 N 
ATOM     26  C   UNL A   1      33.093  34.336  28.248  1.00  0.00     0.251 C 
ATOM     27  H   UNL A   1      31.556  34.267  26.961  1.00  0.00     0.163 HD
ATOM     28  O   UNL A   1      32.839  35.470  28.640  1.00  0.00    -0.269 OA
BRANCH  26  29
ATOM     29  C   UNL A   1      34.272  33.617  28.770  1.00  0.00     0.039 A 
ATOM     30  C   UNL A   1      35.546  34.115  28.487  1.00  0.00     0.014 A 
ATOM     31  C   UNL A   1      34.116  32.476  29.562  1.00  0.00     0.014 A 
ATOM     32  C   UNL A   1      36.665  33.506  29.058  1.00  0.00     0.010 A 
ATOM     33  C   UNL A   1      35.223  31.918  30.189  1.00  0.00     0.010 A 
ATOM     34  C   UNL A   1      36.508  32.426  29.941  1.00  0.00    -0.014 A 
BRANCH  34  35
ATOM     35  C   UNL A   1      37.676  31.813  30.620  1.00  0.00     0.031 A 
ATOM     36  C   UNL A   1      38.475  30.746  29.928  1.00  0.00     0.074 A 
ATOM     37  C   UNL A   1      37.972  32.166  31.886  1.00  0.00     0.049 A 
ATOM     38  N   UNL A   1      39.484  30.044  30.380  1.00  0.00    -0.248 NA
ATOM     39  C   UNL A   1      38.069  30.400  28.557  1.00  0.00     0.031 C 
ATOM     40  C   UNL A   1      37.239  33.151  32.684  1.00  0.00     0.029 A 
ATOM     41  N   UNL A   1      38.963  31.728  32.728  1.00  0.00    -0.354 N 
ATOM     42  C   UNL A   1      39.820  29.167  29.356  1.00  0.00     0.074 A 
ATOM     43  C   UNL A   1      38.874  29.385  28.284  1.00  0.00     0.031 C 
ATOM     44  C   UNL A   1      37.817  33.257  33.891  1.00  0.00     0.029 A 
ATOM     45  C   UNL A   1      38.938  32.325  33.965  1.00  0.00     0.049 A 
ATOM     46  H   UNL A   1      39.628  31.050  32.469  1.00  0.00     0.167 HD
ATOM     47  C   UNL A   1      40.839  28.277  29.305  1.00  0.00     0.037 A 
ATOM     48  C   UNL A   1      39.727  32.137  35.039  1.00  0.00     0.037 A 
ATOM     49  C   UNL A   1      41.791  28.078  30.366  1.00  0.00     0.049 A 
ATOM     50  C   UNL A   1      40.853  31.144  34.959  1.00  0.00     0.074 A 
ATOM     51  C   UNL A   1      42.898  27.248  30.387  1.00  0.00     0.029 A 
ATOM     52  N   UNL A   1      41.747  28.718  31.596  1.00  0.00    -0.354 N 
ATOM     53  N   UNL A   1      41.205  30.373  33.959  1.00  0.00    -0.248 NA
ATOM     54  C   UNL A   1      41.696  31.002  36.154  1.00  0.00     0.031 C 
ATOM     55  C   UNL A   1      43.498  27.352  31.647  1.00  0.00     0.029 A 
ATOM     56  C   UNL A   1      42.794  28.284  32.393  1.00  0.00     0.049 A 
ATOM     57  H   UNL A   1      41.072  29.382  31.863  1.00  0.00     0.167 HD
ATOM     58  C   UNL A   1      42.323  29.673  34.393  1.00  0.00     0.074 A 
ATOM     59  C   UNL A   1      42.599  30.122  35.742  1.00  0.00     0.031 C 
ATOM     60  C   UNL A   1      43.057  28.743  33.732  1.00  0.00     0.037 A 
BRANCH  47  61
ATOM     61  C   UNL A   1      40.972  27.455  28.057  1.00  0.00     0.057 A 
ATOM     62  C   UNL A   1      40.350  26.206  27.924  1.00  0.00     0.134 A 
ATOM     63  C   UNL A   1      41.718  27.922  26.967  1.00  0.00     0.134 A 
ATOM     64  F   UNL A   1      39.632  25.693  28.935  1.00  0.00    -0.206 F 
ATOM     65  C   UNL A   1      40.493  25.436  26.768  1.00  0.00     0.040 A 
ATOM     66  C   UNL A   1      41.844  27.175  25.795  1.00  0.00     0.040 A 
ATOM     67  F   UNL A   1      42.335  29.112  27.024  1.00  0.00    -0.206 F 
ATOM     68  C   UNL A   1      41.238  25.925  25.696  1.00  0.00     0.006 A 
ENDBRANCH  47  61
BRANCH  48  69
ATOM     69  C   UNL A   1      39.496  32.928  36.272  1.00  0.00     0.057 A 
ATOM     70  C   UNL A   1      38.621  32.477  37.266  1.00  0.00     0.134 A 
ATOM     71  C   UNL A   1      40.148  34.148  36.492  1.00  0.00     0.134 A 
ATOM     72  F   UNL A   1      37.954  31.324  37.104  1.00  0.00    -0.206 F 
ATOM     73  C   UNL A   1      38.388  33.215  38.428  1.00  0.00     0.040 A 
ATOM     74  C   UNL A   1      39.944  34.885  37.660  1.00  0.00     0.040 A 
ATOM     75  F   UNL A   1      41.006  34.632  35.582  1.00  0.00    -0.206 F 
ATOM     76  C   UNL A   1      39.057  34.421  38.629  1.00  0.00     0.006 A 
ENDBRANCH  48  69
BRANCH  60  77
ATOM     77  C   UNL A   1      44.245  28.173  34.448  1.00  0.00     0.057 A 
ATOM     78  C   UNL A   1      44.161  26.994  35.199  1.00  0.00     0.134 A 
ATOM     79  C   UNL A   1      45.499  28.790  34.350  1.00  0.00     0.134 A 
ATOM     80  F   UNL A   1      42.987  26.362  35.344  1.00  0.00    -0.206 F 
ATOM     81  C   UNL A   1      45.278  26.460  35.846  1.00  0.00     0.040 A 
ATOM     82  C   UNL A   1      46.628  28.253  34.969  1.00  0.00     0.040 A 
ATOM     83  F   UNL A   1      45.649  29.918  33.639  1.00  0.00    -0.206 F 
ATOM     84  C   UNL A   1      46.517  27.087  35.725  1.00  0.00     0.006 A 
ENDBRANCH  60  77
ENDBRANCH  34  35
ENDBRANCH  26  29
ENDBRANCH  24  25
ENDBRANCH  23  24
ENDBRANCH  22  23
ENDBRANCH   1  22
TORSDOF 15
ENDMDL
MODEL 3
REMARK VINA RESULT:     -11.3      5.416      9.361
REMARK SMILES CCCc1nc(C[N@H+]2CCCC[C@@H]2C(=O)NCCCCNC(=O)c2ccc(-c3c4nc(c(-c5c(F)cccc5F)c5ccc([nH]5)c(-c5c(F)cccc5F)c5nc(c(-c6c(F)cccc6F)c6ccc3[nH]6)C=C5)C=C4)cc2)cs1
REMARK SMILES IDX 17 1 16 2 14 3 15 4 13 6 8 7 9 8 10 10 12 11 11 12 7 13 6 14
REMARK SMILES IDX 4 15 5 16 79 17 78 18 3 19 2 20 1 21 18 22 19 23 20 24 21 25
REMARK SMILES IDX 22 26 23 28 24 29 25 30 77 31 26 32 76 33 27 34 28 35 29 36
REMARK SMILES IDX 70 37 30 38 75 39 69 40 71 41 31 42 74 43 68 44 67 45 32 47
REMARK SMILES IDX 58 48 41 49 57 50 42 51 45 52 56 53 72 54 43 55 44 56 55 58
REMARK SMILES IDX 73 59 46 60 33 61 34 62 39 63 35 64 36 65 38 66 40 67 37 68
REMARK SMILES IDX 59 69 60 70 65 71 61 72 62 73 64 74 66 75 63 76 47 77 48 78
REMARK SMILES IDX 53 79 49 80 50 81 52 82 54 83 51 84
REMARK H PARENT 16 5 8 9 21 27 71 46 45 57
REMARK Flexibility Score: inf
ROOT
ATOM      1  C   UNL A   1      32.352  29.722  25.557  1.00  0.00     0.116 C 
ENDROOT
BRANCH   1   2
ATOM      2  N   UNL A   1      33.188  29.660  24.373  1.00  0.00    -0.351 N 
ATOM      3  C   UNL A   1      33.638  28.573  23.680  1.00  0.00     0.278 C 
ATOM      4  O   UNL A   1      34.398  28.780  22.728  1.00  0.00    -0.268 OA
ATOM      5  H   UNL A   1      33.473  30.532  24.016  1.00  0.00     0.163 HD
BRANCH   3   6
ATOM      6  C   UNL A   1      33.189  27.136  24.037  1.00  0.00     0.274 C 
ATOM      7  N   UNL A   1      31.715  27.004  23.913  1.00  0.00    -0.320 N 
ATOM      8  C   UNL A   1      31.222  25.699  24.363  1.00  0.00     0.263 C 
ATOM      9  H   UNL A   1      31.343  27.708  24.552  1.00  0.00     0.349 HD
ATOM     10  C   UNL A   1      31.655  25.412  25.800  1.00  0.00     0.062 C 
ATOM     11  C   UNL A   1      33.732  26.745  25.424  1.00  0.00     0.076 C 
ATOM     12  C   UNL A   1      33.173  25.415  25.911  1.00  0.00     0.012 C 
BRANCH   7  13
ATOM     13  C   UNL A   1      31.188  27.352  22.575  1.00  0.00     0.321 C 
BRANCH  13  14
ATOM     14  C   UNL A   1      29.988  28.261  22.579  1.00  0.00     0.106 A 
ATOM     15  C   UNL A   1      28.821  30.005  21.826  1.00  0.00     0.093 A 
ATOM     16  N   UNL A   1      29.978  29.378  21.750  1.00  0.00    -0.240 NA
ATOM     17  S   UNL A   1      27.684  29.292  22.903  1.00  0.00    -0.127 S 
ATOM     18  C   UNL A   1      28.821  28.079  23.297  1.00  0.00     0.096 A 
BRANCH  15  19
ATOM     19  C   UNL A   1      28.476  31.186  20.962  1.00  0.00     0.067 C 
BRANCH  19  20
ATOM     20  C   UNL A   1      28.019  32.457  21.679  1.00  0.00     0.004 C 
ATOM     21  C   UNL A   1      28.922  32.866  22.834  1.00  0.00     0.004 C 
ENDBRANCH  19  20
ENDBRANCH  15  19
ENDBRANCH  13  14
ENDBRANCH   7  13
ENDBRANCH   3   6
ENDBRANCH   1   2
BRANCH   1  22
ATOM     22  C   UNL A   1      31.074  30.512  25.280  1.00  0.00     0.023 C 
BRANCH  22  23
ATOM     23  C   UNL A   1      30.984  31.846  26.023  1.00  0.00     0.023 C 
BRANCH  23  24
ATOM     24  C   UNL A   1      32.165  32.150  26.936  1.00  0.00     0.116 C 
BRANCH  24  25
ATOM     25  N   UNL A   1      32.221  33.547  27.340  1.00  0.00    -0.352 N 
ATOM     26  C   UNL A   1      33.137  34.170  28.152  1.00  0.00     0.251 C 
ATOM     27  H   UNL A   1      31.507  34.123  26.984  1.00  0.00     0.163 HD
ATOM     28  O   UNL A   1      32.965  35.331  28.510  1.00  0.00    -0.269 OA
BRANCH  26  29
ATOM     29  C   UNL A   1      34.318  33.417  28.619  1.00  0.00     0.039 A 
ATOM     30  C   UNL A   1      35.553  34.067  28.677  1.00  0.00     0.014 A 
ATOM     31  C   UNL A   1      34.196  32.087  29.028  1.00  0.00     0.014 A 
ATOM     32  C   UNL A   1      36.656  33.400  29.212  1.00  0.00     0.010 A 
ATOM     33  C   UNL A   1      35.276  31.451  29.629  1.00  0.00     0.010 A 
ATOM     34  C   UNL A   1      36.516  32.100  29.726  1.00  0.00    -0.014 A 
BRANCH  34  35
ATOM     35  C   UNL A   1      37.656  31.402  30.369  1.00  0.00     0.031 A 
ATOM     36  C   UNL A   1      38.017  31.705  31.795  1.00  0.00     0.074 A 
ATOM     37  C   UNL A   1      38.408  30.549  29.648  1.00  0.00     0.049 A 
ATOM     38  N   UNL A   1      39.016  31.252  32.510  1.00  0.00    -0.248 NA
ATOM     39  C   UNL A   1      37.160  32.669  32.504  1.00  0.00     0.031 C 
ATOM     40  C   UNL A   1      38.192  30.212  28.239  1.00  0.00     0.029 A 
ATOM     41  N   UNL A   1      39.515  29.817  29.998  1.00  0.00    -0.354 N 
ATOM     42  C   UNL A   1      38.914  31.886  33.742  1.00  0.00     0.074 A 
ATOM     43  C   UNL A   1      37.793  32.796  33.659  1.00  0.00     0.031 C 
ATOM     44  C   UNL A   1      39.121  29.325  27.851  1.00  0.00     0.029 A 
ATOM     45  C   UNL A   1      40.019  29.057  28.971  1.00  0.00     0.049 A 
ATOM     46  H   UNL A   1      39.908  29.836  30.900  1.00  0.00     0.167 HD
ATOM     47  C   UNL A   1      39.673  31.707  34.850  1.00  0.00     0.037 A 
ATOM     48  C   UNL A   1      41.089  28.241  28.935  1.00  0.00     0.037 A 
ATOM     49  C   UNL A   1      40.773  30.785  34.935  1.00  0.00     0.049 A 
ATOM     50  C   UNL A   1      41.916  28.058  30.177  1.00  0.00     0.074 A 
ATOM     51  C   UNL A   1      41.564  30.484  36.030  1.00  0.00     0.029 A 
ATOM     52  N   UNL A   1      41.242  30.015  33.880  1.00  0.00    -0.354 N 
ATOM     53  N   UNL A   1      41.766  28.608  31.357  1.00  0.00    -0.248 NA
ATOM     54  C   UNL A   1      43.055  27.135  30.084  1.00  0.00     0.031 C 
ATOM     55  C   UNL A   1      42.539  29.564  35.626  1.00  0.00     0.029 A 
ATOM     56  C   UNL A   1      42.324  29.256  34.292  1.00  0.00     0.049 A 
ATOM     57  H   UNL A   1      40.861  30.010  32.972  1.00  0.00     0.167 HD
ATOM     58  C   UNL A   1      42.773  28.080  32.154  1.00  0.00     0.074 A 
ATOM     59  C   UNL A   1      43.520  27.156  31.326  1.00  0.00     0.031 C 
ATOM     60  C   UNL A   1      43.054  28.337  33.456  1.00  0.00     0.037 A 
BRANCH  47  61
ATOM     61  C   UNL A   1      39.330  32.530  36.058  1.00  0.00     0.057 A 
ATOM     62  C   UNL A   1      38.433  32.072  37.033  1.00  0.00     0.134 A 
ATOM     63  C   UNL A   1      39.912  33.787  36.258  1.00  0.00     0.134 A 
ATOM     64  F   UNL A   1      37.830  30.881  36.897  1.00  0.00    -0.206 F 
ATOM     65  C   UNL A   1      38.103  32.848  38.146  1.00  0.00     0.040 A 
ATOM     66  C   UNL A   1      39.612  34.561  37.381  1.00  0.00     0.040 A 
ATOM     67  F   UNL A   1      40.783  34.285  35.366  1.00  0.00    -0.206 F 
ATOM     68  C   UNL A   1      38.699  34.095  38.324  1.00  0.00     0.006 A 
ENDBRANCH  47  61
BRANCH  48  69
ATOM     69  C   UNL A   1      41.421  27.513  27.685  1.00  0.00     0.057 A 
ATOM     70  C   UNL A   1      40.964  26.209  27.468  1.00  0.00     0.134 A 
ATOM     71  C   UNL A   1      42.194  28.103  26.678  1.00  0.00     0.134 A 
ATOM     72  F   UNL A   1      40.234  25.585  28.404  1.00  0.00    -0.206 F 
ATOM     73  C   UNL A   1      41.276  25.508  26.301  1.00  0.00     0.040 A 
ATOM     74  C   UNL A   1      42.494  27.424  25.496  1.00  0.00     0.040 A 
ATOM     75  F   UNL A   1      42.656  29.353  26.823  1.00  0.00    -0.206 F 
ATOM     76  C   UNL A   1      42.038  26.120  25.308  1.00  0.00     0.006 A 
ENDBRANCH  48  69
BRANCH  60  77
ATOM     77  C   UNL A   1      44.197  27.586  34.071  1.00  0.00     0.057 A 
ATOM     78  C   UNL A   1      44.030  26.313  34.632  1.00  0.00     0.134 A 
ATOM     79  C   UNL A   1      45.489  28.126  34.065  1.00  0.00     0.134 A 
ATOM     80  F   UNL A   1      42.815  25.746  34.681  1.00  0.00    -0.206 F 
ATOM     81  C   UNL A   1      45.104  25.614  35.185  1.00  0.00     0.040 A 
ATOM     82  C   UNL A   1      46.576  27.426  34.591  1.00  0.00     0.040 A 
ATOM     83  F   UNL A   1      45.719  29.337  33.536  1.00  0.00    -0.206 F 
ATOM     84  C   UNL A   1      46.383  26.168  35.158  1.00  0.00     0.006 A 
ENDBRANCH  60  77
ENDBRANCH  34  35
ENDBRANCH  26  29
ENDBRANCH  24  25
ENDBRANCH  23  24
ENDBRANCH  22  23
ENDBRANCH   1  22
TORSDOF 15
ENDMDL
