MODEL 1
REMARK VINA RESULT:     -12.4      0.000      0.000
REMARK SMILES CC1CCN(S(=O)(=O)N2CCC[C@H](c3cccc(C(=O)NCCCCNC(=O)c4ccc(-c5c6nc(c(-c7c(F)cccc7F)c7ccc([nH]7)c(-c7c(F)cccc7F)c7nc(c(-c8c(F)cccc8F)c8ccc5[nH]8)C=C7)C=C6)cc4)c3)C2)CC1
REMARK SMILES IDX 23 1 22 2 21 3 19 4 20 5 18 7 14 8 15 9 83 10 16 11 17 12
REMARK SMILES IDX 13 13 9 14 10 15 84 16 11 17 12 18 6 19 7 20 8 21 5 22 1 23
REMARK SMILES IDX 2 24 3 25 86 26 4 27 85 28 24 29 25 30 26 31 27 32 28 34
REMARK SMILES IDX 29 35 30 36 82 37 31 38 81 39 32 40 33 41 34 42 75 43 35 44
REMARK SMILES IDX 80 45 74 46 76 47 36 48 79 49 73 50 72 51 37 53 63 54 46 55
REMARK SMILES IDX 62 56 47 57 50 58 61 59 77 60 48 61 49 62 60 64 78 65 51 66
REMARK SMILES IDX 38 67 39 68 44 69 40 70 41 71 43 72 45 73 42 74 64 75 65 76
REMARK SMILES IDX 70 77 66 78 67 79 69 80 71 81 68 82 52 83 53 84 58 85 54 86
REMARK SMILES IDX 55 87 57 88 59 89 56 90
REMARK H PARENT 21 6 26 33 76 52 50 63
REMARK Flexibility Score: inf
ROOT
ATOM      1  C   UNL A   1      40.419  22.258  27.426  1.00  0.00     0.023 C 
ENDROOT
BRANCH   1   2
ATOM      2  C   UNL A   1      39.339  22.293  26.355  1.00  0.00     0.116 C 
BRANCH   2   3
ATOM      3  N   UNL A   1      38.913  20.993  25.849  1.00  0.00    -0.352 N 
ATOM      4  C   UNL A   1      37.826  20.627  25.072  1.00  0.00     0.251 C 
ATOM      5  O   UNL A   1      37.681  19.440  24.782  1.00  0.00    -0.269 OA
ATOM      6  H   UNL A   1      39.502  20.246  26.104  1.00  0.00     0.163 HD
BRANCH   4   7
ATOM      7  C   UNL A   1      36.797  21.615  24.647  1.00  0.00     0.040 A 
ATOM      8  C   UNL A   1      34.447  22.233  24.640  1.00  0.00    -0.043 A 
ATOM      9  C   UNL A   1      34.685  23.042  23.520  1.00  0.00     0.004 A 
ATOM     10  C   UNL A   1      35.560  21.674  25.277  1.00  0.00     0.017 A 
ATOM     11  C   UNL A   1      35.978  23.180  23.005  1.00  0.00     0.001 A 
ATOM     12  C   UNL A   1      37.026  22.424  23.534  1.00  0.00     0.014 A 
BRANCH   8  13
ATOM     13  C   UNL A   1      33.071  21.702  25.031  1.00  0.00     0.034 C 
ATOM     14  N   UNL A   1      31.675  23.731  25.303  1.00  0.00    -0.188 NA
ATOM     15  C   UNL A   1      31.558  23.566  26.763  1.00  0.00     0.103 C 
ATOM     16  C   UNL A   1      31.863  22.492  24.524  1.00  0.00     0.111 C 
ATOM     17  C   UNL A   1      32.717  22.725  27.300  1.00  0.00     0.017 C 
ATOM     18  C   UNL A   1      32.850  21.419  26.529  1.00  0.00     0.011 C 
BRANCH  14  19
ATOM     19  S   UNL A   1      30.855  25.002  24.588  1.00  0.00     0.281 S 
ATOM     20  O   UNL A   1      30.051  25.634  25.605  1.00  0.00    -0.195 OA
ATOM     21  O   UNL A   1      30.239  24.509  23.374  1.00  0.00    -0.195 OA
BRANCH  19  22
ATOM     22  N   UNL A   1      32.085  26.074  24.105  1.00  0.00    -0.189 NA
ATOM     23  C   UNL A   1      31.870  28.831  27.351  1.00  0.00     0.008 C 
ATOM     24  C   UNL A   1      32.383  28.286  26.017  1.00  0.00    -0.012 C 
ATOM     25  C   UNL A   1      31.247  28.256  24.975  1.00  0.00     0.020 C 
ATOM     26  C   UNL A   1      33.041  26.914  26.228  1.00  0.00     0.020 C 
ATOM     27  C   UNL A   1      31.574  27.427  23.730  1.00  0.00     0.104 C 
ATOM     28  C   UNL A   1      33.322  26.243  24.895  1.00  0.00     0.104 C 
ENDBRANCH  19  22
ENDBRANCH  14  19
ENDBRANCH   8  13
ENDBRANCH   4   7
ENDBRANCH   2   3
ENDBRANCH   1   2
BRANCH   1  29
ATOM     29  C   UNL A   1      41.848  22.092  26.933  1.00  0.00     0.023 C 
BRANCH  29  30
ATOM     30  C   UNL A   1      42.682  23.366  26.887  1.00  0.00     0.116 C 
BRANCH  30  31
ATOM     31  N   UNL A   1      42.266  24.306  25.853  1.00  0.00    -0.352 N 
ATOM     32  C   UNL A   1      41.777  25.588  25.976  1.00  0.00     0.251 C 
ATOM     33  H   UNL A   1      42.347  23.975  24.929  1.00  0.00     0.163 HD
ATOM     34  O   UNL A   1      41.384  26.200  24.989  1.00  0.00    -0.269 OA
BRANCH  32  35
ATOM     35  C   UNL A   1      41.682  26.203  27.316  1.00  0.00     0.039 A 
ATOM     36  C   UNL A   1      42.673  27.101  27.720  1.00  0.00     0.014 A 
ATOM     37  C   UNL A   1      40.578  25.955  28.136  1.00  0.00     0.014 A 
ATOM     38  C   UNL A   1      42.496  27.840  28.891  1.00  0.00     0.010 A 
ATOM     39  C   UNL A   1      40.362  26.754  29.252  1.00  0.00     0.010 A 
ATOM     40  C   UNL A   1      41.307  27.721  29.628  1.00  0.00    -0.014 A 
BRANCH  40  41
ATOM     41  C   UNL A   1      41.001  28.638  30.756  1.00  0.00     0.031 A 
ATOM     42  C   UNL A   1      39.913  29.665  30.628  1.00  0.00     0.074 A 
ATOM     43  C   UNL A   1      41.770  28.603  31.864  1.00  0.00     0.049 A 
ATOM     44  N   UNL A   1      39.569  30.613  31.462  1.00  0.00    -0.248 NA
ATOM     45  C   UNL A   1      39.124  29.639  29.387  1.00  0.00     0.031 C 
ATOM     46  C   UNL A   1      42.887  27.685  32.092  1.00  0.00     0.029 A 
ATOM     47  N   UNL A   1      41.739  29.373  33.001  1.00  0.00    -0.354 N 
ATOM     48  C   UNL A   1      38.532  31.300  30.845  1.00  0.00     0.074 A 
ATOM     49  C   UNL A   1      38.339  30.695  29.544  1.00  0.00     0.031 C 
ATOM     50  C   UNL A   1      43.420  27.929  33.300  1.00  0.00     0.029 A 
ATOM     51  C   UNL A   1      42.720  29.054  33.910  1.00  0.00     0.049 A 
ATOM     52  H   UNL A   1      41.077  30.087  33.151  1.00  0.00     0.167 HD
ATOM     53  C   UNL A   1      37.795  32.327  31.328  1.00  0.00     0.037 A 
ATOM     54  C   UNL A   1      43.036  29.617  35.093  1.00  0.00     0.037 A 
ATOM     55  C   UNL A   1      37.986  32.922  32.626  1.00  0.00     0.049 A 
ATOM     56  C   UNL A   1      42.230  30.788  35.585  1.00  0.00     0.074 A 
ATOM     57  C   UNL A   1      37.250  33.926  33.230  1.00  0.00     0.029 A 
ATOM     58  N   UNL A   1      38.993  32.574  33.514  1.00  0.00    -0.354 N 
ATOM     59  N   UNL A   1      41.200  31.376  35.026  1.00  0.00    -0.248 NA
ATOM     60  C   UNL A   1      42.632  31.376  36.870  1.00  0.00     0.031 C 
ATOM     61  C   UNL A   1      37.849  34.230  34.455  1.00  0.00     0.029 A 
ATOM     62  C   UNL A   1      38.922  33.374  34.644  1.00  0.00     0.049 A 
ATOM     63  H   UNL A   1      39.659  31.865  33.364  1.00  0.00     0.167 HD
ATOM     64  C   UNL A   1      40.820  32.388  35.898  1.00  0.00     0.074 A 
ATOM     65  C   UNL A   1      41.715  32.319  37.035  1.00  0.00     0.031 C 
ATOM     66  C   UNL A   1      39.822  33.296  35.767  1.00  0.00     0.037 A 
BRANCH  53  67
ATOM     67  C   UNL A   1      36.713  32.881  30.444  1.00  0.00     0.057 A 
ATOM     68  C   UNL A   1      36.983  33.832  29.451  1.00  0.00     0.134 A 
ATOM     69  C   UNL A   1      35.393  32.427  30.561  1.00  0.00     0.134 A 
ATOM     70  F   UNL A   1      38.224  34.317  29.293  1.00  0.00    -0.206 F 
ATOM     71  C   UNL A   1      35.975  34.331  28.625  1.00  0.00     0.040 A 
ATOM     72  C   UNL A   1      34.382  32.897  29.721  1.00  0.00     0.040 A 
ATOM     73  F   UNL A   1      35.065  31.512  31.485  1.00  0.00    -0.206 F 
ATOM     74  C   UNL A   1      34.671  33.858  28.753  1.00  0.00     0.006 A 
ENDBRANCH  53  67
BRANCH  54  75
ATOM     75  C   UNL A   1      44.169  29.087  35.894  1.00  0.00     0.057 A 
ATOM     76  C   UNL A   1      45.458  29.616  35.760  1.00  0.00     0.134 A 
ATOM     77  C   UNL A   1      43.998  28.033  36.799  1.00  0.00     0.134 A 
ATOM     78  F   UNL A   1      45.692  30.613  34.894  1.00  0.00    -0.206 F 
ATOM     79  C   UNL A   1      46.539  29.102  36.479  1.00  0.00     0.040 A 
ATOM     80  C   UNL A   1      45.063  27.529  37.548  1.00  0.00     0.040 A 
ATOM     81  F   UNL A   1      42.787  27.485  36.981  1.00  0.00    -0.206 F 
ATOM     82  C   UNL A   1      46.341  28.059  37.382  1.00  0.00     0.006 A 
ENDBRANCH  54  75
BRANCH  66  83
ATOM     83  C   UNL A   1      39.634  34.279  36.886  1.00  0.00     0.057 A 
ATOM     84  C   UNL A   1      38.911  33.954  38.040  1.00  0.00     0.134 A 
ATOM     85  C   UNL A   1      40.222  35.550  36.830  1.00  0.00     0.134 A 
ATOM     86  F   UNL A   1      38.309  32.760  38.152  1.00  0.00    -0.206 F 
ATOM     87  C   UNL A   1      38.761  34.864  39.089  1.00  0.00     0.040 A 
ATOM     88  C   UNL A   1      40.106  36.456  37.884  1.00  0.00     0.040 A 
ATOM     89  F   UNL A   1      40.936  35.924  35.757  1.00  0.00    -0.206 F 
ATOM     90  C   UNL A   1      39.368  36.116  39.016  1.00  0.00     0.006 A 
ENDBRANCH  66  83
ENDBRANCH  40  41
ENDBRANCH  32  35
ENDBRANCH  30  31
ENDBRANCH  29  30
ENDBRANCH   1  29
TORSDOF 14
ENDMDL
MODEL 2
REMARK VINA RESULT:     -12.3      1.567      6.320
REMARK SMILES CC1CCN(S(=O)(=O)N2CCC[C@H](c3cccc(C(=O)NCCCCNC(=O)c4ccc(-c5c6nc(c(-c7c(F)cccc7F)c7ccc([nH]7)c(-c7c(F)cccc7F)c7nc(c(-c8c(F)cccc8F)c8ccc5[nH]8)C=C7)C=C6)cc4)c3)C2)CC1
REMARK SMILES IDX 23 1 22 2 21 3 19 4 20 5 18 7 14 8 15 9 83 10 16 11 17 12
REMARK SMILES IDX 13 13 9 14 10 15 84 16 11 17 12 18 6 19 7 20 8 21 5 22 1 23
REMARK SMILES IDX 2 24 3 25 86 26 4 27 85 28 24 29 25 30 26 31 27 32 28 34
REMARK SMILES IDX 29 35 30 36 82 37 31 38 81 39 32 40 33 41 34 42 75 43 35 44
REMARK SMILES IDX 80 45 74 46 76 47 36 48 79 49 73 50 72 51 37 53 63 54 46 55
REMARK SMILES IDX 62 56 47 57 50 58 61 59 77 60 48 61 49 62 60 64 78 65 51 66
REMARK SMILES IDX 38 67 39 68 44 69 40 70 41 71 43 72 45 73 42 74 64 75 65 76
REMARK SMILES IDX 70 77 66 78 67 79 69 80 71 81 68 82 52 83 53 84 58 85 54 86
REMARK SMILES IDX 55 87 57 88 59 89 56 90
REMARK H PARENT 21 6 26 33 76 52 50 63
REMARK Flexibility Score: inf
ROOT
ATOM      1  C   UNL A   1      41.530  21.113  27.335  1.00  0.00     0.023 C 
ENDROOT
BRANCH   1   2
ATOM      2  C   UNL A   1      40.131  21.467  26.854  1.00  0.00     0.116 C 
BRANCH   2   3
ATOM      3  N   UNL A   1      39.499  20.484  25.982  1.00  0.00    -0.352 N 
ATOM      4  C   UNL A   1      38.289  20.506  25.306  1.00  0.00     0.251 C 
ATOM      5  O   UNL A   1      37.974  19.529  24.629  1.00  0.00    -0.269 OA
ATOM      6  H   UNL A   1      40.023  19.661  25.850  1.00  0.00     0.163 HD
BRANCH   4   7
ATOM      7  C   UNL A   1      37.337  21.643  25.438  1.00  0.00     0.040 A 
ATOM      8  C   UNL A   1      35.184  22.580  24.814  1.00  0.00    -0.043 A 
ATOM      9  C   UNL A   1      35.669  23.855  25.135  1.00  0.00     0.004 A 
ATOM     10  C   UNL A   1      35.989  21.484  25.143  1.00  0.00     0.017 A 
ATOM     11  C   UNL A   1      36.956  24.015  25.658  1.00  0.00     0.001 A 
ATOM     12  C   UNL A   1      37.812  22.916  25.759  1.00  0.00     0.014 A 
BRANCH   8  13
ATOM     13  C   UNL A   1      33.994  22.328  23.892  1.00  0.00     0.034 C 
ATOM     14  N   UNL A   1      32.131  23.598  24.921  1.00  0.00    -0.188 NA
ATOM     15  C   UNL A   1      31.397  22.381  25.313  1.00  0.00     0.103 C 
ATOM     16  C   UNL A   1      32.998  23.477  23.732  1.00  0.00     0.111 C 
ATOM     17  C   UNL A   1      32.353  21.192  25.421  1.00  0.00     0.017 C 
ATOM     18  C   UNL A   1      33.187  21.042  24.158  1.00  0.00     0.011 C 
BRANCH  14  19
ATOM     19  S   UNL A   1      31.424  25.080  25.241  1.00  0.00     0.281 S 
ATOM     20  O   UNL A   1      31.390  25.250  26.674  1.00  0.00    -0.195 OA
ATOM     21  O   UNL A   1      30.203  25.167  24.468  1.00  0.00    -0.195 OA
BRANCH  19  22
ATOM     22  N   UNL A   1      32.503  26.211  24.572  1.00  0.00    -0.189 NA
ATOM     23  C   UNL A   1      31.781  29.464  27.233  1.00  0.00     0.008 C 
ATOM     24  C   UNL A   1      32.413  28.762  26.032  1.00  0.00    -0.012 C 
ATOM     25  C   UNL A   1      31.331  28.370  25.005  1.00  0.00     0.020 C 
ATOM     26  C   UNL A   1      33.253  27.566  26.504  1.00  0.00     0.020 C 
ATOM     27  C   UNL A   1      31.816  27.380  23.943  1.00  0.00     0.104 C 
ATOM     28  C   UNL A   1      33.674  26.706  25.324  1.00  0.00     0.104 C 
ENDBRANCH  19  22
ENDBRANCH  14  19
ENDBRANCH   8  13
ENDBRANCH   4   7
ENDBRANCH   2   3
ENDBRANCH   1   2
BRANCH   1  29
ATOM     29  C   UNL A   1      42.660  21.348  26.345  1.00  0.00     0.023 C 
BRANCH  29  30
ATOM     30  C   UNL A   1      42.457  22.505  25.376  1.00  0.00     0.116 C 
BRANCH  30  31
ATOM     31  N   UNL A   1      43.700  23.125  24.930  1.00  0.00    -0.352 N 
ATOM     32  C   UNL A   1      44.184  24.392  25.168  1.00  0.00     0.251 C 
ATOM     33  H   UNL A   1      44.278  22.552  24.375  1.00  0.00     0.163 HD
ATOM     34  O   UNL A   1      45.215  24.775  24.625  1.00  0.00    -0.269 OA
BRANCH  32  35
ATOM     35  C   UNL A   1      43.424  25.307  26.045  1.00  0.00     0.039 A 
ATOM     36  C   UNL A   1      42.520  24.766  26.963  1.00  0.00     0.014 A 
ATOM     37  C   UNL A   1      43.663  26.682  26.015  1.00  0.00     0.014 A 
ATOM     38  C   UNL A   1      41.947  25.593  27.931  1.00  0.00     0.010 A 
ATOM     39  C   UNL A   1      43.161  27.486  27.032  1.00  0.00     0.010 A 
ATOM     40  C   UNL A   1      42.317  26.945  28.015  1.00  0.00    -0.014 A 
BRANCH  40  41
ATOM     41  C   UNL A   1      41.886  27.797  29.153  1.00  0.00     0.031 A 
ATOM     42  C   UNL A   1      42.586  27.706  30.479  1.00  0.00     0.074 A 
ATOM     43  C   UNL A   1      40.801  28.587  29.015  1.00  0.00     0.049 A 
ATOM     44  N   UNL A   1      42.290  28.292  31.610  1.00  0.00    -0.248 NA
ATOM     45  C   UNL A   1      43.757  26.819  30.547  1.00  0.00     0.031 C 
ATOM     46  C   UNL A   1      40.005  28.728  27.794  1.00  0.00     0.029 A 
ATOM     47  N   UNL A   1      40.168  29.406  29.917  1.00  0.00    -0.354 N 
ATOM     48  C   UNL A   1      43.232  27.840  32.526  1.00  0.00     0.074 A 
ATOM     49  C   UNL A   1      44.074  26.889  31.832  1.00  0.00     0.031 C 
ATOM     50  C   UNL A   1      39.006  29.597  28.016  1.00  0.00     0.029 A 
ATOM     51  C   UNL A   1      39.056  30.034  29.406  1.00  0.00     0.049 A 
ATOM     52  H   UNL A   1      40.481  29.533  30.842  1.00  0.00     0.167 HD
ATOM     53  C   UNL A   1      43.391  28.201  33.821  1.00  0.00     0.037 A 
ATOM     54  C   UNL A   1      38.164  30.853  29.997  1.00  0.00     0.037 A 
ATOM     55  C   UNL A   1      42.555  29.152  34.506  1.00  0.00     0.049 A 
ATOM     56  C   UNL A   1      38.338  31.201  31.450  1.00  0.00     0.074 A 
ATOM     57  C   UNL A   1      42.674  29.629  35.799  1.00  0.00     0.029 A 
ATOM     58  N   UNL A   1      41.437  29.761  33.956  1.00  0.00    -0.354 N 
ATOM     59  N   UNL A   1      39.280  30.828  32.281  1.00  0.00    -0.248 NA
ATOM     60  C   UNL A   1      37.323  32.079  32.047  1.00  0.00     0.031 C 
ATOM     61  C   UNL A   1      41.593  30.478  36.054  1.00  0.00     0.029 A 
ATOM     62  C   UNL A   1      40.833  30.579  34.899  1.00  0.00     0.049 A 
ATOM     63  H   UNL A   1      41.119  29.632  33.034  1.00  0.00     0.167 HD
ATOM     64  C   UNL A   1      38.983  31.441  33.492  1.00  0.00     0.074 A 
ATOM     65  C   UNL A   1      37.786  32.229  33.280  1.00  0.00     0.031 C 
ATOM     66  C   UNL A   1      39.640  31.354  34.675  1.00  0.00     0.037 A 
BRANCH  53  67
ATOM     67  C   UNL A   1      44.513  27.558  34.587  1.00  0.00     0.057 A 
ATOM     68  C   UNL A   1      45.790  28.130  34.651  1.00  0.00     0.134 A 
ATOM     69  C   UNL A   1      44.301  26.373  35.303  1.00  0.00     0.134 A 
ATOM     70  F   UNL A   1      46.063  29.260  33.980  1.00  0.00    -0.206 F 
ATOM     71  C   UNL A   1      46.823  27.535  35.376  1.00  0.00     0.040 A 
ATOM     72  C   UNL A   1      45.317  25.783  36.057  1.00  0.00     0.040 A 
ATOM     73  F   UNL A   1      43.101  25.774  35.293  1.00  0.00    -0.206 F 
ATOM     74  C   UNL A   1      46.586  26.360  36.089  1.00  0.00     0.006 A 
ENDBRANCH  53  67
BRANCH  54  75
ATOM     75  C   UNL A   1      37.022  31.399  29.219  1.00  0.00     0.057 A 
ATOM     76  C   UNL A   1      35.908  30.606  28.918  1.00  0.00     0.134 A 
ATOM     77  C   UNL A   1      37.020  32.716  28.745  1.00  0.00     0.134 A 
ATOM     78  F   UNL A   1      35.859  29.330  29.326  1.00  0.00    -0.206 F 
ATOM     79  C   UNL A   1      34.845  31.095  28.156  1.00  0.00     0.040 A 
ATOM     80  C   UNL A   1      35.951  33.228  28.007  1.00  0.00     0.040 A 
ATOM     81  F   UNL A   1      38.053  33.531  29.003  1.00  0.00    -0.206 F 
ATOM     82  C   UNL A   1      34.863  32.413  27.704  1.00  0.00     0.006 A 
ENDBRANCH  54  75
BRANCH  66  83
ATOM     83  C   UNL A   1      39.089  32.144  35.828  1.00  0.00     0.057 A 
ATOM     84  C   UNL A   1      38.206  31.577  36.755  1.00  0.00     0.134 A 
ATOM     85  C   UNL A   1      39.482  33.472  36.040  1.00  0.00     0.134 A 
ATOM     86  F   UNL A   1      37.778  30.314  36.603  1.00  0.00    -0.206 F 
ATOM     87  C   UNL A   1      37.717  32.308  37.840  1.00  0.00     0.040 A 
ATOM     88  C   UNL A   1      39.026  34.203  37.136  1.00  0.00     0.040 A 
ATOM     89  F   UNL A   1      40.332  34.075  35.194  1.00  0.00    -0.206 F 
ATOM     90  C   UNL A   1      38.135  33.623  38.037  1.00  0.00     0.006 A 
ENDBRANCH  66  83
ENDBRANCH  40  41
ENDBRANCH  32  35
ENDBRANCH  30  31
ENDBRANCH  29  30
ENDBRANCH   1  29
TORSDOF 14
ENDMDL
MODEL 3
REMARK VINA RESULT:     -12.3      3.908      8.003
REMARK SMILES CC1CCN(S(=O)(=O)N2CCC[C@H](c3cccc(C(=O)NCCCCNC(=O)c4ccc(-c5c6nc(c(-c7c(F)cccc7F)c7ccc([nH]7)c(-c7c(F)cccc7F)c7nc(c(-c8c(F)cccc8F)c8ccc5[nH]8)C=C7)C=C6)cc4)c3)C2)CC1
REMARK SMILES IDX 23 1 22 2 21 3 19 4 20 5 18 7 14 8 15 9 83 10 16 11 17 12
REMARK SMILES IDX 13 13 9 14 10 15 84 16 11 17 12 18 6 19 7 20 8 21 5 22 1 23
REMARK SMILES IDX 2 24 3 25 86 26 4 27 85 28 24 29 25 30 26 31 27 32 28 34
REMARK SMILES IDX 29 35 30 36 82 37 31 38 81 39 32 40 33 41 34 42 75 43 35 44
REMARK SMILES IDX 80 45 74 46 76 47 36 48 79 49 73 50 72 51 37 53 63 54 46 55
REMARK SMILES IDX 62 56 47 57 50 58 61 59 77 60 48 61 49 62 60 64 78 65 51 66
REMARK SMILES IDX 38 67 39 68 44 69 40 70 41 71 43 72 45 73 42 74 64 75 65 76
REMARK SMILES IDX 70 77 66 78 67 79 69 80 71 81 68 82 52 83 53 84 58 85 54 86
REMARK SMILES IDX 55 87 57 88 59 89 56 90
REMARK H PARENT 21 6 26 33 76 52 50 63
REMARK Flexibility Score: inf
ROOT
ATOM      1  C   UNL A   1      36.145  20.272  25.134  1.00  0.00     0.023 C 
ENDROOT
BRANCH   1   2
ATOM      2  C   UNL A   1      35.892  18.861  24.626  1.00  0.00     0.116 C 
BRANCH   2   3
ATOM      3  N   UNL A   1      34.624  18.265  25.033  1.00  0.00    -0.352 N 
ATOM      4  C   UNL A   1      33.315  18.636  24.772  1.00  0.00     0.251 C 
ATOM      5  O   UNL A   1      32.404  17.959  25.248  1.00  0.00    -0.269 OA
ATOM      6  H   UNL A   1      34.715  17.458  25.589  1.00  0.00     0.163 HD
BRANCH   4   7
ATOM      7  C   UNL A   1      32.986  19.865  24.000  1.00  0.00     0.040 A 
ATOM      8  C   UNL A   1      32.562  22.257  24.061  1.00  0.00    -0.043 A 
ATOM      9  C   UNL A   1      31.882  22.147  22.841  1.00  0.00     0.004 A 
ATOM     10  C   UNL A   1      33.247  21.127  24.520  1.00  0.00     0.017 A 
ATOM     11  C   UNL A   1      31.805  20.918  22.178  1.00  0.00     0.001 A 
ATOM     12  C   UNL A   1      32.310  19.764  22.783  1.00  0.00     0.014 A 
BRANCH   8  13
ATOM     13  C   UNL A   1      32.373  23.412  25.041  1.00  0.00     0.034 C 
ATOM     14  N   UNL A   1      33.056  25.425  23.769  1.00  0.00    -0.188 NA
ATOM     15  C   UNL A   1      34.266  25.641  24.584  1.00  0.00     0.103 C 
ATOM     16  C   UNL A   1      31.931  24.750  24.445  1.00  0.00     0.111 C 
ATOM     17  C   UNL A   1      34.702  24.336  25.249  1.00  0.00     0.017 C 
ATOM     18  C   UNL A   1      33.546  23.690  26.000  1.00  0.00     0.011 C 
BRANCH  14  19
ATOM     19  S   UNL A   1      32.708  26.537  22.568  1.00  0.00     0.281 S 
ATOM     20  O   UNL A   1      31.398  26.227  22.048  1.00  0.00    -0.195 OA
ATOM     21  O   UNL A   1      33.848  26.603  21.677  1.00  0.00    -0.195 OA
BRANCH  19  22
ATOM     22  N   UNL A   1      32.645  28.028  23.384  1.00  0.00    -0.189 NA
ATOM     23  C   UNL A   1      28.483  28.845  22.945  1.00  0.00     0.008 C 
ATOM     24  C   UNL A   1      29.921  29.134  23.374  1.00  0.00    -0.012 C 
ATOM     25  C   UNL A   1      30.844  29.227  22.143  1.00  0.00     0.020 C 
ATOM     26  C   UNL A   1      30.386  28.083  24.395  1.00  0.00     0.020 C 
ATOM     27  C   UNL A   1      32.336  29.180  22.483  1.00  0.00     0.104 C 
ATOM     28  C   UNL A   1      31.881  28.196  24.637  1.00  0.00     0.104 C 
ENDBRANCH  19  22
ENDBRANCH  14  19
ENDBRANCH   8  13
ENDBRANCH   4   7
ENDBRANCH   2   3
ENDBRANCH   1   2
BRANCH   1  29
ATOM     29  C   UNL A   1      37.438  20.928  24.676  1.00  0.00     0.023 C 
BRANCH  29  30
ATOM     30  C   UNL A   1      38.552  20.985  25.713  1.00  0.00     0.116 C 
BRANCH  30  31
ATOM     31  N   UNL A   1      39.457  19.842  25.669  1.00  0.00    -0.352 N 
ATOM     32  C   UNL A   1      40.789  19.764  26.010  1.00  0.00     0.251 C 
ATOM     33  H   UNL A   1      39.056  19.002  25.349  1.00  0.00     0.163 HD
ATOM     34  O   UNL A   1      41.420  18.730  25.814  1.00  0.00    -0.269 OA
BRANCH  32  35
ATOM     35  C   UNL A   1      41.468  20.952  26.567  1.00  0.00     0.039 A 
ATOM     36  C   UNL A   1      42.070  21.859  25.690  1.00  0.00     0.014 A 
ATOM     37  C   UNL A   1      41.440  21.209  27.939  1.00  0.00     0.014 A 
ATOM     38  C   UNL A   1      42.536  23.081  26.179  1.00  0.00     0.010 A 
ATOM     39  C   UNL A   1      41.823  22.460  28.409  1.00  0.00     0.010 A 
ATOM     40  C   UNL A   1      42.353  23.418  27.530  1.00  0.00    -0.014 A 
BRANCH  40  41
ATOM     41  C   UNL A   1      42.650  24.783  28.034  1.00  0.00     0.031 A 
ATOM     42  C   UNL A   1      44.032  25.136  28.504  1.00  0.00     0.074 A 
ATOM     43  C   UNL A   1      41.647  25.678  28.153  1.00  0.00     0.049 A 
ATOM     44  N   UNL A   1      44.456  26.239  29.067  1.00  0.00    -0.248 NA
ATOM     45  C   UNL A   1      45.068  24.104  28.344  1.00  0.00     0.031 C 
ATOM     46  C   UNL A   1      40.252  25.442  27.775  1.00  0.00     0.029 A 
ATOM     47  N   UNL A   1      41.643  26.961  28.642  1.00  0.00    -0.354 N 
ATOM     48  C   UNL A   1      45.803  26.031  29.335  1.00  0.00     0.074 A 
ATOM     49  C   UNL A   1      46.112  24.678  28.924  1.00  0.00     0.031 C 
ATOM     50  C   UNL A   1      39.534  26.548  28.026  1.00  0.00     0.029 A 
ATOM     51  C   UNL A   1      40.402  27.552  28.631  1.00  0.00     0.049 A 
ATOM     52  H   UNL A   1      42.453  27.415  28.970  1.00  0.00     0.167 HD
ATOM     53  C   UNL A   1      46.704  26.896  29.857  1.00  0.00     0.037 A 
ATOM     54  C   UNL A   1      40.003  28.759  29.076  1.00  0.00     0.037 A 
ATOM     55  C   UNL A   1      46.393  28.244  30.259  1.00  0.00     0.049 A 
ATOM     56  C   UNL A   1      41.015  29.684  29.695  1.00  0.00     0.074 A 
ATOM     57  C   UNL A   1      47.249  29.217  30.741  1.00  0.00     0.029 A 
ATOM     58  N   UNL A   1      45.124  28.803  30.236  1.00  0.00    -0.354 N 
ATOM     59  N   UNL A   1      42.301  29.503  29.868  1.00  0.00    -0.248 NA
ATOM     60  C   UNL A   1      40.519  30.978  30.183  1.00  0.00     0.031 C 
ATOM     61  C   UNL A   1      46.491  30.344  31.071  1.00  0.00     0.029 A 
ATOM     62  C   UNL A   1      45.169  30.095  30.736  1.00  0.00     0.049 A 
ATOM     63  H   UNL A   1      44.312  28.350  29.914  1.00  0.00     0.167 HD
ATOM     64  C   UNL A   1      42.771  30.666  30.467  1.00  0.00     0.074 A 
ATOM     65  C   UNL A   1      41.636  31.554  30.605  1.00  0.00     0.031 C 
ATOM     66  C   UNL A   1      44.030  30.967  30.871  1.00  0.00     0.037 A 
BRANCH  53  67
ATOM     67  C   UNL A   1      48.114  26.409  30.030  1.00  0.00     0.057 A 
ATOM     68  C   UNL A   1      48.544  25.789  31.211  1.00  0.00     0.134 A 
ATOM     69  C   UNL A   1      49.043  26.525  28.989  1.00  0.00     0.134 A 
ATOM     70  F   UNL A   1      47.707  25.655  32.252  1.00  0.00    -0.206 F 
ATOM     71  C   UNL A   1      49.852  25.326  31.360  1.00  0.00     0.040 A 
ATOM     72  C   UNL A   1      50.346  26.040  29.114  1.00  0.00     0.040 A 
ATOM     73  F   UNL A   1      48.698  27.102  27.828  1.00  0.00    -0.206 F 
ATOM     74  C   UNL A   1      50.756  25.444  30.306  1.00  0.00     0.006 A 
ENDBRANCH  53  67
BRANCH  54  75
ATOM     75  C   UNL A   1      38.578  29.165  28.959  1.00  0.00     0.057 A 
ATOM     76  C   UNL A   1      38.053  29.617  27.743  1.00  0.00     0.134 A 
ATOM     77  C   UNL A   1      37.712  29.126  30.058  1.00  0.00     0.134 A 
ATOM     78  F   UNL A   1      38.836  29.697  26.658  1.00  0.00    -0.206 F 
ATOM     79  C   UNL A   1      36.726  30.035  27.628  1.00  0.00     0.040 A 
ATOM     80  C   UNL A   1      36.374  29.513  29.952  1.00  0.00     0.040 A 
ATOM     81  F   UNL A   1      38.149  28.696  31.251  1.00  0.00    -0.206 F 
ATOM     82  C   UNL A   1      35.880  29.978  28.735  1.00  0.00     0.006 A 
ENDBRANCH  54  75
BRANCH  66  83
ATOM     83  C   UNL A   1      44.250  32.320  31.485  1.00  0.00     0.057 A 
ATOM     84  C   UNL A   1      44.558  33.443  30.707  1.00  0.00     0.134 A 
ATOM     85  C   UNL A   1      44.107  32.511  32.866  1.00  0.00     0.134 A 
ATOM     86  F   UNL A   1      44.724  33.326  29.381  1.00  0.00    -0.206 F 
ATOM     87  C   UNL A   1      44.736  34.703  31.282  1.00  0.00     0.040 A 
ATOM     88  C   UNL A   1      44.251  33.770  33.449  1.00  0.00     0.040 A 
ATOM     89  F   UNL A   1      43.804  31.479  33.670  1.00  0.00    -0.206 F 
ATOM     90  C   UNL A   1      44.574  34.870  32.656  1.00  0.00     0.006 A 
ENDBRANCH  66  83
ENDBRANCH  40  41
ENDBRANCH  32  35
ENDBRANCH  30  31
ENDBRANCH  29  30
ENDBRANCH   1  29
TORSDOF 14
ENDMDL
