MODEL 1
REMARK VINA RESULT:     -12.1      0.000      0.000
REMARK SMILES Cc1cccc(NC(=O)C[C@@H]2CCCCO2)c1C(=O)NCCCCNC(=O)c1ccc(-c2c3nc(c(-c4c(F)cccc4F)c4ccc([nH]4)c(-c4c(F)cccc4F)c4nc(c(-c5c(F)cccc5F)c5ccc2[nH]5)C=C4)C=C3)cc1
REMARK SMILES IDX 22 1 21 2 20 3 18 4 19 5 17 7 1 8 2 9 3 10 4 11 6 12 5 13
REMARK SMILES IDX 7 14 8 15 9 17 10 18 11 19 12 20 16 21 13 22 15 23 14 24
REMARK SMILES IDX 23 25 24 26 25 27 26 28 27 30 28 31 29 32 81 33 30 34 80 35
REMARK SMILES IDX 31 36 32 37 33 38 74 39 34 40 79 41 73 42 75 43 35 44 78 45
REMARK SMILES IDX 72 46 71 47 36 49 62 50 45 51 61 52 46 53 49 54 60 55 76 56
REMARK SMILES IDX 47 57 48 58 59 60 77 61 50 62 37 63 38 64 43 65 39 66 40 67
REMARK SMILES IDX 42 68 44 69 41 70 63 71 64 72 69 73 65 74 66 75 68 76 70 77
REMARK SMILES IDX 67 78 51 79 52 80 57 81 53 82 54 83 56 84 58 85 55 86
REMARK H PARENT 20 6 7 16 25 29 75 48 49 59
REMARK Flexibility Score: inf
ROOT
ATOM      1  C   UNL A   1      38.099  23.621  26.449  1.00  0.00     0.023 C 
ENDROOT
BRANCH   1   2
ATOM      2  C   UNL A   1      36.703  23.920  25.868  1.00  0.00     0.116 C 
BRANCH   2   3
ATOM      3  N   UNL A   1      36.703  23.695  24.434  1.00  0.00    -0.352 N 
ATOM      4  C   UNL A   1      35.943  22.934  23.582  1.00  0.00     0.253 C 
ATOM      5  O   UNL A   1      36.272  22.980  22.395  1.00  0.00    -0.269 OA
ATOM      6  H   UNL A   1      37.405  24.205  23.967  1.00  0.00     0.163 HD
BRANCH   4   7
ATOM      7  C   UNL A   1      34.693  22.205  23.986  1.00  0.00     0.066 A 
ATOM      8  C   UNL A   1      35.815  20.117  24.964  1.00  0.00     0.045 C 
ATOM      9  C   UNL A   1      34.654  21.052  24.799  1.00  0.00    -0.036 A 
ATOM     10  C   UNL A   1      33.425  20.609  25.326  1.00  0.00     0.004 A 
ATOM     11  C   UNL A   1      32.234  21.217  24.954  1.00  0.00     0.002 A 
ATOM     12  C   UNL A   1      33.465  22.616  23.405  1.00  0.00     0.054 A 
ATOM     13  C   UNL A   1      32.253  22.195  23.967  1.00  0.00     0.027 A 
BRANCH  12  14
ATOM     14  N   UNL A   1      33.473  23.332  22.183  1.00  0.00    -0.325 N 
ATOM     15  C   UNL A   1      32.896  24.539  21.863  1.00  0.00     0.227 C 
ATOM     16  H   UNL A   1      33.967  22.899  21.449  1.00  0.00     0.169 HD
ATOM     17  O   UNL A   1      32.980  24.945  20.699  1.00  0.00    -0.275 OA
BRANCH  15  18
ATOM     18  C   UNL A   1      32.126  25.357  22.884  1.00  0.00     0.132 C 
BRANCH  18  19
ATOM     19  C   UNL A   1      32.904  26.551  23.469  1.00  0.00     0.127 C 
ATOM     20  C   UNL A   1      33.954  26.079  24.492  1.00  0.00     0.033 C 
ATOM     21  O   UNL A   1      32.101  27.569  24.076  1.00  0.00    -0.378 OA
ATOM     22  C   UNL A   1      33.305  25.590  25.788  1.00  0.00     0.005 C 
ATOM     23  C   UNL A   1      31.441  27.202  25.278  1.00  0.00     0.160 C 
ATOM     24  C   UNL A   1      32.368  26.652  26.348  1.00  0.00     0.029 C 
ENDBRANCH  18  19
ENDBRANCH  15  18
ENDBRANCH  12  14
ENDBRANCH   4   7
ENDBRANCH   2   3
ENDBRANCH   1   2
BRANCH   1  25
ATOM     25  C   UNL A   1      38.670  22.256  26.059  1.00  0.00     0.023 C 
BRANCH  25  26
ATOM     26  C   UNL A   1      39.967  21.945  26.783  1.00  0.00     0.116 C 
BRANCH  26  27
ATOM     27  N   UNL A   1      40.803  20.945  26.125  1.00  0.00    -0.352 N 
ATOM     28  C   UNL A   1      42.182  20.853  26.054  1.00  0.00     0.251 C 
ATOM     29  H   UNL A   1      40.311  20.228  25.663  1.00  0.00     0.163 HD
ATOM     30  O   UNL A   1      42.700  19.959  25.386  1.00  0.00    -0.269 OA
BRANCH  28  31
ATOM     31  C   UNL A   1      43.031  21.716  26.917  1.00  0.00     0.039 A 
ATOM     32  C   UNL A   1      42.812  21.650  28.298  1.00  0.00     0.014 A 
ATOM     33  C   UNL A   1      43.757  22.769  26.377  1.00  0.00     0.014 A 
ATOM     34  C   UNL A   1      43.020  22.789  29.069  1.00  0.00     0.010 A 
ATOM     35  C   UNL A   1      43.828  23.940  27.101  1.00  0.00     0.010 A 
ATOM     36  C   UNL A   1      43.375  23.969  28.424  1.00  0.00    -0.014 A 
BRANCH  36  37
ATOM     37  C   UNL A   1      43.143  25.290  28.997  1.00  0.00     0.031 A 
ATOM     38  C   UNL A   1      41.967  26.083  28.590  1.00  0.00     0.074 A 
ATOM     39  C   UNL A   1      43.948  25.725  29.992  1.00  0.00     0.049 A 
ATOM     40  N   UNL A   1      41.851  27.356  28.753  1.00  0.00    -0.248 NA
ATOM     41  C   UNL A   1      40.833  25.491  27.895  1.00  0.00     0.031 C 
ATOM     42  C   UNL A   1      43.714  26.843  30.902  1.00  0.00     0.029 A 
ATOM     43  N   UNL A   1      45.272  25.339  30.251  1.00  0.00    -0.354 N 
ATOM     44  C   UNL A   1      40.547  27.701  28.471  1.00  0.00     0.074 A 
ATOM     45  C   UNL A   1      39.992  26.526  27.846  1.00  0.00     0.031 C 
ATOM     46  C   UNL A   1      44.890  27.241  31.412  1.00  0.00     0.029 A 
ATOM     47  C   UNL A   1      45.932  26.490  30.732  1.00  0.00     0.049 A 
ATOM     48  H   UNL A   1      45.663  24.444  30.124  1.00  0.00     0.167 HD
ATOM     49  C   UNL A   1      40.066  28.892  28.938  1.00  0.00     0.037 A 
ATOM     50  C   UNL A   1      46.966  27.050  30.038  1.00  0.00     0.037 A 
ATOM     51  C   UNL A   1      41.154  29.700  29.501  1.00  0.00     0.049 A 
ATOM     52  C   UNL A   1      46.698  28.464  29.570  1.00  0.00     0.074 A 
ATOM     53  C   UNL A   1      41.569  29.951  30.800  1.00  0.00     0.029 A 
ATOM     54  N   UNL A   1      42.183  30.141  28.671  1.00  0.00    -0.354 N 
ATOM     55  N   UNL A   1      45.513  29.009  29.541  1.00  0.00    -0.248 NA
ATOM     56  C   UNL A   1      47.734  29.363  29.066  1.00  0.00     0.031 C 
ATOM     57  C   UNL A   1      42.888  30.470  30.748  1.00  0.00     0.029 A 
ATOM     58  C   UNL A   1      43.266  30.561  29.420  1.00  0.00     0.049 A 
ATOM     59  H   UNL A   1      42.144  30.152  27.687  1.00  0.00     0.167 HD
ATOM     60  C   UNL A   1      45.596  30.261  28.992  1.00  0.00     0.074 A 
ATOM     61  C   UNL A   1      47.012  30.451  28.740  1.00  0.00     0.031 C 
ATOM     62  C   UNL A   1      44.485  31.025  28.772  1.00  0.00     0.037 A 
BRANCH  49  63
ATOM     63  C   UNL A   1      38.591  29.197  29.174  1.00  0.00     0.057 A 
ATOM     64  C   UNL A   1      37.793  29.713  28.131  1.00  0.00     0.134 A 
ATOM     65  C   UNL A   1      37.913  29.106  30.403  1.00  0.00     0.134 A 
ATOM     66  F   UNL A   1      38.228  29.760  26.866  1.00  0.00    -0.206 F 
ATOM     67  C   UNL A   1      36.495  30.213  28.327  1.00  0.00     0.040 A 
ATOM     68  C   UNL A   1      36.630  29.633  30.623  1.00  0.00     0.040 A 
ATOM     69  F   UNL A   1      38.414  28.448  31.449  1.00  0.00    -0.206 F 
ATOM     70  C   UNL A   1      35.921  30.209  29.586  1.00  0.00     0.006 A 
ENDBRANCH  49  63
BRANCH  50  71
ATOM     71  C   UNL A   1      47.796  26.051  29.317  1.00  0.00     0.057 A 
ATOM     72  C   UNL A   1      47.545  25.834  27.950  1.00  0.00     0.134 A 
ATOM     73  C   UNL A   1      49.029  25.620  29.814  1.00  0.00     0.134 A 
ATOM     74  F   UNL A   1      46.380  26.225  27.410  1.00  0.00    -0.206 F 
ATOM     75  C   UNL A   1      48.519  25.320  27.092  1.00  0.00     0.040 A 
ATOM     76  C   UNL A   1      50.011  25.093  28.964  1.00  0.00     0.040 A 
ATOM     77  F   UNL A   1      49.353  25.816  31.100  1.00  0.00    -0.206 F 
ATOM     78  C   UNL A   1      49.772  24.981  27.595  1.00  0.00     0.006 A 
ENDBRANCH  50  71
BRANCH  62  79
ATOM     79  C   UNL A   1      44.447  32.311  27.986  1.00  0.00     0.057 A 
ATOM     80  C   UNL A   1      44.781  32.416  26.628  1.00  0.00     0.134 A 
ATOM     81  C   UNL A   1      43.909  33.482  28.565  1.00  0.00     0.134 A 
ATOM     82  F   UNL A   1      45.209  31.356  25.928  1.00  0.00    -0.206 F 
ATOM     83  C   UNL A   1      44.636  33.610  25.910  1.00  0.00     0.040 A 
ATOM     84  C   UNL A   1      43.710  34.663  27.844  1.00  0.00     0.040 A 
ATOM     85  F   UNL A   1      43.530  33.520  29.851  1.00  0.00    -0.206 F 
ATOM     86  C   UNL A   1      44.086  34.735  26.512  1.00  0.00     0.006 A 
ENDBRANCH  62  79
ENDBRANCH  36  37
ENDBRANCH  28  31
ENDBRANCH  26  27
ENDBRANCH  25  26
ENDBRANCH   1  25
TORSDOF 14
ENDMDL
MODEL 2
REMARK VINA RESULT:     -12.0      3.081      8.274
REMARK SMILES Cc1cccc(NC(=O)C[C@@H]2CCCCO2)c1C(=O)NCCCCNC(=O)c1ccc(-c2c3nc(c(-c4c(F)cccc4F)c4ccc([nH]4)c(-c4c(F)cccc4F)c4nc(c(-c5c(F)cccc5F)c5ccc2[nH]5)C=C4)C=C3)cc1
REMARK SMILES IDX 22 1 21 2 20 3 18 4 19 5 17 7 1 8 2 9 3 10 4 11 6 12 5 13
REMARK SMILES IDX 7 14 8 15 9 17 10 18 11 19 12 20 16 21 13 22 15 23 14 24
REMARK SMILES IDX 23 25 24 26 25 27 26 28 27 30 28 31 29 32 81 33 30 34 80 35
REMARK SMILES IDX 31 36 32 37 33 38 74 39 34 40 79 41 73 42 75 43 35 44 78 45
REMARK SMILES IDX 72 46 71 47 36 49 62 50 45 51 61 52 46 53 49 54 60 55 76 56
REMARK SMILES IDX 47 57 48 58 59 60 77 61 50 62 37 63 38 64 43 65 39 66 40 67
REMARK SMILES IDX 42 68 44 69 41 70 63 71 64 72 69 73 65 74 66 75 68 76 70 77
REMARK SMILES IDX 67 78 51 79 52 80 57 81 53 82 54 83 56 84 58 85 55 86
REMARK H PARENT 20 6 7 16 25 29 75 48 49 59
REMARK Flexibility Score: inf
ROOT
ATOM      1  C   UNL A   1      33.608  28.892  27.157  1.00  0.00     0.023 C 
ENDROOT
BRANCH   1   2
ATOM      2  C   UNL A   1      32.080  29.026  27.011  1.00  0.00     0.116 C 
BRANCH   2   3
ATOM      3  N   UNL A   1      31.450  27.727  27.170  1.00  0.00    -0.352 N 
ATOM      4  C   UNL A   1      31.258  26.647  26.346  1.00  0.00     0.253 C 
ATOM      5  O   UNL A   1      30.635  25.708  26.844  1.00  0.00    -0.269 OA
ATOM      6  H   UNL A   1      31.080  27.591  28.072  1.00  0.00     0.163 HD
BRANCH   4   7
ATOM      7  C   UNL A   1      31.876  26.500  24.985  1.00  0.00     0.066 A 
ATOM      8  C   UNL A   1      29.720  26.673  23.609  1.00  0.00     0.045 C 
ATOM      9  C   UNL A   1      31.211  26.733  23.764  1.00  0.00    -0.036 A 
ATOM     10  C   UNL A   1      31.952  26.820  22.568  1.00  0.00     0.004 A 
ATOM     11  C   UNL A   1      33.314  26.553  22.558  1.00  0.00     0.002 A 
ATOM     12  C   UNL A   1      33.186  25.958  24.904  1.00  0.00     0.054 A 
ATOM     13  C   UNL A   1      33.921  26.088  23.718  1.00  0.00     0.027 A 
BRANCH  12  14
ATOM     14  N   UNL A   1      33.686  25.170  25.969  1.00  0.00    -0.325 N 
ATOM     15  C   UNL A   1      33.573  23.819  26.198  1.00  0.00     0.227 C 
ATOM     16  H   UNL A   1      34.193  25.667  26.652  1.00  0.00     0.169 HD
ATOM     17  O   UNL A   1      34.041  23.353  27.242  1.00  0.00    -0.275 OA
BRANCH  15  18
ATOM     18  C   UNL A   1      32.852  22.898  25.229  1.00  0.00     0.132 C 
BRANCH  18  19
ATOM     19  C   UNL A   1      33.771  22.184  24.218  1.00  0.00     0.127 C 
ATOM     20  C   UNL A   1      33.399  22.559  22.772  1.00  0.00     0.033 C 
ATOM     21  O   UNL A   1      33.808  20.758  24.325  1.00  0.00    -0.378 OA
ATOM     22  C   UNL A   1      32.076  21.925  22.343  1.00  0.00     0.005 C 
ATOM     23  C   UNL A   1      32.615  20.078  23.965  1.00  0.00     0.160 C 
ATOM     24  C   UNL A   1      32.105  20.420  22.576  1.00  0.00     0.029 C 
ENDBRANCH  18  19
ENDBRANCH  15  18
ENDBRANCH  12  14
ENDBRANCH   4   7
ENDBRANCH   2   3
ENDBRANCH   1   2
BRANCH   1  25
ATOM     25  C   UNL A   1      34.370  30.218  27.095  1.00  0.00     0.023 C 
BRANCH  25  26
ATOM     26  C   UNL A   1      34.476  30.886  28.454  1.00  0.00     0.116 C 
BRANCH  26  27
ATOM     27  N   UNL A   1      35.664  31.718  28.628  1.00  0.00    -0.352 N 
ATOM     28  C   UNL A   1      36.982  31.348  28.828  1.00  0.00     0.251 C 
ATOM     29  H   UNL A   1      35.502  32.689  28.598  1.00  0.00     0.163 HD
ATOM     30  O   UNL A   1      37.836  32.212  29.022  1.00  0.00    -0.269 OA
BRANCH  28  31
ATOM     31  C   UNL A   1      37.394  29.932  28.636  1.00  0.00     0.039 A 
ATOM     32  C   UNL A   1      37.518  29.141  29.785  1.00  0.00     0.014 A 
ATOM     33  C   UNL A   1      37.951  29.509  27.436  1.00  0.00     0.014 A 
ATOM     34  C   UNL A   1      38.468  28.126  29.806  1.00  0.00     0.010 A 
ATOM     35  C   UNL A   1      38.991  28.606  27.494  1.00  0.00     0.010 A 
ATOM     36  C   UNL A   1      39.305  27.980  28.704  1.00  0.00    -0.014 A 
BRANCH  36  37
ATOM     37  C   UNL A   1      40.612  27.336  28.777  1.00  0.00     0.031 A 
ATOM     38  C   UNL A   1      40.747  25.892  28.508  1.00  0.00     0.074 A 
ATOM     39  C   UNL A   1      41.710  28.100  28.972  1.00  0.00     0.049 A 
ATOM     40  N   UNL A   1      41.751  25.170  28.872  1.00  0.00    -0.248 NA
ATOM     41  C   UNL A   1      39.704  25.123  27.844  1.00  0.00     0.031 C 
ATOM     42  C   UNL A   1      43.105  27.721  28.767  1.00  0.00     0.029 A 
ATOM     43  N   UNL A   1      41.780  29.352  29.601  1.00  0.00    -0.354 N 
ATOM     44  C   UNL A   1      41.638  23.945  28.252  1.00  0.00     0.074 A 
ATOM     45  C   UNL A   1      40.301  23.937  27.713  1.00  0.00     0.031 C 
ATOM     46  C   UNL A   1      43.888  28.543  29.483  1.00  0.00     0.029 A 
ATOM     47  C   UNL A   1      43.014  29.380  30.286  1.00  0.00     0.049 A 
ATOM     48  H   UNL A   1      41.105  30.068  29.571  1.00  0.00     0.167 HD
ATOM     49  C   UNL A   1      42.748  23.153  28.153  1.00  0.00     0.037 A 
ATOM     50  C   UNL A   1      43.061  29.470  31.648  1.00  0.00     0.037 A 
ATOM     51  C   UNL A   1      43.848  23.709  28.951  1.00  0.00     0.049 A 
ATOM     52  C   UNL A   1      43.709  28.280  32.321  1.00  0.00     0.074 A 
ATOM     53  C   UNL A   1      44.977  24.443  28.619  1.00  0.00     0.029 A 
ATOM     54  N   UNL A   1      43.716  23.801  30.334  1.00  0.00    -0.354 N 
ATOM     55  N   UNL A   1      43.928  27.139  31.727  1.00  0.00    -0.248 NA
ATOM     56  C   UNL A   1      44.129  28.266  33.720  1.00  0.00     0.031 C 
ATOM     57  C   UNL A   1      45.475  25.043  29.804  1.00  0.00     0.029 A 
ATOM     58  C   UNL A   1      44.668  24.655  30.859  1.00  0.00     0.049 A 
ATOM     59  H   UNL A   1      43.037  23.323  30.865  1.00  0.00     0.167 HD
ATOM     60  C   UNL A   1      44.449  26.246  32.625  1.00  0.00     0.074 A 
ATOM     61  C   UNL A   1      44.587  27.008  33.852  1.00  0.00     0.031 C 
ATOM     62  C   UNL A   1      44.701  24.947  32.285  1.00  0.00     0.037 A 
BRANCH  49  63
ATOM     63  C   UNL A   1      42.944  22.066  27.103  1.00  0.00     0.057 A 
ATOM     64  C   UNL A   1      42.214  20.861  27.179  1.00  0.00     0.134 A 
ATOM     65  C   UNL A   1      43.886  22.083  26.058  1.00  0.00     0.134 A 
ATOM     66  F   UNL A   1      41.193  20.706  28.031  1.00  0.00    -0.206 F 
ATOM     67  C   UNL A   1      42.491  19.739  26.380  1.00  0.00     0.040 A 
ATOM     68  C   UNL A   1      44.199  20.960  25.276  1.00  0.00     0.040 A 
ATOM     69  F   UNL A   1      44.516  23.197  25.683  1.00  0.00    -0.206 F 
ATOM     70  C   UNL A   1      43.513  19.773  25.448  1.00  0.00     0.006 A 
ENDBRANCH  49  63
BRANCH  50  71
ATOM     71  C   UNL A   1      41.955  30.282  32.220  1.00  0.00     0.057 A 
ATOM     72  C   UNL A   1      42.051  31.683  32.155  1.00  0.00     0.134 A 
ATOM     73  C   UNL A   1      40.689  29.741  32.455  1.00  0.00     0.134 A 
ATOM     74  F   UNL A   1      43.239  32.267  31.930  1.00  0.00    -0.206 F 
ATOM     75  C   UNL A   1      40.922  32.504  32.203  1.00  0.00     0.040 A 
ATOM     76  C   UNL A   1      39.550  30.556  32.516  1.00  0.00     0.040 A 
ATOM     77  F   UNL A   1      40.512  28.413  32.504  1.00  0.00    -0.206 F 
ATOM     78  C   UNL A   1      39.661  31.935  32.348  1.00  0.00     0.006 A 
ENDBRANCH  50  71
BRANCH  62  79
ATOM     79  C   UNL A   1      45.067  23.844  33.246  1.00  0.00     0.057 A 
ATOM     80  C   UNL A   1      46.336  23.687  33.821  1.00  0.00     0.134 A 
ATOM     81  C   UNL A   1      44.069  22.978  33.746  1.00  0.00     0.134 A 
ATOM     82  F   UNL A   1      47.351  24.507  33.512  1.00  0.00    -0.206 F 
ATOM     83  C   UNL A   1      46.607  22.709  34.787  1.00  0.00     0.040 A 
ATOM     84  C   UNL A   1      44.316  22.034  34.747  1.00  0.00     0.040 A 
ATOM     85  F   UNL A   1      42.806  23.029  33.298  1.00  0.00    -0.206 F 
ATOM     86  C   UNL A   1      45.593  21.887  35.264  1.00  0.00     0.006 A 
ENDBRANCH  62  79
ENDBRANCH  36  37
ENDBRANCH  28  31
ENDBRANCH  26  27
ENDBRANCH  25  26
ENDBRANCH   1  25
TORSDOF 14
ENDMDL
MODEL 3
REMARK VINA RESULT:     -11.9      3.333      8.487
REMARK SMILES Cc1cccc(NC(=O)C[C@@H]2CCCCO2)c1C(=O)NCCCCNC(=O)c1ccc(-c2c3nc(c(-c4c(F)cccc4F)c4ccc([nH]4)c(-c4c(F)cccc4F)c4nc(c(-c5c(F)cccc5F)c5ccc2[nH]5)C=C4)C=C3)cc1
REMARK SMILES IDX 22 1 21 2 20 3 18 4 19 5 17 7 1 8 2 9 3 10 4 11 6 12 5 13
REMARK SMILES IDX 7 14 8 15 9 17 10 18 11 19 12 20 16 21 13 22 15 23 14 24
REMARK SMILES IDX 23 25 24 26 25 27 26 28 27 30 28 31 29 32 81 33 30 34 80 35
REMARK SMILES IDX 31 36 32 37 33 38 74 39 34 40 79 41 73 42 75 43 35 44 78 45
REMARK SMILES IDX 72 46 71 47 36 49 62 50 45 51 61 52 46 53 49 54 60 55 76 56
REMARK SMILES IDX 47 57 48 58 59 60 77 61 50 62 37 63 38 64 43 65 39 66 40 67
REMARK SMILES IDX 42 68 44 69 41 70 63 71 64 72 69 73 65 74 66 75 68 76 70 77
REMARK SMILES IDX 67 78 51 79 52 80 57 81 53 82 54 83 56 84 58 85 55 86
REMARK H PARENT 20 6 7 16 25 29 75 48 49 59
REMARK Flexibility Score: inf
ROOT
ATOM      1  C   UNL A   1      35.134  29.238  26.963  1.00  0.00     0.023 C 
ENDROOT
BRANCH   1   2
ATOM      2  C   UNL A   1      34.160  28.389  26.123  1.00  0.00     0.116 C 
BRANCH   2   3
ATOM      3  N   UNL A   1      33.009  28.014  26.924  1.00  0.00    -0.352 N 
ATOM      4  C   UNL A   1      31.703  27.703  26.639  1.00  0.00     0.253 C 
ATOM      5  O   UNL A   1      30.994  27.457  27.617  1.00  0.00    -0.269 OA
ATOM      6  H   UNL A   1      33.212  27.971  27.887  1.00  0.00     0.163 HD
BRANCH   4   7
ATOM      7  C   UNL A   1      31.163  27.507  25.252  1.00  0.00     0.066 A 
ATOM      8  C   UNL A   1      30.895  29.981  24.635  1.00  0.00     0.045 C 
ATOM      9  C   UNL A   1      31.014  28.526  24.288  1.00  0.00    -0.036 A 
ATOM     10  C   UNL A   1      30.747  28.188  22.946  1.00  0.00     0.004 A 
ATOM     11  C   UNL A   1      30.504  26.871  22.583  1.00  0.00     0.002 A 
ATOM     12  C   UNL A   1      30.634  26.232  24.917  1.00  0.00     0.054 A 
ATOM     13  C   UNL A   1      30.412  25.902  23.575  1.00  0.00     0.027 A 
BRANCH  12  14
ATOM     14  N   UNL A   1      30.206  25.359  25.946  1.00  0.00    -0.325 N 
ATOM     15  C   UNL A   1      30.736  24.161  26.367  1.00  0.00     0.227 C 
ATOM     16  H   UNL A   1      29.405  25.655  26.438  1.00  0.00     0.169 HD
ATOM     17  O   UNL A   1      30.149  23.532  27.253  1.00  0.00    -0.275 OA
BRANCH  15  18
ATOM     18  C   UNL A   1      31.989  23.575  25.741  1.00  0.00     0.132 C 
BRANCH  18  19
ATOM     19  C   UNL A   1      33.307  24.211  26.227  1.00  0.00     0.127 C 
ATOM     20  C   UNL A   1      34.018  24.953  25.082  1.00  0.00     0.033 C 
ATOM     21  O   UNL A   1      34.237  23.307  26.832  1.00  0.00    -0.378 OA
ATOM     22  C   UNL A   1      34.612  23.984  24.059  1.00  0.00     0.005 C 
ATOM     23  C   UNL A   1      34.829  22.354  25.963  1.00  0.00     0.160 C 
ATOM     24  C   UNL A   1      35.508  22.964  24.749  1.00  0.00     0.029 C 
ENDBRANCH  18  19
ENDBRANCH  15  18
ENDBRANCH  12  14
ENDBRANCH   4   7
ENDBRANCH   2   3
ENDBRANCH   1   2
BRANCH   1  25
ATOM     25  C   UNL A   1      34.476  30.387  27.729  1.00  0.00     0.023 C 
BRANCH  25  26
ATOM     26  C   UNL A   1      35.340  31.635  27.749  1.00  0.00     0.116 C 
BRANCH  26  27
ATOM     27  N   UNL A   1      35.873  31.981  29.064  1.00  0.00    -0.352 N 
ATOM     28  C   UNL A   1      36.720  31.265  29.892  1.00  0.00     0.251 C 
ATOM     29  H   UNL A   1      35.587  32.856  29.414  1.00  0.00     0.163 HD
ATOM     30  O   UNL A   1      37.003  31.707  31.005  1.00  0.00    -0.269 OA
BRANCH  28  31
ATOM     31  C   UNL A   1      37.422  30.061  29.376  1.00  0.00     0.039 A 
ATOM     32  C   UNL A   1      37.495  28.950  30.224  1.00  0.00     0.014 A 
ATOM     33  C   UNL A   1      38.248  30.141  28.262  1.00  0.00     0.014 A 
ATOM     34  C   UNL A   1      38.604  28.114  30.149  1.00  0.00     0.010 A 
ATOM     35  C   UNL A   1      39.416  29.409  28.274  1.00  0.00     0.010 A 
ATOM     36  C   UNL A   1      39.630  28.455  29.273  1.00  0.00    -0.014 A 
BRANCH  36  37
ATOM     37  C   UNL A   1      41.004  27.991  29.438  1.00  0.00     0.031 A 
ATOM     38  C   UNL A   1      41.445  26.731  28.814  1.00  0.00     0.074 A 
ATOM     39  C   UNL A   1      41.895  28.792  30.066  1.00  0.00     0.049 A 
ATOM     40  N   UNL A   1      42.492  26.066  29.168  1.00  0.00    -0.248 NA
ATOM     41  C   UNL A   1      40.685  26.077  27.758  1.00  0.00     0.031 C 
ATOM     42  C   UNL A   1      43.350  28.676  30.064  1.00  0.00     0.029 A 
ATOM     43  N   UNL A   1      41.628  29.787  31.018  1.00  0.00    -0.354 N 
ATOM     44  C   UNL A   1      42.711  25.087  28.222  1.00  0.00     0.074 A 
ATOM     45  C   UNL A   1      41.505  25.075  27.432  1.00  0.00     0.031 C 
ATOM     46  C   UNL A   1      43.840  29.330  31.128  1.00  0.00     0.029 A 
ATOM     47  C   UNL A   1      42.706  29.760  31.929  1.00  0.00     0.049 A 
ATOM     48  H   UNL A   1      40.847  30.385  31.046  1.00  0.00     0.167 HD
ATOM     49  C   UNL A   1      43.948  24.513  28.144  1.00  0.00     0.037 A 
ATOM     50  C   UNL A   1      42.512  29.431  33.240  1.00  0.00     0.037 A 
ATOM     51  C   UNL A   1      44.781  24.931  29.279  1.00  0.00     0.049 A 
ATOM     52  C   UNL A   1      43.250  28.184  33.677  1.00  0.00     0.074 A 
ATOM     53  C   UNL A   1      45.793  25.869  29.411  1.00  0.00     0.029 A 
ATOM     54  N   UNL A   1      44.409  24.574  30.572  1.00  0.00    -0.354 N 
ATOM     55  N   UNL A   1      43.770  27.319  32.850  1.00  0.00    -0.248 NA
ATOM     56  C   UNL A   1      43.430  27.793  35.073  1.00  0.00     0.031 C 
ATOM     57  C   UNL A   1      45.972  26.133  30.793  1.00  0.00     0.029 A 
ATOM     58  C   UNL A   1      45.088  25.339  31.503  1.00  0.00     0.049 A 
ATOM     59  H   UNL A   1      43.753  23.874  30.794  1.00  0.00     0.167 HD
ATOM     60  C   UNL A   1      44.292  26.267  33.554  1.00  0.00     0.074 A 
ATOM     61  C   UNL A   1      44.084  26.625  34.944  1.00  0.00     0.031 C 
ATOM     62  C   UNL A   1      44.833  25.179  32.928  1.00  0.00     0.037 A 
BRANCH  49  63
ATOM     63  C   UNL A   1      44.511  23.837  26.900  1.00  0.00     0.057 A 
ATOM     64  C   UNL A   1      44.099  22.534  26.547  1.00  0.00     0.134 A 
ATOM     65  C   UNL A   1      45.519  24.348  26.063  1.00  0.00     0.134 A 
ATOM     66  F   UNL A   1      43.067  21.931  27.152  1.00  0.00    -0.206 F 
ATOM     67  C   UNL A   1      44.723  21.771  25.546  1.00  0.00     0.040 A 
ATOM     68  C   UNL A   1      46.177  23.587  25.083  1.00  0.00     0.040 A 
ATOM     69  F   UNL A   1      45.889  25.629  26.090  1.00  0.00    -0.206 F 
ATOM     70  C   UNL A   1      45.793  22.283  24.834  1.00  0.00     0.006 A 
ENDBRANCH  49  63
BRANCH  50  71
ATOM     71  C   UNL A   1      41.197  29.879  33.767  1.00  0.00     0.057 A 
ATOM     72  C   UNL A   1      41.060  31.218  34.174  1.00  0.00     0.134 A 
ATOM     73  C   UNL A   1      40.022  29.165  33.519  1.00  0.00     0.134 A 
ATOM     74  F   UNL A   1      42.150  31.959  34.428  1.00  0.00    -0.206 F 
ATOM     75  C   UNL A   1      39.818  31.854  34.218  1.00  0.00     0.040 A 
ATOM     76  C   UNL A   1      38.768  29.791  33.570  1.00  0.00     0.040 A 
ATOM     77  F   UNL A   1      40.070  27.892  33.102  1.00  0.00    -0.206 F 
ATOM     78  C   UNL A   1      38.669  31.146  33.879  1.00  0.00     0.006 A 
ENDBRANCH  50  71
BRANCH  62  79
ATOM     79  C   UNL A   1      45.233  23.890  33.599  1.00  0.00     0.057 A 
ATOM     80  C   UNL A   1      46.530  23.605  34.051  1.00  0.00     0.134 A 
ATOM     81  C   UNL A   1      44.251  22.938  33.952  1.00  0.00     0.134 A 
ATOM     82  F   UNL A   1      47.538  24.470  33.874  1.00  0.00    -0.206 F 
ATOM     83  C   UNL A   1      46.837  22.437  34.761  1.00  0.00     0.040 A 
ATOM     84  C   UNL A   1      44.537  21.796  34.704  1.00  0.00     0.040 A 
ATOM     85  F   UNL A   1      42.966  23.091  33.600  1.00  0.00    -0.206 F 
ATOM     86  C   UNL A   1      45.838  21.534  35.102  1.00  0.00     0.006 A 
ENDBRANCH  62  79
ENDBRANCH  36  37
ENDBRANCH  28  31
ENDBRANCH  26  27
ENDBRANCH  25  26
ENDBRANCH   1  25
TORSDOF 14
ENDMDL
