MODEL 1
REMARK VINA RESULT:     -12.4      0.000      0.000
REMARK SMILES O=C(C[C@@H](C(=O)NCCCCNC(=O)c1ccc(-c2c3nc(c(-c4c(F)cccc4F)c4ccc([nH]4)c(-c4c(F)cccc4F)c4nc(c(-c5c(F)cccc5F)c5ccc2[nH]5)C=C4)C=C3)cc1)c1ccccc1)Nc1cc(C(F)(F)F)ccc1-n1cncn1
REMARK SMILES IDX 8 1 7 2 5 3 6 4 4 6 3 7 2 8 1 9 75 10 76 12 77 13 85 14
REMARK SMILES IDX 78 15 84 16 83 17 86 18 87 19 90 20 88 21 89 22 79 23 80 24
REMARK SMILES IDX 81 25 82 26 69 27 70 28 74 29 71 30 73 31 72 32 9 33 10 34
REMARK SMILES IDX 11 35 12 36 13 37 14 39 15 40 16 41 68 42 17 43 67 44 18 45
REMARK SMILES IDX 19 46 20 47 61 48 21 49 66 50 60 51 62 52 22 53 65 54 59 55
REMARK SMILES IDX 58 56 23 58 49 59 32 60 48 61 33 62 36 63 47 64 63 65 34 66
REMARK SMILES IDX 35 67 46 69 64 70 37 71 24 72 25 73 30 74 26 75 27 76 29 77
REMARK SMILES IDX 31 78 28 79 50 80 51 81 56 82 52 83 53 84 55 85 57 86 54 87
REMARK SMILES IDX 38 88 39 89 44 90 40 91 41 92 43 93 45 94 42 95
REMARK H PARENT 7 5 75 11 12 38 62 57 36 68
REMARK Flexibility Score: inf
ROOT
ATOM      1  C   UNL A   1      33.111  29.258  25.932  1.00  0.00     0.116 C 
ENDROOT
BRANCH   1   2
ATOM      2  N   UNL A   1      32.821  29.724  24.593  1.00  0.00    -0.356 N 
ATOM      3  C   UNL A   1      32.445  28.902  23.565  1.00  0.00     0.228 C 
ATOM      4  O   UNL A   1      33.055  29.003  22.499  1.00  0.00    -0.274 OA
ATOM      5  H   UNL A   1      32.897  30.688  24.410  1.00  0.00     0.163 HD
BRANCH   3   6
ATOM      6  C   UNL A   1      31.260  27.937  23.753  1.00  0.00     0.118 C 
BRANCH   6   7
ATOM      7  C   UNL A   1      31.427  26.716  22.827  1.00  0.00     0.118 C 
BRANCH   7   8
ATOM      8  C   UNL A   1      31.859  25.423  23.509  1.00  0.00     0.225 C 
ATOM      9  O   UNL A   1      31.449  24.327  23.156  1.00  0.00    -0.275 OA
ATOM     10  N   UNL A   1      32.752  25.634  24.553  1.00  0.00    -0.324 N 
ATOM     11  H   UNL A   1      32.887  26.561  24.857  1.00  0.00     0.170 HD
BRANCH  10  12
ATOM     12  C   UNL A   1      33.486  24.617  25.217  1.00  0.00     0.067 A 
ATOM     13  C   UNL A   1      34.801  24.439  24.783  1.00  0.00     0.041 A 
ATOM     14  C   UNL A   1      32.995  23.753  26.210  1.00  0.00     0.090 A 
ATOM     15  C   UNL A   1      35.656  23.488  25.360  1.00  0.00     0.058 A 
ATOM     16  C   UNL A   1      33.864  22.845  26.853  1.00  0.00     0.031 A 
ATOM     17  C   UNL A   1      35.189  22.713  26.424  1.00  0.00     0.015 A 
BRANCH  14  18
ATOM     18  N   UNL A   1      31.604  23.564  26.397  1.00  0.00    -0.219 N 
ATOM     19  C   UNL A   1      30.916  22.374  26.310  1.00  0.00     0.226 A 
ATOM     20  N   UNL A   1      30.788  24.500  26.944  1.00  0.00    -0.155 NA
ATOM     21  N   UNL A   1      29.656  22.540  26.630  1.00  0.00    -0.223 NA
ATOM     22  C   UNL A   1      29.620  23.855  26.984  1.00  0.00     0.246 A 
ENDBRANCH  14  18
BRANCH  15  23
ATOM     23  C   UNL A   1      37.014  23.294  24.740  1.00  0.00     0.416 C 
ATOM     24  F   UNL A   1      37.474  22.026  24.939  1.00  0.00    -0.166 F 
ATOM     25  F   UNL A   1      36.997  23.451  23.390  1.00  0.00    -0.166 F 
ATOM     26  F   UNL A   1      37.979  24.121  25.220  1.00  0.00    -0.166 F 
ENDBRANCH  15  23
ENDBRANCH  10  12
ENDBRANCH   7   8
ENDBRANCH   6   7
BRANCH   6  27
ATOM     27  C   UNL A   1      30.007  28.774  23.424  1.00  0.00    -0.035 A 
ATOM     28  C   UNL A   1      28.811  28.122  23.077  1.00  0.00     0.004 A 
ATOM     29  C   UNL A   1      29.963  30.164  23.636  1.00  0.00     0.004 A 
ATOM     30  C   UNL A   1      27.612  28.835  22.964  1.00  0.00     0.000 A 
ATOM     31  C   UNL A   1      28.766  30.875  23.516  1.00  0.00     0.000 A 
ATOM     32  C   UNL A   1      27.590  30.209  23.189  1.00  0.00     0.000 A 
ENDBRANCH   6  27
ENDBRANCH   3   6
ENDBRANCH   1   2
BRANCH   1  33
ATOM     33  C   UNL A   1      32.079  29.849  26.900  1.00  0.00     0.023 C 
BRANCH  33  34
ATOM     34  C   UNL A   1      31.754  31.321  26.705  1.00  0.00     0.023 C 
BRANCH  34  35
ATOM     35  C   UNL A   1      32.907  32.246  27.065  1.00  0.00     0.116 C 
BRANCH  35  36
ATOM     36  N   UNL A   1      32.517  33.553  27.586  1.00  0.00    -0.352 N 
ATOM     37  C   UNL A   1      33.113  34.464  28.436  1.00  0.00     0.251 C 
ATOM     38  H   UNL A   1      31.637  33.850  27.261  1.00  0.00     0.163 HD
ATOM     39  O   UNL A   1      32.541  35.533  28.635  1.00  0.00    -0.269 OA
BRANCH  37  40
ATOM     40  C   UNL A   1      34.351  34.162  29.203  1.00  0.00     0.039 A 
ATOM     41  C   UNL A   1      34.258  33.344  30.342  1.00  0.00     0.014 A 
ATOM     42  C   UNL A   1      35.605  34.588  28.796  1.00  0.00     0.014 A 
ATOM     43  C   UNL A   1      35.412  32.838  30.955  1.00  0.00     0.010 A 
ATOM     44  C   UNL A   1      36.744  33.986  29.307  1.00  0.00     0.010 A 
ATOM     45  C   UNL A   1      36.666  33.116  30.405  1.00  0.00    -0.014 A 
BRANCH  45  46
ATOM     46  C   UNL A   1      37.949  32.658  30.995  1.00  0.00     0.031 A 
ATOM     47  C   UNL A   1      38.624  31.466  30.369  1.00  0.00     0.074 A 
ATOM     48  C   UNL A   1      38.427  33.183  32.139  1.00  0.00     0.049 A 
ATOM     49  N   UNL A   1      39.566  30.694  30.843  1.00  0.00    -0.248 NA
ATOM     50  C   UNL A   1      38.108  31.047  29.054  1.00  0.00     0.031 C 
ATOM     51  C   UNL A   1      37.859  34.318  32.866  1.00  0.00     0.029 A 
ATOM     52  N   UNL A   1      39.496  32.794  32.910  1.00  0.00    -0.354 N 
ATOM     53  C   UNL A   1      39.713  29.676  29.910  1.00  0.00     0.074 A 
ATOM     54  C   UNL A   1      38.711  29.882  28.890  1.00  0.00     0.031 C 
ATOM     55  C   UNL A   1      38.592  34.541  33.972  1.00  0.00     0.029 A 
ATOM     56  C   UNL A   1      39.650  33.537  34.057  1.00  0.00     0.049 A 
ATOM     57  H   UNL A   1      40.096  32.054  32.664  1.00  0.00     0.167 HD
ATOM     58  C   UNL A   1      40.623  28.675  29.883  1.00  0.00     0.037 A 
ATOM     59  C   UNL A   1      40.537  33.405  35.063  1.00  0.00     0.037 A 
ATOM     60  C   UNL A   1      41.656  28.510  30.867  1.00  0.00     0.049 A 
ATOM     61  C   UNL A   1      41.549  32.289  35.011  1.00  0.00     0.074 A 
ATOM     62  C   UNL A   1      42.670  27.572  30.904  1.00  0.00     0.029 A 
ATOM     63  N   UNL A   1      41.814  29.320  31.982  1.00  0.00    -0.354 N 
ATOM     64  N   UNL A   1      41.708  31.352  34.107  1.00  0.00    -0.248 NA
ATOM     65  C   UNL A   1      42.509  32.213  36.123  1.00  0.00     0.031 C 
ATOM     66  C   UNL A   1      43.423  27.792  32.062  1.00  0.00     0.029 A 
ATOM     67  C   UNL A   1      42.906  28.898  32.719  1.00  0.00     0.049 A 
ATOM     68  H   UNL A   1      41.235  30.082  32.214  1.00  0.00     0.167 HD
ATOM     69  C   UNL A   1      42.806  30.605  34.518  1.00  0.00     0.074 A 
ATOM     70  C   UNL A   1      43.279  31.201  35.749  1.00  0.00     0.031 C 
ATOM     71  C   UNL A   1      43.375  29.523  33.929  1.00  0.00     0.037 A 
BRANCH  58  72
ATOM     72  C   UNL A   1      40.542  27.704  28.742  1.00  0.00     0.057 A 
ATOM     73  C   UNL A   1      41.261  27.898  27.553  1.00  0.00     0.134 A 
ATOM     74  C   UNL A   1      39.730  26.567  28.824  1.00  0.00     0.134 A 
ATOM     75  F   UNL A   1      42.044  28.976  27.401  1.00  0.00    -0.206 F 
ATOM     76  C   UNL A   1      41.142  27.020  26.474  1.00  0.00     0.040 A 
ATOM     77  C   UNL A   1      39.630  25.662  27.766  1.00  0.00     0.040 A 
ATOM     78  F   UNL A   1      39.016  26.317  29.933  1.00  0.00    -0.206 F 
ATOM     79  C   UNL A   1      40.328  25.895  26.582  1.00  0.00     0.006 A 
ENDBRANCH  58  72
BRANCH  59  80
ATOM     80  C   UNL A   1      40.540  34.369  36.194  1.00  0.00     0.057 A 
ATOM     81  C   UNL A   1      39.748  34.142  37.328  1.00  0.00     0.134 A 
ATOM     82  C   UNL A   1      41.299  35.544  36.167  1.00  0.00     0.134 A 
ATOM     83  F   UNL A   1      38.980  33.045  37.404  1.00  0.00    -0.206 F 
ATOM     84  C   UNL A   1      39.691  35.058  38.380  1.00  0.00     0.040 A 
ATOM     85  C   UNL A   1      41.272  36.458  37.223  1.00  0.00     0.040 A 
ATOM     86  F   UNL A   1      42.081  35.822  35.113  1.00  0.00    -0.206 F 
ATOM     87  C   UNL A   1      40.459  36.220  38.331  1.00  0.00     0.006 A 
ENDBRANCH  59  80
BRANCH  71  88
ATOM     88  C   UNL A   1      44.603  28.947  34.572  1.00  0.00     0.057 A 
ATOM     89  C   UNL A   1      44.535  27.912  35.512  1.00  0.00     0.134 A 
ATOM     90  C   UNL A   1      45.875  29.395  34.192  1.00  0.00     0.134 A 
ATOM     91  F   UNL A   1      43.346  27.445  35.924  1.00  0.00    -0.206 F 
ATOM     92  C   UNL A   1      45.689  27.355  36.065  1.00  0.00     0.040 A 
ATOM     93  C   UNL A   1      47.036  28.827  34.717  1.00  0.00     0.040 A 
ATOM     94  F   UNL A   1      46.011  30.376  33.287  1.00  0.00    -0.206 F 
ATOM     95  C   UNL A   1      46.944  27.806  35.661  1.00  0.00     0.006 A 
ENDBRANCH  71  88
ENDBRANCH  45  46
ENDBRANCH  37  40
ENDBRANCH  35  36
ENDBRANCH  34  35
ENDBRANCH  33  34
ENDBRANCH   1  33
TORSDOF 17
ENDMDL
MODEL 2
REMARK VINA RESULT:     -12.4      4.407      9.383
REMARK SMILES O=C(C[C@@H](C(=O)NCCCCNC(=O)c1ccc(-c2c3nc(c(-c4c(F)cccc4F)c4ccc([nH]4)c(-c4c(F)cccc4F)c4nc(c(-c5c(F)cccc5F)c5ccc2[nH]5)C=C4)C=C3)cc1)c1ccccc1)Nc1cc(C(F)(F)F)ccc1-n1cncn1
REMARK SMILES IDX 8 1 7 2 5 3 6 4 4 6 3 7 2 8 1 9 75 10 76 12 77 13 85 14
REMARK SMILES IDX 78 15 84 16 83 17 86 18 87 19 90 20 88 21 89 22 79 23 80 24
REMARK SMILES IDX 81 25 82 26 69 27 70 28 74 29 71 30 73 31 72 32 9 33 10 34
REMARK SMILES IDX 11 35 12 36 13 37 14 39 15 40 16 41 68 42 17 43 67 44 18 45
REMARK SMILES IDX 19 46 20 47 61 48 21 49 66 50 60 51 62 52 22 53 65 54 59 55
REMARK SMILES IDX 58 56 23 58 49 59 32 60 48 61 33 62 36 63 47 64 63 65 34 66
REMARK SMILES IDX 35 67 46 69 64 70 37 71 24 72 25 73 30 74 26 75 27 76 29 77
REMARK SMILES IDX 31 78 28 79 50 80 51 81 56 82 52 83 53 84 55 85 57 86 54 87
REMARK SMILES IDX 38 88 39 89 44 90 40 91 41 92 43 93 45 94 42 95
REMARK H PARENT 7 5 75 11 12 38 62 57 36 68
REMARK Flexibility Score: inf
ROOT
ATOM      1  C   UNL A   1      35.373  22.723  25.819  1.00  0.00     0.116 C 
ENDROOT
BRANCH   1   2
ATOM      2  N   UNL A   1      34.380  22.039  26.620  1.00  0.00    -0.356 N 
ATOM      3  C   UNL A   1      33.087  22.465  26.756  1.00  0.00     0.228 C 
ATOM      4  O   UNL A   1      32.633  22.563  27.897  1.00  0.00    -0.274 OA
ATOM      5  H   UNL A   1      34.650  21.220  27.095  1.00  0.00     0.163 HD
BRANCH   3   6
ATOM      6  C   UNL A   1      32.241  22.748  25.501  1.00  0.00     0.118 C 
BRANCH   6   7
ATOM      7  C   UNL A   1      30.849  23.267  25.914  1.00  0.00     0.118 C 
BRANCH   7   8
ATOM      8  C   UNL A   1      30.588  24.744  25.641  1.00  0.00     0.225 C 
ATOM      9  O   UNL A   1      30.837  25.616  26.461  1.00  0.00    -0.275 OA
ATOM     10  N   UNL A   1      30.049  24.976  24.381  1.00  0.00    -0.324 N 
ATOM     11  H   UNL A   1      29.737  24.194  23.868  1.00  0.00     0.170 HD
BRANCH  10  12
ATOM     12  C   UNL A   1      29.911  26.251  23.774  1.00  0.00     0.067 A 
ATOM     13  C   UNL A   1      28.656  26.849  23.901  1.00  0.00     0.041 A 
ATOM     14  C   UNL A   1      30.890  26.921  23.021  1.00  0.00     0.090 A 
ATOM     15  C   UNL A   1      28.376  28.118  23.374  1.00  0.00     0.058 A 
ATOM     16  C   UNL A   1      30.650  28.231  22.551  1.00  0.00     0.031 A 
ATOM     17  C   UNL A   1      29.393  28.823  22.726  1.00  0.00     0.015 A 
BRANCH  14  18
ATOM     18  N   UNL A   1      32.001  26.230  22.479  1.00  0.00    -0.219 N 
ATOM     19  C   UNL A   1      33.288  26.706  22.362  1.00  0.00     0.226 A 
ATOM     20  N   UNL A   1      32.005  24.897  22.229  1.00  0.00    -0.155 NA
ATOM     21  N   UNL A   1      34.088  25.775  21.900  1.00  0.00    -0.223 NA
ATOM     22  C   UNL A   1      33.256  24.700  21.810  1.00  0.00     0.246 A 
ENDBRANCH  14  18
BRANCH  15  23
ATOM     23  C   UNL A   1      26.960  28.622  23.461  1.00  0.00     0.416 C 
ATOM     24  F   UNL A   1      26.911  29.878  23.990  1.00  0.00    -0.166 F 
ATOM     25  F   UNL A   1      26.372  28.733  22.241  1.00  0.00    -0.166 F 
ATOM     26  F   UNL A   1      26.136  27.861  24.228  1.00  0.00    -0.166 F 
ENDBRANCH  15  23
ENDBRANCH  10  12
ENDBRANCH   7   8
ENDBRANCH   6   7
BRANCH   6  27
ATOM     27  C   UNL A   1      32.180  21.402  24.749  1.00  0.00    -0.035 A 
ATOM     28  C   UNL A   1      32.078  21.397  23.346  1.00  0.00     0.004 A 
ATOM     29  C   UNL A   1      32.407  20.174  25.398  1.00  0.00     0.004 A 
ATOM     30  C   UNL A   1      32.217  20.208  22.622  1.00  0.00     0.000 A 
ATOM     31  C   UNL A   1      32.538  18.988  24.673  1.00  0.00     0.000 A 
ATOM     32  C   UNL A   1      32.452  19.006  23.285  1.00  0.00     0.000 A 
ENDBRANCH   6  27
ENDBRANCH   3   6
ENDBRANCH   1   2
BRANCH   1  33
ATOM     33  C   UNL A   1      35.772  21.822  24.644  1.00  0.00     0.023 C 
BRANCH  33  34
ATOM     34  C   UNL A   1      36.695  20.661  24.982  1.00  0.00     0.023 C 
BRANCH  34  35
ATOM     35  C   UNL A   1      38.084  21.103  25.418  1.00  0.00     0.116 C 
BRANCH  35  36
ATOM     36  N   UNL A   1      39.110  20.065  25.374  1.00  0.00    -0.352 N 
ATOM     37  C   UNL A   1      40.381  19.950  25.901  1.00  0.00     0.251 C 
ATOM     38  H   UNL A   1      38.837  19.276  24.854  1.00  0.00     0.163 HD
ATOM     39  O   UNL A   1      40.986  18.893  25.732  1.00  0.00    -0.269 OA
BRANCH  37  40
ATOM     40  C   UNL A   1      41.088  21.080  26.559  1.00  0.00     0.039 A 
ATOM     41  C   UNL A   1      41.737  22.032  25.755  1.00  0.00     0.014 A 
ATOM     42  C   UNL A   1      41.065  21.280  27.930  1.00  0.00     0.014 A 
ATOM     43  C   UNL A   1      42.208  23.233  26.304  1.00  0.00     0.010 A 
ATOM     44  C   UNL A   1      41.401  22.516  28.459  1.00  0.00     0.010 A 
ATOM     45  C   UNL A   1      41.993  23.504  27.658  1.00  0.00    -0.014 A 
BRANCH  45  46
ATOM     46  C   UNL A   1      42.480  24.727  28.344  1.00  0.00     0.031 A 
ATOM     47  C   UNL A   1      41.489  25.834  28.593  1.00  0.00     0.074 A 
ATOM     48  C   UNL A   1      43.786  24.917  28.606  1.00  0.00     0.049 A 
ATOM     49  N   UNL A   1      41.696  27.089  28.894  1.00  0.00    -0.248 NA
ATOM     50  C   UNL A   1      40.069  25.487  28.401  1.00  0.00     0.031 C 
ATOM     51  C   UNL A   1      44.856  23.943  28.390  1.00  0.00     0.029 A 
ATOM     52  N   UNL A   1      44.439  26.028  29.084  1.00  0.00    -0.354 N 
ATOM     53  C   UNL A   1      40.441  27.685  28.873  1.00  0.00     0.074 A 
ATOM     54  C   UNL A   1      39.495  26.677  28.452  1.00  0.00     0.031 C 
ATOM     55  C   UNL A   1      46.030  24.495  28.745  1.00  0.00     0.029 A 
ATOM     56  C   UNL A   1      45.803  25.875  29.167  1.00  0.00     0.049 A 
ATOM     57  H   UNL A   1      43.974  26.855  29.344  1.00  0.00     0.167 HD
ATOM     58  C   UNL A   1      40.097  28.949  29.209  1.00  0.00     0.037 A 
ATOM     59  C   UNL A   1      46.754  26.758  29.530  1.00  0.00     0.037 A 
ATOM     60  C   UNL A   1      41.032  29.930  29.686  1.00  0.00     0.049 A 
ATOM     61  C   UNL A   1      46.350  28.162  29.908  1.00  0.00     0.074 A 
ATOM     62  C   UNL A   1      40.784  31.220  30.116  1.00  0.00     0.029 A 
ATOM     63  N   UNL A   1      42.396  29.716  29.812  1.00  0.00    -0.354 N 
ATOM     64  N   UNL A   1      45.158  28.707  29.925  1.00  0.00    -0.248 NA
ATOM     65  C   UNL A   1      47.429  29.072  30.323  1.00  0.00     0.031 C 
ATOM     66  C   UNL A   1      42.006  31.801  30.470  1.00  0.00     0.029 A 
ATOM     67  C   UNL A   1      43.007  30.855  30.307  1.00  0.00     0.049 A 
ATOM     68  H   UNL A   1      42.861  28.878  29.584  1.00  0.00     0.167 HD
ATOM     69  C   UNL A   1      45.337  30.006  30.388  1.00  0.00     0.074 A 
ATOM     70  C   UNL A   1      46.753  30.165  30.647  1.00  0.00     0.031 C 
ATOM     71  C   UNL A   1      44.415  30.982  30.583  1.00  0.00     0.037 A 
BRANCH  58  72
ATOM     72  C   UNL A   1      38.649  29.323  29.085  1.00  0.00     0.057 A 
ATOM     73  C   UNL A   1      37.782  29.299  30.187  1.00  0.00     0.134 A 
ATOM     74  C   UNL A   1      38.109  29.702  27.850  1.00  0.00     0.134 A 
ATOM     75  F   UNL A   1      38.230  28.928  31.396  1.00  0.00    -0.206 F 
ATOM     76  C   UNL A   1      36.424  29.595  30.057  1.00  0.00     0.040 A 
ATOM     77  C   UNL A   1      36.761  30.036  27.714  1.00  0.00     0.040 A 
ATOM     78  F   UNL A   1      38.881  29.750  26.754  1.00  0.00    -0.206 F 
ATOM     79  C   UNL A   1      35.912  29.971  28.818  1.00  0.00     0.006 A 
ENDBRANCH  58  72
BRANCH  59  80
ATOM     80  C   UNL A   1      48.180  26.347  29.588  1.00  0.00     0.057 A 
ATOM     81  C   UNL A   1      48.712  25.777  30.753  1.00  0.00     0.134 A 
ATOM     82  C   UNL A   1      49.053  26.534  28.510  1.00  0.00     0.134 A 
ATOM     83  F   UNL A   1      47.933  25.594  31.829  1.00  0.00    -0.206 F 
ATOM     84  C   UNL A   1      50.062  25.434  30.853  1.00  0.00     0.040 A 
ATOM     85  C   UNL A   1      50.399  26.171  28.587  1.00  0.00     0.040 A 
ATOM     86  F   UNL A   1      48.608  27.072  27.365  1.00  0.00    -0.206 F 
ATOM     87  C   UNL A   1      50.910  25.627  29.765  1.00  0.00     0.006 A 
ENDBRANCH  59  80
BRANCH  71  88
ATOM     88  C   UNL A   1      44.892  32.285  31.155  1.00  0.00     0.057 A 
ATOM     89  C   UNL A   1      45.289  33.353  30.342  1.00  0.00     0.134 A 
ATOM     90  C   UNL A   1      44.888  32.491  32.541  1.00  0.00     0.134 A 
ATOM     91  F   UNL A   1      45.323  33.216  29.008  1.00  0.00    -0.206 F 
ATOM     92  C   UNL A   1      45.684  34.575  30.889  1.00  0.00     0.040 A 
ATOM     93  C   UNL A   1      45.255  33.717  33.098  1.00  0.00     0.040 A 
ATOM     94  F   UNL A   1      44.508  31.512  33.375  1.00  0.00    -0.206 F 
ATOM     95  C   UNL A   1      45.659  34.762  32.270  1.00  0.00     0.006 A 
ENDBRANCH  71  88
ENDBRANCH  45  46
ENDBRANCH  37  40
ENDBRANCH  35  36
ENDBRANCH  34  35
ENDBRANCH  33  34
ENDBRANCH   1  33
TORSDOF 17
ENDMDL
MODEL 3
REMARK VINA RESULT:     -12.3      4.338      7.882
REMARK SMILES O=C(C[C@@H](C(=O)NCCCCNC(=O)c1ccc(-c2c3nc(c(-c4c(F)cccc4F)c4ccc([nH]4)c(-c4c(F)cccc4F)c4nc(c(-c5c(F)cccc5F)c5ccc2[nH]5)C=C4)C=C3)cc1)c1ccccc1)Nc1cc(C(F)(F)F)ccc1-n1cncn1
REMARK SMILES IDX 8 1 7 2 5 3 6 4 4 6 3 7 2 8 1 9 75 10 76 12 77 13 85 14
REMARK SMILES IDX 78 15 84 16 83 17 86 18 87 19 90 20 88 21 89 22 79 23 80 24
REMARK SMILES IDX 81 25 82 26 69 27 70 28 74 29 71 30 73 31 72 32 9 33 10 34
REMARK SMILES IDX 11 35 12 36 13 37 14 39 15 40 16 41 68 42 17 43 67 44 18 45
REMARK SMILES IDX 19 46 20 47 61 48 21 49 66 50 60 51 62 52 22 53 65 54 59 55
REMARK SMILES IDX 58 56 23 58 49 59 32 60 48 61 33 62 36 63 47 64 63 65 34 66
REMARK SMILES IDX 35 67 46 69 64 70 37 71 24 72 25 73 30 74 26 75 27 76 29 77
REMARK SMILES IDX 31 78 28 79 50 80 51 81 56 82 52 83 53 84 55 85 57 86 54 87
REMARK SMILES IDX 38 88 39 89 44 90 40 91 41 92 43 93 45 94 42 95
REMARK H PARENT 7 5 75 11 12 38 62 57 36 68
REMARK Flexibility Score: inf
ROOT
ATOM      1  C   UNL A   1      32.377  29.333  25.749  1.00  0.00     0.116 C 
ENDROOT
BRANCH   1   2
ATOM      2  N   UNL A   1      32.354  29.742  24.361  1.00  0.00    -0.356 N 
ATOM      3  C   UNL A   1      32.247  28.869  23.312  1.00  0.00     0.228 C 
ATOM      4  O   UNL A   1      33.063  28.975  22.395  1.00  0.00    -0.274 OA
ATOM      5  H   UNL A   1      32.419  30.703  24.159  1.00  0.00     0.163 HD
BRANCH   3   6
ATOM      6  C   UNL A   1      31.099  27.844  23.287  1.00  0.00     0.118 C 
BRANCH   6   7
ATOM      7  C   UNL A   1      31.490  26.642  22.403  1.00  0.00     0.118 C 
BRANCH   7   8
ATOM      8  C   UNL A   1      31.940  25.392  23.149  1.00  0.00     0.225 C 
ATOM      9  O   UNL A   1      31.642  24.265  22.779  1.00  0.00    -0.275 OA
ATOM     10  N   UNL A   1      32.710  25.677  24.271  1.00  0.00    -0.324 N 
ATOM     11  H   UNL A   1      32.750  26.616  24.568  1.00  0.00     0.170 HD
BRANCH  10  12
ATOM     12  C   UNL A   1      33.442  24.722  25.022  1.00  0.00     0.067 A 
ATOM     13  C   UNL A   1      34.711  24.410  24.530  1.00  0.00     0.041 A 
ATOM     14  C   UNL A   1      32.986  24.036  26.160  1.00  0.00     0.090 A 
ATOM     15  C   UNL A   1      35.561  23.502  25.179  1.00  0.00     0.058 A 
ATOM     16  C   UNL A   1      33.857  23.178  26.867  1.00  0.00     0.031 A 
ATOM     17  C   UNL A   1      35.139  22.911  26.372  1.00  0.00     0.015 A 
BRANCH  14  18
ATOM     18  N   UNL A   1      31.606  23.955  26.466  1.00  0.00    -0.219 N 
ATOM     19  C   UNL A   1      30.946  22.877  27.013  1.00  0.00     0.226 A 
ATOM     20  N   UNL A   1      30.782  25.033  26.498  1.00  0.00    -0.155 NA
ATOM     21  N   UNL A   1      29.690  23.172  27.250  1.00  0.00    -0.223 NA
ATOM     22  C   UNL A   1      29.631  24.486  26.897  1.00  0.00     0.246 A 
ENDBRANCH  14  18
BRANCH  15  23
ATOM     23  C   UNL A   1      36.858  23.145  24.503  1.00  0.00     0.416 C 
ATOM     24  F   UNL A   1      36.958  23.734  23.278  1.00  0.00    -0.166 F 
ATOM     25  F   UNL A   1      37.942  23.587  25.193  1.00  0.00    -0.166 F 
ATOM     26  F   UNL A   1      37.039  21.815  24.295  1.00  0.00    -0.166 F 
ENDBRANCH  15  23
ENDBRANCH  10  12
ENDBRANCH   7   8
ENDBRANCH   6   7
BRANCH   6  27
ATOM     27  C   UNL A   1      29.882  28.619  22.742  1.00  0.00    -0.035 A 
ATOM     28  C   UNL A   1      28.584  28.194  23.077  1.00  0.00     0.004 A 
ATOM     29  C   UNL A   1      30.021  29.848  22.071  1.00  0.00     0.004 A 
ATOM     30  C   UNL A   1      27.469  28.980  22.765  1.00  0.00     0.000 A 
ATOM     31  C   UNL A   1      28.906  30.627  21.755  1.00  0.00     0.000 A 
ATOM     32  C   UNL A   1      27.632  30.198  22.110  1.00  0.00     0.000 A 
ENDBRANCH   6  27
ENDBRANCH   3   6
ENDBRANCH   1   2
BRANCH   1  33
ATOM     33  C   UNL A   1      33.657  28.530  26.011  1.00  0.00     0.023 C 
BRANCH  33  34
ATOM     34  C   UNL A   1      34.443  28.920  27.253  1.00  0.00     0.023 C 
BRANCH  34  35
ATOM     35  C   UNL A   1      34.599  30.423  27.420  1.00  0.00     0.116 C 
BRANCH  35  36
ATOM     36  N   UNL A   1      34.765  30.884  28.795  1.00  0.00    -0.352 N 
ATOM     37  C   UNL A   1      35.815  30.868  29.692  1.00  0.00     0.251 C 
ATOM     38  H   UNL A   1      33.950  31.293  29.165  1.00  0.00     0.163 HD
ATOM     39  O   UNL A   1      35.652  31.405  30.785  1.00  0.00    -0.269 OA
BRANCH  37  40
ATOM     40  C   UNL A   1      37.083  30.136  29.437  1.00  0.00     0.039 A 
ATOM     41  C   UNL A   1      37.648  30.188  28.151  1.00  0.00     0.014 A 
ATOM     42  C   UNL A   1      37.776  29.469  30.435  1.00  0.00     0.014 A 
ATOM     43  C   UNL A   1      38.949  29.721  27.921  1.00  0.00     0.010 A 
ATOM     44  C   UNL A   1      39.108  29.132  30.253  1.00  0.00     0.010 A 
ATOM     45  C   UNL A   1      39.709  29.237  28.989  1.00  0.00    -0.014 A 
BRANCH  45  46
ATOM     46  C   UNL A   1      41.082  28.690  28.847  1.00  0.00     0.031 A 
ATOM     47  C   UNL A   1      42.233  29.658  28.905  1.00  0.00     0.074 A 
ATOM     48  C   UNL A   1      41.298  27.400  28.528  1.00  0.00     0.049 A 
ATOM     49  N   UNL A   1      43.475  29.505  28.528  1.00  0.00    -0.248 NA
ATOM     50  C   UNL A   1      41.915  31.013  29.391  1.00  0.00     0.031 C 
ATOM     51  C   UNL A   1      40.275  26.361  28.412  1.00  0.00     0.029 A 
ATOM     52  N   UNL A   1      42.467  26.754  28.207  1.00  0.00    -0.354 N 
ATOM     53  C   UNL A   1      44.064  30.753  28.680  1.00  0.00     0.074 A 
ATOM     54  C   UNL A   1      43.028  31.667  29.104  1.00  0.00     0.031 C 
ATOM     55  C   UNL A   1      40.863  25.205  28.055  1.00  0.00     0.029 A 
ATOM     56  C   UNL A   1      42.294  25.431  27.872  1.00  0.00     0.049 A 
ATOM     57  H   UNL A   1      43.346  27.196  28.216  1.00  0.00     0.167 HD
ATOM     58  C   UNL A   1      45.360  31.105  28.517  1.00  0.00     0.037 A 
ATOM     59  C   UNL A   1      43.192  24.519  27.452  1.00  0.00     0.037 A 
ATOM     60  C   UNL A   1      46.398  30.180  28.155  1.00  0.00     0.049 A 
ATOM     61  C   UNL A   1      44.635  24.927  27.284  1.00  0.00     0.074 A 
ATOM     62  C   UNL A   1      47.754  30.413  28.025  1.00  0.00     0.029 A 
ATOM     63  N   UNL A   1      46.190  28.836  27.883  1.00  0.00    -0.354 N 
ATOM     64  N   UNL A   1      45.193  26.100  27.468  1.00  0.00    -0.248 NA
ATOM     65  C   UNL A   1      45.573  23.881  26.851  1.00  0.00     0.031 C 
ATOM     66  C   UNL A   1      48.365  29.216  27.639  1.00  0.00     0.029 A 
ATOM     67  C   UNL A   1      47.394  28.227  27.577  1.00  0.00     0.049 A 
ATOM     68  H   UNL A   1      45.316  28.383  27.904  1.00  0.00     0.167 HD
ATOM     69  C   UNL A   1      46.549  25.923  27.214  1.00  0.00     0.074 A 
ATOM     70  C   UNL A   1      46.730  24.528  26.869  1.00  0.00     0.031 C 
ATOM     71  C   UNL A   1      47.555  26.831  27.262  1.00  0.00     0.037 A 
BRANCH  58  72
ATOM     72  C   UNL A   1      45.716  32.545  28.750  1.00  0.00     0.057 A 
ATOM     73  C   UNL A   1      45.712  33.485  27.708  1.00  0.00     0.134 A 
ATOM     74  C   UNL A   1      46.074  32.998  30.025  1.00  0.00     0.134 A 
ATOM     75  F   UNL A   1      45.396  33.113  26.459  1.00  0.00    -0.206 F 
ATOM     76  C   UNL A   1      46.094  34.810  27.918  1.00  0.00     0.040 A 
ATOM     77  C   UNL A   1      46.423  34.330  30.254  1.00  0.00     0.040 A 
ATOM     78  F   UNL A   1      46.096  32.154  31.068  1.00  0.00    -0.206 F 
ATOM     79  C   UNL A   1      46.445  35.237  29.197  1.00  0.00     0.006 A 
ENDBRANCH  58  72
BRANCH  59  80
ATOM     80  C   UNL A   1      42.775  23.117  27.190  1.00  0.00     0.057 A 
ATOM     81  C   UNL A   1      42.542  22.674  25.881  1.00  0.00     0.134 A 
ATOM     82  C   UNL A   1      42.568  22.197  28.224  1.00  0.00     0.134 A 
ATOM     83  F   UNL A   1      42.700  23.515  24.848  1.00  0.00    -0.206 F 
ATOM     84  C   UNL A   1      42.096  21.379  25.611  1.00  0.00     0.040 A 
ATOM     85  C   UNL A   1      42.146  20.890  27.968  1.00  0.00     0.040 A 
ATOM     86  F   UNL A   1      42.774  22.555  29.500  1.00  0.00    -0.206 F 
ATOM     87  C   UNL A   1      41.900  20.481  26.658  1.00  0.00     0.006 A 
ENDBRANCH  59  80
BRANCH  71  88
ATOM     88  C   UNL A   1      48.948  26.340  26.994  1.00  0.00     0.057 A 
ATOM     89  C   UNL A   1      49.699  25.666  27.963  1.00  0.00     0.134 A 
ATOM     90  C   UNL A   1      49.516  26.487  25.721  1.00  0.00     0.134 A 
ATOM     91  F   UNL A   1      49.215  25.499  29.204  1.00  0.00    -0.206 F 
ATOM     92  C   UNL A   1      50.974  25.172  27.683  1.00  0.00     0.040 A 
ATOM     93  C   UNL A   1      50.778  25.974  25.421  1.00  0.00     0.040 A 
ATOM     94  F   UNL A   1      48.844  27.113  24.743  1.00  0.00    -0.206 F 
ATOM     95  C   UNL A   1      51.513  25.319  26.406  1.00  0.00     0.006 A 
ENDBRANCH  71  88
ENDBRANCH  45  46
ENDBRANCH  37  40
ENDBRANCH  35  36
ENDBRANCH  34  35
ENDBRANCH  33  34
ENDBRANCH   1  33
TORSDOF 17
ENDMDL
