MODEL 1
REMARK VINA RESULT:     -11.2      0.000      0.000
REMARK SMILES CC[C@@](C)(NC(=O)[C@@H](C)NC(=O)c1ccco1)C(=O)NCCCCNC(=O)c1ccc(-c2c3nc(c(-c4c(F)cccc4F)c4ccc([nH]4)c(-c4c(F)cccc4F)c4nc(c(-c5c(F)cccc5F)c5ccc2[nH]5)C=C4)C=C3)cc1
REMARK SMILES IDX 21 1 20 2 18 3 19 4 3 6 4 7 2 8 1 9 5 10 6 11 7 13 8 14 9 15
REMARK SMILES IDX 10 16 11 17 12 19 13 20 14 21 17 22 15 23 16 24 22 25 23 26
REMARK SMILES IDX 24 27 25 28 26 29 27 31 28 32 29 33 81 34 30 35 80 36 31 37
REMARK SMILES IDX 32 38 33 39 74 40 34 41 79 42 73 43 75 44 35 45 78 46 72 47
REMARK SMILES IDX 71 48 36 50 62 51 45 52 61 53 46 54 49 55 60 56 76 57 47 58
REMARK SMILES IDX 48 59 59 61 77 62 50 63 37 64 38 65 43 66 39 67 40 68 42 69
REMARK SMILES IDX 44 70 41 71 63 72 64 73 69 74 65 75 66 76 68 77 70 78 67 79
REMARK SMILES IDX 51 80 52 81 57 82 53 83 54 84 56 85 58 86 55 87
REMARK H PARENT 20 5 5 12 10 18 25 30 75 49 49 60
REMARK Flexibility Score: inf
ROOT
ATOM      1  C   UNL A   1      36.436  21.502  25.401  1.00  0.00     0.116 C 
ENDROOT
BRANCH   1   2
ATOM      2  N   UNL A   1      35.595  21.506  26.592  1.00  0.00    -0.354 N 
ATOM      3  C   UNL A   1      34.292  21.871  26.807  1.00  0.00     0.245 C 
ATOM      4  O   UNL A   1      33.846  21.692  27.945  1.00  0.00    -0.272 OA
ATOM      5  H   UNL A   1      36.054  21.181  27.400  1.00  0.00     0.163 HD
BRANCH   3   6
ATOM      6  C   UNL A   1      33.440  22.570  25.728  1.00  0.00     0.116 C 
ATOM      7  C   UNL A   1      33.999  23.993  25.475  1.00  0.00     0.045 C 
BRANCH   6   8
ATOM      8  C   UNL A   1      33.402  21.879  24.335  1.00  0.00     0.035 C 
ATOM      9  C   UNL A   1      32.780  20.487  24.247  1.00  0.00     0.007 C 
ENDBRANCH   6   8
BRANCH   6  10
ATOM     10  N   UNL A   1      32.053  22.623  26.253  1.00  0.00    -0.340 N 
ATOM     11  C   UNL A   1      31.155  23.620  26.489  1.00  0.00     0.243 C 
ATOM     12  H   UNL A   1      31.702  21.733  26.484  1.00  0.00     0.164 HD
ATOM     13  O   UNL A   1      30.271  23.304  27.303  1.00  0.00    -0.273 OA
BRANCH  11  14
ATOM     14  C   UNL A   1      31.165  25.106  25.969  1.00  0.00     0.168 C 
ATOM     15  C   UNL A   1      30.300  25.280  24.727  1.00  0.00     0.041 C 
BRANCH  14  16
ATOM     16  N   UNL A   1      30.919  26.240  26.855  1.00  0.00    -0.338 N 
ATOM     17  C   UNL A   1      31.455  27.511  26.870  1.00  0.00     0.287 C 
ATOM     18  H   UNL A   1      30.257  26.068  27.564  1.00  0.00     0.164 HD
ATOM     19  O   UNL A   1      31.179  28.208  27.849  1.00  0.00    -0.266 OA
BRANCH  17  20
ATOM     20  C   UNL A   1      32.348  27.966  25.821  1.00  0.00     0.191 A 
ATOM     21  C   UNL A   1      33.709  27.854  25.593  1.00  0.00     0.056 A 
ATOM     22  O   UNL A   1      31.779  28.617  24.752  1.00  0.00    -0.459 OA
ATOM     23  C   UNL A   1      33.979  28.486  24.352  1.00  0.00     0.043 A 
ATOM     24  C   UNL A   1      32.770  28.942  23.885  1.00  0.00     0.196 A 
ENDBRANCH  17  20
ENDBRANCH  14  16
ENDBRANCH  11  14
ENDBRANCH   6  10
ENDBRANCH   3   6
ENDBRANCH   1   2
BRANCH   1  25
ATOM     25  C   UNL A   1      36.545  20.175  24.648  1.00  0.00     0.023 C 
BRANCH  25  26
ATOM     26  C   UNL A   1      37.787  19.343  24.917  1.00  0.00     0.023 C 
BRANCH  26  27
ATOM     27  C   UNL A   1      38.929  20.028  25.642  1.00  0.00     0.116 C 
BRANCH  27  28
ATOM     28  N   UNL A   1      40.094  19.170  25.755  1.00  0.00    -0.352 N 
ATOM     29  C   UNL A   1      41.396  19.499  26.046  1.00  0.00     0.251 C 
ATOM     30  H   UNL A   1      39.928  18.213  25.599  1.00  0.00     0.163 HD
ATOM     31  O   UNL A   1      42.278  18.661  25.870  1.00  0.00    -0.269 OA
BRANCH  29  32
ATOM     32  C   UNL A   1      41.761  20.844  26.563  1.00  0.00     0.039 A 
ATOM     33  C   UNL A   1      41.645  21.085  27.937  1.00  0.00     0.014 A 
ATOM     34  C   UNL A   1      42.146  21.887  25.717  1.00  0.00     0.014 A 
ATOM     35  C   UNL A   1      41.935  22.352  28.456  1.00  0.00     0.010 A 
ATOM     36  C   UNL A   1      42.528  23.120  26.245  1.00  0.00     0.010 A 
ATOM     37  C   UNL A   1      42.394  23.380  27.616  1.00  0.00    -0.014 A 
BRANCH  37  38
ATOM     38  C   UNL A   1      42.671  24.743  28.146  1.00  0.00     0.031 A 
ATOM     39  C   UNL A   1      44.076  25.134  28.527  1.00  0.00     0.074 A 
ATOM     40  C   UNL A   1      41.664  25.622  28.315  1.00  0.00     0.049 A 
ATOM     41  N   UNL A   1      44.516  26.260  29.033  1.00  0.00    -0.248 NA
ATOM     42  C   UNL A   1      45.125  24.118  28.336  1.00  0.00     0.031 C 
ATOM     43  C   UNL A   1      40.253  25.360  28.029  1.00  0.00     0.029 A 
ATOM     44  N   UNL A   1      41.675  26.917  28.771  1.00  0.00    -0.354 N 
ATOM     45  C   UNL A   1      45.879  26.076  29.241  1.00  0.00     0.074 A 
ATOM     46  C   UNL A   1      46.185  24.717  28.855  1.00  0.00     0.031 C 
ATOM     47  C   UNL A   1      39.539  26.469  28.284  1.00  0.00     0.029 A 
ATOM     48  C   UNL A   1      40.435  27.507  28.788  1.00  0.00     0.049 A 
ATOM     49  H   UNL A   1      42.495  27.380  29.060  1.00  0.00     0.167 HD
ATOM     50  C   UNL A   1      46.798  26.964  29.688  1.00  0.00     0.037 A 
ATOM     51  C   UNL A   1      40.059  28.743  29.168  1.00  0.00     0.037 A 
ATOM     52  C   UNL A   1      46.503  28.329  30.035  1.00  0.00     0.049 A 
ATOM     53  C   UNL A   1      41.100  29.713  29.659  1.00  0.00     0.074 A 
ATOM     54  C   UNL A   1      47.379  29.326  30.430  1.00  0.00     0.029 A 
ATOM     55  N   UNL A   1      45.235  28.888  30.029  1.00  0.00    -0.354 N 
ATOM     56  N   UNL A   1      42.394  29.546  29.782  1.00  0.00    -0.248 NA
ATOM     57  C   UNL A   1      40.626  31.045  30.062  1.00  0.00     0.031 C 
ATOM     58  C   UNL A   1      46.634  30.477  30.706  1.00  0.00     0.029 A 
ATOM     59  C   UNL A   1      45.302  30.211  30.435  1.00  0.00     0.049 A 
ATOM     60  H   UNL A   1      44.411  28.416  29.774  1.00  0.00     0.167 HD
ATOM     61  C   UNL A   1      42.892  30.758  30.246  1.00  0.00     0.074 A 
ATOM     62  C   UNL A   1      41.762  31.654  30.371  1.00  0.00     0.031 C 
ATOM     63  C   UNL A   1      44.170  31.096  30.544  1.00  0.00     0.037 A 
BRANCH  50  64
ATOM     64  C   UNL A   1      48.216  26.488  29.824  1.00  0.00     0.057 A 
ATOM     65  C   UNL A   1      49.166  26.692  28.814  1.00  0.00     0.134 A 
ATOM     66  C   UNL A   1      48.647  25.852  30.994  1.00  0.00     0.134 A 
ATOM     67  F   UNL A   1      48.817  27.286  27.662  1.00  0.00    -0.206 F 
ATOM     68  C   UNL A   1      50.485  26.257  28.951  1.00  0.00     0.040 A 
ATOM     69  C   UNL A   1      49.971  25.437  31.155  1.00  0.00     0.040 A 
ATOM     70  F   UNL A   1      47.794  25.633  32.005  1.00  0.00    -0.206 F 
ATOM     71  C   UNL A   1      50.892  25.633  30.128  1.00  0.00     0.006 A 
ENDBRANCH  50  64
BRANCH  51  72
ATOM     72  C   UNL A   1      38.635  29.151  29.075  1.00  0.00     0.057 A 
ATOM     73  C   UNL A   1      38.093  29.609  27.868  1.00  0.00     0.134 A 
ATOM     74  C   UNL A   1      37.787  29.107  30.187  1.00  0.00     0.134 A 
ATOM     75  F   UNL A   1      38.861  29.694  26.772  1.00  0.00    -0.206 F 
ATOM     76  C   UNL A   1      36.764  30.028  27.775  1.00  0.00     0.040 A 
ATOM     77  C   UNL A   1      36.449  29.498  30.102  1.00  0.00     0.040 A 
ATOM     78  F   UNL A   1      38.243  28.675  31.371  1.00  0.00    -0.206 F 
ATOM     79  C   UNL A   1      35.937  29.969  28.894  1.00  0.00     0.006 A 
ENDBRANCH  51  72
BRANCH  63  80
ATOM     80  C   UNL A   1      44.423  32.504  30.996  1.00  0.00     0.057 A 
ATOM     81  C   UNL A   1      44.670  33.540  30.086  1.00  0.00     0.134 A 
ATOM     82  C   UNL A   1      44.380  32.835  32.356  1.00  0.00     0.134 A 
ATOM     83  F   UNL A   1      44.737  33.288  28.771  1.00  0.00    -0.206 F 
ATOM     84  C   UNL A   1      44.886  34.851  30.515  1.00  0.00     0.040 A 
ATOM     85  C   UNL A   1      44.567  34.145  32.796  1.00  0.00     0.040 A 
ATOM     86  F   UNL A   1      44.138  31.891  33.280  1.00  0.00    -0.206 F 
ATOM     87  C   UNL A   1      44.829  35.157  31.874  1.00  0.00     0.006 A 
ENDBRANCH  63  80
ENDBRANCH  37  38
ENDBRANCH  29  32
ENDBRANCH  27  28
ENDBRANCH  26  27
ENDBRANCH  25  26
ENDBRANCH   1  25
TORSDOF 16
ENDMDL
MODEL 2
REMARK VINA RESULT:     -11.1      0.889      6.404
REMARK SMILES CC[C@@](C)(NC(=O)[C@@H](C)NC(=O)c1ccco1)C(=O)NCCCCNC(=O)c1ccc(-c2c3nc(c(-c4c(F)cccc4F)c4ccc([nH]4)c(-c4c(F)cccc4F)c4nc(c(-c5c(F)cccc5F)c5ccc2[nH]5)C=C4)C=C3)cc1
REMARK SMILES IDX 21 1 20 2 18 3 19 4 3 6 4 7 2 8 1 9 5 10 6 11 7 13 8 14 9 15
REMARK SMILES IDX 10 16 11 17 12 19 13 20 14 21 17 22 15 23 16 24 22 25 23 26
REMARK SMILES IDX 24 27 25 28 26 29 27 31 28 32 29 33 81 34 30 35 80 36 31 37
REMARK SMILES IDX 32 38 33 39 74 40 34 41 79 42 73 43 75 44 35 45 78 46 72 47
REMARK SMILES IDX 71 48 36 50 62 51 45 52 61 53 46 54 49 55 60 56 76 57 47 58
REMARK SMILES IDX 48 59 59 61 77 62 50 63 37 64 38 65 43 66 39 67 40 68 42 69
REMARK SMILES IDX 44 70 41 71 63 72 64 73 69 74 65 75 66 76 68 77 70 78 67 79
REMARK SMILES IDX 51 80 52 81 57 82 53 83 54 84 56 85 58 86 55 87
REMARK H PARENT 20 5 5 12 10 18 25 30 75 49 49 60
REMARK Flexibility Score: inf
ROOT
ATOM      1  C   UNL A   1      36.414  21.744  25.634  1.00  0.00     0.116 C 
ENDROOT
BRANCH   1   2
ATOM      2  N   UNL A   1      35.513  21.923  26.766  1.00  0.00    -0.354 N 
ATOM      3  C   UNL A   1      34.317  22.576  26.907  1.00  0.00     0.245 C 
ATOM      4  O   UNL A   1      33.761  22.488  28.007  1.00  0.00    -0.272 OA
ATOM      5  H   UNL A   1      35.825  21.489  27.593  1.00  0.00     0.163 HD
BRANCH   3   6
ATOM      6  C   UNL A   1      33.727  23.471  25.797  1.00  0.00     0.116 C 
ATOM      7  C   UNL A   1      34.767  24.551  25.402  1.00  0.00     0.045 C 
BRANCH   6   8
ATOM      8  C   UNL A   1      33.343  22.751  24.472  1.00  0.00     0.035 C 
ATOM      9  C   UNL A   1      34.069  23.171  23.197  1.00  0.00     0.007 C 
ENDBRANCH   6   8
BRANCH   6  10
ATOM     10  N   UNL A   1      32.500  24.087  26.357  1.00  0.00    -0.340 N 
ATOM     11  C   UNL A   1      31.576  24.975  25.893  1.00  0.00     0.243 C 
ATOM     12  H   UNL A   1      32.309  23.785  27.274  1.00  0.00     0.164 HD
ATOM     13  O   UNL A   1      30.941  25.542  26.799  1.00  0.00    -0.273 OA
BRANCH  11  14
ATOM     14  C   UNL A   1      31.304  25.442  24.415  1.00  0.00     0.168 C 
ATOM     15  C   UNL A   1      29.933  26.087  24.264  1.00  0.00     0.041 C 
BRANCH  14  16
ATOM     16  N   UNL A   1      32.267  26.243  23.665  1.00  0.00    -0.338 N 
ATOM     17  C   UNL A   1      32.940  27.400  24.000  1.00  0.00     0.287 C 
ATOM     18  H   UNL A   1      32.471  25.899  22.765  1.00  0.00     0.164 HD
ATOM     19  O   UNL A   1      33.569  27.948  23.092  1.00  0.00    -0.266 OA
BRANCH  17  20
ATOM     20  C   UNL A   1      32.849  27.966  25.333  1.00  0.00     0.191 A 
ATOM     21  C   UNL A   1      33.687  27.987  26.435  1.00  0.00     0.056 A 
ATOM     22  O   UNL A   1      31.728  28.708  25.624  1.00  0.00    -0.459 OA
ATOM     23  C   UNL A   1      33.036  28.747  27.441  1.00  0.00     0.043 A 
ATOM     24  C   UNL A   1      31.842  29.156  26.899  1.00  0.00     0.196 A 
ENDBRANCH  17  20
ENDBRANCH  14  16
ENDBRANCH  11  14
ENDBRANCH   6  10
ENDBRANCH   3   6
ENDBRANCH   1   2
BRANCH   1  25
ATOM     25  C   UNL A   1      36.391  20.373  24.956  1.00  0.00     0.023 C 
BRANCH  25  26
ATOM     26  C   UNL A   1      37.712  19.623  24.898  1.00  0.00     0.023 C 
BRANCH  26  27
ATOM     27  C   UNL A   1      38.874  20.218  25.669  1.00  0.00     0.116 C 
BRANCH  27  28
ATOM     28  N   UNL A   1      39.968  19.277  25.816  1.00  0.00    -0.352 N 
ATOM     29  C   UNL A   1      41.293  19.513  26.095  1.00  0.00     0.251 C 
ATOM     30  H   UNL A   1      39.727  18.330  25.696  1.00  0.00     0.163 HD
ATOM     31  O   UNL A   1      42.106  18.602  25.952  1.00  0.00    -0.269 OA
BRANCH  29  32
ATOM     32  C   UNL A   1      41.763  20.844  26.561  1.00  0.00     0.039 A 
ATOM     33  C   UNL A   1      41.864  21.071  27.939  1.00  0.00     0.014 A 
ATOM     34  C   UNL A   1      42.037  21.889  25.675  1.00  0.00     0.014 A 
ATOM     35  C   UNL A   1      42.259  22.325  28.418  1.00  0.00     0.010 A 
ATOM     36  C   UNL A   1      42.524  23.107  26.148  1.00  0.00     0.010 A 
ATOM     37  C   UNL A   1      42.607  23.353  27.526  1.00  0.00    -0.014 A 
BRANCH  37  38
ATOM     38  C   UNL A   1      42.993  24.703  28.019  1.00  0.00     0.031 A 
ATOM     39  C   UNL A   1      41.933  25.744  28.276  1.00  0.00     0.074 A 
ATOM     40  C   UNL A   1      44.291  25.009  28.211  1.00  0.00     0.049 A 
ATOM     41  N   UNL A   1      42.069  26.984  28.678  1.00  0.00    -0.248 NA
ATOM     42  C   UNL A   1      40.537  25.349  28.027  1.00  0.00     0.031 C 
ATOM     43  C   UNL A   1      45.419  24.112  27.959  1.00  0.00     0.029 A 
ATOM     44  N   UNL A   1      44.880  26.165  28.661  1.00  0.00    -0.354 N 
ATOM     45  C   UNL A   1      40.785  27.517  28.704  1.00  0.00     0.074 A 
ATOM     46  C   UNL A   1      39.890  26.486  28.231  1.00  0.00     0.031 C 
ATOM     47  C   UNL A   1      46.561  24.738  28.290  1.00  0.00     0.029 A 
ATOM     48  C   UNL A   1      46.249  26.093  28.739  1.00  0.00     0.049 A 
ATOM     49  H   UNL A   1      44.369  26.971  28.904  1.00  0.00     0.167 HD
ATOM     50  C   UNL A   1      40.382  28.746  29.110  1.00  0.00     0.037 A 
ATOM     51  C   UNL A   1      47.153  27.013  29.126  1.00  0.00     0.037 A 
ATOM     52  C   UNL A   1      41.266  29.760  29.619  1.00  0.00     0.049 A 
ATOM     53  C   UNL A   1      46.681  28.370  29.574  1.00  0.00     0.074 A 
ATOM     54  C   UNL A   1      40.944  31.010  30.121  1.00  0.00     0.029 A 
ATOM     55  N   UNL A   1      42.645  29.643  29.689  1.00  0.00    -0.354 N 
ATOM     56  N   UNL A   1      45.457  28.833  29.661  1.00  0.00    -0.248 NA
ATOM     57  C   UNL A   1      47.716  29.330  29.982  1.00  0.00     0.031 C 
ATOM     58  C   UNL A   1      42.134  31.665  30.455  1.00  0.00     0.029 A 
ATOM     59  C   UNL A   1      43.191  30.806  30.206  1.00  0.00     0.049 A 
ATOM     60  H   UNL A   1      43.159  28.850  29.414  1.00  0.00     0.167 HD
ATOM     61  C   UNL A   1      45.574  30.125  30.160  1.00  0.00     0.074 A 
ATOM     62  C   UNL A   1      46.986  30.367  30.368  1.00  0.00     0.031 C 
ATOM     63  C   UNL A   1      44.599  31.029  30.419  1.00  0.00     0.037 A 
BRANCH  50  64
ATOM     64  C   UNL A   1      38.915  29.059  29.024  1.00  0.00     0.057 A 
ATOM     65  C   UNL A   1      38.070  28.957  30.137  1.00  0.00     0.134 A 
ATOM     66  C   UNL A   1      38.350  29.506  27.824  1.00  0.00     0.134 A 
ATOM     67  F   UNL A   1      38.545  28.525  31.315  1.00  0.00    -0.206 F 
ATOM     68  C   UNL A   1      36.710  29.261  30.053  1.00  0.00     0.040 A 
ATOM     69  C   UNL A   1      36.997  29.840  27.734  1.00  0.00     0.040 A 
ATOM     70  F   UNL A   1      39.103  29.636  26.722  1.00  0.00    -0.206 F 
ATOM     71  C   UNL A   1      36.172  29.711  28.849  1.00  0.00     0.006 A 
ENDBRANCH  50  64
BRANCH  51  72
ATOM     72  C   UNL A   1      48.599  26.679  29.136  1.00  0.00     0.057 A 
ATOM     73  C   UNL A   1      49.203  26.121  30.270  1.00  0.00     0.134 A 
ATOM     74  C   UNL A   1      49.415  26.921  28.025  1.00  0.00     0.134 A 
ATOM     75  F   UNL A   1      48.479  25.885  31.374  1.00  0.00    -0.206 F 
ATOM     76  C   UNL A   1      50.569  25.833  30.304  1.00  0.00     0.040 A 
ATOM     77  C   UNL A   1      50.777  26.614  28.037  1.00  0.00     0.040 A 
ATOM     78  F   UNL A   1      48.898  27.450  26.907  1.00  0.00    -0.206 F 
ATOM     79  C   UNL A   1      51.359  26.076  29.183  1.00  0.00     0.006 A 
ENDBRANCH  51  72
BRANCH  63  80
ATOM     80  C   UNL A   1      45.019  32.350  30.995  1.00  0.00     0.057 A 
ATOM     81  C   UNL A   1      45.153  32.546  32.375  1.00  0.00     0.134 A 
ATOM     82  C   UNL A   1      45.330  33.426  30.155  1.00  0.00     0.134 A 
ATOM     83  F   UNL A   1      44.859  31.560  33.234  1.00  0.00    -0.206 F 
ATOM     84  C   UNL A   1      45.563  33.774  32.900  1.00  0.00     0.040 A 
ATOM     85  C   UNL A   1      45.766  34.649  30.666  1.00  0.00     0.040 A 
ATOM     86  F   UNL A   1      45.231  33.302  28.822  1.00  0.00    -0.206 F 
ATOM     87  C   UNL A   1      45.876  34.827  32.043  1.00  0.00     0.006 A 
ENDBRANCH  63  80
ENDBRANCH  37  38
ENDBRANCH  29  32
ENDBRANCH  27  28
ENDBRANCH  26  27
ENDBRANCH  25  26
ENDBRANCH   1  25
TORSDOF 16
ENDMDL
MODEL 3
REMARK VINA RESULT:     -11.0      0.903      6.199
REMARK SMILES CC[C@@](C)(NC(=O)[C@@H](C)NC(=O)c1ccco1)C(=O)NCCCCNC(=O)c1ccc(-c2c3nc(c(-c4c(F)cccc4F)c4ccc([nH]4)c(-c4c(F)cccc4F)c4nc(c(-c5c(F)cccc5F)c5ccc2[nH]5)C=C4)C=C3)cc1
REMARK SMILES IDX 21 1 20 2 18 3 19 4 3 6 4 7 2 8 1 9 5 10 6 11 7 13 8 14 9 15
REMARK SMILES IDX 10 16 11 17 12 19 13 20 14 21 17 22 15 23 16 24 22 25 23 26
REMARK SMILES IDX 24 27 25 28 26 29 27 31 28 32 29 33 81 34 30 35 80 36 31 37
REMARK SMILES IDX 32 38 33 39 74 40 34 41 79 42 73 43 75 44 35 45 78 46 72 47
REMARK SMILES IDX 71 48 36 50 62 51 45 52 61 53 46 54 49 55 60 56 76 57 47 58
REMARK SMILES IDX 48 59 59 61 77 62 50 63 37 64 38 65 43 66 39 67 40 68 42 69
REMARK SMILES IDX 44 70 41 71 63 72 64 73 69 74 65 75 66 76 68 77 70 78 67 79
REMARK SMILES IDX 51 80 52 81 57 82 53 83 54 84 56 85 58 86 55 87
REMARK H PARENT 20 5 5 12 10 18 25 30 75 49 49 60
REMARK Flexibility Score: inf
ROOT
ATOM      1  C   UNL A   1      36.513  21.846  25.572  1.00  0.00     0.116 C 
ENDROOT
BRANCH   1   2
ATOM      2  N   UNL A   1      35.570  21.901  26.683  1.00  0.00    -0.354 N 
ATOM      3  C   UNL A   1      34.342  22.492  26.830  1.00  0.00     0.245 C 
ATOM      4  O   UNL A   1      33.756  22.296  27.900  1.00  0.00    -0.272 OA
ATOM      5  H   UNL A   1      35.874  21.417  27.484  1.00  0.00     0.163 HD
BRANCH   3   6
ATOM      6  C   UNL A   1      33.751  23.445  25.770  1.00  0.00     0.116 C 
ATOM      7  C   UNL A   1      34.787  24.548  25.437  1.00  0.00     0.045 C 
BRANCH   6   8
ATOM      8  C   UNL A   1      33.370  22.798  24.408  1.00  0.00     0.035 C 
ATOM      9  C   UNL A   1      32.779  21.390  24.428  1.00  0.00     0.007 C 
ENDBRANCH   6   8
BRANCH   6  10
ATOM     10  N   UNL A   1      32.520  24.024  26.363  1.00  0.00    -0.340 N 
ATOM     11  C   UNL A   1      31.565  24.893  25.928  1.00  0.00     0.243 C 
ATOM     12  H   UNL A   1      32.358  23.710  27.281  1.00  0.00     0.164 HD
ATOM     13  O   UNL A   1      30.935  25.435  26.852  1.00  0.00    -0.273 OA
BRANCH  11  14
ATOM     14  C   UNL A   1      31.249  25.365  24.460  1.00  0.00     0.168 C 
ATOM     15  C   UNL A   1      29.884  26.033  24.357  1.00  0.00     0.041 C 
BRANCH  14  16
ATOM     16  N   UNL A   1      32.198  26.152  23.677  1.00  0.00    -0.338 N 
ATOM     17  C   UNL A   1      32.874  27.317  23.977  1.00  0.00     0.287 C 
ATOM     18  H   UNL A   1      32.389  25.789  22.782  1.00  0.00     0.164 HD
ATOM     19  O   UNL A   1      33.487  27.847  23.048  1.00  0.00    -0.266 OA
BRANCH  17  20
ATOM     20  C   UNL A   1      32.803  27.912  25.299  1.00  0.00     0.191 A 
ATOM     21  C   UNL A   1      33.650  27.943  26.392  1.00  0.00     0.056 A 
ATOM     22  O   UNL A   1      31.695  28.676  25.583  1.00  0.00    -0.459 OA
ATOM     23  C   UNL A   1      33.019  28.733  27.388  1.00  0.00     0.043 A 
ATOM     24  C   UNL A   1      31.827  29.148  26.847  1.00  0.00     0.196 A 
ENDBRANCH  17  20
ENDBRANCH  14  16
ENDBRANCH  11  14
ENDBRANCH   6  10
ENDBRANCH   3   6
ENDBRANCH   1   2
BRANCH   1  25
ATOM     25  C   UNL A   1      36.542  20.546  24.767  1.00  0.00     0.023 C 
BRANCH  25  26
ATOM     26  C   UNL A   1      37.760  19.657  24.958  1.00  0.00     0.023 C 
BRANCH  26  27
ATOM     27  C   UNL A   1      38.938  20.257  25.700  1.00  0.00     0.116 C 
BRANCH  27  28
ATOM     28  N   UNL A   1      40.034  19.314  25.834  1.00  0.00    -0.352 N 
ATOM     29  C   UNL A   1      41.362  19.549  26.096  1.00  0.00     0.251 C 
ATOM     30  H   UNL A   1      39.789  18.368  25.720  1.00  0.00     0.163 HD
ATOM     31  O   UNL A   1      42.172  18.637  25.944  1.00  0.00    -0.269 OA
BRANCH  29  32
ATOM     32  C   UNL A   1      41.840  20.880  26.553  1.00  0.00     0.039 A 
ATOM     33  C   UNL A   1      41.916  21.126  27.929  1.00  0.00     0.014 A 
ATOM     34  C   UNL A   1      42.146  21.909  25.659  1.00  0.00     0.014 A 
ATOM     35  C   UNL A   1      42.318  22.382  28.398  1.00  0.00     0.010 A 
ATOM     36  C   UNL A   1      42.639  23.127  26.124  1.00  0.00     0.010 A 
ATOM     37  C   UNL A   1      42.697  23.392  27.500  1.00  0.00    -0.014 A 
BRANCH  37  38
ATOM     38  C   UNL A   1      43.091  24.744  27.982  1.00  0.00     0.031 A 
ATOM     39  C   UNL A   1      42.035  25.787  28.249  1.00  0.00     0.074 A 
ATOM     40  C   UNL A   1      44.391  25.050  28.154  1.00  0.00     0.049 A 
ATOM     41  N   UNL A   1      42.177  27.029  28.644  1.00  0.00    -0.248 NA
ATOM     42  C   UNL A   1      40.636  25.392  28.020  1.00  0.00     0.031 C 
ATOM     43  C   UNL A   1      45.515  24.151  27.891  1.00  0.00     0.029 A 
ATOM     44  N   UNL A   1      44.987  26.208  28.591  1.00  0.00    -0.354 N 
ATOM     45  C   UNL A   1      40.894  27.563  28.685  1.00  0.00     0.074 A 
ATOM     46  C   UNL A   1      39.992  26.530  28.229  1.00  0.00     0.031 C 
ATOM     47  C   UNL A   1      46.662  24.778  28.203  1.00  0.00     0.029 A 
ATOM     48  C   UNL A   1      46.357  26.135  28.651  1.00  0.00     0.049 A 
ATOM     49  H   UNL A   1      44.480  27.015  28.838  1.00  0.00     0.167 HD
ATOM     50  C   UNL A   1      40.497  28.793  29.091  1.00  0.00     0.037 A 
ATOM     51  C   UNL A   1      47.267  27.056  29.022  1.00  0.00     0.037 A 
ATOM     52  C   UNL A   1      41.389  29.809  29.584  1.00  0.00     0.049 A 
ATOM     53  C   UNL A   1      46.802  28.415  29.470  1.00  0.00     0.074 A 
ATOM     54  C   UNL A   1      41.075  31.061  30.085  1.00  0.00     0.029 A 
ATOM     55  N   UNL A   1      42.769  29.691  29.636  1.00  0.00    -0.354 N 
ATOM     56  N   UNL A   1      45.580  28.879  29.572  1.00  0.00    -0.248 NA
ATOM     57  C   UNL A   1      47.844  29.377  29.859  1.00  0.00     0.031 C 
ATOM     58  C   UNL A   1      42.269  31.717  30.399  1.00  0.00     0.029 A 
ATOM     59  C   UNL A   1      43.323  30.856  30.140  1.00  0.00     0.049 A 
ATOM     60  H   UNL A   1      43.279  28.897  29.356  1.00  0.00     0.167 HD
ATOM     61  C   UNL A   1      45.704  30.173  30.063  1.00  0.00     0.074 A 
ATOM     62  C   UNL A   1      47.119  30.415  30.252  1.00  0.00     0.031 C 
ATOM     63  C   UNL A   1      44.733  31.079  30.332  1.00  0.00     0.037 A 
BRANCH  50  64
ATOM     64  C   UNL A   1      39.030  29.107  29.024  1.00  0.00     0.057 A 
ATOM     65  C   UNL A   1      38.406  29.480  27.827  1.00  0.00     0.134 A 
ATOM     66  C   UNL A   1      38.224  28.997  30.164  1.00  0.00     0.134 A 
ATOM     67  F   UNL A   1      39.122  29.615  26.699  1.00  0.00    -0.206 F 
ATOM     68  C   UNL A   1      37.039  29.760  27.770  1.00  0.00     0.040 A 
ATOM     69  C   UNL A   1      36.851  29.246  30.114  1.00  0.00     0.040 A 
ATOM     70  F   UNL A   1      38.754  28.635  31.341  1.00  0.00    -0.206 F 
ATOM     71  C   UNL A   1      36.257  29.636  28.916  1.00  0.00     0.006 A 
ENDBRANCH  50  64
BRANCH  51  72
ATOM     72  C   UNL A   1      48.713  26.721  29.013  1.00  0.00     0.057 A 
ATOM     73  C   UNL A   1      49.507  26.981  27.889  1.00  0.00     0.134 A 
ATOM     74  C   UNL A   1      49.334  26.125  30.117  1.00  0.00     0.134 A 
ATOM     75  F   UNL A   1      48.966  27.532  26.793  1.00  0.00    -0.206 F 
ATOM     76  C   UNL A   1      50.861  26.640  27.855  1.00  0.00     0.040 A 
ATOM     77  C   UNL A   1      50.693  25.803  30.106  1.00  0.00     0.040 A 
ATOM     78  F   UNL A   1      48.631  25.854  31.226  1.00  0.00    -0.206 F 
ATOM     79  C   UNL A   1      51.458  26.054  28.969  1.00  0.00     0.006 A 
ENDBRANCH  51  72
BRANCH  63  80
ATOM     80  C   UNL A   1      45.162  32.402  30.896  1.00  0.00     0.057 A 
ATOM     81  C   UNL A   1      45.432  33.504  30.075  1.00  0.00     0.134 A 
ATOM     82  C   UNL A   1      45.267  32.586  32.281  1.00  0.00     0.134 A 
ATOM     83  F   UNL A   1      45.362  33.391  28.741  1.00  0.00    -0.206 F 
ATOM     84  C   UNL A   1      45.812  34.736  30.611  1.00  0.00     0.040 A 
ATOM     85  C   UNL A   1      45.620  33.819  32.829  1.00  0.00     0.040 A 
ATOM     86  F   UNL A   1      45.013  31.573  33.124  1.00  0.00    -0.206 F 
ATOM     87  C   UNL A   1      45.901  34.897  31.992  1.00  0.00     0.006 A 
ENDBRANCH  63  80
ENDBRANCH  37  38
ENDBRANCH  29  32
ENDBRANCH  27  28
ENDBRANCH  26  27
ENDBRANCH  25  26
ENDBRANCH   1  25
TORSDOF 16
ENDMDL
