MODEL 1
REMARK VINA RESULT:     -11.9      0.000      0.000
REMARK SMILES Cc1nsc(NC(=O)[C@@H]2C=C[C@@H]([NH3+])C2)c1C(=O)NCCCCNC(=O)c1ccc(-c2c3nc(c(-c4c(F)cccc4F)c4ccc([nH]4)c(-c4c(F)cccc4F)c4nc(c(-c5c(F)cccc5F)c5ccc2[nH]5)C=C4)C=C3)cc1
REMARK SMILES IDX 20 1 19 2 18 3 16 4 17 5 15 7 1 8 2 9 3 10 4 11 5 12 6 13
REMARK SMILES IDX 7 14 8 16 9 17 10 18 14 19 11 20 12 21 13 22 21 26 22 27
REMARK SMILES IDX 23 28 24 29 25 31 26 32 27 33 79 34 28 35 78 36 29 37 30 38
REMARK SMILES IDX 31 39 72 40 32 41 77 42 71 43 73 44 33 45 76 46 70 47 69 48
REMARK SMILES IDX 34 50 60 51 43 52 59 53 44 54 47 55 58 56 74 57 45 58 46 59
REMARK SMILES IDX 57 61 75 62 48 63 35 64 36 65 41 66 37 67 38 68 40 69 42 70
REMARK SMILES IDX 39 71 61 72 62 73 67 74 63 75 64 76 66 77 68 78 65 79 49 80
REMARK SMILES IDX 50 81 55 82 51 83 52 84 54 85 56 86 53 87
REMARK H PARENT 18 6 6 15 13 23 13 24 13 25 23 30 73 49 47 60
REMARK Flexibility Score: inf
ROOT
ATOM      1  C   UNL A   1      32.018  29.726  26.124  1.00  0.00     0.023 C 
ENDROOT
BRANCH   1   2
ATOM      2  C   UNL A   1      32.193  28.610  27.152  1.00  0.00     0.116 C 
BRANCH   2   3
ATOM      3  N   UNL A   1      31.238  27.538  27.125  1.00  0.00    -0.352 N 
ATOM      4  C   UNL A   1      30.869  26.682  26.112  1.00  0.00     0.256 C 
ATOM      5  O   UNL A   1      29.953  25.907  26.417  1.00  0.00    -0.269 OA
ATOM      6  H   UNL A   1      30.767  27.388  27.977  1.00  0.00     0.163 HD
BRANCH   4   7
ATOM      7  C   UNL A   1      31.455  26.618  24.751  1.00  0.00     0.097 A 
ATOM      8  C   UNL A   1      34.149  26.320  24.852  1.00  0.00     0.069 C 
ATOM      9  C   UNL A   1      32.809  26.415  24.209  1.00  0.00     0.066 A 
ATOM     10  N   UNL A   1      32.891  26.276  22.884  1.00  0.00    -0.195 NA
ATOM     11  S   UNL A   1      31.406  26.322  22.231  1.00  0.00    -0.017 S 
ATOM     12  C   UNL A   1      30.597  26.782  23.644  1.00  0.00     0.129 A 
BRANCH  12  13
ATOM     13  N   UNL A   1      29.255  27.132  23.629  1.00  0.00    -0.315 N 
ATOM     14  C   UNL A   1      28.600  28.253  23.174  1.00  0.00     0.232 C 
ATOM     15  H   UNL A   1      28.660  26.451  24.016  1.00  0.00     0.170 HD
ATOM     16  O   UNL A   1      27.366  28.250  23.255  1.00  0.00    -0.274 OA
BRANCH  14  17
ATOM     17  C   UNL A   1      29.346  29.487  22.636  1.00  0.00     0.107 C 
ATOM     18  C   UNL A   1      29.459  30.566  23.680  1.00  0.00    -0.012 C 
ATOM     19  C   UNL A   1      28.608  30.231  21.502  1.00  0.00     0.087 C 
ATOM     20  C   UNL A   1      28.686  31.623  23.413  1.00  0.00     0.033 C 
ATOM     21  C   UNL A   1      27.918  31.441  22.150  1.00  0.00     0.205 C 
BRANCH  21  22
ATOM     22  N   UNL A   1      28.004  32.623  21.310  1.00  0.00    -0.352 N 
ATOM     23  H   UNL A   1      28.878  32.604  20.783  1.00  0.00     0.345 HD
ATOM     24  H   UNL A   1      27.977  33.458  21.894  1.00  0.00     0.345 HD
ATOM     25  H   UNL A   1      27.217  32.636  20.661  1.00  0.00     0.345 HD
ENDBRANCH  21  22
ENDBRANCH  14  17
ENDBRANCH  12  13
ENDBRANCH   4   7
ENDBRANCH   2   3
ENDBRANCH   1   2
BRANCH   1  26
ATOM     26  C   UNL A   1      31.638  31.122  26.615  1.00  0.00     0.023 C 
BRANCH  26  27
ATOM     27  C   UNL A   1      32.762  31.921  27.260  1.00  0.00     0.116 C 
BRANCH  27  28
ATOM     28  N   UNL A   1      32.427  33.318  27.523  1.00  0.00    -0.352 N 
ATOM     29  C   UNL A   1      33.046  34.159  28.428  1.00  0.00     0.251 C 
ATOM     30  H   UNL A   1      31.683  33.699  27.003  1.00  0.00     0.163 HD
ATOM     31  O   UNL A   1      32.487  35.177  28.832  1.00  0.00    -0.269 OA
BRANCH  29  32
ATOM     32  C   UNL A   1      34.396  33.815  28.911  1.00  0.00     0.039 A 
ATOM     33  C   UNL A   1      34.571  33.061  30.074  1.00  0.00     0.014 A 
ATOM     34  C   UNL A   1      35.496  34.226  28.156  1.00  0.00     0.014 A 
ATOM     35  C   UNL A   1      35.855  32.645  30.416  1.00  0.00     0.010 A 
ATOM     36  C   UNL A   1      36.748  33.724  28.433  1.00  0.00     0.010 A 
ATOM     37  C   UNL A   1      36.940  32.947  29.572  1.00  0.00    -0.014 A 
BRANCH  37  38
ATOM     38  C   UNL A   1      38.217  32.253  29.758  1.00  0.00     0.031 A 
ATOM     39  C   UNL A   1      38.161  30.833  29.308  1.00  0.00     0.074 A 
ATOM     40  C   UNL A   1      39.382  32.863  30.078  1.00  0.00     0.049 A 
ATOM     41  N   UNL A   1      38.213  29.775  30.046  1.00  0.00    -0.248 NA
ATOM     42  C   UNL A   1      37.821  30.548  27.900  1.00  0.00     0.031 C 
ATOM     43  C   UNL A   1      39.611  34.308  30.207  1.00  0.00     0.029 A 
ATOM     44  N   UNL A   1      40.641  32.349  30.246  1.00  0.00    -0.354 N 
ATOM     45  C   UNL A   1      38.203  28.699  29.159  1.00  0.00     0.074 A 
ATOM     46  C   UNL A   1      37.729  29.216  27.908  1.00  0.00     0.031 C 
ATOM     47  C   UNL A   1      40.937  34.565  30.181  1.00  0.00     0.029 A 
ATOM     48  C   UNL A   1      41.658  33.306  30.209  1.00  0.00     0.049 A 
ATOM     49  H   UNL A   1      40.814  31.389  30.381  1.00  0.00     0.167 HD
ATOM     50  C   UNL A   1      38.935  27.586  29.447  1.00  0.00     0.037 A 
ATOM     51  C   UNL A   1      42.998  33.087  30.192  1.00  0.00     0.037 A 
ATOM     52  C   UNL A   1      39.322  27.600  30.835  1.00  0.00     0.049 A 
ATOM     53  C   UNL A   1      43.234  31.726  30.719  1.00  0.00     0.074 A 
ATOM     54  C   UNL A   1      38.725  27.401  32.061  1.00  0.00     0.029 A 
ATOM     55  N   UNL A   1      40.481  28.290  31.053  1.00  0.00    -0.354 N 
ATOM     56  N   UNL A   1      43.029  31.391  31.961  1.00  0.00    -0.248 NA
ATOM     57  C   UNL A   1      43.386  30.617  29.784  1.00  0.00     0.031 C 
ATOM     58  C   UNL A   1      39.525  28.102  33.012  1.00  0.00     0.029 A 
ATOM     59  C   UNL A   1      40.621  28.659  32.358  1.00  0.00     0.049 A 
ATOM     60  H   UNL A   1      41.139  28.497  30.349  1.00  0.00     0.167 HD
ATOM     61  C   UNL A   1      42.582  30.090  31.885  1.00  0.00     0.074 A 
ATOM     62  C   UNL A   1      42.996  29.613  30.571  1.00  0.00     0.031 C 
ATOM     63  C   UNL A   1      41.610  29.645  32.730  1.00  0.00     0.037 A 
BRANCH  50  64
ATOM     64  C   UNL A   1      39.788  26.822  28.440  1.00  0.00     0.057 A 
ATOM     65  C   UNL A   1      40.688  27.553  27.634  1.00  0.00     0.134 A 
ATOM     66  C   UNL A   1      39.534  25.510  27.991  1.00  0.00     0.134 A 
ATOM     67  F   UNL A   1      41.017  28.817  27.940  1.00  0.00    -0.206 F 
ATOM     68  C   UNL A   1      41.215  27.049  26.437  1.00  0.00     0.040 A 
ATOM     69  C   UNL A   1      40.089  24.983  26.820  1.00  0.00     0.040 A 
ATOM     70  F   UNL A   1      38.665  24.692  28.593  1.00  0.00    -0.206 F 
ATOM     71  C   UNL A   1      40.906  25.762  26.019  1.00  0.00     0.006 A 
ENDBRANCH  50  64
BRANCH  51  72
ATOM     72  C   UNL A   1      44.101  33.873  29.584  1.00  0.00     0.057 A 
ATOM     73  C   UNL A   1      44.331  33.850  28.198  1.00  0.00     0.134 A 
ATOM     74  C   UNL A   1      44.752  34.894  30.296  1.00  0.00     0.134 A 
ATOM     75  F   UNL A   1      43.737  32.931  27.423  1.00  0.00    -0.206 F 
ATOM     76  C   UNL A   1      45.115  34.816  27.552  1.00  0.00     0.040 A 
ATOM     77  C   UNL A   1      45.542  35.862  29.663  1.00  0.00     0.040 A 
ATOM     78  F   UNL A   1      44.564  35.041  31.616  1.00  0.00    -0.206 F 
ATOM     79  C   UNL A   1      45.709  35.838  28.284  1.00  0.00     0.006 A 
ENDBRANCH  51  72
BRANCH  63  80
ATOM     80  C   UNL A   1      41.474  30.314  34.058  1.00  0.00     0.057 A 
ATOM     81  C   UNL A   1      42.274  30.058  35.179  1.00  0.00     0.134 A 
ATOM     82  C   UNL A   1      40.526  31.339  34.167  1.00  0.00     0.134 A 
ATOM     83  F   UNL A   1      43.253  29.142  35.142  1.00  0.00    -0.206 F 
ATOM     84  C   UNL A   1      42.114  30.780  36.366  1.00  0.00     0.040 A 
ATOM     85  C   UNL A   1      40.381  32.089  35.332  1.00  0.00     0.040 A 
ATOM     86  F   UNL A   1      39.749  31.654  33.118  1.00  0.00    -0.206 F 
ATOM     87  C   UNL A   1      41.170  31.804  36.441  1.00  0.00     0.006 A 
ENDBRANCH  63  80
ENDBRANCH  37  38
ENDBRANCH  29  32
ENDBRANCH  27  28
ENDBRANCH  26  27
ENDBRANCH   1  26
TORSDOF 14
ENDMDL
MODEL 2
REMARK VINA RESULT:     -11.8      4.021      6.416
REMARK SMILES Cc1nsc(NC(=O)[C@@H]2C=C[C@@H]([NH3+])C2)c1C(=O)NCCCCNC(=O)c1ccc(-c2c3nc(c(-c4c(F)cccc4F)c4ccc([nH]4)c(-c4c(F)cccc4F)c4nc(c(-c5c(F)cccc5F)c5ccc2[nH]5)C=C4)C=C3)cc1
REMARK SMILES IDX 20 1 19 2 18 3 16 4 17 5 15 7 1 8 2 9 3 10 4 11 5 12 6 13
REMARK SMILES IDX 7 14 8 16 9 17 10 18 14 19 11 20 12 21 13 22 21 26 22 27
REMARK SMILES IDX 23 28 24 29 25 31 26 32 27 33 79 34 28 35 78 36 29 37 30 38
REMARK SMILES IDX 31 39 72 40 32 41 77 42 71 43 73 44 33 45 76 46 70 47 69 48
REMARK SMILES IDX 34 50 60 51 43 52 59 53 44 54 47 55 58 56 74 57 45 58 46 59
REMARK SMILES IDX 57 61 75 62 48 63 35 64 36 65 41 66 37 67 38 68 40 69 42 70
REMARK SMILES IDX 39 71 61 72 62 73 67 74 63 75 64 76 66 77 68 78 65 79 49 80
REMARK SMILES IDX 50 81 55 82 51 83 52 84 54 85 56 86 53 87
REMARK H PARENT 18 6 6 15 13 23 13 24 13 25 23 30 73 49 47 60
REMARK Flexibility Score: inf
ROOT
ATOM      1  C   UNL A   1      32.910  28.191  26.551  1.00  0.00     0.023 C 
ENDROOT
BRANCH   1   2
ATOM      2  C   UNL A   1      33.727  27.057  25.935  1.00  0.00     0.116 C 
BRANCH   2   3
ATOM      3  N   UNL A   1      33.756  26.974  24.501  1.00  0.00    -0.352 N 
ATOM      4  C   UNL A   1      33.375  25.964  23.647  1.00  0.00     0.256 C 
ATOM      5  O   UNL A   1      33.603  26.202  22.454  1.00  0.00    -0.269 OA
ATOM      6  H   UNL A   1      34.109  27.776  24.052  1.00  0.00     0.163 HD
BRANCH   4   7
ATOM      7  C   UNL A   1      32.742  24.677  24.026  1.00  0.00     0.097 A 
ATOM      8  C   UNL A   1      30.541  25.077  25.561  1.00  0.00     0.069 C 
ATOM      9  C   UNL A   1      31.535  24.292  24.776  1.00  0.00     0.066 A 
ATOM     10  N   UNL A   1      31.233  22.991  24.767  1.00  0.00    -0.195 NA
ATOM     11  S   UNL A   1      32.302  22.184  23.851  1.00  0.00    -0.017 S 
ATOM     12  C   UNL A   1      33.367  23.479  23.624  1.00  0.00     0.129 A 
BRANCH  12  13
ATOM     13  N   UNL A   1      34.599  23.305  23.010  1.00  0.00    -0.315 N 
ATOM     14  C   UNL A   1      35.818  22.889  23.493  1.00  0.00     0.232 C 
ATOM     15  H   UNL A   1      34.601  23.519  22.050  1.00  0.00     0.170 HD
ATOM     16  O   UNL A   1      36.737  22.785  22.671  1.00  0.00    -0.274 OA
BRANCH  14  17
ATOM     17  C   UNL A   1      36.067  22.612  24.986  1.00  0.00     0.107 C 
ATOM     18  C   UNL A   1      36.429  23.870  25.731  1.00  0.00    -0.012 C 
ATOM     19  C   UNL A   1      37.296  21.722  25.270  1.00  0.00     0.087 C 
ATOM     20  C   UNL A   1      37.711  23.896  26.104  1.00  0.00     0.033 C 
ATOM     21  C   UNL A   1      38.436  22.668  25.677  1.00  0.00     0.205 C 
BRANCH  21  22
ATOM     22  N   UNL A   1      39.227  22.120  26.766  1.00  0.00    -0.352 N 
ATOM     23  H   UNL A   1      38.875  21.193  27.009  1.00  0.00     0.345 HD
ATOM     24  H   UNL A   1      39.159  22.734  27.577  1.00  0.00     0.345 HD
ATOM     25  H   UNL A   1      40.202  22.048  26.474  1.00  0.00     0.345 HD
ENDBRANCH  21  22
ENDBRANCH  14  17
ENDBRANCH  12  13
ENDBRANCH   4   7
ENDBRANCH   2   3
ENDBRANCH   1   2
BRANCH   1  26
ATOM     26  C   UNL A   1      33.628  29.481  26.944  1.00  0.00     0.023 C 
BRANCH  26  27
ATOM     27  C   UNL A   1      34.978  29.302  27.624  1.00  0.00     0.116 C 
BRANCH  27  28
ATOM     28  N   UNL A   1      35.216  30.223  28.732  1.00  0.00    -0.352 N 
ATOM     29  C   UNL A   1      36.285  30.202  29.607  1.00  0.00     0.251 C 
ATOM     30  H   UNL A   1      34.546  30.931  28.869  1.00  0.00     0.163 HD
ATOM     31  O   UNL A   1      36.224  30.771  30.696  1.00  0.00    -0.269 OA
BRANCH  29  32
ATOM     32  C   UNL A   1      37.510  29.478  29.219  1.00  0.00     0.039 A 
ATOM     33  C   UNL A   1      38.216  29.831  28.067  1.00  0.00     0.014 A 
ATOM     34  C   UNL A   1      37.970  28.457  30.052  1.00  0.00     0.014 A 
ATOM     35  C   UNL A   1      39.439  29.213  27.815  1.00  0.00     0.010 A 
ATOM     36  C   UNL A   1      39.225  27.925  29.862  1.00  0.00     0.010 A 
ATOM     37  C   UNL A   1      39.960  28.284  28.736  1.00  0.00    -0.014 A 
BRANCH  37  38
ATOM     38  C   UNL A   1      41.364  27.877  28.637  1.00  0.00     0.031 A 
ATOM     39  C   UNL A   1      41.532  26.612  27.867  1.00  0.00     0.074 A 
ATOM     40  C   UNL A   1      42.415  28.653  28.989  1.00  0.00     0.049 A 
ATOM     41  N   UNL A   1      41.898  25.460  28.323  1.00  0.00    -0.248 NA
ATOM     42  C   UNL A   1      41.065  26.565  26.467  1.00  0.00     0.031 C 
ATOM     43  C   UNL A   1      42.363  30.049  29.439  1.00  0.00     0.029 A 
ATOM     44  N   UNL A   1      43.762  28.415  28.917  1.00  0.00    -0.354 N 
ATOM     45  C   UNL A   1      41.983  24.626  27.208  1.00  0.00     0.074 A 
ATOM     46  C   UNL A   1      41.245  25.277  26.165  1.00  0.00     0.031 C 
ATOM     47  C   UNL A   1      43.594  30.601  29.358  1.00  0.00     0.029 A 
ATOM     48  C   UNL A   1      44.551  29.565  29.019  1.00  0.00     0.049 A 
ATOM     49  H   UNL A   1      44.142  27.515  28.802  1.00  0.00     0.167 HD
ATOM     50  C   UNL A   1      42.957  23.674  27.155  1.00  0.00     0.037 A 
ATOM     51  C   UNL A   1      45.892  29.665  28.832  1.00  0.00     0.037 A 
ATOM     52  C   UNL A   1      43.522  23.478  28.467  1.00  0.00     0.049 A 
ATOM     53  C   UNL A   1      46.467  28.314  28.995  1.00  0.00     0.074 A 
ATOM     54  C   UNL A   1      43.153  22.891  29.657  1.00  0.00     0.029 A 
ATOM     55  N   UNL A   1      44.537  24.352  28.739  1.00  0.00    -0.354 N 
ATOM     56  N   UNL A   1      46.509  27.683  30.134  1.00  0.00    -0.248 NA
ATOM     57  C   UNL A   1      46.709  27.496  27.811  1.00  0.00     0.031 C 
ATOM     58  C   UNL A   1      43.920  23.535  30.673  1.00  0.00     0.029 A 
ATOM     59  C   UNL A   1      44.779  24.454  30.077  1.00  0.00     0.049 A 
ATOM     60  H   UNL A   1      45.035  24.848  28.050  1.00  0.00     0.167 HD
ATOM     61  C   UNL A   1      46.327  26.362  29.788  1.00  0.00     0.074 A 
ATOM     62  C   UNL A   1      46.642  26.284  28.367  1.00  0.00     0.031 C 
ATOM     63  C   UNL A   1      45.592  25.536  30.585  1.00  0.00     0.037 A 
BRANCH  50  64
ATOM     64  C   UNL A   1      43.797  23.359  25.923  1.00  0.00     0.057 A 
ATOM     65  C   UNL A   1      43.943  22.008  25.540  1.00  0.00     0.134 A 
ATOM     66  C   UNL A   1      44.720  24.239  25.323  1.00  0.00     0.134 A 
ATOM     67  F   UNL A   1      43.135  21.060  26.038  1.00  0.00    -0.206 F 
ATOM     68  C   UNL A   1      44.976  21.564  24.703  1.00  0.00     0.040 A 
ATOM     69  C   UNL A   1      45.729  23.811  24.452  1.00  0.00     0.040 A 
ATOM     70  F   UNL A   1      44.772  25.544  25.610  1.00  0.00    -0.206 F 
ATOM     71  C   UNL A   1      45.882  22.466  24.164  1.00  0.00     0.006 A 
ENDBRANCH  50  64
BRANCH  51  72
ATOM     72  C   UNL A   1      46.718  30.793  28.334  1.00  0.00     0.057 A 
ATOM     73  C   UNL A   1      46.619  31.236  27.004  1.00  0.00     0.134 A 
ATOM     74  C   UNL A   1      47.389  31.655  29.218  1.00  0.00     0.134 A 
ATOM     75  F   UNL A   1      45.976  30.499  26.087  1.00  0.00    -0.206 F 
ATOM     76  C   UNL A   1      47.107  32.482  26.590  1.00  0.00     0.040 A 
ATOM     77  C   UNL A   1      47.886  32.901  28.816  1.00  0.00     0.040 A 
ATOM     78  F   UNL A   1      47.499  31.358  30.521  1.00  0.00    -0.206 F 
ATOM     79  C   UNL A   1      47.728  33.329  27.502  1.00  0.00     0.006 A 
ENDBRANCH  51  72
BRANCH  63  80
ATOM     80  C   UNL A   1      45.509  25.856  32.042  1.00  0.00     0.057 A 
ATOM     81  C   UNL A   1      46.518  25.612  32.982  1.00  0.00     0.134 A 
ATOM     82  C   UNL A   1      44.366  26.531  32.487  1.00  0.00     0.134 A 
ATOM     83  F   UNL A   1      47.675  25.033  32.628  1.00  0.00    -0.206 F 
ATOM     84  C   UNL A   1      46.376  26.003  34.317  1.00  0.00     0.040 A 
ATOM     85  C   UNL A   1      44.228  26.957  33.806  1.00  0.00     0.040 A 
ATOM     86  F   UNL A   1      43.376  26.822  31.628  1.00  0.00    -0.206 F 
ATOM     87  C   UNL A   1      45.232  26.685  34.729  1.00  0.00     0.006 A 
ENDBRANCH  63  80
ENDBRANCH  37  38
ENDBRANCH  29  32
ENDBRANCH  27  28
ENDBRANCH  26  27
ENDBRANCH   1  26
TORSDOF 14
ENDMDL
MODEL 3
REMARK VINA RESULT:     -11.8      4.076      8.717
REMARK SMILES Cc1nsc(NC(=O)[C@@H]2C=C[C@@H]([NH3+])C2)c1C(=O)NCCCCNC(=O)c1ccc(-c2c3nc(c(-c4c(F)cccc4F)c4ccc([nH]4)c(-c4c(F)cccc4F)c4nc(c(-c5c(F)cccc5F)c5ccc2[nH]5)C=C4)C=C3)cc1
REMARK SMILES IDX 20 1 19 2 18 3 16 4 17 5 15 7 1 8 2 9 3 10 4 11 5 12 6 13
REMARK SMILES IDX 7 14 8 16 9 17 10 18 14 19 11 20 12 21 13 22 21 26 22 27
REMARK SMILES IDX 23 28 24 29 25 31 26 32 27 33 79 34 28 35 78 36 29 37 30 38
REMARK SMILES IDX 31 39 72 40 32 41 77 42 71 43 73 44 33 45 76 46 70 47 69 48
REMARK SMILES IDX 34 50 60 51 43 52 59 53 44 54 47 55 58 56 74 57 45 58 46 59
REMARK SMILES IDX 57 61 75 62 48 63 35 64 36 65 41 66 37 67 38 68 40 69 42 70
REMARK SMILES IDX 39 71 61 72 62 73 67 74 63 75 64 76 66 77 68 78 65 79 49 80
REMARK SMILES IDX 50 81 55 82 51 83 52 84 54 85 56 86 53 87
REMARK H PARENT 18 6 6 15 13 23 13 24 13 25 23 30 73 49 47 60
REMARK Flexibility Score: inf
ROOT
ATOM      1  C   UNL A   1      39.544  21.949  26.220  1.00  0.00     0.023 C 
ENDROOT
BRANCH   1   2
ATOM      2  C   UNL A   1      38.069  22.188  25.906  1.00  0.00     0.116 C 
BRANCH   2   3
ATOM      3  N   UNL A   1      37.754  22.766  24.630  1.00  0.00    -0.352 N 
ATOM      4  C   UNL A   1      36.605  22.717  23.874  1.00  0.00     0.256 C 
ATOM      5  O   UNL A   1      36.702  23.279  22.775  1.00  0.00    -0.269 OA
ATOM      6  H   UNL A   1      38.485  23.289  24.227  1.00  0.00     0.163 HD
BRANCH   4   7
ATOM      7  C   UNL A   1      35.323  22.074  24.254  1.00  0.00     0.097 A 
ATOM      8  C   UNL A   1      35.693  19.478  24.949  1.00  0.00     0.069 C 
ATOM      9  C   UNL A   1      34.934  20.745  24.754  1.00  0.00     0.066 A 
ATOM     10  N   UNL A   1      33.657  20.612  25.123  1.00  0.00    -0.195 NA
ATOM     11  S   UNL A   1      32.885  22.030  24.954  1.00  0.00    -0.017 S 
ATOM     12  C   UNL A   1      34.137  22.828  24.144  1.00  0.00     0.129 A 
BRANCH  12  13
ATOM     13  N   UNL A   1      33.957  24.089  23.596  1.00  0.00    -0.315 N 
ATOM     14  C   UNL A   1      33.798  25.330  24.170  1.00  0.00     0.232 C 
ATOM     15  H   UNL A   1      33.939  24.099  22.612  1.00  0.00     0.170 HD
ATOM     16  O   UNL A   1      33.707  26.293  23.399  1.00  0.00    -0.274 OA
BRANCH  14  17
ATOM     17  C   UNL A   1      33.683  25.529  25.691  1.00  0.00     0.107 C 
ATOM     18  C   UNL A   1      32.255  25.422  26.158  1.00  0.00    -0.012 C 
ATOM     19  C   UNL A   1      34.060  26.946  26.175  1.00  0.00     0.087 C 
ATOM     20  C   UNL A   1      31.748  26.598  26.537  1.00  0.00     0.033 C 
ATOM     21  C   UNL A   1      32.739  27.700  26.390  1.00  0.00     0.205 C 
BRANCH  21  22
ATOM     22  N   UNL A   1      32.780  28.530  27.582  1.00  0.00    -0.352 N 
ATOM     23  H   UNL A   1      31.840  28.613  27.972  1.00  0.00     0.345 HD
ATOM     24  H   UNL A   1      33.130  29.456  27.340  1.00  0.00     0.345 HD
ATOM     25  H   UNL A   1      33.398  28.102  28.273  1.00  0.00     0.345 HD
ENDBRANCH  21  22
ENDBRANCH  14  17
ENDBRANCH  12  13
ENDBRANCH   4   7
ENDBRANCH   2   3
ENDBRANCH   1   2
BRANCH   1  26
ATOM     26  C   UNL A   1      40.126  20.556  25.984  1.00  0.00     0.023 C 
BRANCH  26  27
ATOM     27  C   UNL A   1      41.325  20.189  26.847  1.00  0.00     0.116 C 
BRANCH  27  28
ATOM     28  N   UNL A   1      42.479  19.708  26.093  1.00  0.00    -0.352 N 
ATOM     29  C   UNL A   1      43.421  20.482  25.442  1.00  0.00     0.251 C 
ATOM     30  H   UNL A   1      42.599  18.732  26.043  1.00  0.00     0.163 HD
ATOM     31  O   UNL A   1      44.131  20.006  24.558  1.00  0.00    -0.269 OA
BRANCH  29  32
ATOM     32  C   UNL A   1      43.561  21.901  25.820  1.00  0.00     0.039 A 
ATOM     33  C   UNL A   1      42.961  22.907  25.061  1.00  0.00     0.014 A 
ATOM     34  C   UNL A   1      44.275  22.211  26.979  1.00  0.00     0.014 A 
ATOM     35  C   UNL A   1      43.004  24.218  25.532  1.00  0.00     0.010 A 
ATOM     36  C   UNL A   1      44.224  23.485  27.498  1.00  0.00     0.010 A 
ATOM     37  C   UNL A   1      43.606  24.499  26.772  1.00  0.00    -0.014 A 
BRANCH  37  38
ATOM     38  C   UNL A   1      43.379  25.799  27.409  1.00  0.00     0.031 A 
ATOM     39  C   UNL A   1      44.388  26.815  26.995  1.00  0.00     0.074 A 
ATOM     40  C   UNL A   1      42.267  26.129  28.105  1.00  0.00     0.049 A 
ATOM     41  N   UNL A   1      45.314  27.342  27.724  1.00  0.00    -0.248 NA
ATOM     42  C   UNL A   1      44.508  27.154  25.562  1.00  0.00     0.031 C 
ATOM     43  C   UNL A   1      41.063  25.306  28.278  1.00  0.00     0.029 A 
ATOM     44  N   UNL A   1      41.912  27.304  28.714  1.00  0.00    -0.354 N 
ATOM     45  C   UNL A   1      45.940  28.287  26.911  1.00  0.00     0.074 A 
ATOM     46  C   UNL A   1      45.573  27.961  25.563  1.00  0.00     0.031 C 
ATOM     47  C   UNL A   1      40.043  26.076  28.715  1.00  0.00     0.029 A 
ATOM     48  C   UNL A   1      40.551  27.401  29.018  1.00  0.00     0.049 A 
ATOM     49  H   UNL A   1      42.558  28.017  28.920  1.00  0.00     0.167 HD
ATOM     50  C   UNL A   1      46.389  29.451  27.459  1.00  0.00     0.037 A 
ATOM     51  C   UNL A   1      39.883  28.490  29.477  1.00  0.00     0.037 A 
ATOM     52  C   UNL A   1      46.440  29.330  28.894  1.00  0.00     0.049 A 
ATOM     53  C   UNL A   1      40.878  29.402  30.079  1.00  0.00     0.074 A 
ATOM     54  C   UNL A   1      47.225  28.701  29.835  1.00  0.00     0.029 A 
ATOM     55  N   UNL A   1      45.248  29.631  29.491  1.00  0.00    -0.354 N 
ATOM     56  N   UNL A   1      41.527  29.134  31.177  1.00  0.00    -0.248 NA
ATOM     57  C   UNL A   1      41.418  30.495  29.278  1.00  0.00     0.031 C 
ATOM     58  C   UNL A   1      46.407  28.540  30.993  1.00  0.00     0.029 A 
ATOM     59  C   UNL A   1      45.166  29.125  30.755  1.00  0.00     0.049 A 
ATOM     60  H   UNL A   1      44.532  30.151  29.060  1.00  0.00     0.167 HD
ATOM     61  C   UNL A   1      42.769  29.695  30.973  1.00  0.00     0.074 A 
ATOM     62  C   UNL A   1      42.588  30.663  29.898  1.00  0.00     0.031 C 
ATOM     63  C   UNL A   1      43.890  29.070  31.432  1.00  0.00     0.037 A 
BRANCH  50  64
ATOM     64  C   UNL A   1      46.219  30.829  26.830  1.00  0.00     0.057 A 
ATOM     65  C   UNL A   1      47.337  31.690  26.792  1.00  0.00     0.134 A 
ATOM     66  C   UNL A   1      44.984  31.465  26.587  1.00  0.00     0.134 A 
ATOM     67  F   UNL A   1      48.575  31.222  27.010  1.00  0.00    -0.206 F 
ATOM     68  C   UNL A   1      47.222  33.076  26.618  1.00  0.00     0.040 A 
ATOM     69  C   UNL A   1      44.863  32.841  26.370  1.00  0.00     0.040 A 
ATOM     70  F   UNL A   1      43.813  30.821  26.641  1.00  0.00    -0.206 F 
ATOM     71  C   UNL A   1      45.979  33.660  26.417  1.00  0.00     0.006 A 
ENDBRANCH  50  64
BRANCH  51  72
ATOM     72  C   UNL A   1      38.475  28.917  29.280  1.00  0.00     0.057 A 
ATOM     73  C   UNL A   1      37.581  28.995  30.361  1.00  0.00     0.134 A 
ATOM     74  C   UNL A   1      38.061  29.549  28.096  1.00  0.00     0.134 A 
ATOM     75  F   UNL A   1      37.892  28.445  31.544  1.00  0.00    -0.206 F 
ATOM     76  C   UNL A   1      36.375  29.704  30.287  1.00  0.00     0.040 A 
ATOM     77  C   UNL A   1      36.856  30.257  28.007  1.00  0.00     0.040 A 
ATOM     78  F   UNL A   1      38.856  29.582  27.017  1.00  0.00    -0.206 F 
ATOM     79  C   UNL A   1      36.017  30.354  29.111  1.00  0.00     0.006 A 
ENDBRANCH  51  72
BRANCH  63  80
ATOM     80  C   UNL A   1      43.758  28.168  32.615  1.00  0.00     0.057 A 
ATOM     81  C   UNL A   1      43.697  26.770  32.562  1.00  0.00     0.134 A 
ATOM     82  C   UNL A   1      43.784  28.763  33.883  1.00  0.00     0.134 A 
ATOM     83  F   UNL A   1      43.737  26.114  31.394  1.00  0.00    -0.206 F 
ATOM     84  C   UNL A   1      43.636  26.002  33.729  1.00  0.00     0.040 A 
ATOM     85  C   UNL A   1      43.760  28.007  35.052  1.00  0.00     0.040 A 
ATOM     86  F   UNL A   1      43.874  30.097  34.000  1.00  0.00    -0.206 F 
ATOM     87  C   UNL A   1      43.676  26.621  34.978  1.00  0.00     0.006 A 
ENDBRANCH  63  80
ENDBRANCH  37  38
ENDBRANCH  29  32
ENDBRANCH  27  28
ENDBRANCH  26  27
ENDBRANCH   1  26
TORSDOF 14
ENDMDL
