MODEL 1
REMARK VINA RESULT:     -12.0      0.000      0.000
REMARK SMILES COc1ccc(-c2noc(CC(=O)NCCCCNC(=O)c3ccc(-c4c5nc(c(-c6c(F)cccc6F)c6ccc([nH]6)c(-c6c(F)cccc6F)c6nc(c(-c7c(F)cccc7F)c7ccc4[nH]7)C=C6)C=C5)cc3)c2-c2ccc(OC)cc2)cc1
REMARK SMILES IDX 16 1 15 2 14 3 12 4 13 5 11 7 10 8 7 9 8 10 76 11 9 12 6 13
REMARK SMILES IDX 3 14 4 15 86 16 5 17 85 18 2 19 1 20 77 21 78 22 84 23 79 24
REMARK SMILES IDX 83 25 80 26 81 27 82 28 17 29 18 30 19 31 20 32 21 34 22 35
REMARK SMILES IDX 23 36 75 37 24 38 74 39 25 40 26 41 27 42 68 43 28 44 73 45
REMARK SMILES IDX 67 46 69 47 29 48 72 49 66 50 65 51 30 53 56 54 39 55 55 56
REMARK SMILES IDX 40 57 43 58 54 59 70 60 41 61 42 62 53 64 71 65 44 66 31 67
REMARK SMILES IDX 32 68 37 69 33 70 34 71 36 72 38 73 35 74 57 75 58 76 63 77
REMARK SMILES IDX 59 78 60 79 62 80 64 81 61 82 45 83 46 84 51 85 47 86 48 87
REMARK SMILES IDX 50 88 52 89 49 90
REMARK H PARENT 14 6 19 33 69 52 43 63
REMARK Flexibility Score: inf
ROOT
ATOM      1  C   UNL A   1      36.242  21.429  25.623  1.00  0.00     0.023 C 
ENDROOT
BRANCH   1   2
ATOM      2  C   UNL A   1      36.192  22.949  25.773  1.00  0.00     0.116 C 
BRANCH   2   3
ATOM      3  N   UNL A   1      35.864  23.591  24.517  1.00  0.00    -0.356 N 
ATOM      4  C   UNL A   1      34.638  23.956  24.038  1.00  0.00     0.227 C 
ATOM      5  O   UNL A   1      34.578  24.436  22.903  1.00  0.00    -0.275 OA
ATOM      6  H   UNL A   1      36.628  23.791  23.929  1.00  0.00     0.163 HD
BRANCH   4   7
ATOM      7  C   UNL A   1      33.409  23.868  24.922  1.00  0.00     0.179 C 
BRANCH   7   8
ATOM      8  C   UNL A   1      32.258  24.626  24.374  1.00  0.00     0.154 A 
ATOM      9  C   UNL A   1      30.614  25.955  23.706  1.00  0.00     0.122 A 
ATOM     10  N   UNL A   1      30.404  24.770  23.115  1.00  0.00    -0.079 NA
ATOM     11  C   UNL A   1      31.778  25.911  24.528  1.00  0.00     0.053 A 
ATOM     12  O   UNL A   1      31.444  23.953  23.515  1.00  0.00    -0.360 OA
BRANCH   9  13
ATOM     13  C   UNL A   1      29.733  27.094  23.494  1.00  0.00     0.005 A 
ATOM     14  C   UNL A   1      27.977  29.213  22.952  1.00  0.00     0.118 A 
ATOM     15  C   UNL A   1      29.341  29.338  22.678  1.00  0.00     0.047 A 
ATOM     16  C   UNL A   1      27.487  28.020  23.484  1.00  0.00     0.047 A 
ATOM     17  C   UNL A   1      30.222  28.290  22.961  1.00  0.00     0.014 A 
ATOM     18  C   UNL A   1      28.363  26.966  23.755  1.00  0.00     0.014 A 
BRANCH  14  19
ATOM     19  O   UNL A   1      27.207  30.294  22.625  1.00  0.00    -0.497 OA
ATOM     20  C   UNL A   1      27.584  31.517  23.250  1.00  0.00     0.278 C 
ENDBRANCH  14  19
ENDBRANCH   9  13
BRANCH  11  21
ATOM     21  C   UNL A   1      32.316  26.908  25.433  1.00  0.00    -0.012 A 
ATOM     22  C   UNL A   1      33.484  27.595  25.085  1.00  0.00     0.013 A 
ATOM     23  C   UNL A   1      31.692  27.198  26.650  1.00  0.00     0.013 A 
ATOM     24  C   UNL A   1      34.000  28.581  25.926  1.00  0.00     0.047 A 
ATOM     25  C   UNL A   1      32.218  28.182  27.497  1.00  0.00     0.047 A 
ATOM     26  C   UNL A   1      33.369  28.884  27.133  1.00  0.00     0.118 A 
BRANCH  26  27
ATOM     27  O   UNL A   1      33.974  29.873  27.855  1.00  0.00    -0.497 OA
ATOM     28  C   UNL A   1      33.639  31.213  27.524  1.00  0.00     0.278 C 
ENDBRANCH  26  27
ENDBRANCH  11  21
ENDBRANCH   7   8
ENDBRANCH   4   7
ENDBRANCH   2   3
ENDBRANCH   1   2
BRANCH   1  29
ATOM     29  C   UNL A   1      37.508  20.904  24.943  1.00  0.00     0.023 C 
BRANCH  29  30
ATOM     30  C   UNL A   1      38.776  20.987  25.788  1.00  0.00     0.116 C 
BRANCH  30  31
ATOM     31  N   UNL A   1      39.566  19.764  25.763  1.00  0.00    -0.352 N 
ATOM     32  C   UNL A   1      40.908  19.605  26.019  1.00  0.00     0.251 C 
ATOM     33  H   UNL A   1      39.076  18.943  25.532  1.00  0.00     0.163 HD
ATOM     34  O   UNL A   1      41.452  18.518  25.855  1.00  0.00    -0.269 OA
BRANCH  32  35
ATOM     35  C   UNL A   1      41.701  20.773  26.451  1.00  0.00     0.039 A 
ATOM     36  C   UNL A   1      42.240  21.617  25.477  1.00  0.00     0.014 A 
ATOM     37  C   UNL A   1      41.850  21.069  27.809  1.00  0.00     0.014 A 
ATOM     38  C   UNL A   1      42.846  22.814  25.864  1.00  0.00     0.010 A 
ATOM     39  C   UNL A   1      42.399  22.289  28.189  1.00  0.00     0.010 A 
ATOM     40  C   UNL A   1      42.879  23.182  27.219  1.00  0.00    -0.014 A 
BRANCH  40  41
ATOM     41  C   UNL A   1      43.346  24.527  27.638  1.00  0.00     0.031 A 
ATOM     42  C   UNL A   1      42.363  25.579  28.060  1.00  0.00     0.074 A 
ATOM     43  C   UNL A   1      44.659  24.823  27.550  1.00  0.00     0.049 A 
ATOM     44  N   UNL A   1      42.578  26.835  28.362  1.00  0.00    -0.248 NA
ATOM     45  C   UNL A   1      40.950  25.175  28.128  1.00  0.00     0.031 C 
ATOM     46  C   UNL A   1      45.707  23.901  27.106  1.00  0.00     0.029 A 
ATOM     47  N   UNL A   1      45.332  25.991  27.809  1.00  0.00    -0.354 N 
ATOM     48  C   UNL A   1      41.331  27.373  28.648  1.00  0.00     0.074 A 
ATOM     49  C   UNL A   1      40.358  26.320  28.442  1.00  0.00     0.031 C 
ATOM     50  C   UNL A   1      46.891  24.533  27.138  1.00  0.00     0.029 A 
ATOM     51  C   UNL A   1      46.682  25.912  27.564  1.00  0.00     0.049 A 
ATOM     52  H   UNL A   1      44.890  26.806  28.139  1.00  0.00     0.167 HD
ATOM     53  C   UNL A   1      41.028  28.625  29.064  1.00  0.00     0.037 A 
ATOM     54  C   UNL A   1      47.642  26.851  27.655  1.00  0.00     0.037 A 
ATOM     55  C   UNL A   1      41.998  29.665  29.287  1.00  0.00     0.049 A 
ATOM     56  C   UNL A   1      47.273  28.240  28.094  1.00  0.00     0.074 A 
ATOM     57  C   UNL A   1      41.793  30.943  29.776  1.00  0.00     0.029 A 
ATOM     58  N   UNL A   1      43.355  29.547  29.030  1.00  0.00    -0.354 N 
ATOM     59  N   UNL A   1      46.099  28.716  28.429  1.00  0.00    -0.248 NA
ATOM     60  C   UNL A   1      48.363  29.225  28.164  1.00  0.00     0.031 C 
ATOM     61  C   UNL A   1      43.021  31.614  29.775  1.00  0.00     0.029 A 
ATOM     62  C   UNL A   1      43.996  30.740  29.323  1.00  0.00     0.049 A 
ATOM     63  H   UNL A   1      43.797  28.736  28.689  1.00  0.00     0.167 HD
ATOM     64  C   UNL A   1      46.309  30.046  28.764  1.00  0.00     0.074 A 
ATOM     65  C   UNL A   1      47.727  30.299  28.610  1.00  0.00     0.031 C 
ATOM     66  C   UNL A   1      45.407  30.977  29.160  1.00  0.00     0.037 A 
BRANCH  53  67
ATOM     67  C   UNL A   1      39.583  28.941  29.315  1.00  0.00     0.057 A 
ATOM     68  C   UNL A   1      38.739  29.382  28.288  1.00  0.00     0.134 A 
ATOM     69  C   UNL A   1      39.019  28.754  30.582  1.00  0.00     0.134 A 
ATOM     70  F   UNL A   1      39.222  29.591  27.053  1.00  0.00    -0.206 F 
ATOM     71  C   UNL A   1      37.388  29.645  28.517  1.00  0.00     0.040 A 
ATOM     72  C   UNL A   1      37.663  28.991  30.818  1.00  0.00     0.040 A 
ATOM     73  F   UNL A   1      39.771  28.329  31.608  1.00  0.00    -0.206 F 
ATOM     74  C   UNL A   1      36.845  29.442  29.784  1.00  0.00     0.006 A 
ENDBRANCH  53  67
BRANCH  54  75
ATOM     75  C   UNL A   1      49.049  26.513  27.326  1.00  0.00     0.057 A 
ATOM     76  C   UNL A   1      49.526  26.617  26.014  1.00  0.00     0.134 A 
ATOM     77  C   UNL A   1      49.943  26.067  28.306  1.00  0.00     0.134 A 
ATOM     78  F   UNL A   1      48.709  27.018  25.030  1.00  0.00    -0.206 F 
ATOM     79  C   UNL A   1      50.838  26.273  25.685  1.00  0.00     0.040 A 
ATOM     80  C   UNL A   1      51.265  25.743  27.995  1.00  0.00     0.040 A 
ATOM     81  F   UNL A   1      49.547  25.951  29.582  1.00  0.00    -0.206 F 
ATOM     82  C   UNL A   1      51.712  25.839  26.679  1.00  0.00     0.006 A 
ENDBRANCH  54  75
BRANCH  66  83
ATOM     83  C   UNL A   1      45.931  32.349  29.463  1.00  0.00     0.057 A 
ATOM     84  C   UNL A   1      46.386  32.694  30.741  1.00  0.00     0.134 A 
ATOM     85  C   UNL A   1      46.013  33.322  28.459  1.00  0.00     0.134 A 
ATOM     86  F   UNL A   1      46.319  31.810  31.750  1.00  0.00    -0.206 F 
ATOM     87  C   UNL A   1      46.890  33.967  31.015  1.00  0.00     0.040 A 
ATOM     88  C   UNL A   1      46.537  34.589  28.716  1.00  0.00     0.040 A 
ATOM     89  F   UNL A   1      45.599  33.051  27.212  1.00  0.00    -0.206 F 
ATOM     90  C   UNL A   1      46.973  34.916  29.998  1.00  0.00     0.006 A 
ENDBRANCH  66  83
ENDBRANCH  40  41
ENDBRANCH  32  35
ENDBRANCH  30  31
ENDBRANCH  29  30
ENDBRANCH   1  29
TORSDOF 16
ENDMDL
MODEL 2
REMARK VINA RESULT:     -11.9      1.529      2.360
REMARK SMILES COc1ccc(-c2noc(CC(=O)NCCCCNC(=O)c3ccc(-c4c5nc(c(-c6c(F)cccc6F)c6ccc([nH]6)c(-c6c(F)cccc6F)c6nc(c(-c7c(F)cccc7F)c7ccc4[nH]7)C=C6)C=C5)cc3)c2-c2ccc(OC)cc2)cc1
REMARK SMILES IDX 16 1 15 2 14 3 12 4 13 5 11 7 10 8 7 9 8 10 76 11 9 12 6 13
REMARK SMILES IDX 3 14 4 15 86 16 5 17 85 18 2 19 1 20 77 21 78 22 84 23 79 24
REMARK SMILES IDX 83 25 80 26 81 27 82 28 17 29 18 30 19 31 20 32 21 34 22 35
REMARK SMILES IDX 23 36 75 37 24 38 74 39 25 40 26 41 27 42 68 43 28 44 73 45
REMARK SMILES IDX 67 46 69 47 29 48 72 49 66 50 65 51 30 53 56 54 39 55 55 56
REMARK SMILES IDX 40 57 43 58 54 59 70 60 41 61 42 62 53 64 71 65 44 66 31 67
REMARK SMILES IDX 32 68 37 69 33 70 34 71 36 72 38 73 35 74 57 75 58 76 63 77
REMARK SMILES IDX 59 78 60 79 62 80 64 81 61 82 45 83 46 84 51 85 47 86 48 87
REMARK SMILES IDX 50 88 52 89 49 90
REMARK H PARENT 14 6 19 33 69 52 43 63
REMARK Flexibility Score: inf
ROOT
ATOM      1  C   UNL A   1      36.097  23.231  23.649  1.00  0.00     0.023 C 
ENDROOT
BRANCH   1   2
ATOM      2  C   UNL A   1      34.636  23.193  23.200  1.00  0.00     0.116 C 
BRANCH   2   3
ATOM      3  N   UNL A   1      33.902  22.151  23.887  1.00  0.00    -0.356 N 
ATOM      4  C   UNL A   1      33.186  22.233  25.048  1.00  0.00     0.227 C 
ATOM      5  O   UNL A   1      32.687  21.197  25.495  1.00  0.00    -0.275 OA
ATOM      6  H   UNL A   1      33.921  21.265  23.460  1.00  0.00     0.163 HD
BRANCH   4   7
ATOM      7  C   UNL A   1      32.931  23.578  25.702  1.00  0.00     0.179 C 
BRANCH   7   8
ATOM      8  C   UNL A   1      31.965  24.406  24.940  1.00  0.00     0.154 A 
ATOM      9  C   UNL A   1      30.615  25.848  23.932  1.00  0.00     0.122 A 
ATOM     10  N   UNL A   1      30.264  24.632  23.491  1.00  0.00    -0.079 NA
ATOM     11  C   UNL A   1      31.688  25.757  24.866  1.00  0.00     0.053 A 
ATOM     12  O   UNL A   1      31.123  23.739  24.104  1.00  0.00    -0.360 OA
BRANCH   9  13
ATOM     13  C   UNL A   1      29.950  27.059  23.477  1.00  0.00     0.005 A 
ATOM     14  C   UNL A   1      28.606  29.308  22.475  1.00  0.00     0.118 A 
ATOM     15  C   UNL A   1      29.987  29.177  22.306  1.00  0.00     0.047 A 
ATOM     16  C   UNL A   1      27.893  28.306  23.133  1.00  0.00     0.047 A 
ATOM     17  C   UNL A   1      30.662  28.065  22.818  1.00  0.00     0.014 A 
ATOM     18  C   UNL A   1      28.564  27.187  23.633  1.00  0.00     0.014 A 
BRANCH  14  19
ATOM     19  O   UNL A   1      28.048  30.428  21.925  1.00  0.00    -0.497 OA
ATOM     20  C   UNL A   1      27.681  31.441  22.855  1.00  0.00     0.278 C 
ENDBRANCH  14  19
ENDBRANCH   9  13
BRANCH  11  21
ATOM     21  C   UNL A   1      32.308  26.788  25.676  1.00  0.00    -0.012 A 
ATOM     22  C   UNL A   1      33.612  27.200  25.386  1.00  0.00     0.013 A 
ATOM     23  C   UNL A   1      31.627  27.380  26.744  1.00  0.00     0.013 A 
ATOM     24  C   UNL A   1      34.215  28.215  26.131  1.00  0.00     0.047 A 
ATOM     25  C   UNL A   1      32.239  28.392  27.497  1.00  0.00     0.047 A 
ATOM     26  C   UNL A   1      33.531  28.819  27.186  1.00  0.00     0.118 A 
BRANCH  26  27
ATOM     27  O   UNL A   1      34.233  29.800  27.827  1.00  0.00    -0.497 OA
ATOM     28  C   UNL A   1      33.802  31.139  27.627  1.00  0.00     0.278 C 
ENDBRANCH  26  27
ENDBRANCH  11  21
ENDBRANCH   7   8
ENDBRANCH   4   7
ENDBRANCH   2   3
ENDBRANCH   1   2
BRANCH   1  29
ATOM     29  C   UNL A   1      36.694  21.859  23.966  1.00  0.00     0.023 C 
BRANCH  29  30
ATOM     30  C   UNL A   1      37.132  21.665  25.415  1.00  0.00     0.116 C 
BRANCH  30  31
ATOM     31  N   UNL A   1      38.159  20.646  25.576  1.00  0.00    -0.352 N 
ATOM     32  C   UNL A   1      39.415  20.774  26.121  1.00  0.00     0.251 C 
ATOM     33  H   UNL A   1      37.924  19.747  25.253  1.00  0.00     0.163 HD
ATOM     34  O   UNL A   1      40.208  19.838  26.091  1.00  0.00    -0.269 OA
BRANCH  32  35
ATOM     35  C   UNL A   1      39.818  22.069  26.703  1.00  0.00     0.039 A 
ATOM     36  C   UNL A   1      40.794  22.082  27.703  1.00  0.00     0.014 A 
ATOM     37  C   UNL A   1      39.285  23.265  26.215  1.00  0.00     0.014 A 
ATOM     38  C   UNL A   1      41.308  23.303  28.145  1.00  0.00     0.010 A 
ATOM     39  C   UNL A   1      39.841  24.477  26.612  1.00  0.00     0.010 A 
ATOM     40  C   UNL A   1      40.874  24.505  27.562  1.00  0.00    -0.014 A 
BRANCH  40  41
ATOM     41  C   UNL A   1      41.534  25.795  27.879  1.00  0.00     0.031 A 
ATOM     42  C   UNL A   1      40.787  26.879  28.599  1.00  0.00     0.074 A 
ATOM     43  C   UNL A   1      42.787  26.018  27.433  1.00  0.00     0.049 A 
ATOM     44  N   UNL A   1      41.167  28.101  28.872  1.00  0.00    -0.248 NA
ATOM     45  C   UNL A   1      39.425  26.555  29.050  1.00  0.00     0.031 C 
ATOM     46  C   UNL A   1      43.601  25.061  26.678  1.00  0.00     0.029 A 
ATOM     47  N   UNL A   1      43.588  27.128  27.532  1.00  0.00    -0.354 N 
ATOM     48  C   UNL A   1      40.092  28.695  29.519  1.00  0.00     0.074 A 
ATOM     49  C   UNL A   1      39.027  27.714  29.559  1.00  0.00     0.031 C 
ATOM     50  C   UNL A   1      44.788  25.620  26.396  1.00  0.00     0.029 A 
ATOM     51  C   UNL A   1      44.806  26.985  26.913  1.00  0.00     0.049 A 
ATOM     52  H   UNL A   1      43.316  27.949  28.003  1.00  0.00     0.167 HD
ATOM     53  C   UNL A   1      40.008  29.938  30.048  1.00  0.00     0.037 A 
ATOM     54  C   UNL A   1      45.818  27.859  26.762  1.00  0.00     0.037 A 
ATOM     55  C   UNL A   1      41.073  30.906  30.024  1.00  0.00     0.049 A 
ATOM     56  C   UNL A   1      45.687  29.242  27.336  1.00  0.00     0.074 A 
ATOM     57  C   UNL A   1      41.105  32.166  30.596  1.00  0.00     0.029 A 
ATOM     58  N   UNL A   1      42.291  30.723  29.389  1.00  0.00    -0.354 N 
ATOM     59  N   UNL A   1      44.690  29.766  28.006  1.00  0.00    -0.248 NA
ATOM     60  C   UNL A   1      46.819  30.155  27.130  1.00  0.00     0.031 C 
ATOM     61  C   UNL A   1      42.328  32.762  30.271  1.00  0.00     0.029 A 
ATOM     62  C   UNL A   1      43.073  31.858  29.531  1.00  0.00     0.049 A 
ATOM     63  H   UNL A   1      42.562  29.907  28.908  1.00  0.00     0.167 HD
ATOM     64  C   UNL A   1      45.080  31.062  28.316  1.00  0.00     0.074 A 
ATOM     65  C   UNL A   1      46.413  31.239  27.776  1.00  0.00     0.031 C 
ATOM     66  C   UNL A   1      44.395  32.021  28.983  1.00  0.00     0.037 A 
BRANCH  53  67
ATOM     67  C   UNL A   1      38.717  30.324  30.708  1.00  0.00     0.057 A 
ATOM     68  C   UNL A   1      38.485  30.076  32.068  1.00  0.00     0.134 A 
ATOM     69  C   UNL A   1      37.718  30.993  29.992  1.00  0.00     0.134 A 
ATOM     70  F   UNL A   1      39.400  29.429  32.806  1.00  0.00    -0.206 F 
ATOM     71  C   UNL A   1      37.297  30.464  32.687  1.00  0.00     0.040 A 
ATOM     72  C   UNL A   1      36.535  31.407  30.607  1.00  0.00     0.040 A 
ATOM     73  F   UNL A   1      37.879  31.265  28.689  1.00  0.00    -0.206 F 
ATOM     74  C   UNL A   1      36.321  31.139  31.957  1.00  0.00     0.006 A 
ENDBRANCH  53  67
BRANCH  54  75
ATOM     75  C   UNL A   1      47.048  27.458  26.036  1.00  0.00     0.057 A 
ATOM     76  C   UNL A   1      47.144  27.603  24.647  1.00  0.00     0.134 A 
ATOM     77  C   UNL A   1      48.148  26.909  26.706  1.00  0.00     0.134 A 
ATOM     78  F   UNL A   1      46.114  28.102  23.949  1.00  0.00    -0.206 F 
ATOM     79  C   UNL A   1      48.283  27.201  23.948  1.00  0.00     0.040 A 
ATOM     80  C   UNL A   1      49.302  26.525  26.022  1.00  0.00     0.040 A 
ATOM     81  F   UNL A   1      48.118  26.749  28.038  1.00  0.00    -0.206 F 
ATOM     82  C   UNL A   1      49.368  26.665  24.638  1.00  0.00     0.006 A 
ENDBRANCH  54  75
BRANCH  66  83
ATOM     83  C   UNL A   1      45.079  33.341  29.175  1.00  0.00     0.057 A 
ATOM     84  C   UNL A   1      44.903  34.396  28.272  1.00  0.00     0.134 A 
ATOM     85  C   UNL A   1      45.892  33.571  30.291  1.00  0.00     0.134 A 
ATOM     86  F   UNL A   1      44.147  34.234  27.174  1.00  0.00    -0.206 F 
ATOM     87  C   UNL A   1      45.526  35.630  28.463  1.00  0.00     0.040 A 
ATOM     88  C   UNL A   1      46.502  34.808  30.505  1.00  0.00     0.040 A 
ATOM     89  F   UNL A   1      46.096  32.602  31.197  1.00  0.00    -0.206 F 
ATOM     90  C   UNL A   1      46.323  35.840  29.587  1.00  0.00     0.006 A 
ENDBRANCH  66  83
ENDBRANCH  40  41
ENDBRANCH  32  35
ENDBRANCH  30  31
ENDBRANCH  29  30
ENDBRANCH   1  29
TORSDOF 16
ENDMDL
MODEL 3
REMARK VINA RESULT:     -11.9      2.578      7.845
REMARK SMILES COc1ccc(-c2noc(CC(=O)NCCCCNC(=O)c3ccc(-c4c5nc(c(-c6c(F)cccc6F)c6ccc([nH]6)c(-c6c(F)cccc6F)c6nc(c(-c7c(F)cccc7F)c7ccc4[nH]7)C=C6)C=C5)cc3)c2-c2ccc(OC)cc2)cc1
REMARK SMILES IDX 16 1 15 2 14 3 12 4 13 5 11 7 10 8 7 9 8 10 76 11 9 12 6 13
REMARK SMILES IDX 3 14 4 15 86 16 5 17 85 18 2 19 1 20 77 21 78 22 84 23 79 24
REMARK SMILES IDX 83 25 80 26 81 27 82 28 17 29 18 30 19 31 20 32 21 34 22 35
REMARK SMILES IDX 23 36 75 37 24 38 74 39 25 40 26 41 27 42 68 43 28 44 73 45
REMARK SMILES IDX 67 46 69 47 29 48 72 49 66 50 65 51 30 53 56 54 39 55 55 56
REMARK SMILES IDX 40 57 43 58 54 59 70 60 41 61 42 62 53 64 71 65 44 66 31 67
REMARK SMILES IDX 32 68 37 69 33 70 34 71 36 72 38 73 35 74 57 75 58 76 63 77
REMARK SMILES IDX 59 78 60 79 62 80 64 81 61 82 45 83 46 84 51 85 47 86 48 87
REMARK SMILES IDX 50 88 52 89 49 90
REMARK H PARENT 14 6 19 33 69 52 43 63
REMARK Flexibility Score: inf
ROOT
ATOM      1  C   UNL A   1      32.142  29.656  25.280  1.00  0.00     0.023 C 
ENDROOT
BRANCH   1   2
ATOM      2  C   UNL A   1      31.222  28.555  24.754  1.00  0.00     0.116 C 
BRANCH   2   3
ATOM      3  N   UNL A   1      31.130  27.454  25.691  1.00  0.00    -0.356 N 
ATOM      4  C   UNL A   1      31.469  26.144  25.506  1.00  0.00     0.227 C 
ATOM      5  O   UNL A   1      31.246  25.353  26.426  1.00  0.00    -0.275 OA
ATOM      6  H   UNL A   1      30.775  27.681  26.581  1.00  0.00     0.163 HD
BRANCH   4   7
ATOM      7  C   UNL A   1      32.193  25.706  24.248  1.00  0.00     0.179 C 
BRANCH   7   8
ATOM      8  C   UNL A   1      32.060  24.251  23.992  1.00  0.00     0.154 A 
ATOM      9  C   UNL A   1      32.112  22.057  23.673  1.00  0.00     0.122 A 
ATOM     10  N   UNL A   1      30.886  22.462  23.310  1.00  0.00    -0.079 NA
ATOM     11  C   UNL A   1      32.901  23.163  24.105  1.00  0.00     0.053 A 
ATOM     12  O   UNL A   1      30.851  23.826  23.533  1.00  0.00    -0.360 OA
BRANCH   9  13
ATOM     13  C   UNL A   1      32.516  20.661  23.611  1.00  0.00     0.005 A 
ATOM     14  C   UNL A   1      33.142  17.929  23.522  1.00  0.00     0.118 A 
ATOM     15  C   UNL A   1      33.496  18.699  24.633  1.00  0.00     0.047 A 
ATOM     16  C   UNL A   1      32.461  18.523  22.459  1.00  0.00     0.047 A 
ATOM     17  C   UNL A   1      33.199  20.064  24.674  1.00  0.00     0.014 A 
ATOM     18  C   UNL A   1      32.151  19.884  22.504  1.00  0.00     0.014 A 
BRANCH  14  19
ATOM     19  O   UNL A   1      33.470  16.603  23.593  1.00  0.00    -0.497 OA
ATOM     20  C   UNL A   1      33.706  16.108  24.907  1.00  0.00     0.278 C 
ENDBRANCH  14  19
ENDBRANCH   9  13
BRANCH  11  21
ATOM     21  C   UNL A   1      34.303  23.218  24.473  1.00  0.00    -0.012 A 
ATOM     22  C   UNL A   1      34.656  23.477  25.802  1.00  0.00     0.013 A 
ATOM     23  C   UNL A   1      35.311  23.016  23.527  1.00  0.00     0.013 A 
ATOM     24  C   UNL A   1      35.998  23.500  26.184  1.00  0.00     0.047 A 
ATOM     25  C   UNL A   1      36.659  23.051  23.912  1.00  0.00     0.047 A 
ATOM     26  C   UNL A   1      37.005  23.283  25.244  1.00  0.00     0.118 A 
BRANCH  26  27
ATOM     27  O   UNL A   1      38.272  23.327  25.754  1.00  0.00    -0.497 OA
ATOM     28  C   UNL A   1      38.864  22.089  26.123  1.00  0.00     0.278 C 
ENDBRANCH  26  27
ENDBRANCH  11  21
ENDBRANCH   7   8
ENDBRANCH   4   7
ENDBRANCH   2   3
ENDBRANCH   1   2
BRANCH   1  29
ATOM     29  C   UNL A   1      33.579  29.203  25.544  1.00  0.00     0.023 C 
BRANCH  29  30
ATOM     30  C   UNL A   1      33.941  29.025  27.015  1.00  0.00     0.116 C 
BRANCH  30  31
ATOM     31  N   UNL A   1      33.966  30.276  27.760  1.00  0.00    -0.352 N 
ATOM     32  C   UNL A   1      34.983  30.798  28.524  1.00  0.00     0.251 C 
ATOM     33  H   UNL A   1      33.148  30.820  27.709  1.00  0.00     0.163 HD
ATOM     34  O   UNL A   1      34.811  31.823  29.177  1.00  0.00    -0.269 OA
BRANCH  32  35
ATOM     35  C   UNL A   1      36.273  30.085  28.588  1.00  0.00     0.039 A 
ATOM     36  C   UNL A   1      37.122  30.130  27.479  1.00  0.00     0.014 A 
ATOM     37  C   UNL A   1      36.670  29.437  29.761  1.00  0.00     0.014 A 
ATOM     38  C   UNL A   1      38.412  29.607  27.580  1.00  0.00     0.010 A 
ATOM     39  C   UNL A   1      37.976  28.971  29.879  1.00  0.00     0.010 A 
ATOM     40  C   UNL A   1      38.865  29.075  28.799  1.00  0.00    -0.014 A 
BRANCH  40  41
ATOM     41  C   UNL A   1      40.285  28.686  28.987  1.00  0.00     0.031 A 
ATOM     42  C   UNL A   1      41.285  29.677  29.506  1.00  0.00     0.074 A 
ATOM     43  C   UNL A   1      40.686  27.459  28.600  1.00  0.00     0.049 A 
ATOM     44  N   UNL A   1      42.581  29.547  29.641  1.00  0.00    -0.248 NA
ATOM     45  C   UNL A   1      40.766  30.994  29.904  1.00  0.00     0.031 C 
ATOM     46  C   UNL A   1      39.818  26.423  28.034  1.00  0.00     0.029 A 
ATOM     47  N   UNL A   1      41.931  26.881  28.605  1.00  0.00    -0.354 N 
ATOM     48  C   UNL A   1      43.033  30.765  30.130  1.00  0.00     0.074 A 
ATOM     49  C   UNL A   1      41.881  31.636  30.228  1.00  0.00     0.031 C 
ATOM     50  C   UNL A   1      40.554  25.333  27.760  1.00  0.00     0.029 A 
ATOM     51  C   UNL A   1      41.948  25.606  28.093  1.00  0.00     0.049 A 
ATOM     52  H   UNL A   1      42.735  27.336  28.944  1.00  0.00     0.167 HD
ATOM     53  C   UNL A   1      44.291  31.117  30.484  1.00  0.00     0.037 A 
ATOM     54  C   UNL A   1      42.974  24.757  27.896  1.00  0.00     0.037 A 
ATOM     55  C   UNL A   1      45.433  30.243  30.404  1.00  0.00     0.049 A 
ATOM     56  C   UNL A   1      44.364  25.184  28.273  1.00  0.00     0.074 A 
ATOM     57  C   UNL A   1      46.734  30.488  30.807  1.00  0.00     0.029 A 
ATOM     58  N   UNL A   1      45.410  28.960  29.882  1.00  0.00    -0.354 N 
ATOM     59  N   UNL A   1      44.767  26.314  28.800  1.00  0.00    -0.248 NA
ATOM     60  C   UNL A   1      45.445  24.218  28.024  1.00  0.00     0.031 C 
ATOM     61  C   UNL A   1      47.509  29.367  30.488  1.00  0.00     0.029 A 
ATOM     62  C   UNL A   1      46.681  28.410  29.925  1.00  0.00     0.049 A 
ATOM     63  H   UNL A   1      44.609  28.506  29.532  1.00  0.00     0.167 HD
ATOM     64  C   UNL A   1      46.140  26.191  28.962  1.00  0.00     0.074 A 
ATOM     65  C   UNL A   1      46.500  24.869  28.493  1.00  0.00     0.031 C 
ATOM     66  C   UNL A   1      47.024  27.094  29.450  1.00  0.00     0.037 A 
BRANCH  53  67
ATOM     67  C   UNL A   1      44.502  32.509  31.001  1.00  0.00     0.057 A 
ATOM     68  C   UNL A   1      44.412  32.807  32.367  1.00  0.00     0.134 A 
ATOM     69  C   UNL A   1      44.846  33.551  30.131  1.00  0.00     0.134 A 
ATOM     70  F   UNL A   1      44.075  31.854  33.250  1.00  0.00    -0.206 F 
ATOM     71  C   UNL A   1      44.639  34.097  32.848  1.00  0.00     0.040 A 
ATOM     72  C   UNL A   1      45.099  34.840  30.604  1.00  0.00     0.040 A 
ATOM     73  F   UNL A   1      44.954  33.332  28.813  1.00  0.00    -0.206 F 
ATOM     74  C   UNL A   1      44.991  35.116  31.966  1.00  0.00     0.006 A 
ENDBRANCH  53  67
BRANCH  54  75
ATOM     75  C   UNL A   1      42.729  23.415  27.313  1.00  0.00     0.057 A 
ATOM     76  C   UNL A   1      42.379  22.330  28.126  1.00  0.00     0.134 A 
ATOM     77  C   UNL A   1      42.850  23.180  25.938  1.00  0.00     0.134 A 
ATOM     78  F   UNL A   1      42.269  22.490  29.452  1.00  0.00    -0.206 F 
ATOM     79  C   UNL A   1      42.175  21.056  27.595  1.00  0.00     0.040 A 
ATOM     80  C   UNL A   1      42.625  21.916  25.391  1.00  0.00     0.040 A 
ATOM     81  F   UNL A   1      43.178  24.180  25.107  1.00  0.00    -0.206 F 
ATOM     82  C   UNL A   1      42.294  20.848  26.222  1.00  0.00     0.006 A 
ENDBRANCH  54  75
BRANCH  66  83
ATOM     83  C   UNL A   1      48.463  26.677  29.511  1.00  0.00     0.057 A 
ATOM     84  C   UNL A   1      49.365  27.001  28.491  1.00  0.00     0.134 A 
ATOM     85  C   UNL A   1      48.958  25.975  30.617  1.00  0.00     0.134 A 
ATOM     86  F   UNL A   1      48.948  27.660  27.398  1.00  0.00    -0.206 F 
ATOM     87  C   UNL A   1      50.708  26.627  28.560  1.00  0.00     0.040 A 
ATOM     88  C   UNL A   1      50.304  25.616  30.708  1.00  0.00     0.040 A 
ATOM     89  F   UNL A   1      48.146  25.639  31.631  1.00  0.00    -0.206 F 
ATOM     90  C   UNL A   1      51.181  25.939  29.675  1.00  0.00     0.006 A 
ENDBRANCH  66  83
ENDBRANCH  40  41
ENDBRANCH  32  35
ENDBRANCH  30  31
ENDBRANCH  29  30
ENDBRANCH   1  29
TORSDOF 16
ENDMDL
