MODEL 1
REMARK VINA RESULT:     -12.5      0.000      0.000
REMARK SMILES O=C(NCCCCNC(=O)C1(NC(=O)c2nc(C3CC3)n[nH]2)CCCCC1)c1ccc(-c2c3nc(c(-c4c(F)cccc4F)c4ccc([nH]4)c(-c4c(F)cccc4F)c4nc(c(-c5c(F)cccc5F)c5ccc2[nH]5)C=C4)C=C3)cc1
REMARK SMILES IDX 6 1 5 2 4 3 3 4 1 5 2 6 28 8 29 9 81 10 30 11 80 12 31 13
REMARK SMILES IDX 32 14 33 15 74 16 34 17 79 18 73 19 75 20 35 21 78 22 72 23
REMARK SMILES IDX 71 24 36 26 62 27 45 28 61 29 46 30 49 31 60 32 76 33 47 34
REMARK SMILES IDX 48 35 59 37 77 38 50 39 37 40 38 41 43 42 39 43 40 44 42 45
REMARK SMILES IDX 44 46 41 47 63 48 64 49 69 50 65 51 66 52 68 53 70 54 67 55
REMARK SMILES IDX 51 56 52 57 57 58 53 59 54 60 56 61 58 62 55 63 7 64 8 65
REMARK SMILES IDX 9 66 10 68 11 69 23 70 27 71 24 72 26 73 25 74 12 75 13 76
REMARK SMILES IDX 14 78 15 79 16 80 22 81 17 82 21 83 18 85 19 86 20 87
REMARK H PARENT 3 7 75 25 49 36 8 67 12 77 22 84
REMARK Flexibility Score: inf
ROOT
ATOM      1  C   UNL A   1      35.999  20.814  25.286  1.00  0.00     0.023 C 
ENDROOT
BRANCH   1   2
ATOM      2  C   UNL A   1      37.402  20.783  24.670  1.00  0.00     0.023 C 
BRANCH   2   3
ATOM      3  C   UNL A   1      38.539  20.908  25.677  1.00  0.00     0.116 C 
BRANCH   3   4
ATOM      4  N   UNL A   1      39.486  19.804  25.613  1.00  0.00    -0.352 N 
ATOM      5  O   UNL A   1      41.514  18.818  25.765  1.00  0.00    -0.269 OA
ATOM      6  C   UNL A   1      40.814  19.795  25.974  1.00  0.00     0.251 C 
ATOM      7  H   UNL A   1      39.130  18.954  25.267  1.00  0.00     0.163 HD
BRANCH   6   8
ATOM      8  C   UNL A   1      41.384  21.013  26.581  1.00  0.00     0.039 A 
ATOM      9  C   UNL A   1      41.327  21.198  27.964  1.00  0.00     0.014 A 
ATOM     10  C   UNL A   1      41.912  22.002  25.749  1.00  0.00     0.014 A 
ATOM     11  C   UNL A   1      41.652  22.437  28.498  1.00  0.00     0.010 A 
ATOM     12  C   UNL A   1      42.314  23.220  26.300  1.00  0.00     0.010 A 
ATOM     13  C   UNL A   1      42.143  23.462  27.672  1.00  0.00    -0.014 A 
BRANCH  13  14
ATOM     14  C   UNL A   1      42.478  24.774  28.277  1.00  0.00     0.031 A 
ATOM     15  C   UNL A   1      43.897  25.127  28.623  1.00  0.00     0.074 A 
ATOM     16  C   UNL A   1      41.490  25.670  28.460  1.00  0.00     0.049 A 
ATOM     17  N   UNL A   1      44.371  26.246  29.111  1.00  0.00    -0.248 NA
ATOM     18  C   UNL A   1      44.919  24.092  28.401  1.00  0.00     0.031 C 
ATOM     19  C   UNL A   1      40.075  25.434  28.165  1.00  0.00     0.029 A 
ATOM     20  N   UNL A   1      41.527  26.965  28.906  1.00  0.00    -0.354 N 
ATOM     21  C   UNL A   1      45.734  26.040  29.285  1.00  0.00     0.074 A 
ATOM     22  C   UNL A   1      46.011  24.684  28.863  1.00  0.00     0.031 C 
ATOM     23  C   UNL A   1      39.388  26.565  28.381  1.00  0.00     0.029 A 
ATOM     24  C   UNL A   1      40.302  27.585  28.879  1.00  0.00     0.049 A 
ATOM     25  H   UNL A   1      42.351  27.407  29.215  1.00  0.00     0.167 HD
ATOM     26  C   UNL A   1      46.667  26.906  29.747  1.00  0.00     0.037 A 
ATOM     27  C   UNL A   1      39.954  28.839  29.219  1.00  0.00     0.037 A 
ATOM     28  C   UNL A   1      46.390  28.267  30.132  1.00  0.00     0.049 A 
ATOM     29  C   UNL A   1      41.010  29.781  29.713  1.00  0.00     0.074 A 
ATOM     30  C   UNL A   1      47.274  29.234  30.579  1.00  0.00     0.029 A 
ATOM     31  N   UNL A   1      45.134  28.854  30.111  1.00  0.00    -0.354 N 
ATOM     32  N   UNL A   1      42.298  29.578  29.851  1.00  0.00    -0.248 NA
ATOM     33  C   UNL A   1      40.566  31.126  30.101  1.00  0.00     0.031 C 
ATOM     34  C   UNL A   1      46.547  30.398  30.859  1.00  0.00     0.029 A 
ATOM     35  C   UNL A   1      45.216  30.165  30.549  1.00  0.00     0.049 A 
ATOM     36  H   UNL A   1      44.305  28.405  29.826  1.00  0.00     0.167 HD
ATOM     37  C   UNL A   1      42.821  30.773  30.325  1.00  0.00     0.074 A 
ATOM     38  C   UNL A   1      41.713  31.700  30.433  1.00  0.00     0.031 C 
ATOM     39  C   UNL A   1      44.102  31.074  30.644  1.00  0.00     0.037 A 
BRANCH  26  40
ATOM     40  C   UNL A   1      48.074  26.406  29.882  1.00  0.00     0.057 A 
ATOM     41  C   UNL A   1      48.527  25.761  31.038  1.00  0.00     0.134 A 
ATOM     42  C   UNL A   1      48.979  26.535  28.819  1.00  0.00     0.134 A 
ATOM     43  F   UNL A   1      47.716  25.616  32.098  1.00  0.00    -0.206 F 
ATOM     44  C   UNL A   1      49.833  25.278  31.142  1.00  0.00     0.040 A 
ATOM     45  C   UNL A   1      50.280  26.038  28.902  1.00  0.00     0.040 A 
ATOM     46  F   UNL A   1      48.609  27.138  27.680  1.00  0.00    -0.206 F 
ATOM     47  C   UNL A   1      50.713  25.411  30.068  1.00  0.00     0.006 A 
ENDBRANCH  26  40
BRANCH  27  48
ATOM     48  C   UNL A   1      38.542  29.271  29.084  1.00  0.00     0.057 A 
ATOM     49  C   UNL A   1      38.029  29.679  27.849  1.00  0.00     0.134 A 
ATOM     50  C   UNL A   1      37.671  29.267  30.179  1.00  0.00     0.134 A 
ATOM     51  F   UNL A   1      38.821  29.718  26.766  1.00  0.00    -0.206 F 
ATOM     52  C   UNL A   1      36.699  30.077  27.707  1.00  0.00     0.040 A 
ATOM     53  C   UNL A   1      36.333  29.639  30.047  1.00  0.00     0.040 A 
ATOM     54  F   UNL A   1      38.102  28.877  31.386  1.00  0.00    -0.206 F 
ATOM     55  C   UNL A   1      35.846  30.051  28.808  1.00  0.00     0.006 A 
ENDBRANCH  27  48
BRANCH  39  56
ATOM     56  C   UNL A   1      44.372  32.473  31.111  1.00  0.00     0.057 A 
ATOM     57  C   UNL A   1      44.665  33.506  30.213  1.00  0.00     0.134 A 
ATOM     58  C   UNL A   1      44.326  32.788  32.474  1.00  0.00     0.134 A 
ATOM     59  F   UNL A   1      44.739  33.262  28.896  1.00  0.00    -0.206 F 
ATOM     60  C   UNL A   1      44.929  34.802  30.657  1.00  0.00     0.040 A 
ATOM     61  C   UNL A   1      44.566  34.086  32.929  1.00  0.00     0.040 A 
ATOM     62  F   UNL A   1      44.045  31.844  33.383  1.00  0.00    -0.206 F 
ATOM     63  C   UNL A   1      44.875  35.095  32.019  1.00  0.00     0.006 A 
ENDBRANCH  39  56
ENDBRANCH  13  14
ENDBRANCH   6   8
ENDBRANCH   3   4
ENDBRANCH   2   3
ENDBRANCH   1   2
BRANCH   1  64
ATOM     64  C   UNL A   1      35.707  22.098  26.062  1.00  0.00     0.116 C 
BRANCH  64  65
ATOM     65  N   UNL A   1      34.701  21.836  27.069  1.00  0.00    -0.354 N 
ATOM     66  C   UNL A   1      33.364  22.118  27.098  1.00  0.00     0.245 C 
ATOM     67  H   UNL A   1      35.037  21.375  27.870  1.00  0.00     0.163 HD
ATOM     68  O   UNL A   1      32.929  22.491  28.193  1.00  0.00    -0.272 OA
BRANCH  66  69
ATOM     69  C   UNL A   1      32.402  21.829  25.888  1.00  0.00     0.119 C 
ATOM     70  C   UNL A   1      32.770  22.936  24.846  1.00  0.00     0.038 C 
ATOM     71  C   UNL A   1      32.619  20.432  25.261  1.00  0.00     0.038 C 
ATOM     72  C   UNL A   1      32.252  22.706  23.431  1.00  0.00     0.003 C 
ATOM     73  C   UNL A   1      32.165  20.257  23.812  1.00  0.00     0.003 C 
ATOM     74  C   UNL A   1      32.703  21.353  22.912  1.00  0.00     0.000 C 
BRANCH  69  75
ATOM     75  N   UNL A   1      30.952  22.017  26.209  1.00  0.00    -0.335 N 
ATOM     76  C   UNL A   1      30.328  23.088  26.811  1.00  0.00     0.289 C 
ATOM     77  H   UNL A   1      30.363  21.272  25.954  1.00  0.00     0.165 HD
ATOM     78  O   UNL A   1      29.577  22.855  27.760  1.00  0.00    -0.266 OA
BRANCH  76  79
ATOM     79  C   UNL A   1      30.516  24.423  26.301  1.00  0.00     0.214 A 
ATOM     80  N   UNL A   1      31.353  25.344  26.738  1.00  0.00    -0.207 NA
ATOM     81  N   UNL A   1      29.866  24.923  25.212  1.00  0.00    -0.255 N 
ATOM     82  C   UNL A   1      31.043  26.448  25.986  1.00  0.00     0.154 A 
ATOM     83  N   UNL A   1      30.103  26.238  25.057  1.00  0.00    -0.158 NA
ATOM     84  H   UNL A   1      29.293  24.389  24.615  1.00  0.00     0.192 HD
BRANCH  82  85
ATOM     85  C   UNL A   1      31.627  27.831  26.237  1.00  0.00     0.060 C 
ATOM     86  C   UNL A   1      31.612  28.379  27.652  1.00  0.00     0.012 C 
ATOM     87  C   UNL A   1      32.905  27.977  27.033  1.00  0.00     0.012 C 
ENDBRANCH  82  85
ENDBRANCH  76  79
ENDBRANCH  69  75
ENDBRANCH  66  69
ENDBRANCH  64  65
ENDBRANCH   1  64
TORSDOF 14
ENDMDL
MODEL 2
REMARK VINA RESULT:     -12.4      1.217      3.186
REMARK SMILES O=C(NCCCCNC(=O)C1(NC(=O)c2nc(C3CC3)n[nH]2)CCCCC1)c1ccc(-c2c3nc(c(-c4c(F)cccc4F)c4ccc([nH]4)c(-c4c(F)cccc4F)c4nc(c(-c5c(F)cccc5F)c5ccc2[nH]5)C=C4)C=C3)cc1
REMARK SMILES IDX 6 1 5 2 4 3 3 4 1 5 2 6 28 8 29 9 81 10 30 11 80 12 31 13
REMARK SMILES IDX 32 14 33 15 74 16 34 17 79 18 73 19 75 20 35 21 78 22 72 23
REMARK SMILES IDX 71 24 36 26 62 27 45 28 61 29 46 30 49 31 60 32 76 33 47 34
REMARK SMILES IDX 48 35 59 37 77 38 50 39 37 40 38 41 43 42 39 43 40 44 42 45
REMARK SMILES IDX 44 46 41 47 63 48 64 49 69 50 65 51 66 52 68 53 70 54 67 55
REMARK SMILES IDX 51 56 52 57 57 58 53 59 54 60 56 61 58 62 55 63 7 64 8 65
REMARK SMILES IDX 9 66 10 68 11 69 23 70 27 71 24 72 26 73 25 74 12 75 13 76
REMARK SMILES IDX 14 78 15 79 16 80 22 81 17 82 21 83 18 85 19 86 20 87
REMARK H PARENT 3 7 75 25 49 36 8 67 12 77 22 84
REMARK Flexibility Score: inf
ROOT
ATOM      1  C   UNL A   1      37.005  21.901  23.951  1.00  0.00     0.023 C 
ENDROOT
BRANCH   1   2
ATOM      2  C   UNL A   1      37.349  20.707  24.848  1.00  0.00     0.023 C 
BRANCH   2   3
ATOM      3  C   UNL A   1      38.581  20.907  25.724  1.00  0.00     0.116 C 
BRANCH   3   4
ATOM      4  N   UNL A   1      39.534  19.811  25.631  1.00  0.00    -0.352 N 
ATOM      5  O   UNL A   1      41.572  18.838  25.734  1.00  0.00    -0.269 OA
ATOM      6  C   UNL A   1      40.869  19.809  25.965  1.00  0.00     0.251 C 
ATOM      7  H   UNL A   1      39.178  18.960  25.284  1.00  0.00     0.163 HD
BRANCH   6   8
ATOM      8  C   UNL A   1      41.442  21.026  26.572  1.00  0.00     0.039 A 
ATOM      9  C   UNL A   1      41.393  21.208  27.955  1.00  0.00     0.014 A 
ATOM     10  C   UNL A   1      41.965  22.017  25.739  1.00  0.00     0.014 A 
ATOM     11  C   UNL A   1      41.720  22.445  28.490  1.00  0.00     0.010 A 
ATOM     12  C   UNL A   1      42.370  23.233  26.290  1.00  0.00     0.010 A 
ATOM     13  C   UNL A   1      42.206  23.472  27.663  1.00  0.00    -0.014 A 
BRANCH  13  14
ATOM     14  C   UNL A   1      42.544  24.783  28.269  1.00  0.00     0.031 A 
ATOM     15  C   UNL A   1      43.965  25.136  28.608  1.00  0.00     0.074 A 
ATOM     16  C   UNL A   1      41.557  25.678  28.460  1.00  0.00     0.049 A 
ATOM     17  N   UNL A   1      44.441  26.254  29.096  1.00  0.00    -0.248 NA
ATOM     18  C   UNL A   1      44.986  24.102  28.378  1.00  0.00     0.031 C 
ATOM     19  C   UNL A   1      40.140  25.442  28.173  1.00  0.00     0.029 A 
ATOM     20  N   UNL A   1      41.596  26.972  28.909  1.00  0.00    -0.354 N 
ATOM     21  C   UNL A   1      45.805  26.048  29.261  1.00  0.00     0.074 A 
ATOM     22  C   UNL A   1      46.081  24.693  28.835  1.00  0.00     0.031 C 
ATOM     23  C   UNL A   1      39.454  26.572  28.395  1.00  0.00     0.029 A 
ATOM     24  C   UNL A   1      40.371  27.592  28.890  1.00  0.00     0.049 A 
ATOM     25  H   UNL A   1      42.421  27.414  29.214  1.00  0.00     0.167 HD
ATOM     26  C   UNL A   1      46.740  26.914  29.720  1.00  0.00     0.037 A 
ATOM     27  C   UNL A   1      40.024  28.845  29.235  1.00  0.00     0.037 A 
ATOM     28  C   UNL A   1      46.465  28.274  30.110  1.00  0.00     0.049 A 
ATOM     29  C   UNL A   1      41.083  29.786  29.725  1.00  0.00     0.074 A 
ATOM     30  C   UNL A   1      47.351  29.241  30.553  1.00  0.00     0.029 A 
ATOM     31  N   UNL A   1      45.209  28.860  30.097  1.00  0.00    -0.354 N 
ATOM     32  N   UNL A   1      42.371  29.584  29.855  1.00  0.00    -0.248 NA
ATOM     33  C   UNL A   1      40.640  31.130  30.118  1.00  0.00     0.031 C 
ATOM     34  C   UNL A   1      46.625  30.403  30.840  1.00  0.00     0.029 A 
ATOM     35  C   UNL A   1      45.293  30.171  30.538  1.00  0.00     0.049 A 
ATOM     36  H   UNL A   1      44.379  28.411  29.816  1.00  0.00     0.167 HD
ATOM     37  C   UNL A   1      42.896  30.778  30.329  1.00  0.00     0.074 A 
ATOM     38  C   UNL A   1      41.789  31.704  30.445  1.00  0.00     0.031 C 
ATOM     39  C   UNL A   1      44.179  31.079  30.641  1.00  0.00     0.037 A 
BRANCH  26  40
ATOM     40  C   UNL A   1      48.149  26.414  29.846  1.00  0.00     0.057 A 
ATOM     41  C   UNL A   1      49.081  26.548  28.810  1.00  0.00     0.134 A 
ATOM     42  C   UNL A   1      48.590  25.825  31.038  1.00  0.00     0.134 A 
ATOM     43  F   UNL A   1      48.720  27.091  27.637  1.00  0.00    -0.206 F 
ATOM     44  C   UNL A   1      50.396  26.100  28.948  1.00  0.00     0.040 A 
ATOM     45  C   UNL A   1      49.907  25.392  31.197  1.00  0.00     0.040 A 
ATOM     46  F   UNL A   1      47.750  25.670  32.073  1.00  0.00    -0.206 F 
ATOM     47  C   UNL A   1      50.814  25.525  30.147  1.00  0.00     0.006 A 
ENDBRANCH  26  40
BRANCH  27  48
ATOM     48  C   UNL A   1      38.611  29.277  29.109  1.00  0.00     0.057 A 
ATOM     49  C   UNL A   1      38.092  29.693  27.879  1.00  0.00     0.134 A 
ATOM     50  C   UNL A   1      37.744  29.264  30.208  1.00  0.00     0.134 A 
ATOM     51  F   UNL A   1      38.880  29.740  26.794  1.00  0.00    -0.206 F 
ATOM     52  C   UNL A   1      36.762  30.090  27.745  1.00  0.00     0.040 A 
ATOM     53  C   UNL A   1      36.406  29.636  30.084  1.00  0.00     0.040 A 
ATOM     54  F   UNL A   1      38.182  28.866  31.410  1.00  0.00    -0.206 F 
ATOM     55  C   UNL A   1      35.913  30.057  28.851  1.00  0.00     0.006 A 
ENDBRANCH  27  48
BRANCH  39  56
ATOM     56  C   UNL A   1      44.451  32.476  31.109  1.00  0.00     0.057 A 
ATOM     57  C   UNL A   1      44.735  33.512  30.212  1.00  0.00     0.134 A 
ATOM     58  C   UNL A   1      44.416  32.789  32.473  1.00  0.00     0.134 A 
ATOM     59  F   UNL A   1      44.798  33.272  28.893  1.00  0.00    -0.206 F 
ATOM     60  C   UNL A   1      45.001  34.807  30.657  1.00  0.00     0.040 A 
ATOM     61  C   UNL A   1      44.658  34.085  32.930  1.00  0.00     0.040 A 
ATOM     62  F   UNL A   1      44.144  31.841  33.383  1.00  0.00    -0.206 F 
ATOM     63  C   UNL A   1      44.958  35.097  32.020  1.00  0.00     0.006 A 
ENDBRANCH  39  56
ENDBRANCH  13  14
ENDBRANCH   6   8
ENDBRANCH   3   4
ENDBRANCH   2   3
ENDBRANCH   1   2
BRANCH   1  64
ATOM     64  C   UNL A   1      36.222  22.997  24.675  1.00  0.00     0.116 C 
BRANCH  64  65
ATOM     65  N   UNL A   1      35.245  23.568  23.773  1.00  0.00    -0.354 N 
ATOM     66  C   UNL A   1      33.908  23.805  23.929  1.00  0.00     0.245 C 
ATOM     67  H   UNL A   1      35.605  23.832  22.896  1.00  0.00     0.163 HD
ATOM     68  O   UNL A   1      33.212  23.571  22.935  1.00  0.00    -0.272 OA
BRANCH  66  69
ATOM     69  C   UNL A   1      33.305  24.489  25.210  1.00  0.00     0.119 C 
ATOM     70  C   UNL A   1      34.071  25.850  25.302  1.00  0.00     0.038 C 
ATOM     71  C   UNL A   1      31.786  24.754  25.099  1.00  0.00     0.038 C 
ATOM     72  C   UNL A   1      33.461  26.886  26.239  1.00  0.00     0.003 C 
ATOM     73  C   UNL A   1      31.218  25.857  25.992  1.00  0.00     0.003 C 
ATOM     74  C   UNL A   1      32.011  27.146  25.876  1.00  0.00     0.000 C 
BRANCH  69  75
ATOM     75  N   UNL A   1      33.596  23.755  26.483  1.00  0.00    -0.335 N 
ATOM     76  C   UNL A   1      33.024  22.600  26.969  1.00  0.00     0.289 C 
ATOM     77  H   UNL A   1      34.294  24.154  27.050  1.00  0.00     0.165 HD
ATOM     78  O   UNL A   1      32.611  22.608  28.129  1.00  0.00    -0.266 OA
BRANCH  76  79
ATOM     79  C   UNL A   1      32.969  21.413  26.152  1.00  0.00     0.214 A 
ATOM     80  N   UNL A   1      33.929  20.531  25.944  1.00  0.00    -0.207 NA
ATOM     81  N   UNL A   1      31.853  20.988  25.495  1.00  0.00    -0.255 N 
ATOM     82  C   UNL A   1      33.392  19.682  25.010  1.00  0.00     0.154 A 
ATOM     83  N   UNL A   1      32.123  19.954  24.679  1.00  0.00    -0.158 NA
ATOM     84  H   UNL A   1      30.960  21.390  25.603  1.00  0.00     0.192 HD
BRANCH  82  85
ATOM     85  C   UNL A   1      34.183  18.584  24.315  1.00  0.00     0.060 C 
ATOM     86  C   UNL A   1      34.109  17.173  24.872  1.00  0.00     0.012 C 
ATOM     87  C   UNL A   1      33.454  17.485  23.571  1.00  0.00     0.012 C 
ENDBRANCH  82  85
ENDBRANCH  76  79
ENDBRANCH  69  75
ENDBRANCH  66  69
ENDBRANCH  64  65
ENDBRANCH   1  64
TORSDOF 14
ENDMDL
MODEL 3
REMARK VINA RESULT:     -12.4      0.371      6.311
REMARK SMILES O=C(NCCCCNC(=O)C1(NC(=O)c2nc(C3CC3)n[nH]2)CCCCC1)c1ccc(-c2c3nc(c(-c4c(F)cccc4F)c4ccc([nH]4)c(-c4c(F)cccc4F)c4nc(c(-c5c(F)cccc5F)c5ccc2[nH]5)C=C4)C=C3)cc1
REMARK SMILES IDX 6 1 5 2 4 3 3 4 1 5 2 6 28 8 29 9 81 10 30 11 80 12 31 13
REMARK SMILES IDX 32 14 33 15 74 16 34 17 79 18 73 19 75 20 35 21 78 22 72 23
REMARK SMILES IDX 71 24 36 26 62 27 45 28 61 29 46 30 49 31 60 32 76 33 47 34
REMARK SMILES IDX 48 35 59 37 77 38 50 39 37 40 38 41 43 42 39 43 40 44 42 45
REMARK SMILES IDX 44 46 41 47 63 48 64 49 69 50 65 51 66 52 68 53 70 54 67 55
REMARK SMILES IDX 51 56 52 57 57 58 53 59 54 60 56 61 58 62 55 63 7 64 8 65
REMARK SMILES IDX 9 66 10 68 11 69 23 70 27 71 24 72 26 73 25 74 12 75 13 76
REMARK SMILES IDX 14 78 15 79 16 80 22 81 17 82 21 83 18 85 19 86 20 87
REMARK H PARENT 3 7 75 25 49 36 8 67 12 77 22 84
REMARK Flexibility Score: inf
ROOT
ATOM      1  C   UNL A   1      36.040  20.791  25.357  1.00  0.00     0.023 C 
ENDROOT
BRANCH   1   2
ATOM      2  C   UNL A   1      37.431  20.803  24.714  1.00  0.00     0.023 C 
BRANCH   2   3
ATOM      3  C   UNL A   1      38.583  20.948  25.701  1.00  0.00     0.116 C 
BRANCH   3   4
ATOM      4  N   UNL A   1      39.516  19.832  25.662  1.00  0.00    -0.352 N 
ATOM      5  O   UNL A   1      41.534  18.826  25.822  1.00  0.00    -0.269 OA
ATOM      6  C   UNL A   1      40.848  19.818  26.007  1.00  0.00     0.251 C 
ATOM      7  H   UNL A   1      39.146  18.974  25.347  1.00  0.00     0.163 HD
BRANCH   6   8
ATOM      8  C   UNL A   1      41.440  21.048  26.568  1.00  0.00     0.039 A 
ATOM      9  C   UNL A   1      41.385  21.287  27.942  1.00  0.00     0.014 A 
ATOM     10  C   UNL A   1      41.987  21.994  25.699  1.00  0.00     0.014 A 
ATOM     11  C   UNL A   1      41.732  22.540  28.428  1.00  0.00     0.010 A 
ATOM     12  C   UNL A   1      42.411  23.225  26.203  1.00  0.00     0.010 A 
ATOM     13  C   UNL A   1      42.243  23.523  27.564  1.00  0.00    -0.014 A 
BRANCH  13  14
ATOM     14  C   UNL A   1      42.601  24.851  28.118  1.00  0.00     0.031 A 
ATOM     15  C   UNL A   1      41.549  25.894  28.370  1.00  0.00     0.074 A 
ATOM     16  C   UNL A   1      43.885  25.087  28.447  1.00  0.00     0.049 A 
ATOM     17  N   UNL A   1      41.681  27.086  28.894  1.00  0.00    -0.248 NA
ATOM     18  C   UNL A   1      40.169  25.564  27.977  1.00  0.00     0.031 C 
ATOM     19  C   UNL A   1      44.992  24.150  28.241  1.00  0.00     0.029 A 
ATOM     20  N   UNL A   1      44.471  26.170  29.048  1.00  0.00    -0.354 N 
ATOM     21  C   UNL A   1      40.415  27.659  28.865  1.00  0.00     0.074 A 
ATOM     22  C   UNL A   1      39.529  26.689  28.259  1.00  0.00     0.031 C 
ATOM     23  C   UNL A   1      46.110  24.673  28.764  1.00  0.00     0.029 A 
ATOM     24  C   UNL A   1      45.812  26.000  29.289  1.00  0.00     0.049 A 
ATOM     25  H   UNL A   1      43.978  26.989  29.285  1.00  0.00     0.167 HD
ATOM     26  C   UNL A   1      40.029  28.878  29.311  1.00  0.00     0.037 A 
ATOM     27  C   UNL A   1      46.704  26.823  29.868  1.00  0.00     0.037 A 
ATOM     28  C   UNL A   1      40.910  29.825  29.946  1.00  0.00     0.049 A 
ATOM     29  C   UNL A   1      46.245  28.161  30.366  1.00  0.00     0.074 A 
ATOM     30  C   UNL A   1      40.606  31.073  30.465  1.00  0.00     0.029 A 
ATOM     31  N   UNL A   1      42.266  29.627  30.154  1.00  0.00    -0.354 N 
ATOM     32  N   UNL A   1      45.041  28.679  30.350  1.00  0.00    -0.248 NA
ATOM     33  C   UNL A   1      47.269  29.030  30.959  1.00  0.00     0.031 C 
ATOM     34  C   UNL A   1      41.787  31.642  30.957  1.00  0.00     0.029 A 
ATOM     35  C   UNL A   1      42.817  30.733  30.780  1.00  0.00     0.049 A 
ATOM     36  H   UNL A   1      42.765  28.818  29.895  1.00  0.00     0.167 HD
ATOM     37  C   UNL A   1      45.158  29.927  30.946  1.00  0.00     0.074 A 
ATOM     38  C   UNL A   1      46.547  30.079  31.328  1.00  0.00     0.031 C 
ATOM     39  C   UNL A   1      44.202  30.863  31.156  1.00  0.00     0.037 A 
BRANCH  26  40
ATOM     40  C   UNL A   1      38.595  29.270  29.111  1.00  0.00     0.057 A 
ATOM     41  C   UNL A   1      38.099  29.665  27.863  1.00  0.00     0.134 A 
ATOM     42  C   UNL A   1      37.687  29.211  30.177  1.00  0.00     0.134 A 
ATOM     43  F   UNL A   1      38.918  29.756  26.804  1.00  0.00    -0.206 F 
ATOM     44  C   UNL A   1      36.756  30.004  27.685  1.00  0.00     0.040 A 
ATOM     45  C   UNL A   1      36.339  29.527  30.007  1.00  0.00     0.040 A 
ATOM     46  F   UNL A   1      38.095  28.835  31.398  1.00  0.00    -0.206 F 
ATOM     47  C   UNL A   1      35.870  29.929  28.758  1.00  0.00     0.006 A 
ENDBRANCH  26  40
BRANCH  27  48
ATOM     48  C   UNL A   1      48.113  26.390  30.020  1.00  0.00     0.057 A 
ATOM     49  C   UNL A   1      48.547  25.747  31.184  1.00  0.00     0.134 A 
ATOM     50  C   UNL A   1      49.051  26.587  29.000  1.00  0.00     0.134 A 
ATOM     51  F   UNL A   1      47.697  25.543  32.201  1.00  0.00    -0.206 F 
ATOM     52  C   UNL A   1      49.868  25.324  31.334  1.00  0.00     0.040 A 
ATOM     53  C   UNL A   1      50.368  26.148  29.126  1.00  0.00     0.040 A 
ATOM     54  F   UNL A   1      48.691  27.188  27.857  1.00  0.00    -0.206 F 
ATOM     55  C   UNL A   1      50.782  25.520  30.299  1.00  0.00     0.006 A 
ENDBRANCH  27  48
BRANCH  39  56
ATOM     56  C   UNL A   1      44.627  32.118  31.856  1.00  0.00     0.057 A 
ATOM     57  C   UNL A   1      44.590  32.234  33.251  1.00  0.00     0.134 A 
ATOM     58  C   UNL A   1      45.088  33.218  31.124  1.00  0.00     0.134 A 
ATOM     59  F   UNL A   1      44.141  31.219  34.005  1.00  0.00    -0.206 F 
ATOM     60  C   UNL A   1      44.973  33.411  33.893  1.00  0.00     0.040 A 
ATOM     61  C   UNL A   1      45.497  34.394  31.756  1.00  0.00     0.040 A 
ATOM     62  F   UNL A   1      45.154  33.168  29.785  1.00  0.00    -0.206 F 
ATOM     63  C   UNL A   1      45.433  34.494  33.145  1.00  0.00     0.006 A 
ENDBRANCH  39  56
ENDBRANCH  13  14
ENDBRANCH   6   8
ENDBRANCH   3   4
ENDBRANCH   2   3
ENDBRANCH   1   2
BRANCH   1  64
ATOM     64  C   UNL A   1      35.712  22.077  26.116  1.00  0.00     0.116 C 
BRANCH  64  65
ATOM     65  N   UNL A   1      34.687  21.808  27.101  1.00  0.00    -0.354 N 
ATOM     66  C   UNL A   1      33.354  22.110  27.116  1.00  0.00     0.245 C 
ATOM     67  H   UNL A   1      35.004  21.325  27.898  1.00  0.00     0.163 HD
ATOM     68  O   UNL A   1      32.907  22.465  28.212  1.00  0.00    -0.272 OA
BRANCH  66  69
ATOM     69  C   UNL A   1      32.407  21.861  25.885  1.00  0.00     0.119 C 
ATOM     70  C   UNL A   1      32.795  22.996  24.881  1.00  0.00     0.038 C 
ATOM     71  C   UNL A   1      32.625  20.482  25.221  1.00  0.00     0.038 C 
ATOM     72  C   UNL A   1      32.295  22.809  23.453  1.00  0.00     0.003 C 
ATOM     73  C   UNL A   1      32.190  20.351  23.761  1.00  0.00     0.003 C 
ATOM     74  C   UNL A   1      32.746  21.470  22.901  1.00  0.00     0.000 C 
BRANCH  69  75
ATOM     75  N   UNL A   1      30.954  22.048  26.192  1.00  0.00    -0.335 N 
ATOM     76  C   UNL A   1      30.322  23.120  26.784  1.00  0.00     0.289 C 
ATOM     77  H   UNL A   1      30.368  21.300  25.934  1.00  0.00     0.165 HD
ATOM     78  O   UNL A   1      29.563  22.890  27.727  1.00  0.00    -0.266 OA
BRANCH  76  79
ATOM     79  C   UNL A   1      30.512  24.453  26.270  1.00  0.00     0.214 A 
ATOM     80  N   UNL A   1      31.336  25.381  26.719  1.00  0.00    -0.207 NA
ATOM     81  N   UNL A   1      29.881  24.944  25.166  1.00  0.00    -0.255 N 
ATOM     82  C   UNL A   1      31.034  26.480  25.954  1.00  0.00     0.154 A 
ATOM     83  N   UNL A   1      30.113  26.259  25.008  1.00  0.00    -0.158 NA
ATOM     84  H   UNL A   1      29.323  24.403  24.561  1.00  0.00     0.192 HD
BRANCH  82  85
ATOM     85  C   UNL A   1      31.605  27.868  26.208  1.00  0.00     0.060 C 
ATOM     86  C   UNL A   1      31.641  28.386  27.635  1.00  0.00     0.012 C 
ATOM     87  C   UNL A   1      32.913  28.019  26.953  1.00  0.00     0.012 C 
ENDBRANCH  82  85
ENDBRANCH  76  79
ENDBRANCH  69  75
ENDBRANCH  66  69
ENDBRANCH  64  65
ENDBRANCH   1  64
TORSDOF 14
ENDMDL
