MODEL 1
REMARK VINA RESULT:     -11.2      0.000      0.000
REMARK SMILES CC(C)C[C@H](NC(=O)CNC(=O)[C@@H](NC(=O)OCc1ccccc1)C(C)C)C(=O)N[C@@H](C)C(=O)NCCCCNC(=O)c1ccc(-c2c3nc(c(-c4c(F)cccc4F)c4ccc([nH]4)c(-c4c(F)cccc4F)c4nc(c(-c5c(F)cccc5F)c5ccc2[nH]5)C=C4)C=C3)cc1
REMARK SMILES IDX 31 1 32 2 30 3 28 4 29 5 5 7 4 8 2 9 1 10 3 11 6 12 7 13
REMARK SMILES IDX 8 15 9 16 10 17 11 18 12 20 13 21 14 22 15 23 16 25 17 26
REMARK SMILES IDX 18 27 19 28 20 29 24 30 21 31 23 32 22 33 25 34 26 35 27 36
REMARK SMILES IDX 33 37 34 38 35 39 36 41 37 42 38 43 39 44 40 45 41 46 42 48
REMARK SMILES IDX 43 49 44 50 96 51 45 52 95 53 46 54 47 55 48 56 89 57 49 58
REMARK SMILES IDX 94 59 88 60 90 61 50 62 93 63 87 64 86 65 51 67 77 68 60 69
REMARK SMILES IDX 76 70 61 71 64 72 75 73 91 74 62 75 63 76 74 78 92 79 65 80
REMARK SMILES IDX 52 81 53 82 58 83 54 84 55 85 57 86 59 87 56 88 78 89 79 90
REMARK SMILES IDX 84 91 80 92 81 93 83 94 85 95 82 96 66 97 67 98 72 99 68 100
REMARK SMILES IDX 69 101 71 102 73 103 70 104
REMARK H PARENT 30 6 6 14 10 19 14 24 35 40 40 47 90 66 64 77
REMARK Flexibility Score: inf
ROOT
ATOM      1  C   UNL A   1      30.583  28.646  23.327  1.00  0.00     0.168 C 
ATOM      2  C   UNL A   1      31.169  28.786  21.932  1.00  0.00     0.041 C 
ENDROOT
BRANCH   1   3
ATOM      3  N   UNL A   1      29.530  27.628  23.344  1.00  0.00    -0.343 N 
ATOM      4  C   UNL A   1      29.346  26.586  24.198  1.00  0.00     0.243 C 
ATOM      5  O   UNL A   1      28.238  26.046  24.205  1.00  0.00    -0.273 OA
ATOM      6  H   UNL A   1      28.856  27.710  22.631  1.00  0.00     0.164 HD
BRANCH   4   7
ATOM      7  C   UNL A   1      30.448  26.182  25.188  1.00  0.00     0.171 C 
BRANCH   7   8
ATOM      8  C   UNL A   1      31.649  25.575  24.458  1.00  0.00     0.038 C 
BRANCH   8   9
ATOM      9  C   UNL A   1      33.008  26.297  24.544  1.00  0.00    -0.015 C 
ATOM     10  C   UNL A   1      33.951  25.690  25.584  1.00  0.00     0.007 C 
ATOM     11  C   UNL A   1      33.678  26.225  23.165  1.00  0.00     0.007 C 
ENDBRANCH   8   9
ENDBRANCH   7   8
BRANCH   7  12
ATOM     12  N   UNL A   1      29.860  25.309  26.221  1.00  0.00    -0.343 N 
ATOM     13  C   UNL A   1      29.897  23.995  26.538  1.00  0.00     0.240 C 
ATOM     14  H   UNL A   1      29.289  25.816  26.843  1.00  0.00     0.164 HD
ATOM     15  O   UNL A   1      29.342  23.697  27.606  1.00  0.00    -0.273 OA
BRANCH  13  16
ATOM     16  C   UNL A   1      30.669  22.906  25.778  1.00  0.00     0.216 C 
BRANCH  16  17
ATOM     17  N   UNL A   1      31.792  22.269  26.428  1.00  0.00    -0.345 N 
ATOM     18  C   UNL A   1      32.641  21.277  26.064  1.00  0.00     0.243 C 
ATOM     19  H   UNL A   1      31.979  22.631  27.325  1.00  0.00     0.164 HD
ATOM     20  O   UNL A   1      33.609  21.111  26.818  1.00  0.00    -0.273 OA
BRANCH  18  21
ATOM     21  C   UNL A   1      32.490  20.377  24.800  1.00  0.00     0.177 C 
BRANCH  21  22
ATOM     22  N   UNL A   1      32.658  21.084  23.531  1.00  0.00    -0.309 N 
ATOM     23  C   UNL A   1      33.257  22.255  23.183  1.00  0.00     0.408 C 
ATOM     24  H   UNL A   1      32.251  20.615  22.767  1.00  0.00     0.167 HD
ATOM     25  O   UNL A   1      33.005  22.785  22.116  1.00  0.00    -0.225 OA
BRANCH  23  26
ATOM     26  O   UNL A   1      34.167  22.693  24.075  1.00  0.00    -0.445 OA
BRANCH  26  27
ATOM     27  C   UNL A   1      35.479  22.904  23.535  1.00  0.00     0.270 C 
BRANCH  27  28
ATOM     28  C   UNL A   1      36.629  22.650  24.498  1.00  0.00    -0.011 A 
ATOM     29  C   UNL A   1      37.347  21.445  24.556  1.00  0.00     0.007 A 
ATOM     30  C   UNL A   1      37.062  23.707  25.314  1.00  0.00     0.007 A 
ATOM     31  C   UNL A   1      38.465  21.301  25.378  1.00  0.00     0.000 A 
ATOM     32  C   UNL A   1      38.173  23.561  26.148  1.00  0.00     0.000 A 
ATOM     33  C   UNL A   1      38.879  22.360  26.175  1.00  0.00     0.000 A 
ENDBRANCH  27  28
ENDBRANCH  26  27
ENDBRANCH  23  26
ENDBRANCH  21  22
BRANCH  21  34
ATOM     34  C   UNL A   1      33.172  19.003  24.925  1.00  0.00     0.015 C 
ATOM     35  C   UNL A   1      32.575  17.983  23.944  1.00  0.00     0.010 C 
ATOM     36  C   UNL A   1      34.676  19.097  24.621  1.00  0.00     0.010 C 
ENDBRANCH  21  34
ENDBRANCH  18  21
ENDBRANCH  16  17
ENDBRANCH  13  16
ENDBRANCH   7  12
ENDBRANCH   4   7
ENDBRANCH   1   3
BRANCH   1  37
ATOM     37  C   UNL A   1      30.139  30.004  23.902  1.00  0.00     0.242 C 
ATOM     38  O   UNL A   1      29.083  30.527  23.534  1.00  0.00    -0.273 OA
ATOM     39  N   UNL A   1      30.819  30.623  24.902  1.00  0.00    -0.354 N 
ATOM     40  H   UNL A   1      30.454  31.497  25.171  1.00  0.00     0.163 HD
BRANCH  39  41
ATOM     41  C   UNL A   1      31.991  30.204  25.637  1.00  0.00     0.116 C 
BRANCH  41  42
ATOM     42  C   UNL A   1      31.620  29.324  26.825  1.00  0.00     0.023 C 
BRANCH  42  43
ATOM     43  C   UNL A   1      32.822  28.669  27.508  1.00  0.00     0.023 C 
BRANCH  43  44
ATOM     44  C   UNL A   1      34.135  29.432  27.366  1.00  0.00     0.116 C 
BRANCH  44  45
ATOM     45  N   UNL A   1      34.217  30.590  28.246  1.00  0.00    -0.352 N 
ATOM     46  C   UNL A   1      35.255  30.977  29.058  1.00  0.00     0.251 C 
ATOM     47  H   UNL A   1      33.423  31.172  28.263  1.00  0.00     0.163 HD
ATOM     48  O   UNL A   1      35.130  31.913  29.838  1.00  0.00    -0.269 OA
BRANCH  46  49
ATOM     49  C   UNL A   1      36.513  30.211  29.000  1.00  0.00     0.039 A 
ATOM     50  C   UNL A   1      37.266  30.245  27.826  1.00  0.00     0.014 A 
ATOM     51  C   UNL A   1      36.985  29.555  30.139  1.00  0.00     0.014 A 
ATOM     52  C   UNL A   1      38.548  29.696  27.824  1.00  0.00     0.010 A 
ATOM     53  C   UNL A   1      38.287  29.073  30.156  1.00  0.00     0.010 A 
ATOM     54  C   UNL A   1      39.088  29.159  29.005  1.00  0.00    -0.014 A 
BRANCH  54  55
ATOM     55  C   UNL A   1      40.507  28.734  29.079  1.00  0.00     0.031 A 
ATOM     56  C   UNL A   1      41.569  29.717  29.477  1.00  0.00     0.074 A 
ATOM     57  C   UNL A   1      40.843  27.485  28.695  1.00  0.00     0.049 A 
ATOM     58  N   UNL A   1      42.868  29.567  29.490  1.00  0.00    -0.248 NA
ATOM     59  C   UNL A   1      41.115  31.055  29.892  1.00  0.00     0.031 C 
ATOM     60  C   UNL A   1      39.904  26.452  28.249  1.00  0.00     0.029 A 
ATOM     61  N   UNL A   1      42.071  26.877  28.600  1.00  0.00    -0.354 N 
ATOM     62  C   UNL A   1      43.386  30.789  29.896  1.00  0.00     0.074 A 
ATOM     63  C   UNL A   1      42.265  31.684  30.086  1.00  0.00     0.031 C 
ATOM     64  C   UNL A   1      40.588  25.339  27.937  1.00  0.00     0.029 A 
ATOM     65  C   UNL A   1      42.013  25.591  28.112  1.00  0.00     0.049 A 
ATOM     66  H   UNL A   1      42.912  27.319  28.855  1.00  0.00     0.167 HD
ATOM     67  C   UNL A   1      44.680  31.127  30.104  1.00  0.00     0.037 A 
ATOM     68  C   UNL A   1      43.001  24.726  27.815  1.00  0.00     0.037 A 
ATOM     69  C   UNL A   1      45.788  30.224  29.940  1.00  0.00     0.049 A 
ATOM     70  C   UNL A   1      44.430  25.146  28.028  1.00  0.00     0.074 A 
ATOM     71  C   UNL A   1      47.127  30.450  30.209  1.00  0.00     0.029 A 
ATOM     72  N   UNL A   1      45.690  28.929  29.454  1.00  0.00    -0.354 N 
ATOM     73  N   UNL A   1      44.900  26.275  28.503  1.00  0.00    -0.248 NA
ATOM     74  C   UNL A   1      45.470  24.173  27.661  1.00  0.00     0.031 C 
ATOM     75  C   UNL A   1      47.847  29.316  29.827  1.00  0.00     0.029 A 
ATOM     76  C   UNL A   1      46.951  28.360  29.375  1.00  0.00     0.049 A 
ATOM     77  H   UNL A   1      44.851  28.481  29.204  1.00  0.00     0.167 HD
ATOM     78  C   UNL A   1      46.282  26.136  28.517  1.00  0.00     0.074 A 
ATOM     79  C   UNL A   1      46.575  24.806  28.027  1.00  0.00     0.031 C 
ATOM     80  C   UNL A   1      47.225  27.031  28.895  1.00  0.00     0.037 A 
BRANCH  67  81
ATOM     81  C   UNL A   1      44.983  32.532  30.531  1.00  0.00     0.057 A 
ATOM     82  C   UNL A   1      45.124  32.881  31.879  1.00  0.00     0.134 A 
ATOM     83  C   UNL A   1      45.232  33.525  29.575  1.00  0.00     0.134 A 
ATOM     84  F   UNL A   1      44.890  31.979  32.844  1.00  0.00    -0.206 F 
ATOM     85  C   UNL A   1      45.496  34.171  32.262  1.00  0.00     0.040 A 
ATOM     86  C   UNL A   1      45.630  34.811  29.945  1.00  0.00     0.040 A 
ATOM     87  F   UNL A   1      45.120  33.254  28.266  1.00  0.00    -0.206 F 
ATOM     88  C   UNL A   1      45.762  35.136  31.293  1.00  0.00     0.006 A 
ENDBRANCH  67  81
BRANCH  68  89
ATOM     89  C   UNL A   1      42.690  23.381  27.262  1.00  0.00     0.057 A 
ATOM     90  C   UNL A   1      42.369  22.308  28.102  1.00  0.00     0.134 A 
ATOM     91  C   UNL A   1      42.767  23.119  25.888  1.00  0.00     0.134 A 
ATOM     92  F   UNL A   1      42.300  22.488  29.430  1.00  0.00    -0.206 F 
ATOM     93  C   UNL A   1      42.175  21.018  27.604  1.00  0.00     0.040 A 
ATOM     94  C   UNL A   1      42.543  21.842  25.373  1.00  0.00     0.040 A 
ATOM     95  F   UNL A   1      43.063  24.103  25.026  1.00  0.00    -0.206 F 
ATOM     96  C   UNL A   1      42.260  20.784  26.233  1.00  0.00     0.006 A 
ENDBRANCH  68  89
BRANCH  80  97
ATOM     97  C   UNL A   1      48.659  26.593  28.825  1.00  0.00     0.057 A 
ATOM     98  C   UNL A   1      49.274  25.909  29.881  1.00  0.00     0.134 A 
ATOM     99  C   UNL A   1      49.420  26.821  27.671  1.00  0.00     0.134 A 
ATOM    100  F   UNL A   1      48.605  25.671  31.020  1.00  0.00    -0.206 F 
ATOM    101  C   UNL A   1      50.601  25.486  29.801  1.00  0.00     0.040 A 
ATOM    102  C   UNL A   1      50.738  26.376  27.566  1.00  0.00     0.040 A 
ATOM    103  F   UNL A   1      48.888  27.461  26.619  1.00  0.00    -0.206 F 
ATOM    104  C   UNL A   1      51.335  25.712  28.637  1.00  0.00     0.006 A 
ENDBRANCH  80  97
ENDBRANCH  54  55
ENDBRANCH  46  49
ENDBRANCH  44  45
ENDBRANCH  43  44
ENDBRANCH  42  43
ENDBRANCH  41  42
ENDBRANCH  39  41
ENDBRANCH   1  37
TORSDOF 24
ENDMDL
MODEL 2
REMARK VINA RESULT:     -11.1      0.351      5.792
REMARK SMILES CC(C)C[C@H](NC(=O)CNC(=O)[C@@H](NC(=O)OCc1ccccc1)C(C)C)C(=O)N[C@@H](C)C(=O)NCCCCNC(=O)c1ccc(-c2c3nc(c(-c4c(F)cccc4F)c4ccc([nH]4)c(-c4c(F)cccc4F)c4nc(c(-c5c(F)cccc5F)c5ccc2[nH]5)C=C4)C=C3)cc1
REMARK SMILES IDX 31 1 32 2 30 3 28 4 29 5 5 7 4 8 2 9 1 10 3 11 6 12 7 13
REMARK SMILES IDX 8 15 9 16 10 17 11 18 12 20 13 21 14 22 15 23 16 25 17 26
REMARK SMILES IDX 18 27 19 28 20 29 24 30 21 31 23 32 22 33 25 34 26 35 27 36
REMARK SMILES IDX 33 37 34 38 35 39 36 41 37 42 38 43 39 44 40 45 41 46 42 48
REMARK SMILES IDX 43 49 44 50 96 51 45 52 95 53 46 54 47 55 48 56 89 57 49 58
REMARK SMILES IDX 94 59 88 60 90 61 50 62 93 63 87 64 86 65 51 67 77 68 60 69
REMARK SMILES IDX 76 70 61 71 64 72 75 73 91 74 62 75 63 76 74 78 92 79 65 80
REMARK SMILES IDX 52 81 53 82 58 83 54 84 55 85 57 86 59 87 56 88 78 89 79 90
REMARK SMILES IDX 84 91 80 92 81 93 83 94 85 95 82 96 66 97 67 98 72 99 68 100
REMARK SMILES IDX 69 101 71 102 73 103 70 104
REMARK H PARENT 30 6 6 14 10 19 14 24 35 40 40 47 90 66 64 77
REMARK Flexibility Score: inf
ROOT
ATOM      1  C   UNL A   1      30.602  28.740  23.318  1.00  0.00     0.168 C 
ATOM      2  C   UNL A   1      31.086  28.935  21.891  1.00  0.00     0.041 C 
ENDROOT
BRANCH   1   3
ATOM      3  N   UNL A   1      29.516  27.759  23.364  1.00  0.00    -0.343 N 
ATOM      4  C   UNL A   1      29.339  26.701  24.199  1.00  0.00     0.243 C 
ATOM      5  O   UNL A   1      28.213  26.200  24.250  1.00  0.00    -0.273 OA
ATOM      6  H   UNL A   1      28.809  27.884  22.690  1.00  0.00     0.164 HD
BRANCH   4   7
ATOM      7  C   UNL A   1      30.475  26.231  25.119  1.00  0.00     0.171 C 
BRANCH   7   8
ATOM      8  C   UNL A   1      31.620  25.618  24.311  1.00  0.00     0.038 C 
BRANCH   8   9
ATOM      9  C   UNL A   1      32.992  26.320  24.322  1.00  0.00    -0.015 C 
ATOM     10  C   UNL A   1      33.942  25.775  25.389  1.00  0.00     0.007 C 
ATOM     11  C   UNL A   1      33.638  26.135  22.942  1.00  0.00     0.007 C 
ENDBRANCH   8   9
ENDBRANCH   7   8
BRANCH   7  12
ATOM     12  N   UNL A   1      29.912  25.340  26.150  1.00  0.00    -0.343 N 
ATOM     13  C   UNL A   1      29.991  24.027  26.467  1.00  0.00     0.240 C 
ATOM     14  H   UNL A   1      29.323  25.827  26.771  1.00  0.00     0.164 HD
ATOM     15  O   UNL A   1      29.442  23.712  27.533  1.00  0.00    -0.273 OA
BRANCH  13  16
ATOM     16  C   UNL A   1      30.800  22.965  25.710  1.00  0.00     0.216 C 
BRANCH  16  17
ATOM     17  N   UNL A   1      31.891  22.307  26.391  1.00  0.00    -0.345 N 
ATOM     18  C   UNL A   1      32.703  21.269  26.069  1.00  0.00     0.243 C 
ATOM     19  H   UNL A   1      32.086  22.693  27.276  1.00  0.00     0.164 HD
ATOM     20  O   UNL A   1      33.658  21.091  26.837  1.00  0.00    -0.273 OA
BRANCH  18  21
ATOM     21  C   UNL A   1      32.524  20.332  24.837  1.00  0.00     0.177 C 
BRANCH  21  22
ATOM     22  N   UNL A   1      32.690  20.994  23.543  1.00  0.00    -0.309 N 
ATOM     23  C   UNL A   1      33.262  22.167  23.159  1.00  0.00     0.408 C 
ATOM     24  H   UNL A   1      32.308  20.485  22.793  1.00  0.00     0.167 HD
ATOM     25  O   UNL A   1      33.010  22.649  22.069  1.00  0.00    -0.225 OA
BRANCH  23  26
ATOM     26  O   UNL A   1      34.147  22.665  24.046  1.00  0.00    -0.445 OA
BRANCH  26  27
ATOM     27  C   UNL A   1      35.457  22.899  23.514  1.00  0.00     0.270 C 
BRANCH  27  28
ATOM     28  C   UNL A   1      36.606  22.657  24.481  1.00  0.00    -0.011 A 
ATOM     29  C   UNL A   1      37.334  21.457  24.544  1.00  0.00     0.007 A 
ATOM     30  C   UNL A   1      37.028  23.719  25.295  1.00  0.00     0.007 A 
ATOM     31  C   UNL A   1      38.450  21.324  25.371  1.00  0.00     0.000 A 
ATOM     32  C   UNL A   1      38.138  23.584  26.134  1.00  0.00     0.000 A 
ATOM     33  C   UNL A   1      38.853  22.390  26.166  1.00  0.00     0.000 A 
ENDBRANCH  27  28
ENDBRANCH  26  27
ENDBRANCH  23  26
ENDBRANCH  21  22
BRANCH  21  34
ATOM     34  C   UNL A   1      33.185  18.951  25.000  1.00  0.00     0.015 C 
ATOM     35  C   UNL A   1      32.528  17.898  24.095  1.00  0.00     0.010 C 
ATOM     36  C   UNL A   1      34.676  18.999  24.628  1.00  0.00     0.010 C 
ENDBRANCH  21  34
ENDBRANCH  18  21
ENDBRANCH  16  17
ENDBRANCH  13  16
ENDBRANCH   7  12
ENDBRANCH   4   7
ENDBRANCH   1   3
BRANCH   1  37
ATOM     37  C   UNL A   1      30.254  30.080  23.995  1.00  0.00     0.242 C 
ATOM     38  O   UNL A   1      29.219  30.683  23.696  1.00  0.00    -0.273 OA
ATOM     39  N   UNL A   1      30.998  30.592  25.008  1.00  0.00    -0.354 N 
ATOM     40  H   UNL A   1      30.693  31.465  25.345  1.00  0.00     0.163 HD
BRANCH  39  41
ATOM     41  C   UNL A   1      32.167  30.062  25.674  1.00  0.00     0.116 C 
BRANCH  41  42
ATOM     42  C   UNL A   1      31.783  29.196  26.868  1.00  0.00     0.023 C 
BRANCH  42  43
ATOM     43  C   UNL A   1      32.973  28.510  27.542  1.00  0.00     0.023 C 
BRANCH  43  44
ATOM     44  C   UNL A   1      34.293  29.267  27.439  1.00  0.00     0.116 C 
BRANCH  44  45
ATOM     45  N   UNL A   1      34.375  30.392  28.363  1.00  0.00    -0.352 N 
ATOM     46  C   UNL A   1      35.441  30.796  29.127  1.00  0.00     0.251 C 
ATOM     47  H   UNL A   1      33.556  30.932  28.451  1.00  0.00     0.163 HD
ATOM     48  O   UNL A   1      35.320  31.692  29.953  1.00  0.00    -0.269 OA
BRANCH  46  49
ATOM     49  C   UNL A   1      36.727  30.096  28.961  1.00  0.00     0.039 A 
ATOM     50  C   UNL A   1      37.381  30.175  27.731  1.00  0.00     0.014 A 
ATOM     51  C   UNL A   1      37.322  29.460  30.053  1.00  0.00     0.014 A 
ATOM     52  C   UNL A   1      38.685  29.693  27.621  1.00  0.00     0.010 A 
ATOM     53  C   UNL A   1      38.645  29.045  29.960  1.00  0.00     0.010 A 
ATOM     54  C   UNL A   1      39.345  29.178  28.750  1.00  0.00    -0.014 A 
BRANCH  54  55
ATOM     55  C   UNL A   1      40.786  28.827  28.706  1.00  0.00     0.031 A 
ATOM     56  C   UNL A   1      41.213  27.453  28.278  1.00  0.00     0.074 A 
ATOM     57  C   UNL A   1      41.697  29.720  29.142  1.00  0.00     0.049 A 
ATOM     58  N   UNL A   1      42.410  26.924  28.283  1.00  0.00    -0.248 NA
ATOM     59  C   UNL A   1      40.156  26.543  27.805  1.00  0.00     0.031 C 
ATOM     60  C   UNL A   1      41.398  31.072  29.622  1.00  0.00     0.029 A 
ATOM     61  N   UNL A   1      43.060  29.619  29.273  1.00  0.00    -0.354 N 
ATOM     62  C   UNL A   1      42.249  25.621  27.832  1.00  0.00     0.074 A 
ATOM     63  C   UNL A   1      40.834  25.424  27.596  1.00  0.00     0.031 C 
ATOM     64  C   UNL A   1      42.542  31.675  29.984  1.00  0.00     0.029 A 
ATOM     65  C   UNL A   1      43.648  30.740  29.811  1.00  0.00     0.049 A 
ATOM     66  H   UNL A   1      43.569  28.819  29.008  1.00  0.00     0.167 HD
ATOM     67  C   UNL A   1      43.198  24.680  27.622  1.00  0.00     0.037 A 
ATOM     68  C   UNL A   1      44.929  30.976  30.152  1.00  0.00     0.037 A 
ATOM     69  C   UNL A   1      44.606  24.891  27.832  1.00  0.00     0.049 A 
ATOM     70  C   UNL A   1      45.953  29.896  29.934  1.00  0.00     0.074 A 
ATOM     71  C   UNL A   1      45.652  24.025  27.566  1.00  0.00     0.029 A 
ATOM     72  N   UNL A   1      45.164  26.041  28.368  1.00  0.00    -0.354 N 
ATOM     73  N   UNL A   1      45.800  28.700  29.419  1.00  0.00    -0.248 NA
ATOM     74  C   UNL A   1      47.332  30.195  30.349  1.00  0.00     0.031 C 
ATOM     75  C   UNL A   1      46.837  24.626  28.000  1.00  0.00     0.029 A 
ATOM     76  C   UNL A   1      46.536  25.889  28.481  1.00  0.00     0.049 A 
ATOM     77  H   UNL A   1      44.660  26.846  28.629  1.00  0.00     0.167 HD
ATOM     78  C   UNL A   1      47.062  28.119  29.422  1.00  0.00     0.074 A 
ATOM     79  C   UNL A   1      47.974  29.101  29.968  1.00  0.00     0.031 C 
ATOM     80  C   UNL A   1      47.432  26.881  29.017  1.00  0.00     0.037 A 
BRANCH  67  81
ATOM     81  C   UNL A   1      42.760  23.329  27.142  1.00  0.00     0.057 A 
ATOM     82  C   UNL A   1      42.796  22.978  25.787  1.00  0.00     0.134 A 
ATOM     83  C   UNL A   1      42.390  22.337  28.058  1.00  0.00     0.134 A 
ATOM     84  F   UNL A   1      43.132  23.885  24.858  1.00  0.00    -0.206 F 
ATOM     85  C   UNL A   1      42.473  21.689  25.359  1.00  0.00     0.040 A 
ATOM     86  C   UNL A   1      42.089  21.038  27.646  1.00  0.00     0.040 A 
ATOM     87  F   UNL A   1      42.340  22.606  29.371  1.00  0.00    -0.206 F 
ATOM     88  C   UNL A   1      42.130  20.712  26.292  1.00  0.00     0.006 A 
ENDBRANCH  67  81
BRANCH  68  89
ATOM     89  C   UNL A   1      45.327  32.275  30.756  1.00  0.00     0.057 A 
ATOM     90  C   UNL A   1      45.799  33.329  29.963  1.00  0.00     0.134 A 
ATOM     91  C   UNL A   1      45.305  32.475  32.142  1.00  0.00     0.134 A 
ATOM     92  F   UNL A   1      45.864  33.193  28.630  1.00  0.00    -0.206 F 
ATOM     93  C   UNL A   1      46.270  34.516  30.526  1.00  0.00     0.040 A 
ATOM     94  C   UNL A   1      45.742  33.669  32.716  1.00  0.00     0.040 A 
ATOM     95  F   UNL A   1      44.858  31.510  32.959  1.00  0.00    -0.206 F 
ATOM     96  C   UNL A   1      46.240  34.689  31.908  1.00  0.00     0.006 A 
ENDBRANCH  68  89
BRANCH  80  97
ATOM     97  C   UNL A   1      48.888  26.529  29.117  1.00  0.00     0.057 A 
ATOM     98  C   UNL A   1      49.796  26.845  28.098  1.00  0.00     0.134 A 
ATOM     99  C   UNL A   1      49.394  25.904  30.264  1.00  0.00     0.134 A 
ATOM    100  F   UNL A   1      49.373  27.431  26.968  1.00  0.00    -0.206 F 
ATOM    101  C   UNL A   1      51.151  26.534  28.207  1.00  0.00     0.040 A 
ATOM    102  C   UNL A   1      50.753  25.616  30.398  1.00  0.00     0.040 A 
ATOM    103  F   UNL A   1      48.581  25.583  31.281  1.00  0.00    -0.206 F 
ATOM    104  C   UNL A   1      51.635  25.924  29.364  1.00  0.00     0.006 A 
ENDBRANCH  80  97
ENDBRANCH  54  55
ENDBRANCH  46  49
ENDBRANCH  44  45
ENDBRANCH  43  44
ENDBRANCH  42  43
ENDBRANCH  41  42
ENDBRANCH  39  41
ENDBRANCH   1  37
TORSDOF 24
ENDMDL
MODEL 3
REMARK VINA RESULT:     -11.0      1.191      2.893
REMARK SMILES CC(C)C[C@H](NC(=O)CNC(=O)[C@@H](NC(=O)OCc1ccccc1)C(C)C)C(=O)N[C@@H](C)C(=O)NCCCCNC(=O)c1ccc(-c2c3nc(c(-c4c(F)cccc4F)c4ccc([nH]4)c(-c4c(F)cccc4F)c4nc(c(-c5c(F)cccc5F)c5ccc2[nH]5)C=C4)C=C3)cc1
REMARK SMILES IDX 31 1 32 2 30 3 28 4 29 5 5 7 4 8 2 9 1 10 3 11 6 12 7 13
REMARK SMILES IDX 8 15 9 16 10 17 11 18 12 20 13 21 14 22 15 23 16 25 17 26
REMARK SMILES IDX 18 27 19 28 20 29 24 30 21 31 23 32 22 33 25 34 26 35 27 36
REMARK SMILES IDX 33 37 34 38 35 39 36 41 37 42 38 43 39 44 40 45 41 46 42 48
REMARK SMILES IDX 43 49 44 50 96 51 45 52 95 53 46 54 47 55 48 56 89 57 49 58
REMARK SMILES IDX 94 59 88 60 90 61 50 62 93 63 87 64 86 65 51 67 77 68 60 69
REMARK SMILES IDX 76 70 61 71 64 72 75 73 91 74 62 75 63 76 74 78 92 79 65 80
REMARK SMILES IDX 52 81 53 82 58 83 54 84 55 85 57 86 59 87 56 88 78 89 79 90
REMARK SMILES IDX 84 91 80 92 81 93 83 94 85 95 82 96 66 97 67 98 72 99 68 100
REMARK SMILES IDX 69 101 71 102 73 103 70 104
REMARK H PARENT 30 6 6 14 10 19 14 24 35 40 40 47 90 66 64 77
REMARK Flexibility Score: inf
ROOT
ATOM      1  C   UNL A   1      29.925  29.409  22.945  1.00  0.00     0.168 C 
ATOM      2  C   UNL A   1      29.652  29.990  21.568  1.00  0.00     0.041 C 
ENDROOT
BRANCH   1   3
ATOM      3  N   UNL A   1      28.957  28.356  23.260  1.00  0.00    -0.343 N 
ATOM      4  C   UNL A   1      29.171  27.077  23.668  1.00  0.00     0.243 C 
ATOM      5  O   UNL A   1      28.218  26.471  24.162  1.00  0.00    -0.273 OA
ATOM      6  H   UNL A   1      28.012  28.612  23.162  1.00  0.00     0.164 HD
BRANCH   4   7
ATOM      7  C   UNL A   1      30.578  26.463  23.614  1.00  0.00     0.171 C 
BRANCH   7   8
ATOM      8  C   UNL A   1      31.019  26.224  22.168  1.00  0.00     0.038 C 
BRANCH   8   9
ATOM      9  C   UNL A   1      32.520  26.027  21.876  1.00  0.00    -0.015 C 
ATOM     10  C   UNL A   1      32.799  25.534  20.455  1.00  0.00     0.007 C 
ATOM     11  C   UNL A   1      33.231  27.371  22.083  1.00  0.00     0.007 C 
ENDBRANCH   8   9
ENDBRANCH   7   8
BRANCH   7  12
ATOM     12  N   UNL A   1      30.602  25.259  24.465  1.00  0.00    -0.343 N 
ATOM     13  C   UNL A   1      31.517  24.600  25.212  1.00  0.00     0.240 C 
ATOM     14  H   UNL A   1      29.723  24.819  24.498  1.00  0.00     0.164 HD
ATOM     15  O   UNL A   1      31.062  23.673  25.899  1.00  0.00    -0.273 OA
BRANCH  13  16
ATOM     16  C   UNL A   1      32.993  24.988  25.380  1.00  0.00     0.216 C 
BRANCH  16  17
ATOM     17  N   UNL A   1      33.924  24.646  24.329  1.00  0.00    -0.345 N 
ATOM     18  C   UNL A   1      35.115  23.997  24.313  1.00  0.00     0.243 C 
ATOM     19  H   UNL A   1      33.634  24.948  23.438  1.00  0.00     0.164 HD
ATOM     20  O   UNL A   1      35.552  23.730  23.185  1.00  0.00    -0.273 OA
BRANCH  18  21
ATOM     21  C   UNL A   1      35.930  23.573  25.572  1.00  0.00     0.177 C 
BRANCH  21  22
ATOM     22  N   UNL A   1      35.235  22.636  26.454  1.00  0.00    -0.309 N 
ATOM     23  C   UNL A   1      34.147  21.834  26.299  1.00  0.00     0.408 C 
ATOM     24  H   UNL A   1      35.639  22.572  27.349  1.00  0.00     0.167 HD
ATOM     25  O   UNL A   1      33.576  21.371  27.270  1.00  0.00    -0.225 OA
BRANCH  23  26
ATOM     26  O   UNL A   1      33.840  21.567  25.014  1.00  0.00    -0.445 OA
BRANCH  26  27
ATOM     27  C   UNL A   1      32.824  20.570  24.838  1.00  0.00     0.270 C 
BRANCH  27  28
ATOM     28  C   UNL A   1      33.301  19.249  24.255  1.00  0.00    -0.011 A 
ATOM     29  C   UNL A   1      34.460  18.580  24.683  1.00  0.00     0.007 A 
ATOM     30  C   UNL A   1      32.494  18.610  23.301  1.00  0.00     0.007 A 
ATOM     31  C   UNL A   1      34.795  17.316  24.195  1.00  0.00     0.000 A 
ATOM     32  C   UNL A   1      32.834  17.350  22.802  1.00  0.00     0.000 A 
ATOM     33  C   UNL A   1      33.980  16.700  23.254  1.00  0.00     0.000 A 
ENDBRANCH  27  28
ENDBRANCH  26  27
ENDBRANCH  23  26
ENDBRANCH  21  22
BRANCH  21  34
ATOM     34  C   UNL A   1      37.416  23.288  25.289  1.00  0.00     0.015 C 
ATOM     35  C   UNL A   1      38.317  23.799  26.423  1.00  0.00     0.010 C 
ATOM     36  C   UNL A   1      37.678  21.780  25.148  1.00  0.00     0.010 C 
ENDBRANCH  21  34
ENDBRANCH  18  21
ENDBRANCH  16  17
ENDBRANCH  13  16
ENDBRANCH   7  12
ENDBRANCH   4   7
ENDBRANCH   1   3
BRANCH   1  37
ATOM     37  C   UNL A   1      30.018  30.506  24.023  1.00  0.00     0.242 C 
ATOM     38  O   UNL A   1      29.131  31.358  24.130  1.00  0.00    -0.273 OA
ATOM     39  N   UNL A   1      31.004  30.519  24.956  1.00  0.00    -0.354 N 
ATOM     40  H   UNL A   1      30.974  31.282  25.578  1.00  0.00     0.163 HD
BRANCH  39  41
ATOM     41  C   UNL A   1      32.090  29.593  25.185  1.00  0.00     0.116 C 
BRANCH  41  42
ATOM     42  C   UNL A   1      31.740  28.580  26.268  1.00  0.00     0.023 C 
BRANCH  42  43
ATOM     43  C   UNL A   1      32.633  28.666  27.507  1.00  0.00     0.023 C 
BRANCH  43  44
ATOM     44  C   UNL A   1      33.930  29.446  27.311  1.00  0.00     0.116 C 
BRANCH  44  45
ATOM     45  N   UNL A   1      33.982  30.667  28.105  1.00  0.00    -0.352 N 
ATOM     46  C   UNL A   1      35.002  31.127  28.901  1.00  0.00     0.251 C 
ATOM     47  H   UNL A   1      33.180  31.237  28.067  1.00  0.00     0.163 HD
ATOM     48  O   UNL A   1      34.852  32.116  29.608  1.00  0.00    -0.269 OA
BRANCH  46  49
ATOM     49  C   UNL A   1      36.271  30.377  28.918  1.00  0.00     0.039 A 
ATOM     50  C   UNL A   1      37.193  30.594  27.893  1.00  0.00     0.014 A 
ATOM     51  C   UNL A   1      36.579  29.549  30.000  1.00  0.00     0.014 A 
ATOM     52  C   UNL A   1      38.472  30.050  28.002  1.00  0.00     0.010 A 
ATOM     53  C   UNL A   1      37.874  29.067  30.140  1.00  0.00     0.010 A 
ATOM     54  C   UNL A   1      38.838  29.332  29.154  1.00  0.00    -0.014 A 
BRANCH  54  55
ATOM     55  C   UNL A   1      40.239  28.898  29.377  1.00  0.00     0.031 A 
ATOM     56  C   UNL A   1      41.243  29.855  29.950  1.00  0.00     0.074 A 
ATOM     57  C   UNL A   1      40.621  27.669  28.974  1.00  0.00     0.049 A 
ATOM     58  N   UNL A   1      42.531  29.699  30.113  1.00  0.00    -0.248 NA
ATOM     59  C   UNL A   1      40.739  31.172  30.375  1.00  0.00     0.031 C 
ATOM     60  C   UNL A   1      39.745  26.664  28.365  1.00  0.00     0.029 A 
ATOM     61  N   UNL A   1      41.852  27.061  28.997  1.00  0.00    -0.354 N 
ATOM     62  C   UNL A   1      42.994  30.896  30.640  1.00  0.00     0.074 A 
ATOM     63  C   UNL A   1      41.856  31.786  30.738  1.00  0.00     0.031 C 
ATOM     64  C   UNL A   1      40.463  25.565  28.083  1.00  0.00     0.029 A 
ATOM     65  C   UNL A   1      41.857  25.802  28.442  1.00  0.00     0.049 A 
ATOM     66  H   UNL A   1      42.656  27.486  29.374  1.00  0.00     0.167 HD
ATOM     67  C   UNL A   1      44.252  31.218  31.020  1.00  0.00     0.037 A 
ATOM     68  C   UNL A   1      42.874  24.948  28.223  1.00  0.00     0.037 A 
ATOM     69  C   UNL A   1      45.374  30.320  30.946  1.00  0.00     0.049 A 
ATOM     70  C   UNL A   1      44.266  25.351  28.628  1.00  0.00     0.074 A 
ATOM     71  C   UNL A   1      46.669  30.527  31.386  1.00  0.00     0.029 A 
ATOM     72  N   UNL A   1      45.338  29.051  30.387  1.00  0.00    -0.354 N 
ATOM     73  N   UNL A   1      44.673  26.452  29.213  1.00  0.00    -0.248 NA
ATOM     74  C   UNL A   1      45.345  24.394  28.341  1.00  0.00     0.031 C 
ATOM     75  C   UNL A   1      47.433  29.410  31.037  1.00  0.00     0.029 A 
ATOM     76  C   UNL A   1      46.599  28.482  30.432  1.00  0.00     0.049 A 
ATOM     77  H   UNL A   1      44.535  28.620  30.014  1.00  0.00     0.167 HD
ATOM     78  C   UNL A   1      46.043  26.307  29.387  1.00  0.00     0.074 A 
ATOM     79  C   UNL A   1      46.396  25.002  28.869  1.00  0.00     0.031 C 
ATOM     80  C   UNL A   1      46.932  27.178  29.922  1.00  0.00     0.037 A 
BRANCH  67  81
ATOM     81  C   UNL A   1      44.499  32.598  31.551  1.00  0.00     0.057 A 
ATOM     82  C   UNL A   1      44.847  33.663  30.711  1.00  0.00     0.134 A 
ATOM     83  C   UNL A   1      44.291  32.883  32.906  1.00  0.00     0.134 A 
ATOM     84  F   UNL A   1      45.071  33.455  29.406  1.00  0.00    -0.206 F 
ATOM     85  C   UNL A   1      44.985  34.962  31.202  1.00  0.00     0.040 A 
ATOM     86  C   UNL A   1      44.401  34.183  33.404  1.00  0.00     0.040 A 
ATOM     87  F   UNL A   1      43.950  31.910  33.763  1.00  0.00    -0.206 F 
ATOM     88  C   UNL A   1      44.750  35.226  32.550  1.00  0.00     0.006 A 
ENDBRANCH  67  81
BRANCH  68  89
ATOM     89  C   UNL A   1      42.636  23.634  27.568  1.00  0.00     0.057 A 
ATOM     90  C   UNL A   1      42.649  23.505  26.175  1.00  0.00     0.134 A 
ATOM     91  C   UNL A   1      42.330  22.490  28.316  1.00  0.00     0.134 A 
ATOM     92  F   UNL A   1      42.915  24.569  25.401  1.00  0.00    -0.206 F 
ATOM     93  C   UNL A   1      42.328  22.301  25.546  1.00  0.00     0.040 A 
ATOM     94  C   UNL A   1      42.039  21.271  27.701  1.00  0.00     0.040 A 
ATOM     95  F   UNL A   1      42.308  22.541  29.656  1.00  0.00    -0.206 F 
ATOM     96  C   UNL A   1      42.023  21.178  26.312  1.00  0.00     0.006 A 
ENDBRANCH  68  89
BRANCH  80  97
ATOM     97  C   UNL A   1      48.365  26.737  30.004  1.00  0.00     0.057 A 
ATOM     98  C   UNL A   1      48.848  25.994  31.089  1.00  0.00     0.134 A 
ATOM     99  C   UNL A   1      49.261  27.024  28.966  1.00  0.00     0.134 A 
ATOM    100  F   UNL A   1      48.045  25.699  32.122  1.00  0.00    -0.206 F 
ATOM    101  C   UNL A   1      50.176  25.571  31.148  1.00  0.00     0.040 A 
ATOM    102  C   UNL A   1      50.583  26.579  28.999  1.00  0.00     0.040 A 
ATOM    103  F   UNL A   1      48.860  27.723  27.893  1.00  0.00    -0.206 F 
ATOM    104  C   UNL A   1      51.046  25.856  30.097  1.00  0.00     0.006 A 
ENDBRANCH  80  97
ENDBRANCH  54  55
ENDBRANCH  46  49
ENDBRANCH  44  45
ENDBRANCH  43  44
ENDBRANCH  42  43
ENDBRANCH  41  42
ENDBRANCH  39  41
ENDBRANCH   1  37
TORSDOF 24
ENDMDL
