MODEL 1
REMARK VINA RESULT:     -12.0      0.000      0.000
REMARK SMILES O=C(NCCCCNC(=O)c1ccc(-c2c3nc(c(-c4c(F)cccc4F)c4ccc([nH]4)c(-c4c(F)cccc4F)c4nc(c(-c5c(F)cccc5F)c5ccc2[nH]5)C=C4)C=C3)cc1)C1=Cc2c(cc(Cl)c(Cl)c2Cl)O[C@H]1C(F)(F)F
REMARK SMILES IDX 6 1 5 2 4 3 3 4 1 5 2 6 65 8 66 9 77 10 67 11 76 12 68 13
REMARK SMILES IDX 74 14 69 15 72 16 75 17 70 18 73 19 71 20 78 21 79 22 80 23
REMARK SMILES IDX 81 24 7 25 8 26 9 27 10 29 11 30 12 31 64 32 13 33 63 34
REMARK SMILES IDX 14 35 15 36 16 37 57 38 17 39 62 40 56 41 58 42 18 43 61 44
REMARK SMILES IDX 55 45 54 46 19 48 45 49 28 50 44 51 29 52 32 53 43 54 59 55
REMARK SMILES IDX 30 56 31 57 42 59 60 60 33 61 20 62 21 63 26 64 22 65 23 66
REMARK SMILES IDX 25 67 27 68 24 69 46 70 47 71 52 72 48 73 49 74 51 75 53 76
REMARK SMILES IDX 50 77 34 78 35 79 40 80 36 81 37 82 39 83 41 84 38 85
REMARK H PARENT 3 7 8 28 58 47 32 58
REMARK Flexibility Score: inf
ROOT
ATOM      1  C   UNL A   1      34.059  28.445  25.916  1.00  0.00     0.023 C 
ENDROOT
BRANCH   1   2
ATOM      2  C   UNL A   1      33.258  28.912  24.705  1.00  0.00     0.023 C 
BRANCH   2   3
ATOM      3  C   UNL A   1      32.353  27.871  24.061  1.00  0.00     0.116 C 
BRANCH   3   4
ATOM      4  N   UNL A   1      32.996  26.951  23.143  1.00  0.00    -0.352 N 
ATOM      5  O   UNL A   1      34.028  25.048  22.508  1.00  0.00    -0.270 OA
ATOM      6  C   UNL A   1      33.451  25.681  23.387  1.00  0.00     0.251 C 
ATOM      7  H   UNL A   1      33.121  27.283  22.224  1.00  0.00     0.163 HD
BRANCH   6   8
ATOM      8  C   UNL A   1      33.276  25.068  24.730  1.00  0.00     0.067 C 
ATOM      9  C   UNL A   1      34.399  24.724  25.383  1.00  0.00     0.027 C 
ATOM     10  C   UNL A   1      31.979  24.338  24.961  1.00  0.00     0.314 C 
ATOM     11  C   UNL A   1      34.577  23.253  25.450  1.00  0.00     0.037 A 
ATOM     12  O   UNL A   1      32.161  22.927  25.291  1.00  0.00    -0.475 OA
ATOM     13  C   UNL A   1      33.442  22.440  25.340  1.00  0.00     0.131 A 
ATOM     14  C   UNL A   1      35.862  22.675  25.415  1.00  0.00     0.072 A 
ATOM     15  C   UNL A   1      33.579  21.068  25.148  1.00  0.00     0.069 A 
ATOM     16  C   UNL A   1      36.004  21.295  25.182  1.00  0.00     0.079 A 
ATOM     17  Cl  UNL A   1      37.258  23.703  25.562  1.00  0.00    -0.082 Cl
ATOM     18  C   UNL A   1      34.853  20.504  25.032  1.00  0.00     0.064 A 
ATOM     19  Cl  UNL A   1      37.581  20.592  25.002  1.00  0.00    -0.081 Cl
ATOM     20  Cl  UNL A   1      34.928  18.825  24.626  1.00  0.00    -0.083 Cl
BRANCH  10  21
ATOM     21  C   UNL A   1      31.099  25.031  26.023  1.00  0.00     0.429 C 
ATOM     22  F   UNL A   1      30.072  25.727  25.487  1.00  0.00    -0.167 F 
ATOM     23  F   UNL A   1      30.566  24.122  26.876  1.00  0.00    -0.167 F 
ATOM     24  F   UNL A   1      31.811  25.907  26.774  1.00  0.00    -0.167 F 
ENDBRANCH  10  21
ENDBRANCH   6   8
ENDBRANCH   3   4
ENDBRANCH   2   3
ENDBRANCH   1   2
BRANCH   1  25
ATOM     25  C   UNL A   1      33.460  28.733  27.291  1.00  0.00     0.116 C 
BRANCH  25  26
ATOM     26  N   UNL A   1      33.592  30.112  27.740  1.00  0.00    -0.352 N 
ATOM     27  C   UNL A   1      34.706  30.779  28.206  1.00  0.00     0.251 C 
ATOM     28  H   UNL A   1      32.766  30.647  27.706  1.00  0.00     0.163 HD
ATOM     29  O   UNL A   1      34.609  31.943  28.581  1.00  0.00    -0.269 OA
BRANCH  27  30
ATOM     30  C   UNL A   1      36.002  30.072  28.330  1.00  0.00     0.039 A 
ATOM     31  C   UNL A   1      36.891  30.114  27.251  1.00  0.00     0.014 A 
ATOM     32  C   UNL A   1      36.373  29.426  29.512  1.00  0.00     0.014 A 
ATOM     33  C   UNL A   1      38.186  29.614  27.398  1.00  0.00     0.010 A 
ATOM     34  C   UNL A   1      37.689  29.005  29.685  1.00  0.00     0.010 A 
ATOM     35  C   UNL A   1      38.617  29.112  28.637  1.00  0.00    -0.014 A 
BRANCH  35  36
ATOM     36  C   UNL A   1      40.036  28.729  28.859  1.00  0.00     0.031 A 
ATOM     37  C   UNL A   1      41.002  29.707  29.467  1.00  0.00     0.074 A 
ATOM     38  C   UNL A   1      40.471  27.521  28.449  1.00  0.00     0.049 A 
ATOM     39  N   UNL A   1      42.286  29.573  29.687  1.00  0.00    -0.248 NA
ATOM     40  C   UNL A   1      40.460  31.018  29.856  1.00  0.00     0.031 C 
ATOM     41  C   UNL A   1      39.652  26.504  27.785  1.00  0.00     0.029 A 
ATOM     42  N   UNL A   1      41.715  26.944  28.522  1.00  0.00    -0.354 N 
ATOM     43  C   UNL A   1      42.704  30.781  30.231  1.00  0.00     0.074 A 
ATOM     44  C   UNL A   1      41.552  31.655  30.252  1.00  0.00     0.031 C 
ATOM     45  C   UNL A   1      40.407  25.421  27.539  1.00  0.00     0.029 A 
ATOM     46  C   UNL A   1      41.769  25.676  27.997  1.00  0.00     0.049 A 
ATOM     47  H   UNL A   1      42.496  27.397  28.916  1.00  0.00     0.167 HD
ATOM     48  C   UNL A   1      43.930  31.122  30.696  1.00  0.00     0.037 A 
ATOM     49  C   UNL A   1      42.798  24.813  27.898  1.00  0.00     0.037 A 
ATOM     50  C   UNL A   1      45.073  30.248  30.692  1.00  0.00     0.049 A 
ATOM     51  C   UNL A   1      44.144  25.210  28.440  1.00  0.00     0.074 A 
ATOM     52  C   UNL A   1      46.351  30.494  31.164  1.00  0.00     0.029 A 
ATOM     53  N   UNL A   1      45.073  28.955  30.193  1.00  0.00    -0.354 N 
ATOM     54  N   UNL A   1      44.508  26.336  29.003  1.00  0.00    -0.248 NA
ATOM     55  C   UNL A   1      45.216  24.210  28.346  1.00  0.00     0.031 C 
ATOM     56  C   UNL A   1      47.131  29.357  30.930  1.00  0.00     0.029 A 
ATOM     57  C   UNL A   1      46.329  28.390  30.346  1.00  0.00     0.049 A 
ATOM     58  H   UNL A   1      44.296  28.505  29.790  1.00  0.00     0.167 HD
ATOM     59  C   UNL A   1      45.840  26.169  29.359  1.00  0.00     0.074 A 
ATOM     60  C   UNL A   1      46.215  24.828  28.959  1.00  0.00     0.031 C 
ATOM     61  C   UNL A   1      46.679  27.048  29.960  1.00  0.00     0.037 A 
BRANCH  48  62
ATOM     62  C   UNL A   1      44.084  32.503  31.266  1.00  0.00     0.057 A 
ATOM     63  C   UNL A   1      44.403  33.599  30.453  1.00  0.00     0.134 A 
ATOM     64  C   UNL A   1      43.895  32.745  32.632  1.00  0.00     0.134 A 
ATOM     65  F   UNL A   1      44.611  33.432  29.138  1.00  0.00    -0.206 F 
ATOM     66  C   UNL A   1      44.558  34.881  30.982  1.00  0.00     0.040 A 
ATOM     67  C   UNL A   1      44.021  34.028  33.169  1.00  0.00     0.040 A 
ATOM     68  F   UNL A   1      43.582  31.741  33.465  1.00  0.00    -0.206 F 
ATOM     69  C   UNL A   1      44.362  35.098  32.344  1.00  0.00     0.006 A 
ENDBRANCH  48  62
BRANCH  49  70
ATOM     70  C   UNL A   1      42.596  23.472  27.293  1.00  0.00     0.057 A 
ATOM     71  C   UNL A   1      42.157  22.391  28.066  1.00  0.00     0.134 A 
ATOM     72  C   UNL A   1      42.857  23.232  25.939  1.00  0.00     0.134 A 
ATOM     73  F   UNL A   1      41.909  22.554  29.374  1.00  0.00    -0.206 F 
ATOM     74  C   UNL A   1      42.010  21.114  27.523  1.00  0.00     0.040 A 
ATOM     75  C   UNL A   1      42.690  21.966  25.376  1.00  0.00     0.040 A 
ATOM     76  F   UNL A   1      43.271  24.229  25.142  1.00  0.00    -0.206 F 
ATOM     77  C   UNL A   1      42.275  20.899  26.172  1.00  0.00     0.006 A 
ENDBRANCH  49  70
BRANCH  61  78
ATOM     78  C   UNL A   1      48.067  26.567  30.262  1.00  0.00     0.057 A 
ATOM     79  C   UNL A   1      49.122  26.731  29.356  1.00  0.00     0.134 A 
ATOM     80  C   UNL A   1      48.353  25.953  31.488  1.00  0.00     0.134 A 
ATOM     81  F   UNL A   1      48.908  27.300  28.160  1.00  0.00    -0.206 F 
ATOM     82  C   UNL A   1      50.409  26.277  29.648  1.00  0.00     0.040 A 
ATOM     83  C   UNL A   1      49.641  25.516  31.800  1.00  0.00     0.040 A 
ATOM     84  F   UNL A   1      47.388  25.772  32.402  1.00  0.00    -0.206 F 
ATOM     85  C   UNL A   1      50.672  25.672  30.876  1.00  0.00     0.006 A 
ENDBRANCH  61  78
ENDBRANCH  35  36
ENDBRANCH  27  30
ENDBRANCH  25  26
ENDBRANCH   1  25
TORSDOF 12
ENDMDL
MODEL 2
REMARK VINA RESULT:     -11.7      3.424      7.748
REMARK SMILES O=C(NCCCCNC(=O)c1ccc(-c2c3nc(c(-c4c(F)cccc4F)c4ccc([nH]4)c(-c4c(F)cccc4F)c4nc(c(-c5c(F)cccc5F)c5ccc2[nH]5)C=C4)C=C3)cc1)C1=Cc2c(cc(Cl)c(Cl)c2Cl)O[C@H]1C(F)(F)F
REMARK SMILES IDX 6 1 5 2 4 3 3 4 1 5 2 6 65 8 66 9 77 10 67 11 76 12 68 13
REMARK SMILES IDX 74 14 69 15 72 16 75 17 70 18 73 19 71 20 78 21 79 22 80 23
REMARK SMILES IDX 81 24 7 25 8 26 9 27 10 29 11 30 12 31 64 32 13 33 63 34
REMARK SMILES IDX 14 35 15 36 16 37 57 38 17 39 62 40 56 41 58 42 18 43 61 44
REMARK SMILES IDX 55 45 54 46 19 48 45 49 28 50 44 51 29 52 32 53 43 54 59 55
REMARK SMILES IDX 30 56 31 57 42 59 60 60 33 61 20 62 21 63 26 64 22 65 23 66
REMARK SMILES IDX 25 67 27 68 24 69 46 70 47 71 52 72 48 73 49 74 51 75 53 76
REMARK SMILES IDX 50 77 34 78 35 79 40 80 36 81 37 82 39 83 41 84 38 85
REMARK H PARENT 3 7 8 28 58 47 32 58
REMARK Flexibility Score: inf
ROOT
ATOM      1  C   UNL A   1      35.791  21.074  25.344  1.00  0.00     0.023 C 
ENDROOT
BRANCH   1   2
ATOM      2  C   UNL A   1      35.076  21.713  26.530  1.00  0.00     0.023 C 
BRANCH   2   3
ATOM      3  C   UNL A   1      33.729  21.110  26.903  1.00  0.00     0.116 C 
BRANCH   3   4
ATOM      4  N   UNL A   1      32.747  22.033  27.438  1.00  0.00    -0.352 N 
ATOM      5  O   UNL A   1      31.376  23.825  27.431  1.00  0.00    -0.270 OA
ATOM      6  C   UNL A   1      32.154  23.102  26.817  1.00  0.00     0.251 C 
ATOM      7  H   UNL A   1      32.469  21.869  28.368  1.00  0.00     0.163 HD
BRANCH   6   8
ATOM      8  C   UNL A   1      32.472  23.416  25.398  1.00  0.00     0.067 C 
ATOM      9  C   UNL A   1      33.103  24.579  25.168  1.00  0.00     0.027 C 
ATOM     10  C   UNL A   1      31.570  22.794  24.365  1.00  0.00     0.314 C 
ATOM     11  C   UNL A   1      32.219  25.572  24.511  1.00  0.00     0.037 A 
ATOM     12  O   UNL A   1      30.886  23.777  23.529  1.00  0.00    -0.475 OA
ATOM     13  C   UNL A   1      31.123  25.105  23.775  1.00  0.00     0.131 A 
ATOM     14  C   UNL A   1      32.346  26.950  24.785  1.00  0.00     0.072 A 
ATOM     15  C   UNL A   1      30.133  25.988  23.354  1.00  0.00     0.069 A 
ATOM     16  C   UNL A   1      31.328  27.838  24.395  1.00  0.00     0.079 A 
ATOM     17  Cl  UNL A   1      33.720  27.510  25.694  1.00  0.00    -0.082 Cl
ATOM     18  C   UNL A   1      30.217  27.342  23.694  1.00  0.00     0.064 A 
ATOM     19  Cl  UNL A   1      31.405  29.514  24.842  1.00  0.00    -0.081 Cl
ATOM     20  Cl  UNL A   1      28.863  28.334  23.278  1.00  0.00    -0.083 Cl
BRANCH  10  21
ATOM     21  C   UNL A   1      32.309  21.761  23.488  1.00  0.00     0.429 C 
ATOM     22  F   UNL A   1      32.437  20.554  24.085  1.00  0.00    -0.167 F 
ATOM     23  F   UNL A   1      31.652  21.562  22.319  1.00  0.00    -0.167 F 
ATOM     24  F   UNL A   1      33.561  22.171  23.172  1.00  0.00    -0.167 F 
ENDBRANCH  10  21
ENDBRANCH   6   8
ENDBRANCH   3   4
ENDBRANCH   2   3
ENDBRANCH   1   2
BRANCH   1  25
ATOM     25  C   UNL A   1      37.216  21.547  25.063  1.00  0.00     0.116 C 
BRANCH  25  26
ATOM     26  N   UNL A   1      38.256  20.580  25.382  1.00  0.00    -0.352 N 
ATOM     27  C   UNL A   1      39.422  20.752  26.099  1.00  0.00     0.251 C 
ATOM     28  H   UNL A   1      38.107  19.670  25.035  1.00  0.00     0.163 HD
ATOM     29  O   UNL A   1      40.204  19.815  26.229  1.00  0.00    -0.269 OA
BRANCH  27  30
ATOM     30  C   UNL A   1      39.772  22.083  26.648  1.00  0.00     0.039 A 
ATOM     31  C   UNL A   1      40.780  22.162  27.615  1.00  0.00     0.014 A 
ATOM     32  C   UNL A   1      39.165  23.250  26.179  1.00  0.00     0.014 A 
ATOM     33  C   UNL A   1      41.256  23.410  28.021  1.00  0.00     0.010 A 
ATOM     34  C   UNL A   1      39.697  24.491  26.521  1.00  0.00     0.010 A 
ATOM     35  C   UNL A   1      40.761  24.585  27.431  1.00  0.00    -0.014 A 
BRANCH  35  36
ATOM     36  C   UNL A   1      41.370  25.908  27.729  1.00  0.00     0.031 A 
ATOM     37  C   UNL A   1      42.766  26.224  27.272  1.00  0.00     0.074 A 
ATOM     38  C   UNL A   1      40.686  26.802  28.471  1.00  0.00     0.049 A 
ATOM     39  N   UNL A   1      43.482  27.301  27.484  1.00  0.00    -0.248 NA
ATOM     40  C   UNL A   1      43.461  25.185  26.498  1.00  0.00     0.031 C 
ATOM     41  C   UNL A   1      39.349  26.595  29.032  1.00  0.00     0.029 A 
ATOM     42  N   UNL A   1      41.026  28.065  28.891  1.00  0.00    -0.354 N 
ATOM     43  C   UNL A   1      44.709  27.065  26.877  1.00  0.00     0.074 A 
ATOM     44  C   UNL A   1      44.662  25.721  26.341  1.00  0.00     0.031 C 
ATOM     45  C   UNL A   1      38.972  27.700  29.696  1.00  0.00     0.029 A 
ATOM     46  C   UNL A   1      40.050  28.681  29.636  1.00  0.00     0.049 A 
ATOM     47  H   UNL A   1      41.889  28.489  28.677  1.00  0.00     0.167 HD
ATOM     48  C   UNL A   1      45.768  27.899  26.752  1.00  0.00     0.037 A 
ATOM     49  C   UNL A   1      40.025  29.902  30.205  1.00  0.00     0.037 A 
ATOM     50  C   UNL A   1      45.810  29.242  27.269  1.00  0.00     0.049 A 
ATOM     51  C   UNL A   1      41.207  30.817  30.034  1.00  0.00     0.074 A 
ATOM     52  C   UNL A   1      46.829  30.174  27.172  1.00  0.00     0.029 A 
ATOM     53  N   UNL A   1      44.782  29.845  27.978  1.00  0.00    -0.354 N 
ATOM     54  N   UNL A   1      42.337  30.598  29.408  1.00  0.00    -0.248 NA
ATOM     55  C   UNL A   1      41.102  32.153  30.638  1.00  0.00     0.031 C 
ATOM     56  C   UNL A   1      46.426  31.334  27.843  1.00  0.00     0.029 A 
ATOM     57  C   UNL A   1      45.142  31.136  28.325  1.00  0.00     0.049 A 
ATOM     58  H   UNL A   1      43.924  29.418  28.201  1.00  0.00     0.167 HD
ATOM     59  C   UNL A   1      43.064  31.777  29.514  1.00  0.00     0.074 A 
ATOM     60  C   UNL A   1      42.240  32.711  30.254  1.00  0.00     0.031 C 
ATOM     61  C   UNL A   1      44.303  32.059  29.044  1.00  0.00     0.037 A 
BRANCH  48  62
ATOM     62  C   UNL A   1      46.964  27.380  26.008  1.00  0.00     0.057 A 
ATOM     63  C   UNL A   1      48.016  26.734  26.673  1.00  0.00     0.134 A 
ATOM     64  C   UNL A   1      47.059  27.506  24.617  1.00  0.00     0.134 A 
ATOM     65  F   UNL A   1      47.993  26.594  28.007  1.00  0.00    -0.206 F 
ATOM     66  C   UNL A   1      49.134  26.260  25.984  1.00  0.00     0.040 A 
ATOM     67  C   UNL A   1      48.160  27.012  23.914  1.00  0.00     0.040 A 
ATOM     68  F   UNL A   1      46.084  28.107  23.919  1.00  0.00    -0.206 F 
ATOM     69  C   UNL A   1      49.205  26.395  24.599  1.00  0.00     0.006 A 
ENDBRANCH  48  62
BRANCH  49  70
ATOM     70  C   UNL A   1      38.827  30.351  30.959  1.00  0.00     0.057 A 
ATOM     71  C   UNL A   1      38.694  30.083  32.327  1.00  0.00     0.134 A 
ATOM     72  C   UNL A   1      37.780  31.037  30.332  1.00  0.00     0.134 A 
ATOM     73  F   UNL A   1      39.656  29.413  32.979  1.00  0.00    -0.206 F 
ATOM     74  C   UNL A   1      37.553  30.455  33.039  1.00  0.00     0.040 A 
ATOM     75  C   UNL A   1      36.644  31.437  31.036  1.00  0.00     0.040 A 
ATOM     76  F   UNL A   1      37.851  31.332  29.026  1.00  0.00    -0.206 F 
ATOM     77  C   UNL A   1      36.524  31.138  32.393  1.00  0.00     0.006 A 
ENDBRANCH  49  70
BRANCH  61  78
ATOM     78  C   UNL A   1      44.820  33.448  29.276  1.00  0.00     0.057 A 
ATOM     79  C   UNL A   1      45.577  33.778  30.406  1.00  0.00     0.134 A 
ATOM     80  C   UNL A   1      44.573  34.461  28.340  1.00  0.00     0.134 A 
ATOM     81  F   UNL A   1      45.836  32.855  31.344  1.00  0.00    -0.206 F 
ATOM     82  C   UNL A   1      46.050  35.075  30.612  1.00  0.00     0.040 A 
ATOM     83  C   UNL A   1      45.060  35.755  28.524  1.00  0.00     0.040 A 
ATOM     84  F   UNL A   1      43.859  34.208  27.233  1.00  0.00    -0.206 F 
ATOM     85  C   UNL A   1      45.796  36.067  29.666  1.00  0.00     0.006 A 
ENDBRANCH  61  78
ENDBRANCH  35  36
ENDBRANCH  27  30
ENDBRANCH  25  26
ENDBRANCH   1  25
TORSDOF 12
ENDMDL
MODEL 3
REMARK VINA RESULT:     -11.7      2.857      7.224
REMARK SMILES O=C(NCCCCNC(=O)c1ccc(-c2c3nc(c(-c4c(F)cccc4F)c4ccc([nH]4)c(-c4c(F)cccc4F)c4nc(c(-c5c(F)cccc5F)c5ccc2[nH]5)C=C4)C=C3)cc1)C1=Cc2c(cc(Cl)c(Cl)c2Cl)O[C@H]1C(F)(F)F
REMARK SMILES IDX 6 1 5 2 4 3 3 4 1 5 2 6 65 8 66 9 77 10 67 11 76 12 68 13
REMARK SMILES IDX 74 14 69 15 72 16 75 17 70 18 73 19 71 20 78 21 79 22 80 23
REMARK SMILES IDX 81 24 7 25 8 26 9 27 10 29 11 30 12 31 64 32 13 33 63 34
REMARK SMILES IDX 14 35 15 36 16 37 57 38 17 39 62 40 56 41 58 42 18 43 61 44
REMARK SMILES IDX 55 45 54 46 19 48 45 49 28 50 44 51 29 52 32 53 43 54 59 55
REMARK SMILES IDX 30 56 31 57 42 59 60 60 33 61 20 62 21 63 26 64 22 65 23 66
REMARK SMILES IDX 25 67 27 68 24 69 46 70 47 71 52 72 48 73 49 74 51 75 53 76
REMARK SMILES IDX 50 77 34 78 35 79 40 80 36 81 37 82 39 83 41 84 38 85
REMARK H PARENT 3 7 8 28 58 47 32 58
REMARK Flexibility Score: inf
ROOT
ATOM      1  C   UNL A   1      36.874  21.076  24.855  1.00  0.00     0.023 C 
ENDROOT
BRANCH   1   2
ATOM      2  C   UNL A   1      35.625  21.324  25.695  1.00  0.00     0.023 C 
BRANCH   2   3
ATOM      3  C   UNL A   1      35.514  22.700  26.337  1.00  0.00     0.116 C 
BRANCH   3   4
ATOM      4  N   UNL A   1      34.202  23.065  26.832  1.00  0.00    -0.352 N 
ATOM      5  O   UNL A   1      32.196  24.098  26.805  1.00  0.00    -0.270 OA
ATOM      6  C   UNL A   1      33.243  23.833  26.223  1.00  0.00     0.251 C 
ATOM      7  H   UNL A   1      33.969  22.716  27.723  1.00  0.00     0.163 HD
BRANCH   6   8
ATOM      8  C   UNL A   1      33.475  24.379  24.859  1.00  0.00     0.067 C 
ATOM      9  C   UNL A   1      33.878  25.659  24.786  1.00  0.00     0.027 C 
ATOM     10  C   UNL A   1      32.687  23.740  23.747  1.00  0.00     0.314 C 
ATOM     11  C   UNL A   1      32.816  26.548  24.256  1.00  0.00     0.037 A 
ATOM     12  O   UNL A   1      31.820  24.679  23.039  1.00  0.00    -0.475 OA
ATOM     13  C   UNL A   1      31.813  25.985  23.457  1.00  0.00     0.131 A 
ATOM     14  C   UNL A   1      32.692  27.878  24.706  1.00  0.00     0.072 A 
ATOM     15  C   UNL A   1      30.672  26.717  23.145  1.00  0.00     0.069 A 
ATOM     16  C   UNL A   1      31.522  28.607  24.426  1.00  0.00     0.079 A 
ATOM     17  Cl  UNL A   1      33.954  28.561  25.691  1.00  0.00    -0.082 Cl
ATOM     18  C   UNL A   1      30.510  28.008  23.658  1.00  0.00     0.064 A 
ATOM     19  Cl  UNL A   1      31.297  30.196  25.087  1.00  0.00    -0.081 Cl
ATOM     20  Cl  UNL A   1      28.991  28.779  23.362  1.00  0.00    -0.083 Cl
BRANCH  10  21
ATOM     21  C   UNL A   1      33.589  22.982  22.750  1.00  0.00     0.429 C 
ATOM     22  F   UNL A   1      34.907  23.197  22.960  1.00  0.00    -0.167 F 
ATOM     23  F   UNL A   1      33.383  21.645  22.832  1.00  0.00    -0.167 F 
ATOM     24  F   UNL A   1      33.337  23.343  21.468  1.00  0.00    -0.167 F 
ENDBRANCH  10  21
ENDBRANCH   6   8
ENDBRANCH   3   4
ENDBRANCH   2   3
ENDBRANCH   1   2
BRANCH   1  25
ATOM     25  C   UNL A   1      38.220  21.237  25.558  1.00  0.00     0.116 C 
BRANCH  25  26
ATOM     26  N   UNL A   1      39.093  20.074  25.484  1.00  0.00    -0.352 N 
ATOM     27  C   UNL A   1      40.392  19.924  25.921  1.00  0.00     0.251 C 
ATOM     28  H   UNL A   1      38.698  19.277  25.059  1.00  0.00     0.163 HD
ATOM     29  O   UNL A   1      40.983  18.866  25.729  1.00  0.00    -0.269 OA
BRANCH  27  30
ATOM     30  C   UNL A   1      41.104  21.060  26.551  1.00  0.00     0.039 A 
ATOM     31  C   UNL A   1      41.746  21.987  25.723  1.00  0.00     0.014 A 
ATOM     32  C   UNL A   1      41.093  21.253  27.934  1.00  0.00     0.014 A 
ATOM     33  C   UNL A   1      42.271  23.160  26.270  1.00  0.00     0.010 A 
ATOM     34  C   UNL A   1      41.541  22.460  28.467  1.00  0.00     0.010 A 
ATOM     35  C   UNL A   1      42.118  23.435  27.638  1.00  0.00    -0.014 A 
BRANCH  35  36
ATOM     36  C   UNL A   1      42.521  24.748  28.207  1.00  0.00     0.031 A 
ATOM     37  C   UNL A   1      41.506  25.839  28.400  1.00  0.00     0.074 A 
ATOM     38  C   UNL A   1      43.820  24.980  28.487  1.00  0.00     0.049 A 
ATOM     39  N   UNL A   1      41.680  27.065  28.830  1.00  0.00    -0.248 NA
ATOM     40  C   UNL A   1      40.117  25.522  28.037  1.00  0.00     0.031 C 
ATOM     41  C   UNL A   1      44.915  24.029  28.285  1.00  0.00     0.029 A 
ATOM     42  N   UNL A   1      44.441  26.094  28.996  1.00  0.00    -0.354 N 
ATOM     43  C   UNL A   1      40.427  27.663  28.782  1.00  0.00     0.074 A 
ATOM     44  C   UNL A   1      39.515  26.687  28.226  1.00  0.00     0.031 C 
ATOM     45  C   UNL A   1      46.066  24.589  28.691  1.00  0.00     0.029 A 
ATOM     46  C   UNL A   1      45.798  25.947  29.152  1.00  0.00     0.049 A 
ATOM     47  H   UNL A   1      43.959  26.921  29.227  1.00  0.00     0.167 HD
ATOM     48  C   UNL A   1      40.064  28.903  29.190  1.00  0.00     0.037 A 
ATOM     49  C   UNL A   1      46.723  26.808  29.618  1.00  0.00     0.037 A 
ATOM     50  C   UNL A   1      40.966  29.868  29.759  1.00  0.00     0.049 A 
ATOM     51  C   UNL A   1      46.289  28.172  30.083  1.00  0.00     0.074 A 
ATOM     52  C   UNL A   1      40.688  31.141  30.225  1.00  0.00     0.029 A 
ATOM     53  N   UNL A   1      42.325  29.663  29.944  1.00  0.00    -0.354 N 
ATOM     54  N   UNL A   1      45.091  28.701  30.084  1.00  0.00    -0.248 NA
ATOM     55  C   UNL A   1      47.336  29.050  30.625  1.00  0.00     0.031 C 
ATOM     56  C   UNL A   1      41.883  31.715  30.671  1.00  0.00     0.029 A 
ATOM     57  C   UNL A   1      42.898  30.785  30.517  1.00  0.00     0.049 A 
ATOM     58  H   UNL A   1      42.809  28.840  29.703  1.00  0.00     0.167 HD
ATOM     59  C   UNL A   1      45.232  29.960  30.654  1.00  0.00     0.074 A 
ATOM     60  C   UNL A   1      46.631  30.108  30.998  1.00  0.00     0.031 C 
ATOM     61  C   UNL A   1      44.289  30.909  30.870  1.00  0.00     0.037 A 
BRANCH  48  62
ATOM     62  C   UNL A   1      38.616  29.271  29.046  1.00  0.00     0.057 A 
ATOM     63  C   UNL A   1      37.739  29.234  30.140  1.00  0.00     0.134 A 
ATOM     64  C   UNL A   1      38.095  29.685  27.815  1.00  0.00     0.134 A 
ATOM     65  F   UNL A   1      38.172  28.832  31.345  1.00  0.00    -0.206 F 
ATOM     66  C   UNL A   1      36.390  29.565  30.006  1.00  0.00     0.040 A 
ATOM     67  C   UNL A   1      36.752  30.044  27.675  1.00  0.00     0.040 A 
ATOM     68  F   UNL A   1      38.880  29.749  26.729  1.00  0.00    -0.206 F 
ATOM     69  C   UNL A   1      35.895  29.977  28.771  1.00  0.00     0.006 A 
ENDBRANCH  48  62
BRANCH  49  70
ATOM     70  C   UNL A   1      48.149  26.401  29.706  1.00  0.00     0.057 A 
ATOM     71  C   UNL A   1      48.655  25.792  30.860  1.00  0.00     0.134 A 
ATOM     72  C   UNL A   1      49.042  26.631  28.653  1.00  0.00     0.134 A 
ATOM     73  F   UNL A   1      47.852  25.563  31.909  1.00  0.00    -0.206 F 
ATOM     74  C   UNL A   1      50.003  25.449  30.976  1.00  0.00     0.040 A 
ATOM     75  C   UNL A   1      50.387  26.271  28.745  1.00  0.00     0.040 A 
ATOM     76  F   UNL A   1      48.617  27.203  27.517  1.00  0.00    -0.206 F 
ATOM     77  C   UNL A   1      50.873  25.686  29.914  1.00  0.00     0.006 A 
ENDBRANCH  49  70
BRANCH  61  78
ATOM     78  C   UNL A   1      44.733  32.169  31.551  1.00  0.00     0.057 A 
ATOM     79  C   UNL A   1      45.187  33.280  30.830  1.00  0.00     0.134 A 
ATOM     80  C   UNL A   1      44.684  32.276  32.947  1.00  0.00     0.134 A 
ATOM     81  F   UNL A   1      45.271  33.235  29.492  1.00  0.00    -0.206 F 
ATOM     82  C   UNL A   1      45.601  34.447  31.475  1.00  0.00     0.040 A 
ATOM     83  C   UNL A   1      45.073  33.445  33.601  1.00  0.00     0.040 A 
ATOM     84  F   UNL A   1      44.253  31.249  33.695  1.00  0.00    -0.206 F 
ATOM     85  C   UNL A   1      45.539  34.533  32.866  1.00  0.00     0.006 A 
ENDBRANCH  61  78
ENDBRANCH  35  36
ENDBRANCH  27  30
ENDBRANCH  25  26
ENDBRANCH   1  25
TORSDOF 12
ENDMDL
