MODEL 1
REMARK VINA RESULT:     -12.2      0.000      0.000
REMARK SMILES O=C(NCCCCNC(=O)[C@@H]1CC=CC[C@@H]1C(=O)N1CCN(C(=O)c2sc3cc([N+](=O)[O-])ccc3c2Cl)CC1)c1ccc(-c2c3nc(c(-c4c(F)cccc4F)c4ccc([nH]4)c(-c4c(F)cccc4F)c4nc(c(-c5c(F)cccc5F)c5ccc2[nH]5)C=C4)C=C3)cc1
REMARK SMILES IDX 6 1 5 2 4 3 3 4 1 5 2 6 40 8 41 9 93 10 42 11 92 12 43 13
REMARK SMILES IDX 44 14 45 15 86 16 46 17 91 18 85 19 87 20 47 21 90 22 84 23
REMARK SMILES IDX 83 24 48 26 74 27 57 28 73 29 58 30 61 31 72 32 88 33 59 34
REMARK SMILES IDX 60 35 71 37 89 38 62 39 49 40 50 41 55 42 51 43 52 44 54 45
REMARK SMILES IDX 56 46 53 47 75 48 76 49 81 50 77 51 78 52 80 53 82 54 79 55
REMARK SMILES IDX 63 56 64 57 69 58 65 59 66 60 68 61 70 62 67 63 7 64 8 65
REMARK SMILES IDX 9 66 10 68 11 69 12 70 16 71 13 72 15 73 14 74 17 75 18 76
REMARK SMILES IDX 19 77 20 78 39 79 21 80 38 81 22 82 23 83 24 84 25 85 26 86
REMARK SMILES IDX 36 87 27 88 35 89 37 90 28 91 34 92 29 93 33 94 30 95 31 96
REMARK SMILES IDX 32 97
REMARK H PARENT 3 7 87 25 61 36 8 67
REMARK Flexibility Score: inf
ROOT
ATOM      1  C   UNL A   1      43.681  31.265  27.879  1.00  0.00     0.023 C 
ENDROOT
BRANCH   1   2
ATOM      2  C   UNL A   1      44.752  31.918  26.994  1.00  0.00     0.023 C 
BRANCH   2   3
ATOM      3  C   UNL A   1      44.610  33.406  26.689  1.00  0.00     0.116 C 
BRANCH   3   4
ATOM      4  N   UNL A   1      45.677  34.260  27.228  1.00  0.00    -0.352 N 
ATOM      5  O   UNL A   1      46.364  36.229  28.187  1.00  0.00    -0.269 OA
ATOM      6  C   UNL A   1      45.533  35.327  28.108  1.00  0.00     0.251 C 
ATOM      7  H   UNL A   1      46.593  34.055  26.933  1.00  0.00     0.163 HD
BRANCH   6   8
ATOM      8  C   UNL A   1      44.371  35.305  29.009  1.00  0.00     0.039 A 
ATOM      9  C   UNL A   1      43.202  36.038  28.823  1.00  0.00     0.014 A 
ATOM     10  C   UNL A   1      44.463  34.356  30.011  1.00  0.00     0.014 A 
ATOM     11  C   UNL A   1      42.089  35.700  29.597  1.00  0.00     0.010 A 
ATOM     12  C   UNL A   1      43.313  33.839  30.528  1.00  0.00     0.010 A 
ATOM     13  C   UNL A   1      42.140  34.560  30.422  1.00  0.00    -0.014 A 
BRANCH  13  14
ATOM     14  C   UNL A   1      40.971  34.027  31.115  1.00  0.00     0.031 A 
ATOM     15  C   UNL A   1      41.139  33.925  32.585  1.00  0.00     0.074 A 
ATOM     16  C   UNL A   1      39.781  33.786  30.514  1.00  0.00     0.049 A 
ATOM     17  N   UNL A   1      41.397  32.849  33.246  1.00  0.00    -0.248 NA
ATOM     18  C   UNL A   1      41.233  35.153  33.389  1.00  0.00     0.031 C 
ATOM     19  C   UNL A   1      39.361  34.066  29.132  1.00  0.00     0.029 A 
ATOM     20  N   UNL A   1      38.638  33.281  31.057  1.00  0.00    -0.354 N 
ATOM     21  C   UNL A   1      41.422  33.220  34.583  1.00  0.00     0.074 A 
ATOM     22  C   UNL A   1      41.539  34.655  34.592  1.00  0.00     0.031 C 
ATOM     23  C   UNL A   1      38.020  33.952  29.017  1.00  0.00     0.029 A 
ATOM     24  C   UNL A   1      37.507  33.393  30.250  1.00  0.00     0.049 A 
ATOM     25  H   UNL A   1      38.613  32.869  31.950  1.00  0.00     0.167 HD
ATOM     26  C   UNL A   1      41.044  32.327  35.540  1.00  0.00     0.037 A 
ATOM     27  C   UNL A   1      36.240  33.017  30.557  1.00  0.00     0.037 A 
ATOM     28  C   UNL A   1      41.009  30.985  34.997  1.00  0.00     0.049 A 
ATOM     29  C   UNL A   1      36.339  32.018  31.646  1.00  0.00     0.074 A 
ATOM     30  C   UNL A   1      41.925  30.156  34.377  1.00  0.00     0.029 A 
ATOM     31  N   UNL A   1      39.774  30.466  34.687  1.00  0.00    -0.354 N 
ATOM     32  N   UNL A   1      36.837  30.825  31.476  1.00  0.00    -0.248 NA
ATOM     33  C   UNL A   1      36.351  32.511  33.013  1.00  0.00     0.031 C 
ATOM     34  C   UNL A   1      41.191  29.499  33.343  1.00  0.00     0.029 A 
ATOM     35  C   UNL A   1      39.856  29.889  33.446  1.00  0.00     0.049 A 
ATOM     36  H   UNL A   1      38.972  30.501  35.256  1.00  0.00     0.167 HD
ATOM     37  C   UNL A   1      37.633  30.617  32.592  1.00  0.00     0.074 A 
ATOM     38  C   UNL A   1      37.223  31.649  33.547  1.00  0.00     0.031 C 
ATOM     39  C   UNL A   1      38.747  29.830  32.522  1.00  0.00     0.037 A 
BRANCH  26  40
ATOM     40  C   UNL A   1      40.267  32.689  36.785  1.00  0.00     0.057 A 
ATOM     41  C   UNL A   1      40.790  32.661  38.094  1.00  0.00     0.134 A 
ATOM     42  C   UNL A   1      39.073  33.422  36.635  1.00  0.00     0.134 A 
ATOM     43  F   UNL A   1      41.927  32.030  38.409  1.00  0.00    -0.206 F 
ATOM     44  C   UNL A   1      40.222  33.379  39.147  1.00  0.00     0.040 A 
ATOM     45  C   UNL A   1      38.524  34.182  37.673  1.00  0.00     0.040 A 
ATOM     46  F   UNL A   1      38.465  33.507  35.443  1.00  0.00    -0.206 F 
ATOM     47  C   UNL A   1      39.111  34.179  38.930  1.00  0.00     0.006 A 
ENDBRANCH  26  40
BRANCH  27  48
ATOM     48  C   UNL A   1      34.951  33.617  30.144  1.00  0.00     0.057 A 
ATOM     49  C   UNL A   1      34.376  33.320  28.896  1.00  0.00     0.134 A 
ATOM     50  C   UNL A   1      34.406  34.716  30.825  1.00  0.00     0.134 A 
ATOM     51  F   UNL A   1      34.861  32.330  28.131  1.00  0.00    -0.206 F 
ATOM     52  C   UNL A   1      33.344  34.088  28.344  1.00  0.00     0.040 A 
ATOM     53  C   UNL A   1      33.375  35.495  30.282  1.00  0.00     0.040 A 
ATOM     54  F   UNL A   1      34.908  35.103  32.006  1.00  0.00    -0.206 F 
ATOM     55  C   UNL A   1      32.851  35.190  29.030  1.00  0.00     0.006 A 
ENDBRANCH  27  48
BRANCH  39  56
ATOM     56  C   UNL A   1      38.925  28.990  31.285  1.00  0.00     0.057 A 
ATOM     57  C   UNL A   1      38.625  27.626  31.354  1.00  0.00     0.134 A 
ATOM     58  C   UNL A   1      39.475  29.453  30.079  1.00  0.00     0.134 A 
ATOM     59  F   UNL A   1      38.152  27.097  32.493  1.00  0.00    -0.206 F 
ATOM     60  C   UNL A   1      38.832  26.767  30.272  1.00  0.00     0.040 A 
ATOM     61  C   UNL A   1      39.658  28.611  28.976  1.00  0.00     0.040 A 
ATOM     62  F   UNL A   1      39.891  30.718  29.945  1.00  0.00    -0.206 F 
ATOM     63  C   UNL A   1      39.336  27.262  29.072  1.00  0.00     0.006 A 
ENDBRANCH  39  56
ENDBRANCH  13  14
ENDBRANCH   6   8
ENDBRANCH   3   4
ENDBRANCH   2   3
ENDBRANCH   1   2
BRANCH   1  64
ATOM     64  C   UNL A   1      43.737  29.743  28.058  1.00  0.00     0.116 C 
BRANCH  64  65
ATOM     65  N   UNL A   1      42.949  28.949  27.139  1.00  0.00    -0.356 N 
ATOM     66  C   UNL A   1      42.623  27.634  27.080  1.00  0.00     0.224 C 
ATOM     67  H   UNL A   1      42.569  29.475  26.400  1.00  0.00     0.163 HD
ATOM     68  O   UNL A   1      41.870  27.310  26.151  1.00  0.00    -0.275 OA
BRANCH  66  69
ATOM     69  C   UNL A   1      43.206  26.552  27.971  1.00  0.00     0.095 C 
ATOM     70  C   UNL A   1      44.717  26.362  27.966  1.00  0.00     0.041 C 
ATOM     71  C   UNL A   1      42.400  25.231  27.972  1.00  0.00     0.095 C 
ATOM     72  C   UNL A   1      45.180  25.344  28.954  1.00  0.00    -0.030 C 
ATOM     73  C   UNL A   1      42.884  24.352  29.166  1.00  0.00     0.041 C 
ATOM     74  C   UNL A   1      44.354  24.441  29.494  1.00  0.00    -0.030 C 
BRANCH  71  75
ATOM     75  C   UNL A   1      42.375  24.355  26.695  1.00  0.00     0.226 C 
ATOM     76  O   UNL A   1      43.375  24.170  26.002  1.00  0.00    -0.275 OA
ATOM     77  N   UNL A   1      41.210  23.623  26.481  1.00  0.00    -0.339 N 
ATOM     78  C   UNL A   1      41.256  22.224  26.037  1.00  0.00     0.141 C 
ATOM     79  C   UNL A   1      39.964  24.268  26.115  1.00  0.00     0.141 C 
ATOM     80  C   UNL A   1      39.985  21.449  26.494  1.00  0.00     0.141 C 
ATOM     81  C   UNL A   1      38.779  23.582  26.770  1.00  0.00     0.141 C 
ATOM     82  N   UNL A   1      38.736  22.209  26.267  1.00  0.00    -0.334 N 
ATOM     83  C   UNL A   1      37.656  21.635  25.592  1.00  0.00     0.265 C 
ATOM     84  O   UNL A   1      37.710  20.473  25.191  1.00  0.00    -0.268 OA
BRANCH  83  85
ATOM     85  C   UNL A   1      36.462  22.444  25.401  1.00  0.00     0.112 A 
ATOM     86  S   UNL A   1      35.376  22.597  26.709  1.00  0.00    -0.128 S 
ATOM     87  C   UNL A   1      35.998  23.106  24.283  1.00  0.00     0.072 A 
ATOM     88  C   UNL A   1      34.307  23.612  25.819  1.00  0.00     0.043 A 
ATOM     89  C   UNL A   1      34.776  23.838  24.522  1.00  0.00     0.012 A 
ATOM     90  Cl  UNL A   1      36.763  23.104  22.745  1.00  0.00    -0.082 Cl
ATOM     91  C   UNL A   1      33.098  24.169  26.285  1.00  0.00     0.105 A 
ATOM     92  C   UNL A   1      34.009  24.690  23.679  1.00  0.00     0.018 A 
ATOM     93  C   UNL A   1      32.361  24.990  25.418  1.00  0.00     0.270 A 
ATOM     94  C   UNL A   1      32.814  25.265  24.130  1.00  0.00     0.086 A 
BRANCH  93  95
ATOM     95  N   UNL A   1      31.087  25.562  25.880  1.00  0.00     0.062 N 
ATOM     96  O   UNL A   1      30.831  26.732  25.563  1.00  0.00    -0.258 OA
ATOM     97  O   UNL A   1      30.343  24.841  26.558  1.00  0.00    -0.258 OA
ENDBRANCH  93  95
ENDBRANCH  83  85
ENDBRANCH  71  75
ENDBRANCH  66  69
ENDBRANCH  64  65
ENDBRANCH   1  64
TORSDOF 14
ENDMDL
MODEL 2
REMARK VINA RESULT:     -12.0      4.700     10.790
REMARK SMILES O=C(NCCCCNC(=O)[C@@H]1CC=CC[C@@H]1C(=O)N1CCN(C(=O)c2sc3cc([N+](=O)[O-])ccc3c2Cl)CC1)c1ccc(-c2c3nc(c(-c4c(F)cccc4F)c4ccc([nH]4)c(-c4c(F)cccc4F)c4nc(c(-c5c(F)cccc5F)c5ccc2[nH]5)C=C4)C=C3)cc1
REMARK SMILES IDX 6 1 5 2 4 3 3 4 1 5 2 6 40 8 41 9 93 10 42 11 92 12 43 13
REMARK SMILES IDX 44 14 45 15 86 16 46 17 91 18 85 19 87 20 47 21 90 22 84 23
REMARK SMILES IDX 83 24 48 26 74 27 57 28 73 29 58 30 61 31 72 32 88 33 59 34
REMARK SMILES IDX 60 35 71 37 89 38 62 39 49 40 50 41 55 42 51 43 52 44 54 45
REMARK SMILES IDX 56 46 53 47 75 48 76 49 81 50 77 51 78 52 80 53 82 54 79 55
REMARK SMILES IDX 63 56 64 57 69 58 65 59 66 60 68 61 70 62 67 63 7 64 8 65
REMARK SMILES IDX 9 66 10 68 11 69 12 70 16 71 13 72 15 73 14 74 17 75 18 76
REMARK SMILES IDX 19 77 20 78 39 79 21 80 38 81 22 82 23 83 24 84 25 85 26 86
REMARK SMILES IDX 36 87 27 88 35 89 37 90 28 91 34 92 29 93 33 94 30 95 31 96
REMARK SMILES IDX 32 97
REMARK H PARENT 3 7 87 25 61 36 8 67
REMARK Flexibility Score: inf
ROOT
ATOM      1  C   UNL A   1      33.341  30.861  27.211  1.00  0.00     0.023 C 
ENDROOT
BRANCH   1   2
ATOM      2  C   UNL A   1      34.747  31.106  27.774  1.00  0.00     0.023 C 
BRANCH   2   3
ATOM      3  C   UNL A   1      35.505  29.909  28.340  1.00  0.00     0.116 C 
BRANCH   3   4
ATOM      4  N   UNL A   1      35.824  29.990  29.772  1.00  0.00    -0.352 N 
ATOM      5  O   UNL A   1      36.782  29.097  31.656  1.00  0.00    -0.269 OA
ATOM      6  C   UNL A   1      36.830  29.309  30.447  1.00  0.00     0.251 C 
ATOM      7  H   UNL A   1      35.262  30.592  30.312  1.00  0.00     0.163 HD
BRANCH   6   8
ATOM      8  C   UNL A   1      38.010  28.906  29.667  1.00  0.00     0.039 A 
ATOM      9  C   UNL A   1      38.516  29.596  28.569  1.00  0.00     0.014 A 
ATOM     10  C   UNL A   1      38.698  27.837  30.212  1.00  0.00     0.014 A 
ATOM     11  C   UNL A   1      39.792  29.256  28.114  1.00  0.00     0.010 A 
ATOM     12  C   UNL A   1      40.033  27.725  29.965  1.00  0.00     0.010 A 
ATOM     13  C   UNL A   1      40.569  28.341  28.851  1.00  0.00    -0.014 A 
BRANCH  13  14
ATOM     14  C   UNL A   1      41.973  28.072  28.559  1.00  0.00     0.031 A 
ATOM     15  C   UNL A   1      42.197  26.830  27.780  1.00  0.00     0.074 A 
ATOM     16  C   UNL A   1      42.981  28.939  28.827  1.00  0.00     0.049 A 
ATOM     17  N   UNL A   1      42.600  25.701  28.253  1.00  0.00    -0.248 NA
ATOM     18  C   UNL A   1      41.744  26.761  26.383  1.00  0.00     0.031 C 
ATOM     19  C   UNL A   1      42.915  30.310  29.357  1.00  0.00     0.029 A 
ATOM     20  N   UNL A   1      44.317  28.786  28.610  1.00  0.00    -0.354 N 
ATOM     21  C   UNL A   1      42.707  24.848  27.164  1.00  0.00     0.074 A 
ATOM     22  C   UNL A   1      41.967  25.473  26.099  1.00  0.00     0.031 C 
ATOM     23  C   UNL A   1      44.103  30.931  29.198  1.00  0.00     0.029 A 
ATOM     24  C   UNL A   1      45.070  29.951  28.750  1.00  0.00     0.049 A 
ATOM     25  H   UNL A   1      44.719  27.920  28.372  1.00  0.00     0.167 HD
ATOM     26  C   UNL A   1      43.645  23.859  27.169  1.00  0.00     0.037 A 
ATOM     27  C   UNL A   1      46.404  30.094  28.550  1.00  0.00     0.037 A 
ATOM     28  C   UNL A   1      44.155  23.650  28.508  1.00  0.00     0.049 A 
ATOM     29  C   UNL A   1      47.004  28.745  28.667  1.00  0.00     0.074 A 
ATOM     30  C   UNL A   1      43.594  23.325  29.729  1.00  0.00     0.029 A 
ATOM     31  N   UNL A   1      45.389  24.181  28.800  1.00  0.00    -0.354 N 
ATOM     32  N   UNL A   1      47.068  28.088  29.791  1.00  0.00    -0.248 NA
ATOM     33  C   UNL A   1      47.075  27.933  27.463  1.00  0.00     0.031 C 
ATOM     34  C   UNL A   1      44.297  24.123  30.683  1.00  0.00     0.029 A 
ATOM     35  C   UNL A   1      45.303  24.817  30.011  1.00  0.00     0.049 A 
ATOM     36  H   UNL A   1      46.194  24.116  28.237  1.00  0.00     0.167 HD
ATOM     37  C   UNL A   1      46.716  26.789  29.456  1.00  0.00     0.074 A 
ATOM     38  C   UNL A   1      46.822  26.733  27.997  1.00  0.00     0.031 C 
ATOM     39  C   UNL A   1      46.087  25.979  30.358  1.00  0.00     0.037 A 
BRANCH  26  40
ATOM     40  C   UNL A   1      44.432  23.424  25.953  1.00  0.00     0.057 A 
ATOM     41  C   UNL A   1      45.286  24.263  25.209  1.00  0.00     0.134 A 
ATOM     42  C   UNL A   1      44.611  22.044  25.734  1.00  0.00     0.134 A 
ATOM     43  F   UNL A   1      45.265  25.597  25.311  1.00  0.00    -0.206 F 
ATOM     44  C   UNL A   1      46.296  23.766  24.384  1.00  0.00     0.040 A 
ATOM     45  C   UNL A   1      45.651  21.538  24.947  1.00  0.00     0.040 A 
ATOM     46  F   UNL A   1      43.845  21.143  26.368  1.00  0.00    -0.206 F 
ATOM     47  C   UNL A   1      46.511  22.401  24.285  1.00  0.00     0.006 A 
ENDBRANCH  26  40
BRANCH  27  48
ATOM     48  C   UNL A   1      47.162  31.261  28.043  1.00  0.00     0.057 A 
ATOM     49  C   UNL A   1      48.094  31.931  28.854  1.00  0.00     0.134 A 
ATOM     50  C   UNL A   1      46.780  31.926  26.868  1.00  0.00     0.134 A 
ATOM     51  F   UNL A   1      48.481  31.416  30.031  1.00  0.00    -0.206 F 
ATOM     52  C   UNL A   1      48.591  33.200  28.534  1.00  0.00     0.040 A 
ATOM     53  C   UNL A   1      47.267  33.198  26.537  1.00  0.00     0.040 A 
ATOM     54  F   UNL A   1      45.870  31.386  26.045  1.00  0.00    -0.206 F 
ATOM     55  C   UNL A   1      48.165  33.846  27.381  1.00  0.00     0.006 A 
ENDBRANCH  27  48
BRANCH  39  56
ATOM     56  C   UNL A   1      46.035  26.443  31.789  1.00  0.00     0.057 A 
ATOM     57  C   UNL A   1      47.034  26.014  32.668  1.00  0.00     0.134 A 
ATOM     58  C   UNL A   1      44.991  27.201  32.344  1.00  0.00     0.134 A 
ATOM     59  F   UNL A   1      48.033  25.236  32.224  1.00  0.00    -0.206 F 
ATOM     60  C   UNL A   1      47.015  26.342  34.026  1.00  0.00     0.040 A 
ATOM     61  C   UNL A   1      44.977  27.565  33.696  1.00  0.00     0.040 A 
ATOM     62  F   UNL A   1      43.936  27.574  31.610  1.00  0.00    -0.206 F 
ATOM     63  C   UNL A   1      45.992  27.132  34.541  1.00  0.00     0.006 A 
ENDBRANCH  39  56
ENDBRANCH  13  14
ENDBRANCH   6   8
ENDBRANCH   3   4
ENDBRANCH   2   3
ENDBRANCH   1   2
BRANCH   1  64
ATOM     64  C   UNL A   1      33.013  29.452  26.704  1.00  0.00     0.116 C 
BRANCH  64  65
ATOM     65  N   UNL A   1      33.793  28.960  25.589  1.00  0.00    -0.356 N 
ATOM     66  C   UNL A   1      33.513  28.716  24.284  1.00  0.00     0.224 C 
ATOM     67  H   UNL A   1      34.728  28.763  25.827  1.00  0.00     0.163 HD
ATOM     68  O   UNL A   1      34.469  28.335  23.594  1.00  0.00    -0.275 OA
BRANCH  66  69
ATOM     69  C   UNL A   1      32.125  28.753  23.672  1.00  0.00     0.095 C 
ATOM     70  C   UNL A   1      31.174  29.852  24.125  1.00  0.00     0.041 C 
ATOM     71  C   UNL A   1      31.462  27.362  23.523  1.00  0.00     0.095 C 
ATOM     72  C   UNL A   1      29.880  29.848  23.381  1.00  0.00    -0.030 C 
ATOM     73  C   UNL A   1      30.229  27.495  22.579  1.00  0.00     0.041 C 
ATOM     74  C   UNL A   1      29.457  28.787  22.685  1.00  0.00    -0.030 C 
BRANCH  71  75
ATOM     75  C   UNL A   1      31.031  26.587  24.792  1.00  0.00     0.226 C 
ATOM     76  O   UNL A   1      30.215  27.037  25.595  1.00  0.00    -0.275 OA
ATOM     77  N   UNL A   1      31.460  25.265  24.874  1.00  0.00    -0.339 N 
ATOM     78  C   UNL A   1      30.561  24.194  25.325  1.00  0.00     0.141 C 
ATOM     79  C   UNL A   1      32.854  24.930  25.092  1.00  0.00     0.141 C 
ATOM     80  C   UNL A   1      30.983  22.819  24.727  1.00  0.00     0.141 C 
ATOM     81  C   UNL A   1      33.251  23.693  24.308  1.00  0.00     0.141 C 
ATOM     82  N   UNL A   1      32.442  22.581  24.807  1.00  0.00    -0.334 N 
ATOM     83  C   UNL A   1      32.950  21.402  25.357  1.00  0.00     0.265 C 
ATOM     84  O   UNL A   1      32.194  20.521  25.765  1.00  0.00    -0.268 OA
BRANCH  83  85
ATOM     85  C   UNL A   1      34.394  21.239  25.407  1.00  0.00     0.112 A 
ATOM     86  S   UNL A   1      35.328  22.517  26.045  1.00  0.00    -0.128 S 
ATOM     87  C   UNL A   1      35.194  20.205  24.965  1.00  0.00     0.072 A 
ATOM     88  C   UNL A   1      36.810  21.674  25.807  1.00  0.00     0.043 A 
ATOM     89  C   UNL A   1      36.597  20.413  25.241  1.00  0.00     0.012 A 
ATOM     90  Cl  UNL A   1      34.631  18.787  24.176  1.00  0.00    -0.082 Cl
ATOM     91  C   UNL A   1      38.102  22.145  26.120  1.00  0.00     0.105 A 
ATOM     92  C   UNL A   1      37.734  19.587  25.018  1.00  0.00     0.018 A 
ATOM     93  C   UNL A   1      39.199  21.307  25.869  1.00  0.00     0.270 A 
ATOM     94  C   UNL A   1      39.023  20.031  25.338  1.00  0.00     0.086 A 
BRANCH  93  95
ATOM     95  N   UNL A   1      40.555  21.789  26.170  1.00  0.00     0.062 N 
ATOM     96  O   UNL A   1      41.234  22.224  25.230  1.00  0.00    -0.258 OA
ATOM     97  O   UNL A   1      40.940  21.735  27.346  1.00  0.00    -0.258 OA
ENDBRANCH  93  95
ENDBRANCH  83  85
ENDBRANCH  71  75
ENDBRANCH  66  69
ENDBRANCH  64  65
ENDBRANCH   1  64
TORSDOF 14
ENDMDL
MODEL 3
REMARK VINA RESULT:     -11.7      5.111     10.838
REMARK SMILES O=C(NCCCCNC(=O)[C@@H]1CC=CC[C@@H]1C(=O)N1CCN(C(=O)c2sc3cc([N+](=O)[O-])ccc3c2Cl)CC1)c1ccc(-c2c3nc(c(-c4c(F)cccc4F)c4ccc([nH]4)c(-c4c(F)cccc4F)c4nc(c(-c5c(F)cccc5F)c5ccc2[nH]5)C=C4)C=C3)cc1
REMARK SMILES IDX 6 1 5 2 4 3 3 4 1 5 2 6 40 8 41 9 93 10 42 11 92 12 43 13
REMARK SMILES IDX 44 14 45 15 86 16 46 17 91 18 85 19 87 20 47 21 90 22 84 23
REMARK SMILES IDX 83 24 48 26 74 27 57 28 73 29 58 30 61 31 72 32 88 33 59 34
REMARK SMILES IDX 60 35 71 37 89 38 62 39 49 40 50 41 55 42 51 43 52 44 54 45
REMARK SMILES IDX 56 46 53 47 75 48 76 49 81 50 77 51 78 52 80 53 82 54 79 55
REMARK SMILES IDX 63 56 64 57 69 58 65 59 66 60 68 61 70 62 67 63 7 64 8 65
REMARK SMILES IDX 9 66 10 68 11 69 12 70 16 71 13 72 15 73 14 74 17 75 18 76
REMARK SMILES IDX 19 77 20 78 39 79 21 80 38 81 22 82 23 83 24 84 25 85 26 86
REMARK SMILES IDX 36 87 27 88 35 89 37 90 28 91 34 92 29 93 33 94 30 95 31 96
REMARK SMILES IDX 32 97
REMARK H PARENT 3 7 87 25 61 36 8 67
REMARK Flexibility Score: inf
ROOT
ATOM      1  C   UNL A   1      33.035  29.809  25.793  1.00  0.00     0.023 C 
ENDROOT
BRANCH   1   2
ATOM      2  C   UNL A   1      33.666  29.093  26.994  1.00  0.00     0.023 C 
BRANCH   2   3
ATOM      3  C   UNL A   1      35.151  29.327  27.261  1.00  0.00     0.116 C 
BRANCH   3   4
ATOM      4  N   UNL A   1      35.466  29.924  28.566  1.00  0.00    -0.352 N 
ATOM      5  O   UNL A   1      36.503  29.818  30.611  1.00  0.00    -0.269 OA
ATOM      6  C   UNL A   1      36.529  29.601  29.401  1.00  0.00     0.251 C 
ATOM      7  H   UNL A   1      34.856  30.629  28.884  1.00  0.00     0.163 HD
BRANCH   6   8
ATOM      8  C   UNL A   1      37.737  29.048  28.771  1.00  0.00     0.039 A 
ATOM      9  C   UNL A   1      38.350  29.563  27.632  1.00  0.00     0.014 A 
ATOM     10  C   UNL A   1      38.331  28.034  29.500  1.00  0.00     0.014 A 
ATOM     11  C   UNL A   1      39.635  29.111  27.321  1.00  0.00     0.010 A 
ATOM     12  C   UNL A   1      39.672  27.835  29.370  1.00  0.00     0.010 A 
ATOM     13  C   UNL A   1      40.313  28.273  28.227  1.00  0.00    -0.014 A 
BRANCH  13  14
ATOM     14  C   UNL A   1      41.718  27.909  28.077  1.00  0.00     0.031 A 
ATOM     15  C   UNL A   1      41.936  26.655  27.316  1.00  0.00     0.074 A 
ATOM     16  C   UNL A   1      42.749  28.705  28.453  1.00  0.00     0.049 A 
ATOM     17  N   UNL A   1      42.210  25.501  27.820  1.00  0.00    -0.248 NA
ATOM     18  C   UNL A   1      41.624  26.617  25.879  1.00  0.00     0.031 C 
ATOM     19  C   UNL A   1      42.723  30.077  28.983  1.00  0.00     0.029 A 
ATOM     20  N   UNL A   1      44.087  28.462  28.371  1.00  0.00    -0.354 N 
ATOM     21  C   UNL A   1      42.370  24.642  26.741  1.00  0.00     0.074 A 
ATOM     22  C   UNL A   1      41.786  25.317  25.611  1.00  0.00     0.031 C 
ATOM     23  C   UNL A   1      43.960  30.616  28.950  1.00  0.00     0.029 A 
ATOM     24  C   UNL A   1      44.899  29.572  28.595  1.00  0.00     0.049 A 
ATOM     25  H   UNL A   1      44.452  27.570  28.170  1.00  0.00     0.167 HD
ATOM     26  C   UNL A   1      43.233  23.592  26.834  1.00  0.00     0.037 A 
ATOM     27  C   UNL A   1      46.253  29.625  28.533  1.00  0.00     0.037 A 
ATOM     28  C   UNL A   1      43.589  23.348  28.217  1.00  0.00     0.049 A 
ATOM     29  C   UNL A   1      46.746  28.237  28.701  1.00  0.00     0.074 A 
ATOM     30  C   UNL A   1      42.886  23.063  29.371  1.00  0.00     0.029 A 
ATOM     31  N   UNL A   1      44.820  23.794  28.636  1.00  0.00    -0.354 N 
ATOM     32  N   UNL A   1      46.650  27.578  29.821  1.00  0.00    -0.248 NA
ATOM     33  C   UNL A   1      46.884  27.423  27.505  1.00  0.00     0.031 C 
ATOM     34  C   UNL A   1      43.540  23.810  30.398  1.00  0.00     0.029 A 
ATOM     35  C   UNL A   1      44.654  24.434  29.837  1.00  0.00     0.049 A 
ATOM     36  H   UNL A   1      45.672  23.675  28.157  1.00  0.00     0.167 HD
ATOM     37  C   UNL A   1      46.247  26.305  29.442  1.00  0.00     0.074 A 
ATOM     38  C   UNL A   1      46.496  26.243  28.001  1.00  0.00     0.031 C 
ATOM     39  C   UNL A   1      45.475  25.540  30.270  1.00  0.00     0.037 A 
BRANCH  26  40
ATOM     40  C   UNL A   1      44.108  23.105  25.701  1.00  0.00     0.057 A 
ATOM     41  C   UNL A   1      45.068  23.893  25.033  1.00  0.00     0.134 A 
ATOM     42  C   UNL A   1      44.241  21.715  25.512  1.00  0.00     0.134 A 
ATOM     43  F   UNL A   1      45.101  25.227  25.122  1.00  0.00    -0.206 F 
ATOM     44  C   UNL A   1      46.126  23.339  24.311  1.00  0.00     0.040 A 
ATOM     45  C   UNL A   1      45.325  21.151  24.831  1.00  0.00     0.040 A 
ATOM     46  F   UNL A   1      43.377  20.860  26.079  1.00  0.00    -0.206 F 
ATOM     47  C   UNL A   1      46.284  21.964  24.245  1.00  0.00     0.006 A 
ENDBRANCH  26  40
BRANCH  27  48
ATOM     48  C   UNL A   1      47.137  30.737  28.115  1.00  0.00     0.057 A 
ATOM     49  C   UNL A   1      47.949  31.411  29.044  1.00  0.00     0.134 A 
ATOM     50  C   UNL A   1      46.986  31.358  26.866  1.00  0.00     0.134 A 
ATOM     51  F   UNL A   1      48.110  30.939  30.289  1.00  0.00    -0.206 F 
ATOM     52  C   UNL A   1      48.548  32.643  28.760  1.00  0.00     0.040 A 
ATOM     53  C   UNL A   1      47.578  32.594  26.570  1.00  0.00     0.040 A 
ATOM     54  F   UNL A   1      46.204  30.813  25.923  1.00  0.00    -0.206 F 
ATOM     55  C   UNL A   1      48.350  33.248  27.526  1.00  0.00     0.006 A 
ENDBRANCH  27  48
BRANCH  39  56
ATOM     56  C   UNL A   1      45.309  26.006  31.692  1.00  0.00     0.057 A 
ATOM     57  C   UNL A   1      46.250  25.600  32.643  1.00  0.00     0.134 A 
ATOM     58  C   UNL A   1      44.213  26.743  32.166  1.00  0.00     0.134 A 
ATOM     59  F   UNL A   1      47.295  24.842  32.275  1.00  0.00    -0.206 F 
ATOM     60  C   UNL A   1      46.126  25.930  33.994  1.00  0.00     0.040 A 
ATOM     61  C   UNL A   1      44.092  27.109  33.512  1.00  0.00     0.040 A 
ATOM     62  F   UNL A   1      43.206  27.091  31.356  1.00  0.00    -0.206 F 
ATOM     63  C   UNL A   1      45.052  26.700  34.430  1.00  0.00     0.006 A 
ENDBRANCH  39  56
ENDBRANCH  13  14
ENDBRANCH   6   8
ENDBRANCH   3   4
ENDBRANCH   2   3
ENDBRANCH   1   2
BRANCH   1  64
ATOM     64  C   UNL A   1      31.607  29.413  25.398  1.00  0.00     0.116 C 
BRANCH  64  65
ATOM     65  N   UNL A   1      31.195  29.719  24.045  1.00  0.00    -0.356 N 
ATOM     66  C   UNL A   1      30.677  28.979  23.033  1.00  0.00     0.224 C 
ATOM     67  H   UNL A   1      31.315  30.667  23.809  1.00  0.00     0.163 HD
ATOM     68  O   UNL A   1      30.394  29.605  22.002  1.00  0.00    -0.275 OA
BRANCH  66  69
ATOM     69  C   UNL A   1      30.551  27.467  23.038  1.00  0.00     0.095 C 
ATOM     70  C   UNL A   1      30.308  26.776  24.373  1.00  0.00     0.041 C 
ATOM     71  C   UNL A   1      31.571  26.743  22.126  1.00  0.00     0.095 C 
ATOM     72  C   UNL A   1      30.099  25.304  24.239  1.00  0.00    -0.030 C 
ATOM     73  C   UNL A   1      31.117  25.263  21.945  1.00  0.00     0.041 C 
ATOM     74  C   UNL A   1      30.463  24.625  23.145  1.00  0.00    -0.030 C 
BRANCH  71  75
ATOM     75  C   UNL A   1      33.072  26.756  22.506  1.00  0.00     0.226 C 
ATOM     76  O   UNL A   1      33.849  27.619  22.100  1.00  0.00    -0.275 OA
ATOM     77  N   UNL A   1      33.458  25.855  23.497  1.00  0.00    -0.339 N 
ATOM     78  C   UNL A   1      34.374  26.250  24.574  1.00  0.00     0.141 C 
ATOM     79  C   UNL A   1      33.487  24.426  23.255  1.00  0.00     0.141 C 
ATOM     80  C   UNL A   1      34.142  25.387  25.850  1.00  0.00     0.141 C 
ATOM     81  C   UNL A   1      33.045  23.653  24.483  1.00  0.00     0.141 C 
ATOM     82  N   UNL A   1      34.001  23.944  25.551  1.00  0.00    -0.334 N 
ATOM     83  C   UNL A   1      34.765  22.991  26.227  1.00  0.00     0.265 C 
ATOM     84  O   UNL A   1      35.557  23.327  27.107  1.00  0.00    -0.268 OA
BRANCH  83  85
ATOM     85  C   UNL A   1      34.576  21.592  25.877  1.00  0.00     0.112 A 
ATOM     86  S   UNL A   1      33.218  20.778  26.515  1.00  0.00    -0.128 S 
ATOM     87  C   UNL A   1      35.361  20.744  25.123  1.00  0.00     0.072 A 
ATOM     88  C   UNL A   1      33.622  19.300  25.730  1.00  0.00     0.043 A 
ATOM     89  C   UNL A   1      34.794  19.423  24.978  1.00  0.00     0.012 A 
ATOM     90  Cl  UNL A   1      36.858  21.168  24.397  1.00  0.00    -0.082 Cl
ATOM     91  C   UNL A   1      32.903  18.088  25.804  1.00  0.00     0.105 A 
ATOM     92  C   UNL A   1      35.232  18.285  24.244  1.00  0.00     0.018 A 
ATOM     93  C   UNL A   1      33.378  16.984  25.079  1.00  0.00     0.270 A 
ATOM     94  C   UNL A   1      34.523  17.078  24.292  1.00  0.00     0.086 A 
BRANCH  93  95
ATOM     95  N   UNL A   1      32.653  15.707  25.161  1.00  0.00     0.062 N 
ATOM     96  O   UNL A   1      33.304  14.663  25.014  1.00  0.00    -0.258 OA
ATOM     97  O   UNL A   1      31.433  15.748  25.373  1.00  0.00    -0.258 OA
ENDBRANCH  93  95
ENDBRANCH  83  85
ENDBRANCH  71  75
ENDBRANCH  66  69
ENDBRANCH  64  65
ENDBRANCH   1  64
TORSDOF 14
ENDMDL
