MODEL 1
REMARK VINA RESULT:     -12.3      0.000      0.000
REMARK SMILES [NH3+][C@]1(C(=O)NCCCCNC(=O)c2ccc(-c3c4nc(c(-c5c(F)cccc5F)c5ccc([nH]5)c(-c5c(F)cccc5F)c5nc(c(-c6c(F)cccc6F)c6ccc3[nH]6)C=C5)C=C4)cc2)CC[C@@H](Sc2cc3ccccc3[nH]2)C1
REMARK SMILES IDX 7 1 6 2 5 3 3 4 4 5 2 7 67 8 80 9 68 10 69 11 1 12 70 16
REMARK SMILES IDX 71 17 72 18 79 19 73 20 78 21 74 23 77 24 75 25 76 26 8 27
REMARK SMILES IDX 9 28 10 29 11 30 12 32 13 33 14 34 66 35 15 36 65 37 16 38
REMARK SMILES IDX 17 39 18 40 59 41 19 42 64 43 58 44 60 45 20 46 63 47 57 48
REMARK SMILES IDX 56 49 21 51 47 52 30 53 46 54 31 55 34 56 45 57 61 58 32 59
REMARK SMILES IDX 33 60 44 62 62 63 35 64 22 65 23 66 28 67 24 68 25 69 27 70
REMARK SMILES IDX 29 71 26 72 48 73 49 74 54 75 50 76 51 77 53 78 55 79 52 80
REMARK SMILES IDX 36 81 37 82 42 83 38 84 39 85 41 86 43 87 40 88
REMARK H PARENT 5 6 1 13 1 14 1 15 79 22 10 31 60 50 34 61
REMARK Flexibility Score: inf
ROOT
ATOM      1  C   UNL A   1      36.947  22.201  24.123  1.00  0.00     0.023 C 
ENDROOT
BRANCH   1   2
ATOM      2  C   UNL A   1      35.478  22.524  24.360  1.00  0.00     0.116 C 
BRANCH   2   3
ATOM      3  N   UNL A   1      34.769  22.876  23.149  1.00  0.00    -0.351 N 
ATOM      4  C   UNL A   1      33.879  23.862  22.852  1.00  0.00     0.281 C 
ATOM      5  O   UNL A   1      33.582  23.965  21.657  1.00  0.00    -0.268 OA
ATOM      6  H   UNL A   1      34.970  22.283  22.388  1.00  0.00     0.163 HD
BRANCH   4   7
ATOM      7  C   UNL A   1      33.183  24.731  23.929  1.00  0.00     0.175 C 
ATOM      8  C   UNL A   1      34.194  25.599  24.702  1.00  0.00     0.080 C 
ATOM      9  C   UNL A   1      32.309  25.791  23.252  1.00  0.00     0.094 C 
ATOM     10  C   UNL A   1      33.344  26.720  25.287  1.00  0.00     0.022 C 
ATOM     11  C   UNL A   1      32.282  26.981  24.222  1.00  0.00     0.060 C 
BRANCH   7  12
ATOM     12  N   UNL A   1      32.424  23.971  24.942  1.00  0.00    -0.345 N 
ATOM     13  H   UNL A   1      33.055  23.668  25.684  1.00  0.00     0.345 HD
ATOM     14  H   UNL A   1      31.997  23.155  24.505  1.00  0.00     0.345 HD
ATOM     15  H   UNL A   1      31.696  24.566  25.338  1.00  0.00     0.345 HD
ENDBRANCH   7  12
BRANCH  11  16
ATOM     16  S   UNL A   1      32.352  28.510  23.273  1.00  0.00    -0.105 SA
BRANCH  16  17
ATOM     17  C   UNL A   1      30.843  28.720  22.449  1.00  0.00     0.073 A 
ATOM     18  C   UNL A   1      29.586  28.273  22.800  1.00  0.00     0.043 A 
ATOM     19  N   UNL A   1      30.668  29.864  21.715  1.00  0.00    -0.350 N 
ATOM     20  C   UNL A   1      28.790  29.466  22.829  1.00  0.00     0.001 A 
ATOM     21  C   UNL A   1      29.519  30.465  22.183  1.00  0.00     0.046 A 
ATOM     22  H   UNL A   1      31.251  30.194  20.993  1.00  0.00     0.167 HD
ATOM     23  C   UNL A   1      27.603  29.824  23.494  1.00  0.00     0.010 A 
ATOM     24  C   UNL A   1      29.149  31.811  22.179  1.00  0.00     0.027 A 
ATOM     25  C   UNL A   1      27.266  31.182  23.582  1.00  0.00     0.001 A 
ATOM     26  C   UNL A   1      28.031  32.156  22.941  1.00  0.00     0.002 A 
ENDBRANCH  16  17
ENDBRANCH  11  16
ENDBRANCH   4   7
ENDBRANCH   2   3
ENDBRANCH   1   2
BRANCH   1  27
ATOM     27  C   UNL A   1      37.422  20.860  24.677  1.00  0.00     0.023 C 
BRANCH  27  28
ATOM     28  C   UNL A   1      38.526  20.931  25.727  1.00  0.00     0.116 C 
BRANCH  28  29
ATOM     29  N   UNL A   1      39.463  19.820  25.665  1.00  0.00    -0.352 N 
ATOM     30  C   UNL A   1      40.791  19.783  26.034  1.00  0.00     0.251 C 
ATOM     31  H   UNL A   1      39.098  18.977  25.311  1.00  0.00     0.163 HD
ATOM     32  O   UNL A   1      41.458  18.784  25.845  1.00  0.00    -0.269 OA
BRANCH  30  33
ATOM     33  C   UNL A   1      41.404  20.994  26.621  1.00  0.00     0.039 A 
ATOM     34  C   UNL A   1      41.992  21.927  25.765  1.00  0.00     0.014 A 
ATOM     35  C   UNL A   1      41.352  21.226  27.998  1.00  0.00     0.014 A 
ATOM     36  C   UNL A   1      42.457  23.137  26.282  1.00  0.00     0.010 A 
ATOM     37  C   UNL A   1      41.748  22.461  28.500  1.00  0.00     0.010 A 
ATOM     38  C   UNL A   1      42.299  23.430  27.647  1.00  0.00    -0.014 A 
BRANCH  38  39
ATOM     39  C   UNL A   1      42.691  24.749  28.200  1.00  0.00     0.031 A 
ATOM     40  C   UNL A   1      41.655  25.816  28.410  1.00  0.00     0.074 A 
ATOM     41  C   UNL A   1      43.992  25.011  28.440  1.00  0.00     0.049 A 
ATOM     42  N   UNL A   1      41.810  27.053  28.806  1.00  0.00    -0.248 NA
ATOM     43  C   UNL A   1      40.261  25.454  28.103  1.00  0.00     0.031 C 
ATOM     44  C   UNL A   1      45.099  24.078  28.224  1.00  0.00     0.029 A 
ATOM     45  N   UNL A   1      44.604  26.149  28.906  1.00  0.00    -0.354 N 
ATOM     46  C   UNL A   1      40.543  27.621  28.777  1.00  0.00     0.074 A 
ATOM     47  C   UNL A   1      39.638  26.610  28.278  1.00  0.00     0.031 C 
ATOM     48  C   UNL A   1      46.250  24.673  28.573  1.00  0.00     0.029 A 
ATOM     49  C   UNL A   1      45.969  26.039  29.003  1.00  0.00     0.049 A 
ATOM     50  H   UNL A   1      44.110  26.965  29.147  1.00  0.00     0.167 HD
ATOM     51  C   UNL A   1      40.165  28.864  29.154  1.00  0.00     0.037 A 
ATOM     52  C   UNL A   1      46.891  26.941  29.389  1.00  0.00     0.037 A 
ATOM     53  C   UNL A   1      41.064  29.857  29.682  1.00  0.00     0.049 A 
ATOM     54  C   UNL A   1      46.444  28.312  29.813  1.00  0.00     0.074 A 
ATOM     55  C   UNL A   1      40.766  31.119  30.165  1.00  0.00     0.029 A 
ATOM     56  N   UNL A   1      42.437  29.698  29.794  1.00  0.00    -0.354 N 
ATOM     57  N   UNL A   1      45.231  28.809  29.858  1.00  0.00    -0.248 NA
ATOM     58  C   UNL A   1      47.492  29.248  30.245  1.00  0.00     0.031 C 
ATOM     59  C   UNL A   1      41.965  31.741  30.529  1.00  0.00     0.029 A 
ATOM     60  C   UNL A   1      43.003  30.849  30.317  1.00  0.00     0.049 A 
ATOM     61  H   UNL A   1      42.935  28.888  29.541  1.00  0.00     0.167 HD
ATOM     62  C   UNL A   1      45.367  30.102  30.348  1.00  0.00     0.074 A 
ATOM     63  C   UNL A   1      46.778  30.307  30.599  1.00  0.00     0.031 C 
ATOM     64  C   UNL A   1      44.409  31.034  30.570  1.00  0.00     0.037 A 
BRANCH  51  65
ATOM     65  C   UNL A   1      38.714  29.221  29.014  1.00  0.00     0.057 A 
ATOM     66  C   UNL A   1      38.168  29.627  27.789  1.00  0.00     0.134 A 
ATOM     67  C   UNL A   1      37.846  29.126  30.108  1.00  0.00     0.134 A 
ATOM     68  F   UNL A   1      38.948  29.751  26.704  1.00  0.00    -0.206 F 
ATOM     69  C   UNL A   1      36.815  29.949  27.663  1.00  0.00     0.040 A 
ATOM     70  C   UNL A   1      36.486  29.419  29.989  1.00  0.00     0.040 A 
ATOM     71  F   UNL A   1      38.302  28.739  31.309  1.00  0.00    -0.206 F 
ATOM     72  C   UNL A   1      35.969  29.837  28.765  1.00  0.00     0.006 A 
ENDBRANCH  51  65
BRANCH  52  73
ATOM     73  C   UNL A   1      48.330  26.574  29.414  1.00  0.00     0.057 A 
ATOM     74  C   UNL A   1      49.166  26.858  28.328  1.00  0.00     0.134 A 
ATOM     75  C   UNL A   1      48.900  25.921  30.513  1.00  0.00     0.134 A 
ATOM     76  F   UNL A   1      48.674  27.465  27.239  1.00  0.00    -0.206 F 
ATOM     77  C   UNL A   1      50.512  26.486  28.323  1.00  0.00     0.040 A 
ATOM     78  C   UNL A   1      50.250  25.565  30.532  1.00  0.00     0.040 A 
ATOM     79  F   UNL A   1      48.154  25.628  31.589  1.00  0.00    -0.206 F 
ATOM     80  C   UNL A   1      51.058  25.840  29.431  1.00  0.00     0.006 A 
ENDBRANCH  52  73
BRANCH  64  81
ATOM     81  C   UNL A   1      44.849  32.347  31.145  1.00  0.00     0.057 A 
ATOM     82  C   UNL A   1      45.201  33.430  30.329  1.00  0.00     0.134 A 
ATOM     83  C   UNL A   1      44.881  32.543  32.531  1.00  0.00     0.134 A 
ATOM     84  F   UNL A   1      45.204  33.304  28.994  1.00  0.00    -0.206 F 
ATOM     85  C   UNL A   1      45.589  34.655  30.875  1.00  0.00     0.040 A 
ATOM     86  C   UNL A   1      45.241  33.770  33.087  1.00  0.00     0.040 A 
ATOM     87  F   UNL A   1      44.547  31.548  33.368  1.00  0.00    -0.206 F 
ATOM     88  C   UNL A   1      45.602  34.830  32.258  1.00  0.00     0.006 A 
ENDBRANCH  64  81
ENDBRANCH  38  39
ENDBRANCH  30  33
ENDBRANCH  28  29
ENDBRANCH  27  28
ENDBRANCH   1  27
TORSDOF 14
ENDMDL
MODEL 2
REMARK VINA RESULT:     -12.1      4.538      8.384
REMARK SMILES [NH3+][C@]1(C(=O)NCCCCNC(=O)c2ccc(-c3c4nc(c(-c5c(F)cccc5F)c5ccc([nH]5)c(-c5c(F)cccc5F)c5nc(c(-c6c(F)cccc6F)c6ccc3[nH]6)C=C5)C=C4)cc2)CC[C@@H](Sc2cc3ccccc3[nH]2)C1
REMARK SMILES IDX 7 1 6 2 5 3 3 4 4 5 2 7 67 8 80 9 68 10 69 11 1 12 70 16
REMARK SMILES IDX 71 17 72 18 79 19 73 20 78 21 74 23 77 24 75 25 76 26 8 27
REMARK SMILES IDX 9 28 10 29 11 30 12 32 13 33 14 34 66 35 15 36 65 37 16 38
REMARK SMILES IDX 17 39 18 40 59 41 19 42 64 43 58 44 60 45 20 46 63 47 57 48
REMARK SMILES IDX 56 49 21 51 47 52 30 53 46 54 31 55 34 56 45 57 61 58 32 59
REMARK SMILES IDX 33 60 44 62 62 63 35 64 22 65 23 66 28 67 24 68 25 69 27 70
REMARK SMILES IDX 29 71 26 72 48 73 49 74 54 75 50 76 51 77 53 78 55 79 52 80
REMARK SMILES IDX 36 81 37 82 42 83 38 84 39 85 41 86 43 87 40 88
REMARK H PARENT 5 6 1 13 1 14 1 15 79 22 10 31 60 50 34 61
REMARK Flexibility Score: inf
ROOT
ATOM      1  C   UNL A   1      41.250  21.005  26.179  1.00  0.00     0.023 C 
ENDROOT
BRANCH   1   2
ATOM      2  C   UNL A   1      39.812  21.266  26.606  1.00  0.00     0.116 C 
BRANCH   2   3
ATOM      3  N   UNL A   1      39.495  22.674  26.710  1.00  0.00    -0.351 N 
ATOM      4  C   UNL A   1      38.412  23.408  26.332  1.00  0.00     0.281 C 
ATOM      5  O   UNL A   1      38.408  24.582  26.717  1.00  0.00    -0.268 OA
ATOM      6  H   UNL A   1      40.203  23.207  27.139  1.00  0.00     0.163 HD
BRANCH   4   7
ATOM      7  C   UNL A   1      37.309  22.869  25.387  1.00  0.00     0.175 C 
ATOM      8  C   UNL A   1      37.370  21.336  25.256  1.00  0.00     0.080 C 
ATOM      9  C   UNL A   1      35.934  23.077  26.030  1.00  0.00     0.094 C 
ATOM     10  C   UNL A   1      35.974  20.952  24.781  1.00  0.00     0.022 C 
ATOM     11  C   UNL A   1      35.051  21.944  25.486  1.00  0.00     0.060 C 
BRANCH   7  12
ATOM     12  N   UNL A   1      37.351  23.410  24.014  1.00  0.00    -0.345 N 
ATOM     13  H   UNL A   1      37.839  22.754  23.405  1.00  0.00     0.345 HD
ATOM     14  H   UNL A   1      37.841  24.303  24.015  1.00  0.00     0.345 HD
ATOM     15  H   UNL A   1      36.399  23.545  23.673  1.00  0.00     0.345 HD
ENDBRANCH   7  12
BRANCH  11  16
ATOM     16  S   UNL A   1      33.978  21.354  26.806  1.00  0.00    -0.105 SA
BRANCH  16  17
ATOM     17  C   UNL A   1      32.835  20.239  26.133  1.00  0.00     0.073 A 
ATOM     18  C   UNL A   1      32.235  20.247  24.891  1.00  0.00     0.043 A 
ATOM     19  N   UNL A   1      32.905  18.930  26.534  1.00  0.00    -0.350 N 
ATOM     20  C   UNL A   1      32.561  18.963  24.341  1.00  0.00     0.001 A 
ATOM     21  C   UNL A   1      33.029  18.171  25.390  1.00  0.00     0.046 A 
ATOM     22  H   UNL A   1      32.874  18.597  27.460  1.00  0.00     0.167 HD
ATOM     23  C   UNL A   1      32.663  18.468  23.028  1.00  0.00     0.010 A 
ATOM     24  C   UNL A   1      33.618  16.918  25.208  1.00  0.00     0.027 A 
ATOM     25  C   UNL A   1      33.337  17.257  22.817  1.00  0.00     0.001 A 
ATOM     26  C   UNL A   1      33.811  16.501  23.890  1.00  0.00     0.002 A 
ENDBRANCH  16  17
ENDBRANCH  11  16
ENDBRANCH   4   7
ENDBRANCH   2   3
ENDBRANCH   1   2
BRANCH   1  27
ATOM     27  C   UNL A   1      41.644  19.535  26.064  1.00  0.00     0.023 C 
BRANCH  27  28
ATOM     28  C   UNL A   1      43.124  19.228  26.265  1.00  0.00     0.116 C 
BRANCH  28  29
ATOM     29  N   UNL A   1      43.801  18.794  25.052  1.00  0.00    -0.352 N 
ATOM     30  C   UNL A   1      44.648  19.504  24.229  1.00  0.00     0.251 C 
ATOM     31  H   UNL A   1      43.630  17.862  24.783  1.00  0.00     0.163 HD
ATOM     32  O   UNL A   1      45.073  19.009  23.203  1.00  0.00    -0.269 OA
BRANCH  30  33
ATOM     33  C   UNL A   1      44.996  20.895  24.590  1.00  0.00     0.039 A 
ATOM     34  C   UNL A   1      44.604  21.925  23.732  1.00  0.00     0.014 A 
ATOM     35  C   UNL A   1      45.658  21.179  25.786  1.00  0.00     0.014 A 
ATOM     36  C   UNL A   1      44.803  23.252  24.117  1.00  0.00     0.010 A 
ATOM     37  C   UNL A   1      45.789  22.501  26.200  1.00  0.00     0.010 A 
ATOM     38  C   UNL A   1      45.359  23.549  25.373  1.00  0.00    -0.014 A 
BRANCH  38  39
ATOM     39  C   UNL A   1      45.485  24.950  25.846  1.00  0.00     0.031 A 
ATOM     40  C   UNL A   1      46.823  25.632  25.831  1.00  0.00     0.074 A 
ATOM     41  C   UNL A   1      44.409  25.578  26.360  1.00  0.00     0.049 A 
ATOM     42  N   UNL A   1      47.151  26.818  26.275  1.00  0.00    -0.248 NA
ATOM     43  C   UNL A   1      47.950  24.867  25.272  1.00  0.00     0.031 C 
ATOM     44  C   UNL A   1      43.068  25.003  26.482  1.00  0.00     0.029 A 
ATOM     45  N   UNL A   1      44.279  26.837  26.892  1.00  0.00    -0.354 N 
ATOM     46  C   UNL A   1      48.519  26.934  26.067  1.00  0.00     0.074 A 
ATOM     47  C   UNL A   1      48.970  25.680  25.505  1.00  0.00     0.031 C 
ATOM     48  C   UNL A   1      42.248  25.912  27.033  1.00  0.00     0.029 A 
ATOM     49  C   UNL A   1      43.010  27.119  27.338  1.00  0.00     0.049 A 
ATOM     50  H   UNL A   1      45.024  27.478  26.948  1.00  0.00     0.167 HD
ATOM     51  C   UNL A   1      49.323  27.996  26.303  1.00  0.00     0.037 A 
ATOM     52  C   UNL A   1      42.519  28.223  27.931  1.00  0.00     0.037 A 
ATOM     53  C   UNL A   1      48.866  29.254  26.833  1.00  0.00     0.049 A 
ATOM     54  C   UNL A   1      43.431  29.393  28.173  1.00  0.00     0.074 A 
ATOM     55  C   UNL A   1      49.588  30.417  27.035  1.00  0.00     0.029 A 
ATOM     56  N   UNL A   1      47.567  29.511  27.244  1.00  0.00    -0.354 N 
ATOM     57  N   UNL A   1      44.707  29.518  27.896  1.00  0.00    -0.248 NA
ATOM     58  C   UNL A   1      42.835  30.579  28.804  1.00  0.00     0.031 C 
ATOM     59  C   UNL A   1      48.735  31.365  27.610  1.00  0.00     0.029 A 
ATOM     60  C   UNL A   1      47.472  30.808  27.722  1.00  0.00     0.049 A 
ATOM     61  H   UNL A   1      46.823  28.868  27.202  1.00  0.00     0.167 HD
ATOM     62  C   UNL A   1      45.059  30.802  28.293  1.00  0.00     0.074 A 
ATOM     63  C   UNL A   1      43.859  31.421  28.815  1.00  0.00     0.031 C 
ATOM     64  C   UNL A   1      46.267  31.412  28.230  1.00  0.00     0.037 A 
BRANCH  51  65
ATOM     65  C   UNL A   1      50.782  27.847  25.986  1.00  0.00     0.057 A 
ATOM     66  C   UNL A   1      51.278  28.020  24.687  1.00  0.00     0.134 A 
ATOM     67  C   UNL A   1      51.708  27.559  26.998  1.00  0.00     0.134 A 
ATOM     68  F   UNL A   1      50.444  28.283  23.670  1.00  0.00    -0.206 F 
ATOM     69  C   UNL A   1      52.638  27.888  24.401  1.00  0.00     0.040 A 
ATOM     70  C   UNL A   1      53.073  27.452  26.729  1.00  0.00     0.040 A 
ATOM     71  F   UNL A   1      51.301  27.387  28.264  1.00  0.00    -0.206 F 
ATOM     72  C   UNL A   1      53.541  27.611  25.426  1.00  0.00     0.006 A 
ENDBRANCH  51  65
BRANCH  52  73
ATOM     73  C   UNL A   1      41.088  28.286  28.321  1.00  0.00     0.057 A 
ATOM     74  C   UNL A   1      40.118  28.760  27.430  1.00  0.00     0.134 A 
ATOM     75  C   UNL A   1      40.658  27.889  29.593  1.00  0.00     0.134 A 
ATOM     76  F   UNL A   1      40.471  29.172  26.205  1.00  0.00    -0.206 F 
ATOM     77  C   UNL A   1      38.774  28.858  27.796  1.00  0.00     0.040 A 
ATOM     78  C   UNL A   1      39.313  27.959  29.964  1.00  0.00     0.040 A 
ATOM     79  F   UNL A   1      41.537  27.418  30.490  1.00  0.00    -0.206 F 
ATOM     80  C   UNL A   1      38.368  28.453  29.067  1.00  0.00     0.006 A 
ENDBRANCH  52  73
BRANCH  64  81
ATOM     81  C   UNL A   1      46.344  32.833  28.704  1.00  0.00     0.057 A 
ATOM     82  C   UNL A   1      46.671  33.153  30.028  1.00  0.00     0.134 A 
ATOM     83  C   UNL A   1      46.130  33.893  27.814  1.00  0.00     0.134 A 
ATOM     84  F   UNL A   1      46.874  32.185  30.932  1.00  0.00    -0.206 F 
ATOM     85  C   UNL A   1      46.761  34.480  30.454  1.00  0.00     0.040 A 
ATOM     86  C   UNL A   1      46.243  35.222  28.222  1.00  0.00     0.040 A 
ATOM     87  F   UNL A   1      45.822  33.654  26.530  1.00  0.00    -0.206 F 
ATOM     88  C   UNL A   1      46.554  35.519  29.547  1.00  0.00     0.006 A 
ENDBRANCH  64  81
ENDBRANCH  38  39
ENDBRANCH  30  33
ENDBRANCH  28  29
ENDBRANCH  27  28
ENDBRANCH   1  27
TORSDOF 14
ENDMDL
MODEL 3
REMARK VINA RESULT:     -12.1      4.372      8.838
REMARK SMILES [NH3+][C@]1(C(=O)NCCCCNC(=O)c2ccc(-c3c4nc(c(-c5c(F)cccc5F)c5ccc([nH]5)c(-c5c(F)cccc5F)c5nc(c(-c6c(F)cccc6F)c6ccc3[nH]6)C=C5)C=C4)cc2)CC[C@@H](Sc2cc3ccccc3[nH]2)C1
REMARK SMILES IDX 7 1 6 2 5 3 3 4 4 5 2 7 67 8 80 9 68 10 69 11 1 12 70 16
REMARK SMILES IDX 71 17 72 18 79 19 73 20 78 21 74 23 77 24 75 25 76 26 8 27
REMARK SMILES IDX 9 28 10 29 11 30 12 32 13 33 14 34 66 35 15 36 65 37 16 38
REMARK SMILES IDX 17 39 18 40 59 41 19 42 64 43 58 44 60 45 20 46 63 47 57 48
REMARK SMILES IDX 56 49 21 51 47 52 30 53 46 54 31 55 34 56 45 57 61 58 32 59
REMARK SMILES IDX 33 60 44 62 62 63 35 64 22 65 23 66 28 67 24 68 25 69 27 70
REMARK SMILES IDX 29 71 26 72 48 73 49 74 54 75 50 76 51 77 53 78 55 79 52 80
REMARK SMILES IDX 36 81 37 82 42 83 38 84 39 85 41 86 43 87 40 88
REMARK H PARENT 5 6 1 13 1 14 1 15 79 22 10 31 60 50 34 61
REMARK Flexibility Score: inf
ROOT
ATOM      1  C   UNL A   1      31.820  30.551  26.650  1.00  0.00     0.023 C 
ENDROOT
BRANCH   1   2
ATOM      2  C   UNL A   1      31.435  29.972  25.295  1.00  0.00     0.116 C 
BRANCH   2   3
ATOM      3  N   UNL A   1      32.577  29.658  24.464  1.00  0.00    -0.351 N 
ATOM      4  C   UNL A   1      33.402  28.578  24.396  1.00  0.00     0.281 C 
ATOM      5  O   UNL A   1      34.197  28.577  23.449  1.00  0.00    -0.268 OA
ATOM      6  H   UNL A   1      32.802  30.369  23.819  1.00  0.00     0.163 HD
BRANCH   4   7
ATOM      7  C   UNL A   1      33.445  27.472  25.480  1.00  0.00     0.175 C 
ATOM      8  C   UNL A   1      32.040  26.918  25.784  1.00  0.00     0.080 C 
ATOM      9  C   UNL A   1      34.160  26.235  24.928  1.00  0.00     0.094 C 
ATOM     10  C   UNL A   1      32.310  25.555  26.408  1.00  0.00     0.022 C 
ATOM     11  C   UNL A   1      33.542  25.040  25.667  1.00  0.00     0.060 C 
BRANCH   7  12
ATOM     12  N   UNL A   1      34.017  27.895  26.774  1.00  0.00    -0.345 N 
ATOM     13  H   UNL A   1      33.726  27.245  27.503  1.00  0.00     0.345 HD
ATOM     14  H   UNL A   1      33.687  28.832  27.001  1.00  0.00     0.345 HD
ATOM     15  H   UNL A   1      35.035  27.899  26.709  1.00  0.00     0.345 HD
ENDBRANCH   7  12
BRANCH  11  16
ATOM     16  S   UNL A   1      33.359  23.669  24.513  1.00  0.00    -0.105 SA
BRANCH  16  17
ATOM     17  C   UNL A   1      31.953  23.949  23.542  1.00  0.00     0.073 A 
ATOM     18  C   UNL A   1      30.627  24.005  23.919  1.00  0.00     0.043 A 
ATOM     19  N   UNL A   1      32.086  24.750  22.437  1.00  0.00    -0.350 N 
ATOM     20  C   UNL A   1      30.188  25.290  23.455  1.00  0.00     0.001 A 
ATOM     21  C   UNL A   1      31.153  25.757  22.561  1.00  0.00     0.046 A 
ATOM     22  H   UNL A   1      32.726  24.630  21.698  1.00  0.00     0.167 HD
ATOM     23  C   UNL A   1      29.155  26.161  23.844  1.00  0.00     0.010 A 
ATOM     24  C   UNL A   1      31.165  27.056  22.048  1.00  0.00     0.027 A 
ATOM     25  C   UNL A   1      29.203  27.495  23.415  1.00  0.00     0.001 A 
ATOM     26  C   UNL A   1      30.196  27.933  22.539  1.00  0.00     0.002 A 
ENDBRANCH  16  17
ENDBRANCH  11  16
ENDBRANCH   4   7
ENDBRANCH   2   3
ENDBRANCH   1   2
BRANCH   1  27
ATOM     27  C   UNL A   1      31.544  32.042  26.828  1.00  0.00     0.023 C 
BRANCH  27  28
ATOM     28  C   UNL A   1      32.746  32.897  27.214  1.00  0.00     0.116 C 
BRANCH  28  29
ATOM     29  N   UNL A   1      32.395  34.241  27.643  1.00  0.00    -0.352 N 
ATOM     30  C   UNL A   1      32.994  35.033  28.599  1.00  0.00     0.251 C 
ATOM     31  H   UNL A   1      31.620  34.642  27.186  1.00  0.00     0.163 HD
ATOM     32  O   UNL A   1      32.523  36.115  28.891  1.00  0.00    -0.269 OA
BRANCH  30  33
ATOM     33  C   UNL A   1      34.194  34.524  29.298  1.00  0.00     0.039 A 
ATOM     34  C   UNL A   1      34.030  33.891  30.532  1.00  0.00     0.014 A 
ATOM     35  C   UNL A   1      35.459  34.629  28.715  1.00  0.00     0.014 A 
ATOM     36  C   UNL A   1      35.129  33.287  31.145  1.00  0.00     0.010 A 
ATOM     37  C   UNL A   1      36.536  33.963  29.291  1.00  0.00     0.010 A 
ATOM     38  C   UNL A   1      36.381  33.282  30.508  1.00  0.00    -0.014 A 
BRANCH  38  39
ATOM     39  C   UNL A   1      37.537  32.558  31.091  1.00  0.00     0.031 A 
ATOM     40  C   UNL A   1      38.163  33.043  32.368  1.00  0.00     0.074 A 
ATOM     41  C   UNL A   1      38.070  31.512  30.429  1.00  0.00     0.049 A 
ATOM     42  N   UNL A   1      39.224  32.595  32.990  1.00  0.00    -0.248 NA
ATOM     43  C   UNL A   1      37.532  34.204  33.015  1.00  0.00     0.031 C 
ATOM     44  C   UNL A   1      37.588  30.981  29.152  1.00  0.00     0.029 A 
ATOM     45  N   UNL A   1      39.147  30.716  30.733  1.00  0.00    -0.354 N 
ATOM     46  C   UNL A   1      39.398  33.429  34.087  1.00  0.00     0.074 A 
ATOM     47  C   UNL A   1      38.365  34.439  34.018  1.00  0.00     0.031 C 
ATOM     48  C   UNL A   1      38.353  29.938  28.793  1.00  0.00     0.029 A 
ATOM     49  C   UNL A   1      39.400  29.748  29.792  1.00  0.00     0.049 A 
ATOM     50  H   UNL A   1      39.686  30.829  31.548  1.00  0.00     0.167 HD
ATOM     51  C   UNL A   1      40.321  33.347  35.073  1.00  0.00     0.037 A 
ATOM     52  C   UNL A   1      40.371  28.817  29.737  1.00  0.00     0.037 A 
ATOM     53  C   UNL A   1      41.327  32.322  35.155  1.00  0.00     0.049 A 
ATOM     54  C   UNL A   1      41.378  28.741  30.850  1.00  0.00     0.074 A 
ATOM     55  C   UNL A   1      42.258  32.107  36.155  1.00  0.00     0.029 A 
ATOM     56  N   UNL A   1      41.532  31.339  34.198  1.00  0.00    -0.354 N 
ATOM     57  N   UNL A   1      41.480  29.486  31.925  1.00  0.00    -0.248 NA
ATOM     58  C   UNL A   1      42.401  27.691  30.749  1.00  0.00     0.031 C 
ATOM     59  C   UNL A   1      43.056  31.020  35.782  1.00  0.00     0.029 A 
ATOM     60  C   UNL A   1      42.592  30.530  34.573  1.00  0.00     0.049 A 
ATOM     61  H   UNL A   1      41.003  31.233  33.375  1.00  0.00     0.167 HD
ATOM     62  C   UNL A   1      42.559  28.979  32.638  1.00  0.00     0.074 A 
ATOM     63  C   UNL A   1      43.068  27.854  31.883  1.00  0.00     0.031 C 
ATOM     64  C   UNL A   1      43.080  29.408  33.813  1.00  0.00     0.037 A 
BRANCH  51  65
ATOM     65  C   UNL A   1      40.283  34.394  36.147  1.00  0.00     0.057 A 
ATOM     66  C   UNL A   1      39.479  34.255  37.287  1.00  0.00     0.134 A 
ATOM     67  C   UNL A   1      41.084  35.539  36.058  1.00  0.00     0.134 A 
ATOM     68  F   UNL A   1      38.678  33.189  37.428  1.00  0.00    -0.206 F 
ATOM     69  C   UNL A   1      39.455  35.229  38.287  1.00  0.00     0.040 A 
ATOM     70  C   UNL A   1      41.090  36.506  37.065  1.00  0.00     0.040 A 
ATOM     71  F   UNL A   1      41.881  35.732  34.996  1.00  0.00    -0.206 F 
ATOM     72  C   UNL A   1      40.270  36.355  38.180  1.00  0.00     0.006 A 
ENDBRANCH  51  65
BRANCH  52  73
ATOM     73  C   UNL A   1      40.429  27.865  28.598  1.00  0.00     0.057 A 
ATOM     74  C   UNL A   1      41.147  28.173  27.437  1.00  0.00     0.134 A 
ATOM     75  C   UNL A   1      39.760  26.636  28.637  1.00  0.00     0.134 A 
ATOM     76  F   UNL A   1      41.792  29.344  27.334  1.00  0.00    -0.206 F 
ATOM     77  C   UNL A   1      41.181  27.304  26.345  1.00  0.00     0.040 A 
ATOM     78  C   UNL A   1      39.806  25.746  27.562  1.00  0.00     0.040 A 
ATOM     79  F   UNL A   1      39.061  26.278  29.724  1.00  0.00    -0.206 F 
ATOM     80  C   UNL A   1      40.511  26.083  26.408  1.00  0.00     0.006 A 
ENDBRANCH  52  73
BRANCH  64  81
ATOM     81  C   UNL A   1      44.238  28.636  34.373  1.00  0.00     0.057 A 
ATOM     82  C   UNL A   1      44.051  27.517  35.196  1.00  0.00     0.134 A 
ATOM     83  C   UNL A   1      45.553  28.991  34.051  1.00  0.00     0.134 A 
ATOM     84  F   UNL A   1      42.817  27.134  35.553  1.00  0.00    -0.206 F 
ATOM     85  C   UNL A   1      45.134  26.793  35.695  1.00  0.00     0.040 A 
ATOM     86  C   UNL A   1      46.643  28.259  34.521  1.00  0.00     0.040 A 
ATOM     87  F   UNL A   1      45.800  30.046  33.259  1.00  0.00    -0.206 F 
ATOM     88  C   UNL A   1      46.435  27.159  35.352  1.00  0.00     0.006 A 
ENDBRANCH  64  81
ENDBRANCH  38  39
ENDBRANCH  30  33
ENDBRANCH  28  29
ENDBRANCH  27  28
ENDBRANCH   1  27
TORSDOF 14
ENDMDL
