MODEL 1
REMARK VINA RESULT:     -11.4      0.000      0.000
REMARK SMILES CCCN1C(=O)/C(=C\c2ccc(OC)c(OC)c2C(=O)NCCCCNC(=O)c2ccc(-c3c4nc(c(-c5c(F)cccc5F)c5ccc([nH]5)c(-c5c(F)cccc5F)c5nc(c(-c6c(F)cccc6F)c6ccc3[nH]6)C=C5)C=C4)cc2)S/C1=[NH+]\c1nccs1
REMARK SMILES IDX 23 1 22 2 21 3 19 4 20 5 18 7 9 8 10 9 11 10 15 11 12 12
REMARK SMILES IDX 8 13 4 14 5 15 84 16 6 17 7 18 83 19 85 20 3 22 2 23 1 24
REMARK SMILES IDX 86 25 87 26 90 27 88 28 89 29 16 30 17 31 13 32 14 33 24 34
REMARK SMILES IDX 25 35 26 36 27 37 28 39 29 40 30 41 82 42 31 43 81 44 32 45
REMARK SMILES IDX 33 46 34 47 75 48 35 49 80 50 74 51 76 52 36 53 79 54 73 55
REMARK SMILES IDX 72 56 37 58 63 59 46 60 62 61 47 62 50 63 61 64 77 65 48 66
REMARK SMILES IDX 49 67 60 69 78 70 51 71 38 72 39 73 44 74 40 75 41 76 43 77
REMARK SMILES IDX 45 78 42 79 64 80 65 81 70 82 66 83 67 84 69 85 71 86 68 87
REMARK SMILES IDX 52 88 53 89 58 90 54 91 55 92 57 93 59 94 56 95
REMARK H PARENT 21 6 85 21 26 38 76 57 50 68
REMARK Flexibility Score: inf
ROOT
ATOM      1  C   UNL A   1      35.376  23.976  25.180  1.00  0.00     0.023 C 
ENDROOT
BRANCH   1   2
ATOM      2  C   UNL A   1      34.392  24.993  24.622  1.00  0.00     0.116 C 
BRANCH   2   3
ATOM      3  N   UNL A   1      34.273  25.014  23.180  1.00  0.00    -0.352 N 
ATOM      4  C   UNL A   1      33.348  25.671  22.402  1.00  0.00     0.255 C 
ATOM      5  O   UNL A   1      33.654  25.905  21.234  1.00  0.00    -0.269 OA
ATOM      6  H   UNL A   1      34.945  24.487  22.690  1.00  0.00     0.163 HD
BRANCH   4   7
ATOM      7  C   UNL A   1      32.031  26.117  22.932  1.00  0.00     0.092 A 
ATOM      8  C   UNL A   1      31.023  25.166  23.256  1.00  0.00    -0.007 A 
ATOM      9  C   UNL A   1      29.770  25.614  23.699  1.00  0.00     0.013 A 
ATOM     10  C   UNL A   1      29.535  26.970  23.903  1.00  0.00     0.051 A 
ATOM     11  C   UNL A   1      31.790  27.498  23.144  1.00  0.00     0.174 A 
ATOM     12  C   UNL A   1      30.544  27.902  23.663  1.00  0.00     0.161 A 
BRANCH   8  13
ATOM     13  C   UNL A   1      31.143  23.706  23.070  1.00  0.00     0.032 C 
ATOM     14  N   UNL A   1      31.985  22.083  26.149  1.00  0.00    -0.219 N 
ATOM     15  C   UNL A   1      31.235  23.046  25.500  1.00  0.00     0.321 C 
ATOM     16  C   UNL A   1      32.447  21.028  25.391  1.00  0.00     0.271 C 
ATOM     17  O   UNL A   1      30.584  23.935  26.008  1.00  0.00    -0.250 OA
ATOM     18  C   UNL A   1      31.297  22.796  24.038  1.00  0.00     0.100 C 
ATOM     19  S   UNL A   1      31.825  21.177  23.759  1.00  0.00    -0.012 SA
ATOM     20  N   UNL A   1      33.201  20.129  25.922  1.00  0.00    -0.228 N 
ATOM     21  H   UNL A   1      33.502  20.259  26.850  1.00  0.00     0.268 HD
BRANCH  14  22
ATOM     22  C   UNL A   1      32.237  22.217  27.576  1.00  0.00     0.206 C 
BRANCH  22  23
ATOM     23  C   UNL A   1      33.490  23.039  27.903  1.00  0.00     0.035 C 
ATOM     24  C   UNL A   1      34.764  22.209  27.995  1.00  0.00     0.007 C 
ENDBRANCH  22  23
ENDBRANCH  14  22
BRANCH  20  25
ATOM     25  C   UNL A   1      33.600  19.017  25.267  1.00  0.00     0.319 A 
ATOM     26  N   UNL A   1      34.700  18.773  24.593  1.00  0.00    -0.101 NA
ATOM     27  S   UNL A   1      32.518  17.655  25.348  1.00  0.00    -0.070 S 
ATOM     28  C   UNL A   1      34.683  17.494  24.065  1.00  0.00     0.219 A 
ATOM     29  C   UNL A   1      33.576  16.740  24.371  1.00  0.00     0.110 A 
ENDBRANCH  20  25
ENDBRANCH   8  13
BRANCH  11  30
ATOM     30  O   UNL A   1      32.586  28.522  22.684  1.00  0.00    -0.492 OA
ATOM     31  C   UNL A   1      33.645  28.952  23.533  1.00  0.00     0.278 C 
ENDBRANCH  11  30
BRANCH  12  32
ATOM     32  O   UNL A   1      30.180  29.207  23.892  1.00  0.00    -0.493 OA
ATOM     33  C   UNL A   1      29.226  29.704  22.953  1.00  0.00     0.278 C 
ENDBRANCH  12  32
ENDBRANCH   4   7
ENDBRANCH   2   3
ENDBRANCH   1   2
BRANCH   1  34
ATOM     34  C   UNL A   1      35.597  22.701  24.362  1.00  0.00     0.023 C 
BRANCH  34  35
ATOM     35  C   UNL A   1      37.030  22.351  23.963  1.00  0.00     0.116 C 
BRANCH  35  36
ATOM     36  N   UNL A   1      37.624  21.310  24.779  1.00  0.00    -0.352 N 
ATOM     37  C   UNL A   1      38.602  21.357  25.743  1.00  0.00     0.251 C 
ATOM     38  H   UNL A   1      37.263  20.410  24.612  1.00  0.00     0.163 HD
ATOM     39  O   UNL A   1      39.012  20.294  26.213  1.00  0.00    -0.269 OA
BRANCH  37  40
ATOM     40  C   UNL A   1      39.209  22.630  26.220  1.00  0.00     0.039 A 
ATOM     41  C   UNL A   1      40.442  22.556  26.886  1.00  0.00     0.014 A 
ATOM     42  C   UNL A   1      38.575  23.871  26.114  1.00  0.00     0.014 A 
ATOM     43  C   UNL A   1      41.062  23.714  27.364  1.00  0.00     0.010 A 
ATOM     44  C   UNL A   1      39.218  25.036  26.535  1.00  0.00     0.010 A 
ATOM     45  C   UNL A   1      40.474  24.968  27.147  1.00  0.00    -0.014 A 
BRANCH  45  46
ATOM     46  C   UNL A   1      41.219  26.217  27.437  1.00  0.00     0.031 A 
ATOM     47  C   UNL A   1      42.645  26.397  27.011  1.00  0.00     0.074 A 
ATOM     48  C   UNL A   1      40.604  27.152  28.186  1.00  0.00     0.049 A 
ATOM     49  N   UNL A   1      43.434  27.427  27.187  1.00  0.00    -0.248 NA
ATOM     50  C   UNL A   1      43.280  25.267  26.315  1.00  0.00     0.031 C 
ATOM     51  C   UNL A   1      39.246  27.035  28.725  1.00  0.00     0.029 A 
ATOM     52  N   UNL A   1      41.038  28.370  28.641  1.00  0.00    -0.354 N 
ATOM     53  C   UNL A   1      44.652  27.076  26.618  1.00  0.00     0.074 A 
ATOM     54  C   UNL A   1      44.513  25.718  26.136  1.00  0.00     0.031 C 
ATOM     55  C   UNL A   1      38.956  28.139  29.429  1.00  0.00     0.029 A 
ATOM     56  C   UNL A   1      40.110  29.028  29.410  1.00  0.00     0.049 A 
ATOM     57  H   UNL A   1      41.929  28.736  28.435  1.00  0.00     0.167 HD
ATOM     58  C   UNL A   1      45.775  27.827  26.503  1.00  0.00     0.037 A 
ATOM     59  C   UNL A   1      40.183  30.219  30.031  1.00  0.00     0.037 A 
ATOM     60  C   UNL A   1      45.897  29.171  27.014  1.00  0.00     0.049 A 
ATOM     61  C   UNL A   1      41.428  31.038  29.872  1.00  0.00     0.074 A 
ATOM     62  C   UNL A   1      46.965  30.046  26.902  1.00  0.00     0.029 A 
ATOM     63  N   UNL A   1      44.922  29.827  27.753  1.00  0.00    -0.354 N 
ATOM     64  N   UNL A   1      42.536  30.740  29.238  1.00  0.00    -0.248 NA
ATOM     65  C   UNL A   1      41.427  32.367  30.494  1.00  0.00     0.031 C 
ATOM     66  C   UNL A   1      46.654  31.210  27.616  1.00  0.00     0.029 A 
ATOM     67  C   UNL A   1      45.371  31.084  28.124  1.00  0.00     0.049 A 
ATOM     68  H   UNL A   1      44.041  29.453  27.981  1.00  0.00     0.167 HD
ATOM     69  C   UNL A   1      43.355  31.853  29.357  1.00  0.00     0.074 A 
ATOM     70  C   UNL A   1      42.605  32.839  30.111  1.00  0.00     0.031 C 
ATOM     71  C   UNL A   1      44.611  32.046  28.884  1.00  0.00     0.037 A 
BRANCH  58  72
ATOM     72  C   UNL A   1      46.956  27.219  25.798  1.00  0.00     0.057 A 
ATOM     73  C   UNL A   1      47.212  27.462  24.442  1.00  0.00     0.134 A 
ATOM     74  C   UNL A   1      47.879  26.425  26.492  1.00  0.00     0.134 A 
ATOM     75  F   UNL A   1      46.367  28.207  23.714  1.00  0.00    -0.206 F 
ATOM     76  C   UNL A   1      48.327  26.922  23.797  1.00  0.00     0.040 A 
ATOM     77  C   UNL A   1      49.012  25.901  25.864  1.00  0.00     0.040 A 
ATOM     78  F   UNL A   1      47.705  26.156  27.794  1.00  0.00    -0.206 F 
ATOM     79  C   UNL A   1      49.236  26.143  24.511  1.00  0.00     0.006 A 
ENDBRANCH  58  72
BRANCH  59  80
ATOM     80  C   UNL A   1      39.018  30.715  30.804  1.00  0.00     0.057 A 
ATOM     81  C   UNL A   1      38.875  30.419  32.164  1.00  0.00     0.134 A 
ATOM     82  C   UNL A   1      38.043  31.530  30.215  1.00  0.00     0.134 A 
ATOM     83  F   UNL A   1      39.771  29.636  32.782  1.00  0.00    -0.206 F 
ATOM     84  C   UNL A   1      37.797  30.903  32.908  1.00  0.00     0.040 A 
ATOM     85  C   UNL A   1      36.974  32.041  30.953  1.00  0.00     0.040 A 
ATOM     86  F   UNL A   1      38.132  31.865  28.919  1.00  0.00    -0.206 F 
ATOM     87  C   UNL A   1      36.847  31.722  32.303  1.00  0.00     0.006 A 
ENDBRANCH  59  80
BRANCH  71  88
ATOM     88  C   UNL A   1      45.230  33.386  29.150  1.00  0.00     0.057 A 
ATOM     89  C   UNL A   1      46.009  33.631  30.289  1.00  0.00     0.134 A 
ATOM     90  C   UNL A   1      45.042  34.447  28.254  1.00  0.00     0.134 A 
ATOM     91  F   UNL A   1      46.215  32.661  31.194  1.00  0.00    -0.206 F 
ATOM     92  C   UNL A   1      46.546  34.893  30.547  1.00  0.00     0.040 A 
ATOM     93  C   UNL A   1      45.600  35.704  28.486  1.00  0.00     0.040 A 
ATOM     94  F   UNL A   1      44.315  34.277  27.139  1.00  0.00    -0.206 F 
ATOM     95  C   UNL A   1      46.345  35.933  29.640  1.00  0.00     0.006 A 
ENDBRANCH  71  88
ENDBRANCH  45  46
ENDBRANCH  37  40
ENDBRANCH  35  36
ENDBRANCH  34  35
ENDBRANCH   1  34
TORSDOF 17
ENDMDL
MODEL 2
REMARK VINA RESULT:     -11.1      5.683     10.784
REMARK SMILES CCCN1C(=O)/C(=C\c2ccc(OC)c(OC)c2C(=O)NCCCCNC(=O)c2ccc(-c3c4nc(c(-c5c(F)cccc5F)c5ccc([nH]5)c(-c5c(F)cccc5F)c5nc(c(-c6c(F)cccc6F)c6ccc3[nH]6)C=C5)C=C4)cc2)S/C1=[NH+]\c1nccs1
REMARK SMILES IDX 23 1 22 2 21 3 19 4 20 5 18 7 9 8 10 9 11 10 15 11 12 12
REMARK SMILES IDX 8 13 4 14 5 15 84 16 6 17 7 18 83 19 85 20 3 22 2 23 1 24
REMARK SMILES IDX 86 25 87 26 90 27 88 28 89 29 16 30 17 31 13 32 14 33 24 34
REMARK SMILES IDX 25 35 26 36 27 37 28 39 29 40 30 41 82 42 31 43 81 44 32 45
REMARK SMILES IDX 33 46 34 47 75 48 35 49 80 50 74 51 76 52 36 53 79 54 73 55
REMARK SMILES IDX 72 56 37 58 63 59 46 60 62 61 47 62 50 63 61 64 77 65 48 66
REMARK SMILES IDX 49 67 60 69 78 70 51 71 38 72 39 73 44 74 40 75 41 76 43 77
REMARK SMILES IDX 45 78 42 79 64 80 65 81 70 82 66 83 67 84 69 85 71 86 68 87
REMARK SMILES IDX 52 88 53 89 58 90 54 91 55 92 57 93 59 94 56 95
REMARK H PARENT 21 6 85 21 26 38 76 57 50 68
REMARK Flexibility Score: inf
ROOT
ATOM      1  C   UNL A   1      43.345  24.063  24.748  1.00  0.00     0.023 C 
ENDROOT
BRANCH   1   2
ATOM      2  C   UNL A   1      44.563  24.791  25.297  1.00  0.00     0.116 C 
BRANCH   2   3
ATOM      3  N   UNL A   1      44.788  26.116  24.761  1.00  0.00    -0.352 N 
ATOM      4  C   UNL A   1      45.751  27.033  25.112  1.00  0.00     0.255 C 
ATOM      5  O   UNL A   1      46.037  27.898  24.285  1.00  0.00    -0.269 OA
ATOM      6  H   UNL A   1      44.169  26.398  24.050  1.00  0.00     0.163 HD
BRANCH   4   7
ATOM      7  C   UNL A   1      46.453  26.993  26.423  1.00  0.00     0.092 A 
ATOM      8  C   UNL A   1      46.023  27.818  27.500  1.00  0.00    -0.007 A 
ATOM      9  C   UNL A   1      46.737  27.804  28.707  1.00  0.00     0.013 A 
ATOM     10  C   UNL A   1      47.807  26.932  28.886  1.00  0.00     0.051 A 
ATOM     11  C   UNL A   1      47.542  26.103  26.609  1.00  0.00     0.174 A 
ATOM     12  C   UNL A   1      48.185  26.065  27.862  1.00  0.00     0.161 A 
BRANCH   8  13
ATOM     13  C   UNL A   1      44.916  28.793  27.431  1.00  0.00     0.032 C 
ATOM     14  N   UNL A   1      46.160  32.118  26.963  1.00  0.00    -0.219 N 
ATOM     15  C   UNL A   1      46.244  30.780  26.630  1.00  0.00     0.321 C 
ATOM     16  C   UNL A   1      44.956  32.568  27.462  1.00  0.00     0.271 C 
ATOM     17  O   UNL A   1      47.130  30.232  26.007  1.00  0.00    -0.250 OA
ATOM     18  C   UNL A   1      45.023  30.089  27.114  1.00  0.00     0.100 C 
ATOM     19  S   UNL A   1      43.794  31.258  27.429  1.00  0.00    -0.012 SA
ATOM     20  N   UNL A   1      44.831  33.791  27.848  1.00  0.00    -0.228 N 
ATOM     21  H   UNL A   1      45.631  34.365  27.853  1.00  0.00     0.268 HD
BRANCH  14  22
ATOM     22  C   UNL A   1      47.318  32.977  26.764  1.00  0.00     0.206 C 
BRANCH  22  23
ATOM     23  C   UNL A   1      48.360  32.873  27.884  1.00  0.00     0.035 C 
ATOM     24  C   UNL A   1      49.788  32.701  27.383  1.00  0.00     0.007 C 
ENDBRANCH  22  23
ENDBRANCH  14  22
BRANCH  20  25
ATOM     25  C   UNL A   1      43.655  34.324  28.246  1.00  0.00     0.319 A 
ATOM     26  N   UNL A   1      42.878  34.014  29.258  1.00  0.00    -0.101 NA
ATOM     27  S   UNL A   1      43.071  35.670  27.307  1.00  0.00    -0.070 S 
ATOM     28  C   UNL A   1      41.750  34.815  29.278  1.00  0.00     0.219 A 
ATOM     29  C   UNL A   1      41.683  35.772  28.294  1.00  0.00     0.110 A 
ENDBRANCH  20  25
ENDBRANCH   8  13
BRANCH  11  30
ATOM     30  O   UNL A   1      48.185  25.415  25.606  1.00  0.00    -0.492 OA
ATOM     31  C   UNL A   1      49.061  26.159  24.766  1.00  0.00     0.278 C 
ENDBRANCH  11  30
BRANCH  12  32
ATOM     32  O   UNL A   1      49.262  25.265  28.162  1.00  0.00    -0.493 OA
ATOM     33  C   UNL A   1      50.509  25.962  28.146  1.00  0.00     0.278 C 
ENDBRANCH  12  32
ENDBRANCH   4   7
ENDBRANCH   2   3
ENDBRANCH   1   2
BRANCH   1  34
ATOM     34  C   UNL A   1      43.128  22.622  25.215  1.00  0.00     0.023 C 
BRANCH  34  35
ATOM     35  C   UNL A   1      42.165  22.388  26.378  1.00  0.00     0.116 C 
BRANCH  35  36
ATOM     36  N   UNL A   1      40.770  22.366  25.985  1.00  0.00    -0.352 N 
ATOM     37  C   UNL A   1      39.741  23.244  26.232  1.00  0.00     0.251 C 
ATOM     38  H   UNL A   1      40.514  21.584  25.445  1.00  0.00     0.163 HD
ATOM     39  O   UNL A   1      38.605  22.930  25.874  1.00  0.00    -0.269 OA
BRANCH  37  40
ATOM     40  C   UNL A   1      39.933  24.539  26.941  1.00  0.00     0.039 A 
ATOM     41  C   UNL A   1      39.310  24.700  28.188  1.00  0.00     0.014 A 
ATOM     42  C   UNL A   1      40.625  25.621  26.390  1.00  0.00     0.014 A 
ATOM     43  C   UNL A   1      39.447  25.894  28.902  1.00  0.00     0.010 A 
ATOM     44  C   UNL A   1      40.815  26.792  27.125  1.00  0.00     0.010 A 
ATOM     45  C   UNL A   1      40.242  26.931  28.393  1.00  0.00    -0.014 A 
BRANCH  45  46
ATOM     46  C   UNL A   1      40.586  28.104  29.231  1.00  0.00     0.031 A 
ATOM     47  C   UNL A   1      41.865  28.164  30.012  1.00  0.00     0.074 A 
ATOM     48  C   UNL A   1      39.665  29.080  29.349  1.00  0.00     0.049 A 
ATOM     49  N   UNL A   1      42.312  29.118  30.789  1.00  0.00    -0.248 NA
ATOM     50  C   UNL A   1      42.751  26.993  29.929  1.00  0.00     0.031 C 
ATOM     51  C   UNL A   1      38.351  29.075  28.699  1.00  0.00     0.029 A 
ATOM     52  N   UNL A   1      39.677  30.248  30.066  1.00  0.00    -0.354 N 
ATOM     53  C   UNL A   1      43.532  28.669  31.281  1.00  0.00     0.074 A 
ATOM     54  C   UNL A   1      43.731  27.336  30.753  1.00  0.00     0.031 C 
ATOM     55  C   UNL A   1      37.688  30.190  29.040  1.00  0.00     0.029 A 
ATOM     56  C   UNL A   1      38.518  30.975  29.946  1.00  0.00     0.049 A 
ATOM     57  H   UNL A   1      40.443  30.537  30.613  1.00  0.00     0.167 HD
ATOM     58  C   UNL A   1      44.405  29.320  32.088  1.00  0.00     0.037 A 
ATOM     59  C   UNL A   1      38.163  32.145  30.505  1.00  0.00     0.037 A 
ATOM     60  C   UNL A   1      44.173  30.641  32.622  1.00  0.00     0.049 A 
ATOM     61  C   UNL A   1      39.154  32.854  31.380  1.00  0.00     0.074 A 
ATOM     62  C   UNL A   1      45.012  31.420  33.401  1.00  0.00     0.029 A 
ATOM     63  N   UNL A   1      43.004  31.370  32.447  1.00  0.00    -0.354 N 
ATOM     64  N   UNL A   1      40.351  32.468  31.750  1.00  0.00    -0.248 NA
ATOM     65  C   UNL A   1      38.756  34.169  31.894  1.00  0.00     0.031 C 
ATOM     66  C   UNL A   1      44.331  32.597  33.737  1.00  0.00     0.029 A 
ATOM     67  C   UNL A   1      43.090  32.577  33.121  1.00  0.00     0.049 A 
ATOM     68  H   UNL A   1      42.227  31.072  31.921  1.00  0.00     0.167 HD
ATOM     69  C   UNL A   1      40.864  33.503  32.517  1.00  0.00     0.074 A 
ATOM     70  C   UNL A   1      39.851  34.540  32.543  1.00  0.00     0.031 C 
ATOM     71  C   UNL A   1      42.064  33.591  33.141  1.00  0.00     0.037 A 
BRANCH  58  72
ATOM     72  C   UNL A   1      45.688  28.620  32.442  1.00  0.00     0.057 A 
ATOM     73  C   UNL A   1      46.913  28.994  31.873  1.00  0.00     0.134 A 
ATOM     74  C   UNL A   1      45.711  27.599  33.401  1.00  0.00     0.134 A 
ATOM     75  F   UNL A   1      46.965  29.958  30.943  1.00  0.00    -0.206 F 
ATOM     76  C   UNL A   1      48.109  28.363  32.226  1.00  0.00     0.040 A 
ATOM     77  C   UNL A   1      46.904  26.980  33.782  1.00  0.00     0.040 A 
ATOM     78  F   UNL A   1      44.579  27.195  33.995  1.00  0.00    -0.206 F 
ATOM     79  C   UNL A   1      48.107  27.357  33.190  1.00  0.00     0.006 A 
ENDBRANCH  58  72
BRANCH  59  80
ATOM     80  C   UNL A   1      36.835  32.731  30.200  1.00  0.00     0.057 A 
ATOM     81  C   UNL A   1      35.747  32.538  31.059  1.00  0.00     0.134 A 
ATOM     82  C   UNL A   1      36.630  33.530  29.069  1.00  0.00     0.134 A 
ATOM     83  F   UNL A   1      35.879  31.776  32.154  1.00  0.00    -0.206 F 
ATOM     84  C   UNL A   1      34.499  33.107  30.797  1.00  0.00     0.040 A 
ATOM     85  C   UNL A   1      35.394  34.125  28.808  1.00  0.00     0.040 A 
ATOM     86  F   UNL A   1      37.637  33.768  28.216  1.00  0.00    -0.206 F 
ATOM     87  C   UNL A   1      34.323  33.909  29.672  1.00  0.00     0.006 A 
ENDBRANCH  59  80
BRANCH  71  88
ATOM     88  C   UNL A   1      42.346  34.868  33.877  1.00  0.00     0.057 A 
ATOM     89  C   UNL A   1      41.998  35.041  35.224  1.00  0.00     0.134 A 
ATOM     90  C   UNL A   1      42.974  35.939  33.228  1.00  0.00     0.134 A 
ATOM     91  F   UNL A   1      41.382  34.058  35.899  1.00  0.00    -0.206 F 
ATOM     92  C   UNL A   1      42.228  36.247  35.886  1.00  0.00     0.040 A 
ATOM     93  C   UNL A   1      43.237  37.139  33.889  1.00  0.00     0.040 A 
ATOM     94  F   UNL A   1      43.342  35.836  31.942  1.00  0.00    -0.206 F 
ATOM     95  C   UNL A   1      42.854  37.299  35.219  1.00  0.00     0.006 A 
ENDBRANCH  71  88
ENDBRANCH  45  46
ENDBRANCH  37  40
ENDBRANCH  35  36
ENDBRANCH  34  35
ENDBRANCH   1  34
TORSDOF 17
ENDMDL
MODEL 3
REMARK VINA RESULT:     -11.0     10.411     14.788
REMARK SMILES CCCN1C(=O)/C(=C\c2ccc(OC)c(OC)c2C(=O)NCCCCNC(=O)c2ccc(-c3c4nc(c(-c5c(F)cccc5F)c5ccc([nH]5)c(-c5c(F)cccc5F)c5nc(c(-c6c(F)cccc6F)c6ccc3[nH]6)C=C5)C=C4)cc2)S/C1=[NH+]\c1nccs1
REMARK SMILES IDX 23 1 22 2 21 3 19 4 20 5 18 7 9 8 10 9 11 10 15 11 12 12
REMARK SMILES IDX 8 13 4 14 5 15 84 16 6 17 7 18 83 19 85 20 3 22 2 23 1 24
REMARK SMILES IDX 86 25 87 26 90 27 88 28 89 29 16 30 17 31 13 32 14 33 24 34
REMARK SMILES IDX 25 35 26 36 27 37 28 39 29 40 30 41 82 42 31 43 81 44 32 45
REMARK SMILES IDX 33 46 34 47 75 48 35 49 80 50 74 51 76 52 36 53 79 54 73 55
REMARK SMILES IDX 72 56 37 58 63 59 46 60 62 61 47 62 50 63 61 64 77 65 48 66
REMARK SMILES IDX 49 67 60 69 78 70 51 71 38 72 39 73 44 74 40 75 41 76 43 77
REMARK SMILES IDX 45 78 42 79 64 80 65 81 70 82 66 83 67 84 69 85 71 86 68 87
REMARK SMILES IDX 52 88 53 89 58 90 54 91 55 92 57 93 59 94 56 95
REMARK H PARENT 21 6 85 21 26 38 76 57 50 68
REMARK Flexibility Score: inf
ROOT
ATOM      1  C   UNL A   1      47.446  21.184  35.050  1.00  0.00     0.023 C 
ENDROOT
BRANCH   1   2
ATOM      2  C   UNL A   1      47.490  20.350  36.322  1.00  0.00     0.116 C 
BRANCH   2   3
ATOM      3  N   UNL A   1      46.484  20.675  37.311  1.00  0.00    -0.352 N 
ATOM      4  C   UNL A   1      46.604  20.708  38.681  1.00  0.00     0.255 C 
ATOM      5  O   UNL A   1      45.793  21.391  39.305  1.00  0.00    -0.269 OA
ATOM      6  H   UNL A   1      45.596  20.903  36.955  1.00  0.00     0.163 HD
BRANCH   4   7
ATOM      7  C   UNL A   1      47.676  19.975  39.407  1.00  0.00     0.092 A 
ATOM      8  C   UNL A   1      47.510  18.604  39.751  1.00  0.00    -0.007 A 
ATOM      9  C   UNL A   1      48.511  17.951  40.485  1.00  0.00     0.013 A 
ATOM     10  C   UNL A   1      49.696  18.608  40.806  1.00  0.00     0.051 A 
ATOM     11  C   UNL A   1      48.886  20.641  39.731  1.00  0.00     0.174 A 
ATOM     12  C   UNL A   1      49.898  19.927  40.403  1.00  0.00     0.161 A 
BRANCH   8  13
ATOM     13  C   UNL A   1      46.298  17.803  39.484  1.00  0.00     0.032 C 
ATOM     14  N   UNL A   1      44.285  17.496  42.429  1.00  0.00    -0.219 N 
ATOM     15  C   UNL A   1      45.064  18.304  41.623  1.00  0.00     0.321 C 
ATOM     16  C   UNL A   1      43.714  16.386  41.844  1.00  0.00     0.271 C 
ATOM     17  O   UNL A   1      45.490  19.410  41.885  1.00  0.00    -0.250 OA
ATOM     18  C   UNL A   1      45.269  17.625  40.319  1.00  0.00     0.100 C 
ATOM     19  S   UNL A   1      44.083  16.385  40.131  1.00  0.00    -0.012 SA
ATOM     20  N   UNL A   1      43.026  15.560  42.554  1.00  0.00    -0.228 N 
ATOM     21  H   UNL A   1      42.990  15.697  43.527  1.00  0.00     0.268 HD
BRANCH  14  22
ATOM     22  C   UNL A   1      44.096  17.853  43.827  1.00  0.00     0.206 C 
BRANCH  22  23
ATOM     23  C   UNL A   1      45.386  17.796  44.655  1.00  0.00     0.035 C 
ATOM     24  C   UNL A   1      46.067  16.433  44.642  1.00  0.00     0.007 C 
ENDBRANCH  22  23
ENDBRANCH  14  22
BRANCH  20  25
ATOM     25  C   UNL A   1      42.353  14.514  42.026  1.00  0.00     0.319 A 
ATOM     26  N   UNL A   1      41.726  14.396  40.878  1.00  0.00    -0.101 NA
ATOM     27  S   UNL A   1      42.333  13.059  42.982  1.00  0.00    -0.070 S 
ATOM     28  C   UNL A   1      41.153  13.143  40.755  1.00  0.00     0.219 A 
ATOM     29  C   UNL A   1      41.378  12.281  41.802  1.00  0.00     0.110 A 
ENDBRANCH  20  25
ENDBRANCH   8  13
BRANCH  11  30
ATOM     30  O   UNL A   1      49.092  21.998  39.646  1.00  0.00    -0.492 OA
ATOM     31  C   UNL A   1      49.705  22.488  38.458  1.00  0.00     0.278 C 
ENDBRANCH  11  30
BRANCH  12  32
ATOM     32  O   UNL A   1      51.103  20.462  40.792  1.00  0.00    -0.493 OA
ATOM     33  C   UNL A   1      51.795  19.664  41.753  1.00  0.00     0.278 C 
ENDBRANCH  12  32
ENDBRANCH   4   7
ENDBRANCH   2   3
ENDBRANCH   1   2
BRANCH   1  34
ATOM     34  C   UNL A   1      46.717  22.528  35.126  1.00  0.00     0.023 C 
BRANCH  34  35
ATOM     35  C   UNL A   1      47.562  23.788  35.309  1.00  0.00     0.116 C 
BRANCH  35  36
ATOM     36  N   UNL A   1      47.332  24.466  36.569  1.00  0.00    -0.352 N 
ATOM     37  C   UNL A   1      46.520  25.526  36.897  1.00  0.00     0.251 C 
ATOM     38  H   UNL A   1      47.849  24.104  37.324  1.00  0.00     0.163 HD
ATOM     39  O   UNL A   1      46.594  25.990  38.036  1.00  0.00    -0.269 OA
BRANCH  37  40
ATOM     40  C   UNL A   1      45.579  26.156  35.930  1.00  0.00     0.039 A 
ATOM     41  C   UNL A   1      44.366  25.499  35.677  1.00  0.00     0.014 A 
ATOM     42  C   UNL A   1      45.883  27.312  35.205  1.00  0.00     0.014 A 
ATOM     43  C   UNL A   1      43.442  26.035  34.776  1.00  0.00     0.010 A 
ATOM     44  C   UNL A   1      44.939  27.883  34.350  1.00  0.00     0.010 A 
ATOM     45  C   UNL A   1      43.705  27.258  34.142  1.00  0.00    -0.014 A 
BRANCH  45  46
ATOM     46  C   UNL A   1      42.649  27.955  33.368  1.00  0.00     0.031 A 
ATOM     47  C   UNL A   1      42.493  27.747  31.891  1.00  0.00     0.074 A 
ATOM     48  C   UNL A   1      41.892  28.860  34.016  1.00  0.00     0.049 A 
ATOM     49  N   UNL A   1      41.621  28.278  31.072  1.00  0.00    -0.248 NA
ATOM     50  C   UNL A   1      43.452  26.841  31.241  1.00  0.00     0.031 C 
ATOM     51  C   UNL A   1      42.024  29.200  35.436  1.00  0.00     0.029 A 
ATOM     52  N   UNL A   1      40.882  29.672  33.573  1.00  0.00    -0.354 N 
ATOM     53  C   UNL A   1      41.918  27.768  29.814  1.00  0.00     0.074 A 
ATOM     54  C   UNL A   1      43.083  26.922  29.970  1.00  0.00     0.031 C 
ATOM     55  C   UNL A   1      41.122  30.143  35.747  1.00  0.00     0.029 A 
ATOM     56  C   UNL A   1      40.367  30.488  34.550  1.00  0.00     0.049 A 
ATOM     57  H   UNL A   1      40.556  29.669  32.644  1.00  0.00     0.167 HD
ATOM     58  C   UNL A   1      41.268  27.980  28.645  1.00  0.00     0.037 A 
ATOM     59  C   UNL A   1      39.394  31.414  34.487  1.00  0.00     0.037 A 
ATOM     60  C   UNL A   1      40.122  28.848  28.509  1.00  0.00     0.049 A 
ATOM     61  C   UNL A   1      38.677  31.617  33.186  1.00  0.00     0.074 A 
ATOM     62  C   UNL A   1      39.349  29.092  27.386  1.00  0.00     0.029 A 
ATOM     63  N   UNL A   1      39.599  29.630  29.530  1.00  0.00    -0.354 N 
ATOM     64  N   UNL A   1      38.897  31.046  32.026  1.00  0.00    -0.248 NA
ATOM     65  C   UNL A   1      37.564  32.572  33.188  1.00  0.00     0.031 C 
ATOM     66  C   UNL A   1      38.390  30.058  27.716  1.00  0.00     0.029 A 
ATOM     67  C   UNL A   1      38.529  30.374  29.059  1.00  0.00     0.049 A 
ATOM     68  H   UNL A   1      39.938  29.653  30.453  1.00  0.00     0.167 HD
ATOM     69  C   UNL A   1      37.933  31.550  31.166  1.00  0.00     0.074 A 
ATOM     70  C   UNL A   1      37.117  32.459  31.945  1.00  0.00     0.031 C 
ATOM     71  C   UNL A   1      37.737  31.282  29.851  1.00  0.00     0.037 A 
BRANCH  58  72
ATOM     72  C   UNL A   1      41.773  27.266  27.422  1.00  0.00     0.057 A 
ATOM     73  C   UNL A   1      41.388  25.952  27.122  1.00  0.00     0.134 A 
ATOM     74  C   UNL A   1      42.611  27.914  26.503  1.00  0.00     0.134 A 
ATOM     75  F   UNL A   1      40.594  25.269  27.960  1.00  0.00    -0.206 F 
ATOM     76  C   UNL A   1      41.834  25.301  25.969  1.00  0.00     0.040 A 
ATOM     77  C   UNL A   1      43.041  27.282  25.333  1.00  0.00     0.040 A 
ATOM     78  F   UNL A   1      43.014  29.174  26.718  1.00  0.00    -0.206 F 
ATOM     79  C   UNL A   1      42.658  25.970  25.066  1.00  0.00     0.006 A 
ENDBRANCH  58  72
BRANCH  59  80
ATOM     80  C   UNL A   1      39.015  32.165  35.709  1.00  0.00     0.057 A 
ATOM     81  C   UNL A   1      39.417  33.492  35.894  1.00  0.00     0.134 A 
ATOM     82  C   UNL A   1      38.210  31.591  36.700  1.00  0.00     0.134 A 
ATOM     83  F   UNL A   1      40.197  34.094  34.984  1.00  0.00    -0.206 F 
ATOM     84  C   UNL A   1      39.045  34.218  37.028  1.00  0.00     0.040 A 
ATOM     85  C   UNL A   1      37.809  32.313  37.826  1.00  0.00     0.040 A 
ATOM     86  F   UNL A   1      37.776  30.328  36.574  1.00  0.00    -0.206 F 
ATOM     87  C   UNL A   1      38.233  33.630  37.994  1.00  0.00     0.006 A 
ENDBRANCH  59  80
BRANCH  71  88
ATOM     88  C   UNL A   1      36.575  31.967  29.193  1.00  0.00     0.057 A 
ATOM     89  C   UNL A   1      36.611  33.325  28.850  1.00  0.00     0.134 A 
ATOM     90  C   UNL A   1      35.404  31.255  28.899  1.00  0.00     0.134 A 
ATOM     91  F   UNL A   1      37.698  34.066  29.118  1.00  0.00    -0.206 F 
ATOM     92  C   UNL A   1      35.509  33.961  28.276  1.00  0.00     0.040 A 
ATOM     93  C   UNL A   1      34.308  31.873  28.297  1.00  0.00     0.040 A 
ATOM     94  F   UNL A   1      35.307  29.950  29.192  1.00  0.00    -0.206 F 
ATOM     95  C   UNL A   1      34.355  33.232  27.994  1.00  0.00     0.006 A 
ENDBRANCH  71  88
ENDBRANCH  45  46
ENDBRANCH  37  40
ENDBRANCH  35  36
ENDBRANCH  34  35
ENDBRANCH   1  34
TORSDOF 17
ENDMDL
