MODEL 1
REMARK VINA RESULT:     -12.4      0.000      0.000
REMARK SMILES O=C(NCCCCNC(=O)c1cn(C2CC2)c2cc(N3CC[NH2+]CC3)ccc2c1=O)c1ccc(-c2c3nc(c(-c4c(F)cccc4F)c4ccc([nH]4)c(-c4c(F)cccc4F)c4nc(c(-c5c(F)cccc5F)c5ccc2[nH]5)C=C4)C=C3)cc1
REMARK SMILES IDX 5 1 4 2 3 3 1 4 2 5 31 7 32 8 84 9 33 10 83 11 34 12 35 13
REMARK SMILES IDX 36 14 77 15 37 16 82 17 76 18 78 19 38 20 81 21 75 22 74 23
REMARK SMILES IDX 39 25 65 26 48 27 64 28 49 29 52 30 63 31 79 32 50 33 51 34
REMARK SMILES IDX 62 36 80 37 53 38 40 39 41 40 46 41 42 42 43 43 45 44 47 45
REMARK SMILES IDX 44 46 66 47 67 48 72 49 68 50 69 51 71 52 73 53 70 54 54 55
REMARK SMILES IDX 55 56 60 57 56 58 57 59 59 60 61 61 58 62 6 63 7 64 8 65
REMARK SMILES IDX 9 66 10 68 11 69 12 70 29 71 13 72 28 73 30 74 17 75 27 76
REMARK SMILES IDX 18 77 26 78 19 79 14 80 15 81 16 82 20 83 21 84 25 85 22 86
REMARK SMILES IDX 24 87 23 88
REMARK H PARENT 3 6 78 24 52 35 8 67 23 89 23 90
REMARK Flexibility Score: inf
ROOT
ATOM      1  C   UNL A   1      32.157  28.681  27.048  1.00  0.00     0.023 C 
ENDROOT
BRANCH   1   2
ATOM      2  C   UNL A   1      33.598  29.047  27.389  1.00  0.00     0.116 C 
BRANCH   2   3
ATOM      3  N   UNL A   1      33.713  30.367  27.983  1.00  0.00    -0.352 N 
ATOM      4  O   UNL A   1      34.590  32.026  29.219  1.00  0.00    -0.269 OA
ATOM      5  C   UNL A   1      34.761  30.946  28.653  1.00  0.00     0.251 C 
ATOM      6  H   UNL A   1      32.914  30.936  27.891  1.00  0.00     0.163 HD
BRANCH   5   7
ATOM      7  C   UNL A   1      36.090  30.297  28.709  1.00  0.00     0.039 A 
ATOM      8  C   UNL A   1      36.496  29.703  29.911  1.00  0.00     0.014 A 
ATOM      9  C   UNL A   1      36.974  30.346  27.627  1.00  0.00     0.014 A 
ATOM     10  C   UNL A   1      37.772  29.147  30.024  1.00  0.00     0.010 A 
ATOM     11  C   UNL A   1      38.226  29.741  27.722  1.00  0.00     0.010 A 
ATOM     12  C   UNL A   1      38.648  29.162  28.930  1.00  0.00    -0.014 A 
BRANCH  12  13
ATOM     13  C   UNL A   1      40.050  28.685  29.050  1.00  0.00     0.031 A 
ATOM     14  C   UNL A   1      41.108  29.643  29.531  1.00  0.00     0.074 A 
ATOM     15  C   UNL A   1      40.387  27.435  28.685  1.00  0.00     0.049 A 
ATOM     16  N   UNL A   1      42.407  29.493  29.570  1.00  0.00    -0.248 NA
ATOM     17  C   UNL A   1      40.639  30.954  30.009  1.00  0.00     0.031 C 
ATOM     18  C   UNL A   1      39.463  26.410  28.202  1.00  0.00     0.029 A 
ATOM     19  N   UNL A   1      41.616  26.823  28.645  1.00  0.00    -0.354 N 
ATOM     20  C   UNL A   1      42.910  30.700  30.039  1.00  0.00     0.074 A 
ATOM     21  C   UNL A   1      41.781  31.581  30.248  1.00  0.00     0.031 C 
ATOM     22  C   UNL A   1      40.156  25.295  27.914  1.00  0.00     0.029 A 
ATOM     23  C   UNL A   1      41.576  25.539  28.154  1.00  0.00     0.049 A 
ATOM     24  H   UNL A   1      42.446  27.260  28.941  1.00  0.00     0.167 HD
ATOM     25  C   UNL A   1      44.197  31.042  30.286  1.00  0.00     0.037 A 
ATOM     26  C   UNL A   1      42.576  24.672  27.905  1.00  0.00     0.037 A 
ATOM     27  C   UNL A   1      45.315  30.152  30.134  1.00  0.00     0.049 A 
ATOM     28  C   UNL A   1      43.999  25.083  28.177  1.00  0.00     0.074 A 
ATOM     29  C   UNL A   1      46.647  30.382  30.432  1.00  0.00     0.029 A 
ATOM     30  N   UNL A   1      45.228  28.857  29.650  1.00  0.00    -0.354 N 
ATOM     31  N   UNL A   1      44.458  26.212  28.660  1.00  0.00    -0.248 NA
ATOM     32  C   UNL A   1      45.046  24.098  27.861  1.00  0.00     0.031 C 
ATOM     33  C   UNL A   1      47.373  29.235  30.097  1.00  0.00     0.029 A 
ATOM     34  C   UNL A   1      46.487  28.282  29.621  1.00  0.00     0.049 A 
ATOM     35  H   UNL A   1      44.397  28.413  29.367  1.00  0.00     0.167 HD
ATOM     36  C   UNL A   1      45.836  26.062  28.734  1.00  0.00     0.074 A 
ATOM     37  C   UNL A   1      46.142  24.732  28.254  1.00  0.00     0.031 C 
ATOM     38  C   UNL A   1      46.768  26.948  29.161  1.00  0.00     0.037 A 
BRANCH  25  39
ATOM     39  C   UNL A   1      44.466  32.443  30.744  1.00  0.00     0.057 A 
ATOM     40  C   UNL A   1      44.449  32.760  32.108  1.00  0.00     0.134 A 
ATOM     41  C   UNL A   1      44.705  33.485  29.839  1.00  0.00     0.134 A 
ATOM     42  F   UNL A   1      44.223  31.808  33.026  1.00  0.00    -0.206 F 
ATOM     43  C   UNL A   1      44.655  34.066  32.555  1.00  0.00     0.040 A 
ATOM     44  C   UNL A   1      44.935  34.790  30.276  1.00  0.00     0.040 A 
ATOM     45  F   UNL A   1      44.748  33.242  28.520  1.00  0.00    -0.206 F 
ATOM     46  C   UNL A   1      44.903  35.085  31.638  1.00  0.00     0.006 A 
ENDBRANCH  25  39
BRANCH  26  47
ATOM     47  C   UNL A   1      42.284  23.326  27.354  1.00  0.00     0.057 A 
ATOM     48  C   UNL A   1      42.388  23.057  25.985  1.00  0.00     0.134 A 
ATOM     49  C   UNL A   1      41.943  22.261  28.197  1.00  0.00     0.134 A 
ATOM     50  F   UNL A   1      42.711  24.036  25.126  1.00  0.00    -0.206 F 
ATOM     51  C   UNL A   1      42.168  21.778  25.472  1.00  0.00     0.040 A 
ATOM     52  C   UNL A   1      41.742  20.972  27.702  1.00  0.00     0.040 A 
ATOM     53  F   UNL A   1      41.854  22.452  29.522  1.00  0.00    -0.206 F 
ATOM     54  C   UNL A   1      41.853  20.728  26.334  1.00  0.00     0.006 A 
ENDBRANCH  26  47
BRANCH  38  55
ATOM     55  C   UNL A   1      48.196  26.493  29.171  1.00  0.00     0.057 A 
ATOM     56  C   UNL A   1      48.757  25.935  30.327  1.00  0.00     0.134 A 
ATOM     57  C   UNL A   1      49.027  26.653  28.056  1.00  0.00     0.134 A 
ATOM     58  F   UNL A   1      48.012  25.763  31.430  1.00  0.00    -0.206 F 
ATOM     59  C   UNL A   1      50.098  25.557  30.376  1.00  0.00     0.040 A 
ATOM     60  C   UNL A   1      50.365  26.260  28.087  1.00  0.00     0.040 A 
ATOM     61  F   UNL A   1      48.544  27.168  26.916  1.00  0.00    -0.206 F 
ATOM     62  C   UNL A   1      50.907  25.717  29.251  1.00  0.00     0.006 A 
ENDBRANCH  38  55
ENDBRANCH  12  13
ENDBRANCH   5   7
ENDBRANCH   2   3
ENDBRANCH   1   2
BRANCH   1  63
ATOM     63  C   UNL A   1      31.877  27.188  26.867  1.00  0.00     0.023 C 
BRANCH  63  64
ATOM     64  C   UNL A   1      31.488  26.755  25.457  1.00  0.00     0.116 C 
BRANCH  64  65
ATOM     65  N   UNL A   1      32.431  27.192  24.440  1.00  0.00    -0.352 N 
ATOM     66  C   UNL A   1      33.377  26.460  23.772  1.00  0.00     0.256 C 
ATOM     67  H   UNL A   1      32.383  28.145  24.198  1.00  0.00     0.163 HD
ATOM     68  O   UNL A   1      34.065  26.989  22.902  1.00  0.00    -0.269 OA
BRANCH  66  69
ATOM     69  C   UNL A   1      33.503  25.029  24.096  1.00  0.00     0.104 A 
ATOM     70  C   UNL A   1      34.414  24.654  25.007  1.00  0.00     0.104 A 
ATOM     71  C   UNL A   1      32.720  23.981  23.414  1.00  0.00     0.202 A 
ATOM     72  N   UNL A   1      34.753  23.353  25.324  1.00  0.00    -0.343 N 
ATOM     73  C   UNL A   1      32.956  22.579  23.840  1.00  0.00     0.047 A 
ATOM     74  O   UNL A   1      31.933  24.239  22.508  1.00  0.00    -0.288 OA
ATOM     75  C   UNL A   1      33.954  22.294  24.793  1.00  0.00     0.054 A 
ATOM     76  C   UNL A   1      32.208  21.555  23.250  1.00  0.00     0.016 A 
ATOM     77  C   UNL A   1      34.133  20.951  25.163  1.00  0.00     0.053 A 
ATOM     78  C   UNL A   1      32.455  20.227  23.598  1.00  0.00     0.027 A 
ATOM     79  C   UNL A   1      33.417  19.904  24.558  1.00  0.00     0.039 A 
BRANCH  72  80
ATOM     80  C   UNL A   1      36.046  23.070  26.000  1.00  0.00     0.087 C 
ATOM     81  C   UNL A   1      37.305  22.588  25.321  1.00  0.00     0.027 C 
ATOM     82  C   UNL A   1      37.229  23.988  25.856  1.00  0.00     0.027 C 
ENDBRANCH  72  80
BRANCH  79  83
ATOM     83  N   UNL A   1      33.685  18.598  24.909  1.00  0.00    -0.360 N 
ATOM     84  C   UNL A   1      32.794  17.900  25.840  1.00  0.00     0.178 C 
ATOM     85  C   UNL A   1      34.618  17.772  24.138  1.00  0.00     0.178 C 
ATOM     86  C   UNL A   1      32.133  16.688  25.141  1.00  0.00     0.282 C 
ATOM     87  C   UNL A   1      33.901  16.554  23.517  1.00  0.00     0.282 C 
ATOM     88  N   UNL A   1      33.103  15.777  24.491  1.00  0.00    -0.343 N 
ATOM     89  H   UNL A   1      32.602  15.030  24.007  1.00  0.00     0.346 HD
ATOM     90  H   UNL A   1      33.716  15.362  25.193  1.00  0.00     0.346 HD
ENDBRANCH  79  83
ENDBRANCH  66  69
ENDBRANCH  64  65
ENDBRANCH  63  64
ENDBRANCH   1  63
TORSDOF 13
ENDMDL
MODEL 2
REMARK VINA RESULT:     -12.0      1.312      2.122
REMARK SMILES O=C(NCCCCNC(=O)c1cn(C2CC2)c2cc(N3CC[NH2+]CC3)ccc2c1=O)c1ccc(-c2c3nc(c(-c4c(F)cccc4F)c4ccc([nH]4)c(-c4c(F)cccc4F)c4nc(c(-c5c(F)cccc5F)c5ccc2[nH]5)C=C4)C=C3)cc1
REMARK SMILES IDX 5 1 4 2 3 3 1 4 2 5 31 7 32 8 84 9 33 10 83 11 34 12 35 13
REMARK SMILES IDX 36 14 77 15 37 16 82 17 76 18 78 19 38 20 81 21 75 22 74 23
REMARK SMILES IDX 39 25 65 26 48 27 64 28 49 29 52 30 63 31 79 32 50 33 51 34
REMARK SMILES IDX 62 36 80 37 53 38 40 39 41 40 46 41 42 42 43 43 45 44 47 45
REMARK SMILES IDX 44 46 66 47 67 48 72 49 68 50 69 51 71 52 73 53 70 54 54 55
REMARK SMILES IDX 55 56 60 57 56 58 57 59 59 60 61 61 58 62 6 63 7 64 8 65
REMARK SMILES IDX 9 66 10 68 11 69 12 70 29 71 13 72 28 73 30 74 17 75 27 76
REMARK SMILES IDX 18 77 26 78 19 79 14 80 15 81 16 82 20 83 21 84 25 85 22 86
REMARK SMILES IDX 24 87 23 88
REMARK H PARENT 3 6 78 24 52 35 8 67 23 89 23 90
REMARK Flexibility Score: inf
ROOT
ATOM      1  C   UNL A   1      33.475  28.269  25.971  1.00  0.00     0.023 C 
ENDROOT
BRANCH   1   2
ATOM      2  C   UNL A   1      33.429  28.595  27.461  1.00  0.00     0.116 C 
BRANCH   2   3
ATOM      3  N   UNL A   1      33.540  30.019  27.725  1.00  0.00    -0.352 N 
ATOM      4  O   UNL A   1      34.419  31.928  28.517  1.00  0.00    -0.269 OA
ATOM      5  C   UNL A   1      34.592  30.747  28.219  1.00  0.00     0.251 C 
ATOM      6  H   UNL A   1      32.733  30.544  27.517  1.00  0.00     0.163 HD
BRANCH   5   7
ATOM      7  C   UNL A   1      35.929  30.138  28.400  1.00  0.00     0.039 A 
ATOM      8  C   UNL A   1      36.258  29.606  29.653  1.00  0.00     0.014 A 
ATOM      9  C   UNL A   1      36.889  30.167  27.385  1.00  0.00     0.014 A 
ATOM     10  C   UNL A   1      37.537  29.091  29.885  1.00  0.00     0.010 A 
ATOM     11  C   UNL A   1      38.146  29.602  27.598  1.00  0.00     0.010 A 
ATOM     12  C   UNL A   1      38.491  29.086  28.858  1.00  0.00    -0.014 A 
BRANCH  12  13
ATOM     13  C   UNL A   1      39.891  28.654  29.101  1.00  0.00     0.031 A 
ATOM     14  C   UNL A   1      40.853  29.622  29.740  1.00  0.00     0.074 A 
ATOM     15  C   UNL A   1      40.317  27.438  28.711  1.00  0.00     0.049 A 
ATOM     16  N   UNL A   1      42.146  29.517  29.908  1.00  0.00    -0.248 NA
ATOM     17  C   UNL A   1      40.283  30.886  30.231  1.00  0.00     0.031 C 
ATOM     18  C   UNL A   1      39.491  26.409  28.081  1.00  0.00     0.029 A 
ATOM     19  N   UNL A   1      41.567  26.874  28.770  1.00  0.00    -0.354 N 
ATOM     20  C   UNL A   1      42.548  30.714  30.488  1.00  0.00     0.074 A 
ATOM     21  C   UNL A   1      41.367  31.540  30.621  1.00  0.00     0.031 C 
ATOM     22  C   UNL A   1      40.256  25.337  27.813  1.00  0.00     0.029 A 
ATOM     23  C   UNL A   1      41.632  25.619  28.214  1.00  0.00     0.049 A 
ATOM     24  H   UNL A   1      42.343  27.324  29.174  1.00  0.00     0.167 HD
ATOM     25  C   UNL A   1      43.786  31.088  30.887  1.00  0.00     0.037 A 
ATOM     26  C   UNL A   1      42.688  24.803  28.028  1.00  0.00     0.037 A 
ATOM     27  C   UNL A   1      44.950  30.248  30.810  1.00  0.00     0.049 A 
ATOM     28  C   UNL A   1      44.056  25.250  28.469  1.00  0.00     0.074 A 
ATOM     29  C   UNL A   1      46.233  30.509  31.258  1.00  0.00     0.029 A 
ATOM     30  N   UNL A   1      44.968  28.979  30.254  1.00  0.00    -0.354 N 
ATOM     31  N   UNL A   1      44.415  26.366  29.055  1.00  0.00    -0.248 NA
ATOM     32  C   UNL A   1      45.170  24.322  28.217  1.00  0.00     0.031 C 
ATOM     33  C   UNL A   1      47.037  29.409  30.944  1.00  0.00     0.029 A 
ATOM     34  C   UNL A   1      46.246  28.453  30.329  1.00  0.00     0.049 A 
ATOM     35  H   UNL A   1      44.190  28.521  29.862  1.00  0.00     0.167 HD
ATOM     36  C   UNL A   1      45.784  26.263  29.266  1.00  0.00     0.074 A 
ATOM     37  C   UNL A   1      46.193  24.972  28.754  1.00  0.00     0.031 C 
ATOM     38  C   UNL A   1      46.628  27.157  29.834  1.00  0.00     0.037 A 
BRANCH  25  39
ATOM     39  C   UNL A   1      43.948  32.470  31.441  1.00  0.00     0.057 A 
ATOM     40  C   UNL A   1      43.672  32.732  32.789  1.00  0.00     0.134 A 
ATOM     41  C   UNL A   1      44.339  33.549  30.638  1.00  0.00     0.134 A 
ATOM     42  F   UNL A   1      43.289  31.743  33.611  1.00  0.00    -0.206 F 
ATOM     43  C   UNL A   1      43.775  34.019  33.317  1.00  0.00     0.040 A 
ATOM     44  C   UNL A   1      44.467  34.836  31.160  1.00  0.00     0.040 A 
ATOM     45  F   UNL A   1      44.631  33.359  29.343  1.00  0.00    -0.206 F 
ATOM     46  C   UNL A   1      44.178  35.076  32.503  1.00  0.00     0.006 A 
ENDBRANCH  25  39
BRANCH  26  47
ATOM     47  C   UNL A   1      42.511  23.480  27.381  1.00  0.00     0.057 A 
ATOM     48  C   UNL A   1      42.686  23.309  26.004  1.00  0.00     0.134 A 
ATOM     49  C   UNL A   1      42.212  22.341  28.141  1.00  0.00     0.134 A 
ATOM     50  F   UNL A   1      42.974  24.361  25.223  1.00  0.00    -0.206 F 
ATOM     51  C   UNL A   1      42.575  22.054  25.403  1.00  0.00     0.040 A 
ATOM     52  C   UNL A   1      42.119  21.078  27.557  1.00  0.00     0.040 A 
ATOM     53  F   UNL A   1      42.058  22.439  29.469  1.00  0.00    -0.206 F 
ATOM     54  C   UNL A   1      42.300  20.932  26.183  1.00  0.00     0.006 A 
ENDBRANCH  26  47
BRANCH  38  55
ATOM     55  C   UNL A   1      48.065  26.754  29.972  1.00  0.00     0.057 A 
ATOM     56  C   UNL A   1      48.506  26.072  31.113  1.00  0.00     0.134 A 
ATOM     57  C   UNL A   1      49.019  27.085  29.002  1.00  0.00     0.134 A 
ATOM     58  F   UNL A   1      47.641  25.733  32.081  1.00  0.00    -0.206 F 
ATOM     59  C   UNL A   1      49.849  25.737  31.288  1.00  0.00     0.040 A 
ATOM     60  C   UNL A   1      50.361  26.737  29.156  1.00  0.00     0.040 A 
ATOM     61  F   UNL A   1      48.654  27.726  27.882  1.00  0.00    -0.206 F 
ATOM     62  C   UNL A   1      50.781  26.068  30.305  1.00  0.00     0.006 A 
ENDBRANCH  38  55
ENDBRANCH  12  13
ENDBRANCH   5   7
ENDBRANCH   2   3
ENDBRANCH   1   2
BRANCH   1  63
ATOM     63  C   UNL A   1      33.144  29.427  25.028  1.00  0.00     0.023 C 
BRANCH  63  64
ATOM     64  C   UNL A   1      33.365  29.153  23.544  1.00  0.00     0.116 C 
BRANCH  64  65
ATOM     65  N   UNL A   1      32.127  29.002  22.796  1.00  0.00    -0.352 N 
ATOM     66  C   UNL A   1      31.400  27.866  22.556  1.00  0.00     0.256 C 
ATOM     67  H   UNL A   1      31.761  29.829  22.408  1.00  0.00     0.163 HD
ATOM     68  O   UNL A   1      30.342  27.930  21.935  1.00  0.00    -0.269 OA
BRANCH  66  69
ATOM     69  C   UNL A   1      31.902  26.593  23.103  1.00  0.00     0.104 A 
ATOM     70  C   UNL A   1      31.262  26.045  24.146  1.00  0.00     0.104 A 
ATOM     71  C   UNL A   1      33.118  25.929  22.598  1.00  0.00     0.202 A 
ATOM     72  N   UNL A   1      31.677  24.938  24.859  1.00  0.00    -0.343 N 
ATOM     73  C   UNL A   1      33.509  24.654  23.249  1.00  0.00     0.047 A 
ATOM     74  O   UNL A   1      33.807  26.416  21.706  1.00  0.00    -0.288 OA
ATOM     75  C   UNL A   1      32.776  24.177  24.354  1.00  0.00     0.054 A 
ATOM     76  C   UNL A   1      34.632  23.967  22.778  1.00  0.00     0.016 A 
ATOM     77  C   UNL A   1      33.187  22.963  24.930  1.00  0.00     0.053 A 
ATOM     78  C   UNL A   1      35.047  22.797  23.413  1.00  0.00     0.027 A 
ATOM     79  C   UNL A   1      34.333  22.276  24.495  1.00  0.00     0.039 A 
BRANCH  72  80
ATOM     80  C   UNL A   1      31.145  24.696  26.227  1.00  0.00     0.087 C 
ATOM     81  C   UNL A   1      29.685  24.667  26.609  1.00  0.00     0.027 C 
ATOM     82  C   UNL A   1      30.485  23.396  26.597  1.00  0.00     0.027 C 
ENDBRANCH  72  80
BRANCH  79  83
ATOM     83  N   UNL A   1      34.730  21.127  25.144  1.00  0.00    -0.360 N 
ATOM     84  C   UNL A   1      33.806  19.992  25.241  1.00  0.00     0.178 C 
ATOM     85  C   UNL A   1      36.140  20.861  25.441  1.00  0.00     0.178 C 
ATOM     86  C   UNL A   1      34.387  18.765  24.500  1.00  0.00     0.282 C 
ATOM     87  C   UNL A   1      36.634  19.593  24.713  1.00  0.00     0.282 C 
ATOM     88  N   UNL A   1      35.763  18.414  24.919  1.00  0.00    -0.343 N 
ATOM     89  H   UNL A   1      36.104  17.632  24.359  1.00  0.00     0.346 HD
ATOM     90  H   UNL A   1      35.770  18.144  25.902  1.00  0.00     0.346 HD
ENDBRANCH  79  83
ENDBRANCH  66  69
ENDBRANCH  64  65
ENDBRANCH  63  64
ENDBRANCH   1  63
TORSDOF 13
ENDMDL
MODEL 3
REMARK VINA RESULT:     -11.8      3.365      8.851
REMARK SMILES O=C(NCCCCNC(=O)c1cn(C2CC2)c2cc(N3CC[NH2+]CC3)ccc2c1=O)c1ccc(-c2c3nc(c(-c4c(F)cccc4F)c4ccc([nH]4)c(-c4c(F)cccc4F)c4nc(c(-c5c(F)cccc5F)c5ccc2[nH]5)C=C4)C=C3)cc1
REMARK SMILES IDX 5 1 4 2 3 3 1 4 2 5 31 7 32 8 84 9 33 10 83 11 34 12 35 13
REMARK SMILES IDX 36 14 77 15 37 16 82 17 76 18 78 19 38 20 81 21 75 22 74 23
REMARK SMILES IDX 39 25 65 26 48 27 64 28 49 29 52 30 63 31 79 32 50 33 51 34
REMARK SMILES IDX 62 36 80 37 53 38 40 39 41 40 46 41 42 42 43 43 45 44 47 45
REMARK SMILES IDX 44 46 66 47 67 48 72 49 68 50 69 51 71 52 73 53 70 54 54 55
REMARK SMILES IDX 55 56 60 57 56 58 57 59 59 60 61 61 58 62 6 63 7 64 8 65
REMARK SMILES IDX 9 66 10 68 11 69 12 70 29 71 13 72 28 73 30 74 17 75 27 76
REMARK SMILES IDX 18 77 26 78 19 79 14 80 15 81 16 82 20 83 21 84 25 85 22 86
REMARK SMILES IDX 24 87 23 88
REMARK H PARENT 3 6 78 24 52 35 8 67 23 89 23 90
REMARK Flexibility Score: inf
ROOT
ATOM      1  C   UNL A   1      36.695  22.743  24.148  1.00  0.00     0.023 C 
ENDROOT
BRANCH   1   2
ATOM      2  C   UNL A   1      37.419  23.161  25.425  1.00  0.00     0.116 C 
BRANCH   2   3
ATOM      3  N   UNL A   1      38.673  22.454  25.612  1.00  0.00    -0.352 N 
ATOM      4  O   UNL A   1      40.854  22.168  26.068  1.00  0.00    -0.269 OA
ATOM      5  C   UNL A   1      39.859  22.886  26.150  1.00  0.00     0.251 C 
ATOM      6  H   UNL A   1      38.674  21.518  25.305  1.00  0.00     0.163 HD
BRANCH   5   7
ATOM      7  C   UNL A   1      39.962  24.199  26.827  1.00  0.00     0.039 A 
ATOM      8  C   UNL A   1      40.674  25.225  26.193  1.00  0.00     0.014 A 
ATOM      9  C   UNL A   1      39.448  24.402  28.111  1.00  0.00     0.014 A 
ATOM     10  C   UNL A   1      40.858  26.453  26.833  1.00  0.00     0.010 A 
ATOM     11  C   UNL A   1      39.582  25.646  28.726  1.00  0.00     0.010 A 
ATOM     12  C   UNL A   1      40.312  26.673  28.106  1.00  0.00    -0.014 A 
BRANCH  12  13
ATOM     13  C   UNL A   1      40.585  27.922  28.862  1.00  0.00     0.031 A 
ATOM     14  C   UNL A   1      41.891  28.057  29.601  1.00  0.00     0.074 A 
ATOM     15  C   UNL A   1      39.664  28.900  28.936  1.00  0.00     0.049 A 
ATOM     16  N   UNL A   1      42.277  28.983  30.441  1.00  0.00    -0.248 NA
ATOM     17  C   UNL A   1      42.883  26.992  29.382  1.00  0.00     0.031 C 
ATOM     18  C   UNL A   1      38.362  28.894  28.271  1.00  0.00     0.029 A 
ATOM     19  N   UNL A   1      39.680  30.084  29.630  1.00  0.00    -0.354 N 
ATOM     20  C   UNL A   1      43.536  28.592  30.878  1.00  0.00     0.074 A 
ATOM     21  C   UNL A   1      43.841  27.335  30.231  1.00  0.00     0.031 C 
ATOM     22  C   UNL A   1      37.703  30.022  28.588  1.00  0.00     0.029 A 
ATOM     23  C   UNL A   1      38.519  30.810  29.509  1.00  0.00     0.049 A 
ATOM     24  H   UNL A   1      40.450  30.387  30.163  1.00  0.00     0.167 HD
ATOM     25  C   UNL A   1      44.371  29.230  31.732  1.00  0.00     0.037 A 
ATOM     26  C   UNL A   1      38.149  31.964  30.096  1.00  0.00     0.037 A 
ATOM     27  C   UNL A   1      44.097  30.507  32.332  1.00  0.00     0.049 A 
ATOM     28  C   UNL A   1      39.092  32.645  31.051  1.00  0.00     0.074 A 
ATOM     29  C   UNL A   1      44.913  31.269  33.149  1.00  0.00     0.029 A 
ATOM     30  N   UNL A   1      42.916  31.214  32.170  1.00  0.00    -0.354 N 
ATOM     31  N   UNL A   1      40.297  32.288  31.423  1.00  0.00    -0.248 NA
ATOM     32  C   UNL A   1      38.619  33.891  31.675  1.00  0.00     0.031 C 
ATOM     33  C   UNL A   1      44.213  32.425  33.510  1.00  0.00     0.029 A 
ATOM     34  C   UNL A   1      42.974  32.394  32.890  1.00  0.00     0.049 A 
ATOM     35  H   UNL A   1      42.151  30.920  31.626  1.00  0.00     0.167 HD
ATOM     36  C   UNL A   1      40.736  33.275  32.296  1.00  0.00     0.074 A 
ATOM     37  C   UNL A   1      39.672  34.251  32.395  1.00  0.00     0.031 C 
ATOM     38  C   UNL A   1      41.914  33.365  32.958  1.00  0.00     0.037 A 
BRANCH  25  39
ATOM     39  C   UNL A   1      45.664  28.553  32.073  1.00  0.00     0.057 A 
ATOM     40  C   UNL A   1      46.804  28.760  31.286  1.00  0.00     0.134 A 
ATOM     41  C   UNL A   1      45.774  27.669  33.153  1.00  0.00     0.134 A 
ATOM     42  F   UNL A   1      46.763  29.593  30.234  1.00  0.00    -0.206 F 
ATOM     43  C   UNL A   1      48.007  28.108  31.559  1.00  0.00     0.040 A 
ATOM     44  C   UNL A   1      46.977  27.028  33.449  1.00  0.00     0.040 A 
ATOM     45  F   UNL A   1      44.722  27.439  33.953  1.00  0.00    -0.206 F 
ATOM     46  C   UNL A   1      48.097  27.242  32.646  1.00  0.00     0.006 A 
ENDBRANCH  25  39
BRANCH  26  47
ATOM     47  C   UNL A   1      36.818  32.558  29.816  1.00  0.00     0.057 A 
ATOM     48  C   UNL A   1      36.630  33.473  28.774  1.00  0.00     0.134 A 
ATOM     49  C   UNL A   1      35.691  32.179  30.556  1.00  0.00     0.134 A 
ATOM     50  F   UNL A   1      37.670  33.874  28.029  1.00  0.00    -0.206 F 
ATOM     51  C   UNL A   1      35.368  33.989  28.475  1.00  0.00     0.040 A 
ATOM     52  C   UNL A   1      34.420  32.670  30.253  1.00  0.00     0.040 A 
ATOM     53  F   UNL A   1      35.805  31.286  31.549  1.00  0.00    -0.206 F 
ATOM     54  C   UNL A   1      34.257  33.579  29.210  1.00  0.00     0.006 A 
ENDBRANCH  26  47
BRANCH  38  55
ATOM     55  C   UNL A   1      42.133  34.578  33.810  1.00  0.00     0.057 A 
ATOM     56  C   UNL A   1      41.736  34.586  35.153  1.00  0.00     0.134 A 
ATOM     57  C   UNL A   1      42.691  35.752  33.289  1.00  0.00     0.134 A 
ATOM     58  F   UNL A   1      41.189  33.493  35.708  1.00  0.00    -0.206 F 
ATOM     59  C   UNL A   1      41.880  35.723  35.948  1.00  0.00     0.040 A 
ATOM     60  C   UNL A   1      42.858  36.888  34.080  1.00  0.00     0.040 A 
ATOM     61  F   UNL A   1      43.103  35.800  32.013  1.00  0.00    -0.206 F 
ATOM     62  C   UNL A   1      42.446  36.879  35.412  1.00  0.00     0.006 A 
ENDBRANCH  38  55
ENDBRANCH  12  13
ENDBRANCH   5   7
ENDBRANCH   2   3
ENDBRANCH   1   2
BRANCH   1  63
ATOM     63  C   UNL A   1      35.275  22.206  24.337  1.00  0.00     0.023 C 
BRANCH  63  64
ATOM     64  C   UNL A   1      34.216  23.246  24.686  1.00  0.00     0.116 C 
BRANCH  64  65
ATOM     65  N   UNL A   1      33.555  22.991  25.956  1.00  0.00    -0.352 N 
ATOM     66  C   UNL A   1      32.614  23.747  26.604  1.00  0.00     0.256 C 
ATOM     67  H   UNL A   1      33.820  22.160  26.413  1.00  0.00     0.163 HD
ATOM     68  O   UNL A   1      32.126  23.352  27.660  1.00  0.00    -0.269 OA
BRANCH  66  69
ATOM     69  C   UNL A   1      32.183  25.007  25.974  1.00  0.00     0.104 A 
ATOM     70  C   UNL A   1      32.815  26.142  26.308  1.00  0.00     0.104 A 
ATOM     71  C   UNL A   1      31.041  25.087  25.044  1.00  0.00     0.202 A 
ATOM     72  N   UNL A   1      32.451  27.416  25.918  1.00  0.00    -0.343 N 
ATOM     73  C   UNL A   1      30.716  26.425  24.489  1.00  0.00     0.047 A 
ATOM     74  O   UNL A   1      30.358  24.107  24.761  1.00  0.00    -0.288 OA
ATOM     75  C   UNL A   1      31.433  27.557  24.925  1.00  0.00     0.054 A 
ATOM     76  C   UNL A   1      29.667  26.544  23.572  1.00  0.00     0.016 A 
ATOM     77  C   UNL A   1      31.087  28.799  24.366  1.00  0.00     0.053 A 
ATOM     78  C   UNL A   1      29.312  27.801  23.084  1.00  0.00     0.027 A 
ATOM     79  C   UNL A   1      30.014  28.946  23.469  1.00  0.00     0.039 A 
BRANCH  72  80
ATOM     80  C   UNL A   1      32.939  28.592  26.685  1.00  0.00     0.087 C 
ATOM     81  C   UNL A   1      34.269  28.690  27.392  1.00  0.00     0.027 C 
ATOM     82  C   UNL A   1      34.019  29.491  26.147  1.00  0.00     0.027 C 
ENDBRANCH  72  80
BRANCH  79  83
ATOM     83  N   UNL A   1      29.674  30.198  23.008  1.00  0.00    -0.360 N 
ATOM     84  C   UNL A   1      29.613  30.448  21.564  1.00  0.00     0.178 C 
ATOM     85  C   UNL A   1      29.042  31.193  23.879  1.00  0.00     0.178 C 
ATOM     86  C   UNL A   1      28.173  30.829  21.147  1.00  0.00     0.282 C 
ATOM     87  C   UNL A   1      27.633  31.565  23.371  1.00  0.00     0.282 C 
ATOM     88  N   UNL A   1      27.599  31.940  21.940  1.00  0.00    -0.343 N 
ATOM     89  H   UNL A   1      26.635  32.106  21.651  1.00  0.00     0.346 HD
ATOM     90  H   UNL A   1      28.141  32.791  21.790  1.00  0.00     0.346 HD
ENDBRANCH  79  83
ENDBRANCH  66  69
ENDBRANCH  64  65
ENDBRANCH  63  64
ENDBRANCH   1  63
TORSDOF 13
ENDMDL
