MODEL 1
REMARK VINA RESULT:     -11.1      0.000      0.000
REMARK SMILES CCCCNC(=O)c1c(Cl)c(Cl)c(Cl)c(Cl)c1C(=O)NCCCCNC(=O)c1ccc(-c2c3nc(c(-c4c(F)cccc4F)c4ccc([nH]4)c(-c4c(F)cccc4F)c4nc(c(-c5c(F)cccc5F)c5ccc2[nH]5)C=C4)C=C3)cc1
REMARK SMILES IDX 21 1 20 2 18 3 19 4 17 6 8 7 9 8 10 9 11 10 15 11 12 12
REMARK SMILES IDX 13 13 16 14 14 15 6 16 5 17 7 19 4 20 3 21 2 22 1 23 22 24
REMARK SMILES IDX 23 25 24 26 25 27 26 28 27 30 28 31 29 32 81 33 30 34 80 35
REMARK SMILES IDX 31 36 32 37 33 38 74 39 34 40 79 41 73 42 75 43 35 44 78 45
REMARK SMILES IDX 72 46 71 47 36 49 62 50 45 51 61 52 46 53 49 54 60 55 76 56
REMARK SMILES IDX 47 57 48 58 59 60 77 61 50 62 37 63 38 64 43 65 39 66 40 67
REMARK SMILES IDX 42 68 44 69 41 70 63 71 64 72 69 73 65 74 66 75 68 76 70 77
REMARK SMILES IDX 67 78 51 79 52 80 57 81 53 82 54 83 56 84 58 85 55 86
REMARK H PARENT 20 5 5 18 25 29 75 48 49 59
REMARK Flexibility Score: inf
ROOT
ATOM      1  C   UNL A   1      36.654  22.448  24.229  1.00  0.00     0.116 C 
ENDROOT
BRANCH   1   2
ATOM      2  N   UNL A   1      35.743  23.461  24.685  1.00  0.00    -0.352 N 
ATOM      3  C   UNL A   1      34.434  23.308  25.083  1.00  0.00     0.253 C 
ATOM      4  O   UNL A   1      33.940  24.190  25.785  1.00  0.00    -0.269 OA
ATOM      5  H   UNL A   1      36.099  24.378  24.719  1.00  0.00     0.163 HD
BRANCH   3   6
ATOM      6  C   UNL A   1      33.536  22.190  24.664  1.00  0.00     0.074 A 
ATOM      7  C   UNL A   1      32.951  22.082  23.387  1.00  0.00     0.074 A 
ATOM      8  C   UNL A   1      32.465  20.845  22.913  1.00  0.00     0.074 A 
ATOM      9  Cl  UNL A   1      31.893  20.701  21.269  1.00  0.00    -0.082 Cl
ATOM     10  C   UNL A   1      32.462  19.722  23.752  1.00  0.00     0.080 A 
ATOM     11  C   UNL A   1      33.489  21.061  25.516  1.00  0.00     0.074 A 
ATOM     12  Cl  UNL A   1      31.823  18.206  23.177  1.00  0.00    -0.081 Cl
ATOM     13  C   UNL A   1      32.949  19.836  25.065  1.00  0.00     0.080 A 
ATOM     14  Cl  UNL A   1      34.024  21.191  27.174  1.00  0.00    -0.082 Cl
ATOM     15  Cl  UNL A   1      32.902  18.451  26.123  1.00  0.00    -0.081 Cl
BRANCH   7  16
ATOM     16  C   UNL A   1      32.827  23.245  22.501  1.00  0.00     0.253 C 
ATOM     17  N   UNL A   1      31.785  24.132  22.696  1.00  0.00    -0.352 N 
ATOM     18  H   UNL A   1      31.803  24.929  22.117  1.00  0.00     0.163 HD
ATOM     19  O   UNL A   1      33.668  23.426  21.630  1.00  0.00    -0.269 OA
BRANCH  17  20
ATOM     20  C   UNL A   1      30.657  24.072  23.627  1.00  0.00     0.116 C 
BRANCH  20  21
ATOM     21  C   UNL A   1      30.632  25.180  24.686  1.00  0.00     0.021 C 
BRANCH  21  22
ATOM     22  C   UNL A   1      30.428  24.727  26.131  1.00  0.00    -0.002 C 
ATOM     23  C   UNL A   1      30.515  23.221  26.306  1.00  0.00     0.004 C 
ENDBRANCH  21  22
ENDBRANCH  20  21
ENDBRANCH  17  20
ENDBRANCH   7  16
ENDBRANCH   3   6
ENDBRANCH   1   2
BRANCH   1  24
ATOM     24  C   UNL A   1      36.830  21.213  25.096  1.00  0.00     0.023 C 
BRANCH  24  25
ATOM     25  C   UNL A   1      38.107  20.403  24.896  1.00  0.00     0.023 C 
BRANCH  25  26
ATOM     26  C   UNL A   1      39.072  20.308  26.077  1.00  0.00     0.116 C 
BRANCH  26  27
ATOM     27  N   UNL A   1      40.090  19.274  25.952  1.00  0.00    -0.352 N 
ATOM     28  C   UNL A   1      41.461  19.334  26.086  1.00  0.00     0.251 C 
ATOM     29  H   UNL A   1      39.739  18.379  25.736  1.00  0.00     0.163 HD
ATOM     30  O   UNL A   1      42.138  18.334  25.883  1.00  0.00    -0.269 OA
BRANCH  28  31
ATOM     31  C   UNL A   1      42.126  20.615  26.417  1.00  0.00     0.039 A 
ATOM     32  C   UNL A   1      42.571  21.432  25.375  1.00  0.00     0.014 A 
ATOM     33  C   UNL A   1      42.279  21.030  27.739  1.00  0.00     0.014 A 
ATOM     34  C   UNL A   1      43.049  22.716  25.654  1.00  0.00     0.010 A 
ATOM     35  C   UNL A   1      42.658  22.342  28.010  1.00  0.00     0.010 A 
ATOM     36  C   UNL A   1      43.030  23.206  26.970  1.00  0.00    -0.014 A 
BRANCH  36  37
ATOM     37  C   UNL A   1      43.364  24.622  27.280  1.00  0.00     0.031 A 
ATOM     38  C   UNL A   1      44.793  25.091  27.240  1.00  0.00     0.074 A 
ATOM     39  C   UNL A   1      42.395  25.464  27.694  1.00  0.00     0.049 A 
ATOM     40  N   UNL A   1      45.294  26.250  27.587  1.00  0.00    -0.248 NA
ATOM     41  C   UNL A   1      45.796  24.117  26.784  1.00  0.00     0.031 C 
ATOM     42  C   UNL A   1      40.977  25.121  27.839  1.00  0.00     0.029 A 
ATOM     43  N   UNL A   1      42.456  26.779  28.086  1.00  0.00    -0.354 N 
ATOM     44  C   UNL A   1      46.667  26.135  27.414  1.00  0.00     0.074 A 
ATOM     45  C   UNL A   1      46.926  24.778  26.985  1.00  0.00     0.031 C 
ATOM     46  C   UNL A   1      40.302  26.203  28.259  1.00  0.00     0.029 A 
ATOM     47  C   UNL A   1      41.240  27.304  28.453  1.00  0.00     0.049 A 
ATOM     48  H   UNL A   1      43.293  27.297  28.101  1.00  0.00     0.167 HD
ATOM     49  C   UNL A   1      47.624  27.079  27.573  1.00  0.00     0.037 A 
ATOM     50  C   UNL A   1      40.918  28.532  28.902  1.00  0.00     0.037 A 
ATOM     51  C   UNL A   1      47.366  28.439  27.963  1.00  0.00     0.049 A 
ATOM     52  C   UNL A   1      41.996  29.567  29.056  1.00  0.00     0.074 A 
ATOM     53  C   UNL A   1      48.260  29.488  28.084  1.00  0.00     0.029 A 
ATOM     54  N   UNL A   1      46.115  28.940  28.292  1.00  0.00    -0.354 N 
ATOM     55  N   UNL A   1      43.282  29.461  28.823  1.00  0.00    -0.248 NA
ATOM     56  C   UNL A   1      41.579  30.894  29.530  1.00  0.00     0.031 C 
ATOM     57  C   UNL A   1      47.557  30.615  28.520  1.00  0.00     0.029 A 
ATOM     58  C   UNL A   1      46.217  30.280  28.629  1.00  0.00     0.049 A 
ATOM     59  H   UNL A   1      45.278  28.422  28.285  1.00  0.00     0.167 HD
ATOM     60  C   UNL A   1      43.821  30.713  29.094  1.00  0.00     0.074 A 
ATOM     61  C   UNL A   1      42.722  31.564  29.498  1.00  0.00     0.031 C 
ATOM     62  C   UNL A   1      45.112  31.118  29.016  1.00  0.00     0.037 A 
BRANCH  49  63
ATOM     63  C   UNL A   1      49.045  26.670  27.312  1.00  0.00     0.057 A 
ATOM     64  C   UNL A   1      49.877  26.200  28.337  1.00  0.00     0.134 A 
ATOM     65  C   UNL A   1      49.582  26.727  26.019  1.00  0.00     0.134 A 
ATOM     66  F   UNL A   1      49.429  26.133  29.599  1.00  0.00    -0.206 F 
ATOM     67  C   UNL A   1      51.200  25.828  28.091  1.00  0.00     0.040 A 
ATOM     68  C   UNL A   1      50.895  26.332  25.757  1.00  0.00     0.040 A 
ATOM     69  F   UNL A   1      48.838  27.160  24.991  1.00  0.00    -0.206 F 
ATOM     70  C   UNL A   1      51.710  25.889  26.796  1.00  0.00     0.006 A 
ENDBRANCH  49  63
BRANCH  50  71
ATOM     71  C   UNL A   1      39.503  28.864  29.210  1.00  0.00     0.057 A 
ATOM     72  C   UNL A   1      38.986  28.675  30.498  1.00  0.00     0.134 A 
ATOM     73  C   UNL A   1      38.635  29.363  28.234  1.00  0.00     0.134 A 
ATOM     74  F   UNL A   1      39.766  28.181  31.471  1.00  0.00    -0.206 F 
ATOM     75  C   UNL A   1      37.651  28.951  30.799  1.00  0.00     0.040 A 
ATOM     76  C   UNL A   1      37.303  29.665  28.526  1.00  0.00     0.040 A 
ATOM     77  F   UNL A   1      39.070  29.573  26.983  1.00  0.00    -0.206 F 
ATOM     78  C   UNL A   1      36.807  29.451  29.811  1.00  0.00     0.006 A 
ENDBRANCH  50  71
BRANCH  62  79
ATOM     79  C   UNL A   1      45.401  32.555  29.336  1.00  0.00     0.057 A 
ATOM     80  C   UNL A   1      45.317  33.560  28.366  1.00  0.00     0.134 A 
ATOM     81  C   UNL A   1      45.728  32.940  30.642  1.00  0.00     0.134 A 
ATOM     82  F   UNL A   1      45.022  33.253  27.093  1.00  0.00    -0.206 F 
ATOM     83  C   UNL A   1      45.566  34.897  28.679  1.00  0.00     0.040 A 
ATOM     84  C   UNL A   1      45.955  34.276  30.973  1.00  0.00     0.040 A 
ATOM     85  F   UNL A   1      45.818  32.025  31.621  1.00  0.00    -0.206 F 
ATOM     86  C   UNL A   1      45.880  35.259  29.987  1.00  0.00     0.006 A 
ENDBRANCH  62  79
ENDBRANCH  36  37
ENDBRANCH  28  31
ENDBRANCH  26  27
ENDBRANCH  25  26
ENDBRANCH  24  25
ENDBRANCH   1  24
TORSDOF 15
ENDMDL
MODEL 2
REMARK VINA RESULT:     -11.0      0.642      6.192
REMARK SMILES CCCCNC(=O)c1c(Cl)c(Cl)c(Cl)c(Cl)c1C(=O)NCCCCNC(=O)c1ccc(-c2c3nc(c(-c4c(F)cccc4F)c4ccc([nH]4)c(-c4c(F)cccc4F)c4nc(c(-c5c(F)cccc5F)c5ccc2[nH]5)C=C4)C=C3)cc1
REMARK SMILES IDX 21 1 20 2 18 3 19 4 17 6 8 7 9 8 10 9 11 10 15 11 12 12
REMARK SMILES IDX 13 13 16 14 14 15 6 16 5 17 7 19 4 20 3 21 2 22 1 23 22 24
REMARK SMILES IDX 23 25 24 26 25 27 26 28 27 30 28 31 29 32 81 33 30 34 80 35
REMARK SMILES IDX 31 36 32 37 33 38 74 39 34 40 79 41 73 42 75 43 35 44 78 45
REMARK SMILES IDX 72 46 71 47 36 49 62 50 45 51 61 52 46 53 49 54 60 55 76 56
REMARK SMILES IDX 47 57 48 58 59 60 77 61 50 62 37 63 38 64 43 65 39 66 40 67
REMARK SMILES IDX 42 68 44 69 41 70 63 71 64 72 69 73 65 74 66 75 68 76 70 77
REMARK SMILES IDX 67 78 51 79 52 80 57 81 53 82 54 83 56 84 58 85 55 86
REMARK H PARENT 20 5 5 18 25 29 75 48 49 59
REMARK Flexibility Score: inf
ROOT
ATOM      1  C   UNL A   1      36.657  22.605  24.338  1.00  0.00     0.116 C 
ENDROOT
BRANCH   1   2
ATOM      2  N   UNL A   1      35.725  23.606  24.778  1.00  0.00    -0.352 N 
ATOM      3  C   UNL A   1      34.410  23.439  25.145  1.00  0.00     0.253 C 
ATOM      4  O   UNL A   1      33.891  24.313  25.839  1.00  0.00    -0.269 OA
ATOM      5  H   UNL A   1      36.071  24.527  24.822  1.00  0.00     0.163 HD
BRANCH   3   6
ATOM      6  C   UNL A   1      33.533  22.314  24.702  1.00  0.00     0.074 A 
ATOM      7  C   UNL A   1      32.972  22.207  23.414  1.00  0.00     0.074 A 
ATOM      8  C   UNL A   1      32.510  20.967  22.923  1.00  0.00     0.074 A 
ATOM      9  Cl  UNL A   1      31.971  20.828  21.268  1.00  0.00    -0.082 Cl
ATOM     10  C   UNL A   1      32.504  19.839  23.755  1.00  0.00     0.080 A 
ATOM     11  C   UNL A   1      33.483  21.178  25.546  1.00  0.00     0.074 A 
ATOM     12  Cl  UNL A   1      31.895  18.320  23.159  1.00  0.00    -0.081 Cl
ATOM     13  C   UNL A   1      32.966  19.950  25.077  1.00  0.00     0.080 A 
ATOM     14  Cl  UNL A   1      33.984  21.304  27.215  1.00  0.00    -0.082 Cl
ATOM     15  Cl  UNL A   1      32.914  18.558  26.126  1.00  0.00    -0.081 Cl
BRANCH   7  16
ATOM     16  C   UNL A   1      32.852  23.374  22.533  1.00  0.00     0.253 C 
ATOM     17  N   UNL A   1      31.797  24.249  22.715  1.00  0.00    -0.352 N 
ATOM     18  H   UNL A   1      31.817  25.049  22.142  1.00  0.00     0.163 HD
ATOM     19  O   UNL A   1      33.707  23.570  21.679  1.00  0.00    -0.269 OA
BRANCH  17  20
ATOM     20  C   UNL A   1      30.654  24.171  23.625  1.00  0.00     0.116 C 
BRANCH  20  21
ATOM     21  C   UNL A   1      30.704  25.139  24.813  1.00  0.00     0.021 C 
BRANCH  21  22
ATOM     22  C   UNL A   1      30.054  24.652  26.107  1.00  0.00    -0.002 C 
ATOM     23  C   UNL A   1      30.570  23.300  26.567  1.00  0.00     0.004 C 
ENDBRANCH  21  22
ENDBRANCH  20  21
ENDBRANCH  17  20
ENDBRANCH   7  16
ENDBRANCH   3   6
ENDBRANCH   1   2
BRANCH   1  24
ATOM     24  C   UNL A   1      36.756  21.326  25.153  1.00  0.00     0.023 C 
BRANCH  24  25
ATOM     25  C   UNL A   1      37.943  20.413  24.865  1.00  0.00     0.023 C 
BRANCH  25  26
ATOM     26  C   UNL A   1      39.170  20.548  25.766  1.00  0.00     0.116 C 
BRANCH  26  27
ATOM     27  N   UNL A   1      40.069  19.402  25.750  1.00  0.00    -0.352 N 
ATOM     28  C   UNL A   1      41.420  19.310  26.008  1.00  0.00     0.251 C 
ATOM     29  H   UNL A   1      39.639  18.549  25.515  1.00  0.00     0.163 HD
ATOM     30  O   UNL A   1      41.993  18.235  25.882  1.00  0.00    -0.269 OA
BRANCH  28  31
ATOM     31  C   UNL A   1      42.195  20.516  26.382  1.00  0.00     0.039 A 
ATOM     32  C   UNL A   1      42.838  21.242  25.375  1.00  0.00     0.014 A 
ATOM     33  C   UNL A   1      42.262  20.952  27.704  1.00  0.00     0.014 A 
ATOM     34  C   UNL A   1      43.434  22.469  25.678  1.00  0.00     0.010 A 
ATOM     35  C   UNL A   1      42.765  22.219  27.987  1.00  0.00     0.010 A 
ATOM     36  C   UNL A   1      43.341  23.001  26.974  1.00  0.00    -0.014 A 
BRANCH  36  37
ATOM     37  C   UNL A   1      43.807  24.378  27.289  1.00  0.00     0.031 A 
ATOM     38  C   UNL A   1      42.823  25.436  27.706  1.00  0.00     0.074 A 
ATOM     39  C   UNL A   1      45.103  24.704  27.105  1.00  0.00     0.049 A 
ATOM     40  N   UNL A   1      43.019  26.714  27.911  1.00  0.00    -0.248 NA
ATOM     41  C   UNL A   1      41.427  25.008  27.881  1.00  0.00     0.031 C 
ATOM     42  C   UNL A   1      46.152  23.790  26.643  1.00  0.00     0.029 A 
ATOM     43  N   UNL A   1      45.758  25.899  27.269  1.00  0.00    -0.354 N 
ATOM     44  C   UNL A   1      41.771  27.243  28.213  1.00  0.00     0.074 A 
ATOM     45  C   UNL A   1      40.817  26.161  28.112  1.00  0.00     0.031 C 
ATOM     46  C   UNL A   1      47.320  24.450  26.589  1.00  0.00     0.029 A 
ATOM     47  C   UNL A   1      47.099  25.841  26.970  1.00  0.00     0.049 A 
ATOM     48  H   UNL A   1      45.310  26.721  27.573  1.00  0.00     0.167 HD
ATOM     49  C   UNL A   1      41.450  28.510  28.569  1.00  0.00     0.037 A 
ATOM     50  C   UNL A   1      48.043  26.802  26.995  1.00  0.00     0.037 A 
ATOM     51  C   UNL A   1      42.402  29.579  28.707  1.00  0.00     0.049 A 
ATOM     52  C   UNL A   1      47.665  28.196  27.407  1.00  0.00     0.074 A 
ATOM     53  C   UNL A   1      42.185  30.880  29.129  1.00  0.00     0.029 A 
ATOM     54  N   UNL A   1      43.756  29.470  28.430  1.00  0.00    -0.354 N 
ATOM     55  N   UNL A   1      46.491  28.665  27.755  1.00  0.00    -0.248 NA
ATOM     56  C   UNL A   1      48.743  29.195  27.434  1.00  0.00     0.031 C 
ATOM     57  C   UNL A   1      43.402  31.567  29.073  1.00  0.00     0.029 A 
ATOM     58  C   UNL A   1      44.385  30.683  28.657  1.00  0.00     0.049 A 
ATOM     59  H   UNL A   1      44.206  28.651  28.117  1.00  0.00     0.167 HD
ATOM     60  C   UNL A   1      46.695  30.003  28.070  1.00  0.00     0.074 A 
ATOM     61  C   UNL A   1      48.106  30.268  27.881  1.00  0.00     0.031 C 
ATOM     62  C   UNL A   1      45.793  30.928  28.478  1.00  0.00     0.037 A 
BRANCH  49  63
ATOM     63  C   UNL A   1      40.004  28.803  28.845  1.00  0.00     0.057 A 
ATOM     64  C   UNL A   1      39.466  28.705  30.135  1.00  0.00     0.134 A 
ATOM     65  C   UNL A   1      39.145  29.207  27.815  1.00  0.00     0.134 A 
ATOM     66  F   UNL A   1      40.232  28.310  31.163  1.00  0.00    -0.206 F 
ATOM     67  C   UNL A   1      38.118  28.970  30.386  1.00  0.00     0.040 A 
ATOM     68  C   UNL A   1      37.802  29.501  28.059  1.00  0.00     0.040 A 
ATOM     69  F   UNL A   1      39.596  29.328  26.558  1.00  0.00    -0.206 F 
ATOM     70  C   UNL A   1      37.283  29.375  29.346  1.00  0.00     0.006 A 
ENDBRANCH  49  63
BRANCH  50  71
ATOM     71  C   UNL A   1      49.449  26.472  26.647  1.00  0.00     0.057 A 
ATOM     72  C   UNL A   1      49.929  26.660  25.345  1.00  0.00     0.134 A 
ATOM     73  C   UNL A   1      50.339  25.953  27.594  1.00  0.00     0.134 A 
ATOM     74  F   UNL A   1      49.117  27.136  24.390  1.00  0.00    -0.206 F 
ATOM     75  C   UNL A   1      51.237  26.326  24.992  1.00  0.00     0.040 A 
ATOM     76  C   UNL A   1      51.657  25.636  27.260  1.00  0.00     0.040 A 
ATOM     77  F   UNL A   1      49.943  25.756  28.860  1.00  0.00    -0.206 F 
ATOM     78  C   UNL A   1      52.107  25.816  25.953  1.00  0.00     0.006 A 
ENDBRANCH  50  71
BRANCH  62  79
ATOM     79  C   UNL A   1      46.310  32.302  28.786  1.00  0.00     0.057 A 
ATOM     80  C   UNL A   1      46.355  33.310  27.816  1.00  0.00     0.134 A 
ATOM     81  C   UNL A   1      46.729  32.629  30.081  1.00  0.00     0.134 A 
ATOM     82  F   UNL A   1      45.980  33.055  26.553  1.00  0.00    -0.206 F 
ATOM     83  C   UNL A   1      46.816  34.591  28.119  1.00  0.00     0.040 A 
ATOM     84  C   UNL A   1      47.169  33.913  30.402  1.00  0.00     0.040 A 
ATOM     85  F   UNL A   1      46.703  31.710  31.059  1.00  0.00    -0.206 F 
ATOM     86  C   UNL A   1      47.219  34.898  29.417  1.00  0.00     0.006 A 
ENDBRANCH  62  79
ENDBRANCH  36  37
ENDBRANCH  28  31
ENDBRANCH  26  27
ENDBRANCH  25  26
ENDBRANCH  24  25
ENDBRANCH   1  24
TORSDOF 15
ENDMDL
MODEL 3
REMARK VINA RESULT:     -10.9      2.794      7.710
REMARK SMILES CCCCNC(=O)c1c(Cl)c(Cl)c(Cl)c(Cl)c1C(=O)NCCCCNC(=O)c1ccc(-c2c3nc(c(-c4c(F)cccc4F)c4ccc([nH]4)c(-c4c(F)cccc4F)c4nc(c(-c5c(F)cccc5F)c5ccc2[nH]5)C=C4)C=C3)cc1
REMARK SMILES IDX 21 1 20 2 18 3 19 4 17 6 8 7 9 8 10 9 11 10 15 11 12 12
REMARK SMILES IDX 13 13 16 14 14 15 6 16 5 17 7 19 4 20 3 21 2 22 1 23 22 24
REMARK SMILES IDX 23 25 24 26 25 27 26 28 27 30 28 31 29 32 81 33 30 34 80 35
REMARK SMILES IDX 31 36 32 37 33 38 74 39 34 40 79 41 73 42 75 43 35 44 78 45
REMARK SMILES IDX 72 46 71 47 36 49 62 50 45 51 61 52 46 53 49 54 60 55 76 56
REMARK SMILES IDX 47 57 48 58 59 60 77 61 50 62 37 63 38 64 43 65 39 66 40 67
REMARK SMILES IDX 42 68 44 69 41 70 63 71 64 72 69 73 65 74 66 75 68 76 70 77
REMARK SMILES IDX 67 78 51 79 52 80 57 81 53 82 54 83 56 84 58 85 55 86
REMARK H PARENT 20 5 5 18 25 29 75 48 49 59
REMARK Flexibility Score: inf
ROOT
ATOM      1  C   UNL A   1      33.864  27.581  24.137  1.00  0.00     0.116 C 
ENDROOT
BRANCH   1   2
ATOM      2  N   UNL A   1      33.641  27.036  22.827  1.00  0.00    -0.352 N 
ATOM      3  C   UNL A   1      32.673  26.141  22.433  1.00  0.00     0.253 C 
ATOM      4  O   UNL A   1      32.397  26.081  21.235  1.00  0.00    -0.269 OA
ATOM      5  H   UNL A   1      34.257  27.341  22.122  1.00  0.00     0.163 HD
BRANCH   3   6
ATOM      6  C   UNL A   1      31.980  25.175  23.338  1.00  0.00     0.074 A 
ATOM      7  C   UNL A   1      32.463  23.886  23.638  1.00  0.00     0.074 A 
ATOM      8  C   UNL A   1      32.014  23.189  24.780  1.00  0.00     0.074 A 
ATOM      9  Cl  UNL A   1      32.745  21.665  25.218  1.00  0.00    -0.082 Cl
ATOM     10  C   UNL A   1      30.995  23.728  25.578  1.00  0.00     0.080 A 
ATOM     11  C   UNL A   1      30.923  25.690  24.127  1.00  0.00     0.074 A 
ATOM     12  Cl  UNL A   1      30.414  22.846  26.963  1.00  0.00    -0.081 Cl
ATOM     13  C   UNL A   1      30.430  24.968  25.237  1.00  0.00     0.080 A 
ATOM     14  Cl  UNL A   1      30.155  27.196  23.687  1.00  0.00    -0.082 Cl
ATOM     15  Cl  UNL A   1      29.131  25.617  26.203  1.00  0.00    -0.081 Cl
BRANCH   7  16
ATOM     16  C   UNL A   1      33.452  23.222  22.782  1.00  0.00     0.253 C 
ATOM     17  N   UNL A   1      34.790  23.281  23.127  1.00  0.00    -0.352 N 
ATOM     18  H   UNL A   1      35.391  22.752  22.554  1.00  0.00     0.163 HD
ATOM     19  O   UNL A   1      33.071  22.599  21.799  1.00  0.00    -0.269 OA
BRANCH  17  20
ATOM     20  C   UNL A   1      35.452  24.008  24.211  1.00  0.00     0.116 C 
BRANCH  20  21
ATOM     21  C   UNL A   1      36.157  23.125  25.247  1.00  0.00     0.021 C 
BRANCH  21  22
ATOM     22  C   UNL A   1      37.433  23.697  25.863  1.00  0.00    -0.002 C 
ATOM     23  C   UNL A   1      38.527  22.660  26.049  1.00  0.00     0.004 C 
ENDBRANCH  21  22
ENDBRANCH  20  21
ENDBRANCH  17  20
ENDBRANCH   7  16
ENDBRANCH   3   6
ENDBRANCH   1   2
BRANCH   1  24
ATOM     24  C   UNL A   1      33.299  28.960  24.434  1.00  0.00     0.023 C 
BRANCH  24  25
ATOM     25  C   UNL A   1      32.656  29.165  25.802  1.00  0.00     0.023 C 
BRANCH  25  26
ATOM     26  C   UNL A   1      33.571  29.115  27.024  1.00  0.00     0.116 C 
BRANCH  26  27
ATOM     27  N   UNL A   1      33.681  30.370  27.756  1.00  0.00    -0.352 N 
ATOM     28  C   UNL A   1      34.731  30.914  28.465  1.00  0.00     0.251 C 
ATOM     29  H   UNL A   1      32.867  30.924  27.742  1.00  0.00     0.163 HD
ATOM     30  O   UNL A   1      34.583  31.976  29.055  1.00  0.00    -0.269 OA
BRANCH  28  31
ATOM     31  C   UNL A   1      36.021  30.192  28.565  1.00  0.00     0.039 A 
ATOM     32  C   UNL A   1      36.889  30.210  27.471  1.00  0.00     0.014 A 
ATOM     33  C   UNL A   1      36.391  29.532  29.736  1.00  0.00     0.014 A 
ATOM     34  C   UNL A   1      38.177  29.680  27.598  1.00  0.00     0.010 A 
ATOM     35  C   UNL A   1      37.704  29.097  29.895  1.00  0.00     0.010 A 
ATOM     36  C   UNL A   1      38.618  29.182  28.834  1.00  0.00    -0.014 A 
BRANCH  36  37
ATOM     37  C   UNL A   1      40.031  28.773  29.052  1.00  0.00     0.031 A 
ATOM     38  C   UNL A   1      41.023  29.748  29.626  1.00  0.00     0.074 A 
ATOM     39  C   UNL A   1      40.448  27.558  28.642  1.00  0.00     0.049 A 
ATOM     40  N   UNL A   1      42.316  29.617  29.783  1.00  0.00    -0.248 NA
ATOM     41  C   UNL A   1      40.498  31.056  30.045  1.00  0.00     0.031 C 
ATOM     42  C   UNL A   1      39.604  26.538  28.012  1.00  0.00     0.029 A 
ATOM     43  N   UNL A   1      41.691  26.977  28.679  1.00  0.00    -0.354 N 
ATOM     44  C   UNL A   1      42.759  30.830  30.294  1.00  0.00     0.074 A 
ATOM     45  C   UNL A   1      41.607  31.702  30.369  1.00  0.00     0.031 C 
ATOM     46  C   UNL A   1      40.347  25.451  27.749  1.00  0.00     0.029 A 
ATOM     47  C   UNL A   1      41.726  25.708  28.152  1.00  0.00     0.049 A 
ATOM     48  H   UNL A   1      42.484  27.427  29.050  1.00  0.00     0.167 HD
ATOM     49  C   UNL A   1      44.006  31.180  30.690  1.00  0.00     0.037 A 
ATOM     50  C   UNL A   1      42.753  24.849  28.004  1.00  0.00     0.037 A 
ATOM     51  C   UNL A   1      45.145  30.302  30.652  1.00  0.00     0.049 A 
ATOM     52  C   UNL A   1      44.124  25.255  28.465  1.00  0.00     0.074 A 
ATOM     53  C   UNL A   1      46.435  30.541  31.094  1.00  0.00     0.029 A 
ATOM     54  N   UNL A   1      45.129  29.012  30.143  1.00  0.00    -0.354 N 
ATOM     55  N   UNL A   1      44.513  26.383  29.008  1.00  0.00    -0.248 NA
ATOM     56  C   UNL A   1      45.200  24.268  28.295  1.00  0.00     0.031 C 
ATOM     57  C   UNL A   1      47.207  29.408  30.822  1.00  0.00     0.029 A 
ATOM     58  C   UNL A   1      46.390  28.448  30.248  1.00  0.00     0.049 A 
ATOM     59  H   UNL A   1      44.339  28.563  29.764  1.00  0.00     0.167 HD
ATOM     60  C   UNL A   1      45.868  26.230  29.272  1.00  0.00     0.074 A 
ATOM     61  C   UNL A   1      46.232  24.897  28.838  1.00  0.00     0.031 C 
ATOM     62  C   UNL A   1      46.733  27.115  29.824  1.00  0.00     0.037 A 
BRANCH  49  63
ATOM     63  C   UNL A   1      44.197  32.575  31.211  1.00  0.00     0.057 A 
ATOM     64  C   UNL A   1      44.525  33.640  30.362  1.00  0.00     0.134 A 
ATOM     65  C   UNL A   1      44.031  32.861  32.572  1.00  0.00     0.134 A 
ATOM     66  F   UNL A   1      44.711  33.431  29.050  1.00  0.00    -0.206 F 
ATOM     67  C   UNL A   1      44.711  34.934  30.852  1.00  0.00     0.040 A 
ATOM     68  C   UNL A   1      44.187  34.156  33.070  1.00  0.00     0.040 A 
ATOM     69  F   UNL A   1      43.710  31.889  33.439  1.00  0.00    -0.206 F 
ATOM     70  C   UNL A   1      44.536  35.196  32.210  1.00  0.00     0.006 A 
ENDBRANCH  49  63
BRANCH  50  71
ATOM     71  C   UNL A   1      42.521  23.504  27.419  1.00  0.00     0.057 A 
ATOM     72  C   UNL A   1      42.591  23.301  26.035  1.00  0.00     0.134 A 
ATOM     73  C   UNL A   1      42.212  22.398  28.218  1.00  0.00     0.134 A 
ATOM     74  F   UNL A   1      42.863  24.329  25.217  1.00  0.00    -0.206 F 
ATOM     75  C   UNL A   1      42.343  22.052  25.465  1.00  0.00     0.040 A 
ATOM     76  C   UNL A   1      41.985  21.137  27.663  1.00  0.00     0.040 A 
ATOM     77  F   UNL A   1      42.137  22.524  29.551  1.00  0.00    -0.206 F 
ATOM     78  C   UNL A   1      42.043  20.964  26.281  1.00  0.00     0.006 A 
ENDBRANCH  50  71
BRANCH  62  79
ATOM     79  C   UNL A   1      48.148  26.659  30.026  1.00  0.00     0.057 A 
ATOM     80  C   UNL A   1      48.530  25.906  31.142  1.00  0.00     0.134 A 
ATOM     81  C   UNL A   1      49.130  26.945  29.070  1.00  0.00     0.134 A 
ATOM     82  F   UNL A   1      47.638  25.611  32.101  1.00  0.00    -0.206 F 
ATOM     83  C   UNL A   1      49.844  25.467  31.309  1.00  0.00     0.040 A 
ATOM     84  C   UNL A   1      50.441  26.491  29.213  1.00  0.00     0.040 A 
ATOM     85  F   UNL A   1      48.827  27.657  27.973  1.00  0.00    -0.206 F 
ATOM     86  C   UNL A   1      50.803  25.754  30.339  1.00  0.00     0.006 A 
ENDBRANCH  62  79
ENDBRANCH  36  37
ENDBRANCH  28  31
ENDBRANCH  26  27
ENDBRANCH  25  26
ENDBRANCH  24  25
ENDBRANCH   1  24
TORSDOF 15
ENDMDL
