MODEL 1
REMARK VINA RESULT:     -11.4      0.000      0.000
REMARK SMILES CCN1C(=O)N(CC)[C@H]2NC(=O)N(CCCC(=O)NCCCCNC(=O)c3ccc(-c4c5nc(c(-c6c(F)cccc6F)c6ccc([nH]6)c(-c6c(F)cccc6F)c6nc(c(-c7c(F)cccc7F)c7ccc4[nH]7)C=C6)C=C5)cc3)[C@@H]21
REMARK SMILES IDX 20 1 19 2 17 3 18 4 16 6 15 7 14 8 13 9 3 10 4 11 81 12 5 13
REMARK SMILES IDX 6 14 9 15 10 16 11 17 12 19 2 20 1 21 7 22 8 23 21 24 22 25
REMARK SMILES IDX 23 26 24 27 25 28 26 30 27 31 28 32 80 33 29 34 79 35 30 36
REMARK SMILES IDX 31 37 32 38 73 39 33 40 78 41 72 42 74 43 34 44 77 45 71 46
REMARK SMILES IDX 70 47 35 49 61 50 44 51 60 52 45 53 48 54 59 55 75 56 46 57
REMARK SMILES IDX 47 58 58 60 76 61 49 62 36 63 37 64 42 65 38 66 39 67 41 68
REMARK SMILES IDX 43 69 40 70 62 71 63 72 68 73 64 74 65 75 67 76 69 77 66 78
REMARK SMILES IDX 50 79 51 80 56 81 52 82 53 83 55 84 57 85 54 86
REMARK H PARENT 19 5 10 18 24 29 74 48 48 59
REMARK Flexibility Score: inf
ROOT
ATOM      1  C   UNL A   1      36.208  21.794  25.715  1.00  0.00     0.116 C 
ENDROOT
BRANCH   1   2
ATOM      2  N   UNL A   1      35.118  20.858  25.807  1.00  0.00    -0.356 N 
ATOM      3  C   UNL A   1      33.920  20.736  25.206  1.00  0.00     0.220 C 
ATOM      4  O   UNL A   1      33.300  19.707  25.517  1.00  0.00    -0.275 OA
ATOM      5  H   UNL A   1      35.288  20.141  26.461  1.00  0.00     0.163 HD
BRANCH   3   6
ATOM      6  C   UNL A   1      33.329  21.611  24.105  1.00  0.00     0.102 C 
BRANCH   6   7
ATOM      7  C   UNL A   1      33.987  22.585  23.119  1.00  0.00     0.031 C 
BRANCH   7   8
ATOM      8  C   UNL A   1      33.236  23.371  22.062  1.00  0.00     0.124 C 
BRANCH   8   9
ATOM      9  N   UNL A   1      32.725  24.730  22.281  1.00  0.00    -0.300 N 
ATOM     10  N   UNL A   1      31.853  25.485  24.747  1.00  0.00    -0.300 N 
ATOM     11  C   UNL A   1      31.333  26.807  25.031  1.00  0.00     0.323 C 
ATOM     12  C   UNL A   1      32.510  25.579  23.450  1.00  0.00     0.231 C 
ATOM     13  O   UNL A   1      31.028  27.238  26.134  1.00  0.00    -0.248 OA
ATOM     14  N   UNL A   1      31.311  27.525  23.829  1.00  0.00    -0.300 N 
ATOM     15  C   UNL A   1      31.535  26.583  22.807  1.00  0.00     0.228 C 
ATOM     16  N   UNL A   1      32.102  26.828  21.553  1.00  0.00    -0.314 N 
ATOM     17  C   UNL A   1      32.628  25.603  21.142  1.00  0.00     0.320 C 
ATOM     18  H   UNL A   1      32.123  27.683  21.064  1.00  0.00     0.167 HD
ATOM     19  O   UNL A   1      32.903  25.343  19.977  1.00  0.00    -0.249 OA
BRANCH  10  20
ATOM     20  C   UNL A   1      32.254  24.686  25.892  1.00  0.00     0.120 C 
ATOM     21  C   UNL A   1      33.743  24.669  26.124  1.00  0.00     0.027 C 
ENDBRANCH  10  20
BRANCH  14  22
ATOM     22  C   UNL A   1      31.130  28.950  23.646  1.00  0.00     0.120 C 
ATOM     23  C   UNL A   1      29.744  29.353  23.172  1.00  0.00     0.027 C 
ENDBRANCH  14  22
ENDBRANCH   8   9
ENDBRANCH   7   8
ENDBRANCH   6   7
ENDBRANCH   3   6
ENDBRANCH   1   2
BRANCH   1  24
ATOM     24  C   UNL A   1      37.231  21.386  24.652  1.00  0.00     0.023 C 
BRANCH  24  25
ATOM     25  C   UNL A   1      37.961  20.100  24.999  1.00  0.00     0.023 C 
BRANCH  25  26
ATOM     26  C   UNL A   1      39.218  20.347  25.823  1.00  0.00     0.116 C 
BRANCH  26  27
ATOM     27  N   UNL A   1      40.119  19.202  25.862  1.00  0.00    -0.352 N 
ATOM     28  C   UNL A   1      41.473  19.193  26.111  1.00  0.00     0.251 C 
ATOM     29  H   UNL A   1      39.707  18.325  25.687  1.00  0.00     0.163 HD
ATOM     30  O   UNL A   1      42.125  18.159  26.033  1.00  0.00    -0.269 OA
BRANCH  28  31
ATOM     31  C   UNL A   1      42.135  20.474  26.424  1.00  0.00     0.039 A 
ATOM     32  C   UNL A   1      42.488  21.327  25.377  1.00  0.00     0.014 A 
ATOM     33  C   UNL A   1      42.277  20.877  27.753  1.00  0.00     0.014 A 
ATOM     34  C   UNL A   1      42.898  22.629  25.667  1.00  0.00     0.010 A 
ATOM     35  C   UNL A   1      42.582  22.202  28.033  1.00  0.00     0.010 A 
ATOM     36  C   UNL A   1      42.898  23.092  26.993  1.00  0.00    -0.014 A 
BRANCH  36  37
ATOM     37  C   UNL A   1      43.230  24.502  27.325  1.00  0.00     0.031 A 
ATOM     38  C   UNL A   1      44.659  24.964  27.263  1.00  0.00     0.074 A 
ATOM     39  C   UNL A   1      42.268  25.342  27.755  1.00  0.00     0.049 A 
ATOM     40  N   UNL A   1      45.170  26.124  27.586  1.00  0.00    -0.248 NA
ATOM     41  C   UNL A   1      45.652  23.976  26.812  1.00  0.00     0.031 C 
ATOM     42  C   UNL A   1      40.851  25.005  27.909  1.00  0.00     0.029 A 
ATOM     43  N   UNL A   1      42.341  26.654  28.149  1.00  0.00    -0.354 N 
ATOM     44  C   UNL A   1      46.541  25.994  27.406  1.00  0.00     0.074 A 
ATOM     45  C   UNL A   1      46.787  24.625  27.007  1.00  0.00     0.031 C 
ATOM     46  C   UNL A   1      40.184  26.095  28.323  1.00  0.00     0.029 A 
ATOM     47  C   UNL A   1      41.127  27.193  28.505  1.00  0.00     0.049 A 
ATOM     48  H   UNL A   1      43.184  27.163  28.176  1.00  0.00     0.167 HD
ATOM     49  C   UNL A   1      47.507  26.934  27.534  1.00  0.00     0.037 A 
ATOM     50  C   UNL A   1      40.814  28.432  28.926  1.00  0.00     0.037 A 
ATOM     51  C   UNL A   1      47.254  28.304  27.894  1.00  0.00     0.049 A 
ATOM     52  C   UNL A   1      41.902  29.460  29.068  1.00  0.00     0.074 A 
ATOM     53  C   UNL A   1      48.151  29.353  27.971  1.00  0.00     0.029 A 
ATOM     54  N   UNL A   1      46.011  28.810  28.241  1.00  0.00    -0.354 N 
ATOM     55  N   UNL A   1      43.185  29.346  28.820  1.00  0.00    -0.248 NA
ATOM     56  C   UNL A   1      41.499  30.789  29.549  1.00  0.00     0.031 C 
ATOM     57  C   UNL A   1      47.459  30.486  28.415  1.00  0.00     0.029 A 
ATOM     58  C   UNL A   1      46.121  30.152  28.563  1.00  0.00     0.049 A 
ATOM     59  H   UNL A   1      45.174  28.292  28.258  1.00  0.00     0.167 HD
ATOM     60  C   UNL A   1      43.735  30.594  29.078  1.00  0.00     0.074 A 
ATOM     61  C   UNL A   1      42.646  31.452  29.500  1.00  0.00     0.031 C 
ATOM     62  C   UNL A   1      45.026  30.996  28.971  1.00  0.00     0.037 A 
BRANCH  49  63
ATOM     63  C   UNL A   1      48.922  26.499  27.284  1.00  0.00     0.057 A 
ATOM     64  C   UNL A   1      49.492  26.523  26.004  1.00  0.00     0.134 A 
ATOM     65  C   UNL A   1      49.722  26.038  28.337  1.00  0.00     0.134 A 
ATOM     66  F   UNL A   1      48.777  26.938  24.947  1.00  0.00    -0.206 F 
ATOM     67  C   UNL A   1      50.790  26.062  25.773  1.00  0.00     0.040 A 
ATOM     68  C   UNL A   1      51.033  25.607  28.124  1.00  0.00     0.040 A 
ATOM     69  F   UNL A   1      49.242  25.995  29.589  1.00  0.00    -0.206 F 
ATOM     70  C   UNL A   1      51.565  25.607  26.837  1.00  0.00     0.006 A 
ENDBRANCH  49  63
BRANCH  50  71
ATOM     71  C   UNL A   1      39.397  28.789  29.196  1.00  0.00     0.057 A 
ATOM     72  C   UNL A   1      38.859  28.646  30.480  1.00  0.00     0.134 A 
ATOM     73  C   UNL A   1      38.553  29.277  28.192  1.00  0.00     0.134 A 
ATOM     74  F   UNL A   1      39.613  28.165  31.478  1.00  0.00    -0.206 F 
ATOM     75  C   UNL A   1      37.528  28.966  30.756  1.00  0.00     0.040 A 
ATOM     76  C   UNL A   1      37.227  29.622  28.459  1.00  0.00     0.040 A 
ATOM     77  F   UNL A   1      39.010  29.441  26.943  1.00  0.00    -0.206 F 
ATOM     78  C   UNL A   1      36.709  29.462  29.743  1.00  0.00     0.006 A 
ENDBRANCH  50  71
BRANCH  62  79
ATOM     79  C   UNL A   1      45.328  32.434  29.271  1.00  0.00     0.057 A 
ATOM     80  C   UNL A   1      45.743  32.857  30.540  1.00  0.00     0.134 A 
ATOM     81  C   UNL A   1      45.248  33.402  28.262  1.00  0.00     0.134 A 
ATOM     82  F   UNL A   1      45.828  31.983  31.555  1.00  0.00    -0.206 F 
ATOM     83  C   UNL A   1      46.051  34.193  30.798  1.00  0.00     0.040 A 
ATOM     84  C   UNL A   1      45.579  34.736  28.500  1.00  0.00     0.040 A 
ATOM     85  F   UNL A   1      44.865  33.063  27.022  1.00  0.00    -0.206 F 
ATOM     86  C   UNL A   1      45.977  35.136  29.774  1.00  0.00     0.006 A 
ENDBRANCH  62  79
ENDBRANCH  36  37
ENDBRANCH  28  31
ENDBRANCH  26  27
ENDBRANCH  25  26
ENDBRANCH  24  25
ENDBRANCH   1  24
TORSDOF 16
ENDMDL
MODEL 2
REMARK VINA RESULT:     -11.3      4.772     10.127
REMARK SMILES CCN1C(=O)N(CC)[C@H]2NC(=O)N(CCCC(=O)NCCCCNC(=O)c3ccc(-c4c5nc(c(-c6c(F)cccc6F)c6ccc([nH]6)c(-c6c(F)cccc6F)c6nc(c(-c7c(F)cccc7F)c7ccc4[nH]7)C=C6)C=C5)cc3)[C@@H]21
REMARK SMILES IDX 20 1 19 2 17 3 18 4 16 6 15 7 14 8 13 9 3 10 4 11 81 12 5 13
REMARK SMILES IDX 6 14 9 15 10 16 11 17 12 19 2 20 1 21 7 22 8 23 21 24 22 25
REMARK SMILES IDX 23 26 24 27 25 28 26 30 27 31 28 32 80 33 29 34 79 35 30 36
REMARK SMILES IDX 31 37 32 38 73 39 33 40 78 41 72 42 74 43 34 44 77 45 71 46
REMARK SMILES IDX 70 47 35 49 61 50 44 51 60 52 45 53 48 54 59 55 75 56 46 57
REMARK SMILES IDX 47 58 58 60 76 61 49 62 36 63 37 64 42 65 38 66 39 67 41 68
REMARK SMILES IDX 43 69 40 70 62 71 63 72 68 73 64 74 65 75 67 76 69 77 66 78
REMARK SMILES IDX 50 79 51 80 56 81 52 82 53 83 55 84 57 85 54 86
REMARK H PARENT 19 5 10 18 24 29 74 48 48 59
REMARK Flexibility Score: inf
ROOT
ATOM      1  C   UNL A   1      32.673  29.724  25.479  1.00  0.00     0.116 C 
ENDROOT
BRANCH   1   2
ATOM      2  N   UNL A   1      31.654  29.803  24.464  1.00  0.00    -0.356 N 
ATOM      3  C   UNL A   1      30.770  28.936  23.940  1.00  0.00     0.220 C 
ATOM      4  O   UNL A   1      29.987  29.443  23.121  1.00  0.00    -0.275 OA
ATOM      5  H   UNL A   1      31.591  30.700  24.060  1.00  0.00     0.163 HD
BRANCH   3   6
ATOM      6  C   UNL A   1      30.525  27.485  24.344  1.00  0.00     0.102 C 
BRANCH   6   7
ATOM      7  C   UNL A   1      30.656  26.772  25.696  1.00  0.00     0.031 C 
BRANCH   7   8
ATOM      8  C   UNL A   1      30.209  25.346  25.958  1.00  0.00     0.124 C 
BRANCH   8   9
ATOM      9  N   UNL A   1      31.096  24.185  25.815  1.00  0.00    -0.300 N 
ATOM     10  N   UNL A   1      32.952  24.116  23.824  1.00  0.00    -0.300 N 
ATOM     11  C   UNL A   1      33.856  23.002  23.624  1.00  0.00     0.323 C 
ATOM     12  C   UNL A   1      32.371  23.933  25.148  1.00  0.00     0.231 C 
ATOM     13  O   UNL A   1      34.776  22.958  22.820  1.00  0.00    -0.248 OA
ATOM     14  N   UNL A   1      33.531  22.014  24.563  1.00  0.00    -0.300 N 
ATOM     15  C   UNL A   1      32.296  22.396  25.119  1.00  0.00     0.228 C 
ATOM     16  N   UNL A   1      31.815  22.070  26.390  1.00  0.00    -0.314 N 
ATOM     17  C   UNL A   1      30.894  23.071  26.702  1.00  0.00     0.320 C 
ATOM     18  H   UNL A   1      32.070  21.298  26.946  1.00  0.00     0.167 HD
ATOM     19  O   UNL A   1      30.037  22.955  27.569  1.00  0.00    -0.249 OA
BRANCH  10  20
ATOM     20  C   UNL A   1      33.308  25.365  23.174  1.00  0.00     0.120 C 
ATOM     21  C   UNL A   1      33.986  26.351  24.091  1.00  0.00     0.027 C 
ENDBRANCH  10  20
BRANCH  14  22
ATOM     22  C   UNL A   1      34.305  20.848  24.932  1.00  0.00     0.120 C 
ATOM     23  C   UNL A   1      33.630  19.522  24.628  1.00  0.00     0.027 C 
ENDBRANCH  14  22
ENDBRANCH   8   9
ENDBRANCH   7   8
ENDBRANCH   6   7
ENDBRANCH   3   6
ENDBRANCH   1   2
BRANCH   1  24
ATOM     24  C   UNL A   1      32.160  30.178  26.848  1.00  0.00     0.023 C 
BRANCH  24  25
ATOM     25  C   UNL A   1      31.769  31.645  26.874  1.00  0.00     0.023 C 
BRANCH  25  26
ATOM     26  C   UNL A   1      32.915  32.546  27.317  1.00  0.00     0.116 C 
BRANCH  26  27
ATOM     27  N   UNL A   1      32.495  33.908  27.623  1.00  0.00    -0.352 N 
ATOM     28  C   UNL A   1      33.036  34.780  28.541  1.00  0.00     0.251 C 
ATOM     29  H   UNL A   1      31.727  34.247  27.108  1.00  0.00     0.163 HD
ATOM     30  O   UNL A   1      32.529  35.875  28.751  1.00  0.00    -0.269 OA
BRANCH  28  31
ATOM     31  C   UNL A   1      34.217  34.341  29.309  1.00  0.00     0.039 A 
ATOM     32  C   UNL A   1      34.028  33.624  30.491  1.00  0.00     0.014 A 
ATOM     33  C   UNL A   1      35.497  34.527  28.783  1.00  0.00     0.014 A 
ATOM     34  C   UNL A   1      35.124  33.009  31.099  1.00  0.00     0.010 A 
ATOM     35  C   UNL A   1      36.564  33.828  29.329  1.00  0.00     0.010 A 
ATOM     36  C   UNL A   1      36.390  33.062  30.494  1.00  0.00    -0.014 A 
BRANCH  36  37
ATOM     37  C   UNL A   1      37.554  32.333  31.061  1.00  0.00     0.031 A 
ATOM     38  C   UNL A   1      38.173  32.805  32.347  1.00  0.00     0.074 A 
ATOM     39  C   UNL A   1      38.102  31.303  30.386  1.00  0.00     0.049 A 
ATOM     40  N   UNL A   1      39.236  32.360  32.966  1.00  0.00    -0.248 NA
ATOM     41  C   UNL A   1      37.533  33.955  33.003  1.00  0.00     0.031 C 
ATOM     42  C   UNL A   1      37.629  30.778  29.104  1.00  0.00     0.029 A 
ATOM     43  N   UNL A   1      39.184  30.515  30.687  1.00  0.00    -0.354 N 
ATOM     44  C   UNL A   1      39.406  33.193  34.065  1.00  0.00     0.074 A 
ATOM     45  C   UNL A   1      38.376  34.206  33.991  1.00  0.00     0.031 C 
ATOM     46  C   UNL A   1      38.390  29.729  28.751  1.00  0.00     0.029 A 
ATOM     47  C   UNL A   1      39.430  29.534  29.756  1.00  0.00     0.049 A 
ATOM     48  H   UNL A   1      39.735  30.641  31.494  1.00  0.00     0.167 HD
ATOM     49  C   UNL A   1      40.318  33.108  35.061  1.00  0.00     0.037 A 
ATOM     50  C   UNL A   1      40.383  28.584  29.722  1.00  0.00     0.037 A 
ATOM     51  C   UNL A   1      41.317  32.077  35.152  1.00  0.00     0.049 A 
ATOM     52  C   UNL A   1      41.392  28.512  30.835  1.00  0.00     0.074 A 
ATOM     53  C   UNL A   1      42.235  31.855  36.162  1.00  0.00     0.029 A 
ATOM     54  N   UNL A   1      41.530  31.100  34.192  1.00  0.00    -0.354 N 
ATOM     55  N   UNL A   1      41.494  29.258  31.909  1.00  0.00    -0.248 NA
ATOM     56  C   UNL A   1      42.417  27.464  30.731  1.00  0.00     0.031 C 
ATOM     57  C   UNL A   1      43.038  30.770  35.789  1.00  0.00     0.029 A 
ATOM     58  C   UNL A   1      42.585  30.287  34.571  1.00  0.00     0.049 A 
ATOM     59  H   UNL A   1      41.008  30.998  33.363  1.00  0.00     0.167 HD
ATOM     60  C   UNL A   1      42.569  28.749  32.625  1.00  0.00     0.074 A 
ATOM     61  C   UNL A   1      43.085  27.628  31.865  1.00  0.00     0.031 C 
ATOM     62  C   UNL A   1      43.081  29.168  33.809  1.00  0.00     0.037 A 
BRANCH  49  63
ATOM     63  C   UNL A   1      40.270  34.167  36.125  1.00  0.00     0.057 A 
ATOM     64  C   UNL A   1      39.473  34.035  37.270  1.00  0.00     0.134 A 
ATOM     65  C   UNL A   1      41.023  35.342  35.996  1.00  0.00     0.134 A 
ATOM     66  F   UNL A   1      38.715  32.943  37.450  1.00  0.00    -0.206 F 
ATOM     67  C   UNL A   1      39.391  35.051  38.225  1.00  0.00     0.040 A 
ATOM     68  C   UNL A   1      40.975  36.349  36.960  1.00  0.00     0.040 A 
ATOM     69  F   UNL A   1      41.812  35.530  34.928  1.00  0.00    -0.206 F 
ATOM     70  C   UNL A   1      40.148  36.210  38.072  1.00  0.00     0.006 A 
ENDBRANCH  49  63
BRANCH  50  71
ATOM     71  C   UNL A   1      40.400  27.589  28.619  1.00  0.00     0.057 A 
ATOM     72  C   UNL A   1      39.648  26.412  28.709  1.00  0.00     0.134 A 
ATOM     73  C   UNL A   1      41.157  27.785  27.458  1.00  0.00     0.134 A 
ATOM     74  F   UNL A   1      38.918  26.161  29.805  1.00  0.00    -0.206 F 
ATOM     75  C   UNL A   1      39.655  25.459  27.690  1.00  0.00     0.040 A 
ATOM     76  C   UNL A   1      41.156  26.849  26.421  1.00  0.00     0.040 A 
ATOM     77  F   UNL A   1      41.895  28.894  27.309  1.00  0.00    -0.206 F 
ATOM     78  C   UNL A   1      40.407  25.680  26.538  1.00  0.00     0.006 A 
ENDBRANCH  50  71
BRANCH  62  79
ATOM     79  C   UNL A   1      44.228  28.390  34.379  1.00  0.00     0.057 A 
ATOM     80  C   UNL A   1      44.033  27.262  35.185  1.00  0.00     0.134 A 
ATOM     81  C   UNL A   1      45.549  28.747  34.076  1.00  0.00     0.134 A 
ATOM     82  F   UNL A   1      42.794  26.874  35.524  1.00  0.00    -0.206 F 
ATOM     83  C   UNL A   1      45.110  26.528  35.684  1.00  0.00     0.040 A 
ATOM     84  C   UNL A   1      46.633  28.006  34.547  1.00  0.00     0.040 A 
ATOM     85  F   UNL A   1      45.806  29.813  33.303  1.00  0.00    -0.206 F 
ATOM     86  C   UNL A   1      46.414  26.895  35.358  1.00  0.00     0.006 A 
ENDBRANCH  62  79
ENDBRANCH  36  37
ENDBRANCH  28  31
ENDBRANCH  26  27
ENDBRANCH  25  26
ENDBRANCH  24  25
ENDBRANCH   1  24
TORSDOF 16
ENDMDL
MODEL 3
REMARK VINA RESULT:     -11.3      5.048      9.745
REMARK SMILES CCN1C(=O)N(CC)[C@H]2NC(=O)N(CCCC(=O)NCCCCNC(=O)c3ccc(-c4c5nc(c(-c6c(F)cccc6F)c6ccc([nH]6)c(-c6c(F)cccc6F)c6nc(c(-c7c(F)cccc7F)c7ccc4[nH]7)C=C6)C=C5)cc3)[C@@H]21
REMARK SMILES IDX 20 1 19 2 17 3 18 4 16 6 15 7 14 8 13 9 3 10 4 11 81 12 5 13
REMARK SMILES IDX 6 14 9 15 10 16 11 17 12 19 2 20 1 21 7 22 8 23 21 24 22 25
REMARK SMILES IDX 23 26 24 27 25 28 26 30 27 31 28 32 80 33 29 34 79 35 30 36
REMARK SMILES IDX 31 37 32 38 73 39 33 40 78 41 72 42 74 43 34 44 77 45 71 46
REMARK SMILES IDX 70 47 35 49 61 50 44 51 60 52 45 53 48 54 59 55 75 56 46 57
REMARK SMILES IDX 47 58 58 60 76 61 49 62 36 63 37 64 42 65 38 66 39 67 41 68
REMARK SMILES IDX 43 69 40 70 62 71 63 72 68 73 64 74 65 75 67 76 69 77 66 78
REMARK SMILES IDX 50 79 51 80 56 81 52 82 53 83 55 84 57 85 54 86
REMARK H PARENT 19 5 10 18 24 29 74 48 48 59
REMARK Flexibility Score: inf
ROOT
ATOM      1  C   UNL A   1      32.257  30.180  25.754  1.00  0.00     0.116 C 
ENDROOT
BRANCH   1   2
ATOM      2  N   UNL A   1      33.501  29.800  26.372  1.00  0.00    -0.356 N 
ATOM      3  C   UNL A   1      34.116  28.630  26.622  1.00  0.00     0.220 C 
ATOM      4  O   UNL A   1      35.251  28.749  27.110  1.00  0.00    -0.275 OA
ATOM      5  H   UNL A   1      34.021  30.576  26.685  1.00  0.00     0.163 HD
BRANCH   3   6
ATOM      6  C   UNL A   1      33.656  27.227  26.238  1.00  0.00     0.102 C 
BRANCH   6   7
ATOM      7  C   UNL A   1      34.039  26.320  25.062  1.00  0.00     0.031 C 
BRANCH   7   8
ATOM      8  C   UNL A   1      33.314  26.293  23.730  1.00  0.00     0.124 C 
BRANCH   8   9
ATOM      9  N   UNL A   1      32.427  27.370  23.274  1.00  0.00    -0.300 N 
ATOM     10  N   UNL A   1      29.728  27.126  23.538  1.00  0.00    -0.300 N 
ATOM     11  C   UNL A   1      28.796  28.148  23.107  1.00  0.00     0.323 C 
ATOM     12  C   UNL A   1      31.043  27.754  23.541  1.00  0.00     0.231 C 
ATOM     13  O   UNL A   1      27.588  28.144  23.294  1.00  0.00    -0.248 OA
ATOM     14  N   UNL A   1      29.535  29.172  22.501  1.00  0.00    -0.300 N 
ATOM     15  C   UNL A   1      30.832  28.660  22.315  1.00  0.00     0.228 C 
ATOM     16  N   UNL A   1      32.019  29.394  22.245  1.00  0.00    -0.314 N 
ATOM     17  C   UNL A   1      33.026  28.502  22.620  1.00  0.00     0.320 C 
ATOM     18  H   UNL A   1      32.124  30.339  21.987  1.00  0.00     0.167 HD
ATOM     19  O   UNL A   1      34.211  28.676  22.366  1.00  0.00    -0.249 OA
BRANCH  10  20
ATOM     20  C   UNL A   1      29.216  26.128  24.461  1.00  0.00     0.120 C 
ATOM     21  C   UNL A   1      30.107  25.898  25.656  1.00  0.00     0.027 C 
ENDBRANCH  10  20
BRANCH  14  22
ATOM     22  C   UNL A   1      29.091  30.506  22.157  1.00  0.00     0.120 C 
ATOM     23  C   UNL A   1      28.991  31.461  23.335  1.00  0.00     0.027 C 
ENDBRANCH  14  22
ENDBRANCH   8   9
ENDBRANCH   7   8
ENDBRANCH   6   7
ENDBRANCH   3   6
ENDBRANCH   1   2
BRANCH   1  24
ATOM     24  C   UNL A   1      31.304  30.857  26.742  1.00  0.00     0.023 C 
BRANCH  24  25
ATOM     25  C   UNL A   1      31.196  32.355  26.526  1.00  0.00     0.023 C 
BRANCH  25  26
ATOM     26  C   UNL A   1      32.523  33.073  26.739  1.00  0.00     0.116 C 
BRANCH  26  27
ATOM     27  N   UNL A   1      32.424  34.221  27.632  1.00  0.00    -0.352 N 
ATOM     28  C   UNL A   1      33.253  34.559  28.678  1.00  0.00     0.251 C 
ATOM     29  H   UNL A   1      31.669  34.831  27.466  1.00  0.00     0.163 HD
ATOM     30  O   UNL A   1      33.003  35.516  29.401  1.00  0.00    -0.269 OA
BRANCH  28  31
ATOM     31  C   UNL A   1      34.426  33.705  28.945  1.00  0.00     0.039 A 
ATOM     32  C   UNL A   1      35.702  34.263  28.862  1.00  0.00     0.014 A 
ATOM     33  C   UNL A   1      34.245  32.399  29.405  1.00  0.00     0.014 A 
ATOM     34  C   UNL A   1      36.797  33.536  29.334  1.00  0.00     0.010 A 
ATOM     35  C   UNL A   1      35.318  31.723  29.970  1.00  0.00     0.010 A 
ATOM     36  C   UNL A   1      36.606  32.283  29.939  1.00  0.00    -0.014 A 
BRANCH  36  37
ATOM     37  C   UNL A   1      37.737  31.530  30.542  1.00  0.00     0.031 A 
ATOM     38  C   UNL A   1      38.134  31.800  31.966  1.00  0.00     0.074 A 
ATOM     39  C   UNL A   1      38.452  30.669  29.793  1.00  0.00     0.049 A 
ATOM     40  N   UNL A   1      39.134  31.311  32.653  1.00  0.00    -0.248 NA
ATOM     41  C   UNL A   1      37.320  32.777  32.704  1.00  0.00     0.031 C 
ATOM     42  C   UNL A   1      38.203  30.354  28.384  1.00  0.00     0.029 A 
ATOM     43  N   UNL A   1      39.544  29.901  30.114  1.00  0.00    -0.354 N 
ATOM     44  C   UNL A   1      39.085  31.944  33.889  1.00  0.00     0.074 A 
ATOM     45  C   UNL A   1      37.997  32.896  33.834  1.00  0.00     0.031 C 
ATOM     46  C   UNL A   1      39.088  29.429  27.978  1.00  0.00     0.029 A 
ATOM     47  C   UNL A   1      39.992  29.116  29.079  1.00  0.00     0.049 A 
ATOM     48  H   UNL A   1      39.967  29.912  31.004  1.00  0.00     0.167 HD
ATOM     49  C   UNL A   1      39.856  31.734  34.981  1.00  0.00     0.037 A 
ATOM     50  C   UNL A   1      41.015  28.242  29.028  1.00  0.00     0.037 A 
ATOM     51  C   UNL A   1      40.913  30.760  35.045  1.00  0.00     0.049 A 
ATOM     52  C   UNL A   1      41.864  28.029  30.250  1.00  0.00     0.074 A 
ATOM     53  C   UNL A   1      41.700  30.413  36.128  1.00  0.00     0.029 A 
ATOM     54  N   UNL A   1      41.333  29.983  33.977  1.00  0.00    -0.354 N 
ATOM     55  N   UNL A   1      41.758  28.576  31.437  1.00  0.00    -0.248 NA
ATOM     56  C   UNL A   1      42.975  27.075  30.125  1.00  0.00     0.031 C 
ATOM     57  C   UNL A   1      42.631  29.458  35.702  1.00  0.00     0.029 A 
ATOM     58  C   UNL A   1      42.388  29.175  34.366  1.00  0.00     0.049 A 
ATOM     59  H   UNL A   1      40.939  30.001  33.075  1.00  0.00     0.167 HD
ATOM     60  C   UNL A   1      42.763  28.009  32.209  1.00  0.00     0.074 A 
ATOM     61  C   UNL A   1      43.466  27.071  31.357  1.00  0.00     0.031 C 
ATOM     62  C   UNL A   1      43.072  28.239  33.510  1.00  0.00     0.037 A 
BRANCH  49  63
ATOM     63  C   UNL A   1      39.578  32.582  36.189  1.00  0.00     0.057 A 
ATOM     64  C   UNL A   1      38.618  32.224  37.145  1.00  0.00     0.134 A 
ATOM     65  C   UNL A   1      40.272  33.782  36.391  1.00  0.00     0.134 A 
ATOM     66  F   UNL A   1      37.906  31.095  37.004  1.00  0.00    -0.206 F 
ATOM     67  C   UNL A   1      38.327  33.049  38.233  1.00  0.00     0.040 A 
ATOM     68  C   UNL A   1      40.014  34.598  37.494  1.00  0.00     0.040 A 
ATOM     69  F   UNL A   1      41.209  34.183  35.519  1.00  0.00    -0.206 F 
ATOM     70  C   UNL A   1      39.030  34.238  38.411  1.00  0.00     0.006 A 
ENDBRANCH  49  63
BRANCH  50  71
ATOM     71  C   UNL A   1      41.263  27.462  27.788  1.00  0.00     0.057 A 
ATOM     72  C   UNL A   1      40.697  26.192  27.621  1.00  0.00     0.134 A 
ATOM     73  C   UNL A   1      42.058  27.957  26.749  1.00  0.00     0.134 A 
ATOM     74  F   UNL A   1      39.942  25.657  28.590  1.00  0.00    -0.206 F 
ATOM     75  C   UNL A   1      40.923  25.436  26.469  1.00  0.00     0.040 A 
ATOM     76  C   UNL A   1      42.274  27.221  25.582  1.00  0.00     0.040 A 
ATOM     77  F   UNL A   1      42.623  29.168  26.846  1.00  0.00    -0.206 F 
ATOM     78  C   UNL A   1      41.709  25.954  25.442  1.00  0.00     0.006 A 
ENDBRANCH  50  71
BRANCH  62  79
ATOM     79  C   UNL A   1      44.190  27.436  34.105  1.00  0.00     0.057 A 
ATOM     80  C   UNL A   1      43.973  26.185  34.695  1.00  0.00     0.134 A 
ATOM     81  C   UNL A   1      45.510  27.902  34.043  1.00  0.00     0.134 A 
ATOM     82  F   UNL A   1      42.731  25.687  34.799  1.00  0.00    -0.206 F 
ATOM     83  C   UNL A   1      45.027  25.434  35.219  1.00  0.00     0.040 A 
ATOM     84  C   UNL A   1      46.575  27.148  34.538  1.00  0.00     0.040 A 
ATOM     85  F   UNL A   1      45.788  29.089  33.483  1.00  0.00    -0.206 F 
ATOM     86  C   UNL A   1      46.333  25.912  35.133  1.00  0.00     0.006 A 
ENDBRANCH  62  79
ENDBRANCH  36  37
ENDBRANCH  28  31
ENDBRANCH  26  27
ENDBRANCH  25  26
ENDBRANCH  24  25
ENDBRANCH   1  24
TORSDOF 16
ENDMDL
