MODEL 1
REMARK VINA RESULT:     -12.7      0.000      0.000
REMARK SMILES Cc1occc1C(=O)NN1C(=O)/C(=C\c2ccc(O[C@H](C)C(=O)NCCCCNC(=O)c3ccc(-c4c5nc(c(-c6c(F)cccc6F)c6ccc([nH]6)c(-c6c(F)cccc6F)c6nc(c(-c7c(F)cccc7F)c7ccc4[nH]7)C=C6)C=C5)cc3)cc2)SC1=S
REMARK SMILES IDX 25 1 24 2 22 3 23 4 20 6 21 7 19 8 18 9 15 10 16 11 87 12
REMARK SMILES IDX 17 13 86 14 14 15 10 16 11 17 89 18 12 19 13 20 88 21 90 22
REMARK SMILES IDX 9 23 7 24 8 25 6 27 1 28 2 29 3 30 4 31 5 32 26 33 27 34
REMARK SMILES IDX 28 35 29 36 30 37 31 39 32 40 33 41 85 42 34 43 84 44 35 45
REMARK SMILES IDX 36 46 37 47 78 48 38 49 83 50 77 51 79 52 39 53 82 54 76 55
REMARK SMILES IDX 75 56 40 58 66 59 49 60 65 61 50 62 53 63 64 64 80 65 51 66
REMARK SMILES IDX 52 67 63 69 81 70 54 71 41 72 42 73 47 74 43 75 44 76 46 77
REMARK SMILES IDX 48 78 45 79 67 80 68 81 73 82 69 83 70 84 72 85 74 86 71 87
REMARK SMILES IDX 55 88 56 89 61 90 57 91 58 92 60 93 62 94 59 95
REMARK H PARENT 24 5 9 26 29 38 79 57 53 68
REMARK Flexibility Score: inf
ROOT
ATOM      1  C   UNL A   1      31.411  29.653  24.925  1.00  0.00     0.116 C 
ENDROOT
BRANCH   1   2
ATOM      2  N   UNL A   1      31.111  29.579  23.516  1.00  0.00    -0.353 N 
ATOM      3  C   UNL A   1      30.054  29.035  22.855  1.00  0.00     0.260 C 
ATOM      4  O   UNL A   1      30.006  29.266  21.639  1.00  0.00    -0.271 OA
ATOM      5  H   UNL A   1      31.786  29.994  22.933  1.00  0.00     0.163 HD
BRANCH   3   6
ATOM      6  C   UNL A   1      29.013  28.075  23.499  1.00  0.00     0.258 C 
ATOM      7  C   UNL A   1      27.604  28.527  23.120  1.00  0.00     0.064 C 
BRANCH   6   8
ATOM      8  O   UNL A   1      29.268  26.683  23.631  1.00  0.00    -0.481 OA
BRANCH   8   9
ATOM      9  C   UNL A   1      30.488  26.089  23.634  1.00  0.00     0.120 A 
ATOM     10  C   UNL A   1      33.092  25.050  23.913  1.00  0.00    -0.024 A 
ATOM     11  C   UNL A   1      32.412  24.966  22.696  1.00  0.00     0.012 A 
ATOM     12  C   UNL A   1      32.460  25.643  25.005  1.00  0.00     0.012 A 
ATOM     13  C   UNL A   1      31.116  25.468  22.563  1.00  0.00     0.047 A 
ATOM     14  C   UNL A   1      31.158  26.141  24.865  1.00  0.00     0.047 A 
BRANCH  10  15
ATOM     15  C   UNL A   1      34.407  24.411  23.979  1.00  0.00     0.029 C 
ATOM     16  N   UNL A   1      34.209  21.066  25.388  1.00  0.00    -0.198 N 
ATOM     17  C   UNL A   1      33.593  22.255  25.027  1.00  0.00     0.285 C 
ATOM     18  C   UNL A   1      35.475  20.814  24.906  1.00  0.00     0.168 C 
ATOM     19  O   UNL A   1      32.413  22.505  25.199  1.00  0.00    -0.266 OA
ATOM     20  C   UNL A   1      34.599  23.149  24.386  1.00  0.00     0.082 C 
ATOM     21  S   UNL A   1      36.095  22.299  24.175  1.00  0.00    -0.052 SA
ATOM     22  S   UNL A   1      36.329  19.385  24.949  1.00  0.00    -0.050 S 
BRANCH  16  23
ATOM     23  N   UNL A   1      33.409  20.122  26.017  1.00  0.00    -0.254 N 
ATOM     24  C   UNL A   1      32.935  18.948  25.479  1.00  0.00     0.273 C 
ATOM     25  O   UNL A   1      32.467  18.127  26.270  1.00  0.00    -0.267 OA
ATOM     26  H   UNL A   1      33.154  20.312  26.948  1.00  0.00     0.192 HD
BRANCH  24  27
ATOM     27  C   UNL A   1      32.842  18.708  24.042  1.00  0.00     0.082 A 
ATOM     28  C   UNL A   1      34.028  16.421  23.345  1.00  0.00     0.088 C 
ATOM     29  C   UNL A   1      33.304  17.699  23.207  1.00  0.00     0.113 A 
ATOM     30  O   UNL A   1      32.934  17.950  21.915  1.00  0.00    -0.469 OA
ATOM     31  C   UNL A   1      32.180  19.069  21.908  1.00  0.00     0.196 A 
ATOM     32  C   UNL A   1      32.070  19.561  23.180  1.00  0.00     0.056 A 
ENDBRANCH  24  27
ENDBRANCH  16  23
ENDBRANCH  10  15
ENDBRANCH   8   9
ENDBRANCH   6   8
ENDBRANCH   3   6
ENDBRANCH   1   2
BRANCH   1  33
ATOM     33  C   UNL A   1      31.185  31.042  25.512  1.00  0.00     0.023 C 
BRANCH  33  34
ATOM     34  C   UNL A   1      31.756  31.229  26.921  1.00  0.00     0.023 C 
BRANCH  34  35
ATOM     35  C   UNL A   1      32.920  32.214  27.030  1.00  0.00     0.116 C 
BRANCH  35  36
ATOM     36  N   UNL A   1      32.525  33.562  27.412  1.00  0.00    -0.352 N 
ATOM     37  C   UNL A   1      33.086  34.369  28.374  1.00  0.00     0.251 C 
ATOM     38  H   UNL A   1      31.762  33.942  26.920  1.00  0.00     0.163 HD
ATOM     39  O   UNL A   1      32.588  35.458  28.642  1.00  0.00    -0.269 OA
BRANCH  37  40
ATOM     40  C   UNL A   1      34.269  33.885  29.117  1.00  0.00     0.039 A 
ATOM     41  C   UNL A   1      34.078  33.033  30.207  1.00  0.00     0.014 A 
ATOM     42  C   UNL A   1      35.559  34.220  28.699  1.00  0.00     0.014 A 
ATOM     43  C   UNL A   1      35.185  32.446  30.824  1.00  0.00     0.010 A 
ATOM     44  C   UNL A   1      36.657  33.581  29.270  1.00  0.00     0.010 A 
ATOM     45  C   UNL A   1      36.479  32.679  30.329  1.00  0.00    -0.014 A 
BRANCH  45  46
ATOM     46  C   UNL A   1      37.651  31.955  30.885  1.00  0.00     0.031 A 
ATOM     47  C   UNL A   1      38.172  32.282  32.255  1.00  0.00     0.074 A 
ATOM     48  C   UNL A   1      38.288  31.045  30.122  1.00  0.00     0.049 A 
ATOM     49  N   UNL A   1      39.198  31.772  32.892  1.00  0.00    -0.248 NA
ATOM     50  C   UNL A   1      37.469  33.338  32.999  1.00  0.00     0.031 C 
ATOM     51  C   UNL A   1      37.925  30.688  28.748  1.00  0.00     0.029 A 
ATOM     52  N   UNL A   1      39.380  30.258  30.390  1.00  0.00    -0.354 N 
ATOM     53  C   UNL A   1      39.266  32.450  34.102  1.00  0.00     0.074 A 
ATOM     54  C   UNL A   1      38.216  33.445  34.088  1.00  0.00     0.031 C 
ATOM     55  C   UNL A   1      38.758  29.734  28.306  1.00  0.00     0.029 A 
ATOM     56  C   UNL A   1      39.731  29.430  29.352  1.00  0.00     0.049 A 
ATOM     57  H   UNL A   1      39.865  30.284  31.246  1.00  0.00     0.167 HD
ATOM     58  C   UNL A   1      40.112  32.246  35.139  1.00  0.00     0.037 A 
ATOM     59  C   UNL A   1      40.723  28.526  29.253  1.00  0.00     0.037 A 
ATOM     60  C   UNL A   1      41.142  31.240  35.161  1.00  0.00     0.049 A 
ATOM     61  C   UNL A   1      41.638  28.307  30.425  1.00  0.00     0.074 A 
ATOM     62  C   UNL A   1      42.002  30.909  36.194  1.00  0.00     0.029 A 
ATOM     63  N   UNL A   1      41.453  30.406  34.098  1.00  0.00    -0.354 N 
ATOM     64  N   UNL A   1      41.637  28.896  31.595  1.00  0.00    -0.248 NA
ATOM     65  C   UNL A   1      42.686  27.289  30.264  1.00  0.00     0.031 C 
ATOM     66  C   UNL A   1      42.859  29.899  35.743  1.00  0.00     0.029 A 
ATOM     67  C   UNL A   1      42.506  29.574  34.443  1.00  0.00     0.049 A 
ATOM     68  H   UNL A   1      40.994  30.405  33.227  1.00  0.00     0.167 HD
ATOM     69  C   UNL A   1      42.666  28.309  32.317  1.00  0.00     0.074 A 
ATOM     70  C   UNL A   1      43.258  27.303  31.460  1.00  0.00     0.031 C 
ATOM     71  C   UNL A   1      43.085  28.579  33.578  1.00  0.00     0.037 A 
BRANCH  58  72
ATOM     72  C   UNL A   1      39.949  33.125  36.344  1.00  0.00     0.057 A 
ATOM     73  C   UNL A   1      40.680  34.312  36.493  1.00  0.00     0.134 A 
ATOM     74  C   UNL A   1      39.032  32.800  37.351  1.00  0.00     0.134 A 
ATOM     75  F   UNL A   1      41.583  34.674  35.570  1.00  0.00    -0.206 F 
ATOM     76  C   UNL A   1      40.522  35.131  37.613  1.00  0.00     0.040 A 
ATOM     77  C   UNL A   1      38.848  33.624  38.463  1.00  0.00     0.040 A 
ATOM     78  F   UNL A   1      38.297  31.681  37.269  1.00  0.00    -0.206 F 
ATOM     79  C   UNL A   1      39.599  34.790  38.599  1.00  0.00     0.006 A 
ENDBRANCH  58  72
BRANCH  59  80
ATOM     80  C   UNL A   1      40.882  27.731  28.009  1.00  0.00     0.057 A 
ATOM     81  C   UNL A   1      40.267  26.481  27.872  1.00  0.00     0.134 A 
ATOM     82  C   UNL A   1      41.651  28.195  26.937  1.00  0.00     0.134 A 
ATOM     83  F   UNL A   1      39.532  25.977  28.874  1.00  0.00    -0.206 F 
ATOM     84  C   UNL A   1      40.425  25.712  26.719  1.00  0.00     0.040 A 
ATOM     85  C   UNL A   1      41.800  27.447  25.768  1.00  0.00     0.040 A 
ATOM     86  F   UNL A   1      42.259  29.388  27.004  1.00  0.00    -0.206 F 
ATOM     87  C   UNL A   1      41.191  26.197  25.660  1.00  0.00     0.006 A 
ENDBRANCH  59  80
BRANCH  71  88
ATOM     88  C   UNL A   1      44.224  27.759  34.108  1.00  0.00     0.057 A 
ATOM     89  C   UNL A   1      45.551  28.195  34.015  1.00  0.00     0.134 A 
ATOM     90  C   UNL A   1      43.986  26.535  34.745  1.00  0.00     0.134 A 
ATOM     91  F   UNL A   1      45.845  29.353  33.404  1.00  0.00    -0.206 F 
ATOM     92  C   UNL A   1      46.607  27.429  34.514  1.00  0.00     0.040 A 
ATOM     93  C   UNL A   1      45.031  25.772  35.270  1.00  0.00     0.040 A 
ATOM     94  F   UNL A   1      42.737  26.064  34.874  1.00  0.00    -0.206 F 
ATOM     95  C   UNL A   1      46.346  26.216  35.148  1.00  0.00     0.006 A 
ENDBRANCH  71  88
ENDBRANCH  45  46
ENDBRANCH  37  40
ENDBRANCH  35  36
ENDBRANCH  34  35
ENDBRANCH  33  34
ENDBRANCH   1  33
TORSDOF 16
ENDMDL
MODEL 2
REMARK VINA RESULT:     -12.6      3.326      4.663
REMARK SMILES Cc1occc1C(=O)NN1C(=O)/C(=C\c2ccc(O[C@H](C)C(=O)NCCCCNC(=O)c3ccc(-c4c5nc(c(-c6c(F)cccc6F)c6ccc([nH]6)c(-c6c(F)cccc6F)c6nc(c(-c7c(F)cccc7F)c7ccc4[nH]7)C=C6)C=C5)cc3)cc2)SC1=S
REMARK SMILES IDX 25 1 24 2 22 3 23 4 20 6 21 7 19 8 18 9 15 10 16 11 87 12
REMARK SMILES IDX 17 13 86 14 14 15 10 16 11 17 89 18 12 19 13 20 88 21 90 22
REMARK SMILES IDX 9 23 7 24 8 25 6 27 1 28 2 29 3 30 4 31 5 32 26 33 27 34
REMARK SMILES IDX 28 35 29 36 30 37 31 39 32 40 33 41 85 42 34 43 84 44 35 45
REMARK SMILES IDX 36 46 37 47 78 48 38 49 83 50 77 51 79 52 39 53 82 54 76 55
REMARK SMILES IDX 75 56 40 58 66 59 49 60 65 61 50 62 53 63 64 64 80 65 51 66
REMARK SMILES IDX 52 67 63 69 81 70 54 71 41 72 42 73 47 74 43 75 44 76 46 77
REMARK SMILES IDX 48 78 45 79 67 80 68 81 73 82 69 83 70 84 72 85 74 86 71 87
REMARK SMILES IDX 55 88 56 89 61 90 57 91 58 92 60 93 62 94 59 95
REMARK H PARENT 24 5 9 26 29 38 79 57 53 68
REMARK Flexibility Score: inf
ROOT
ATOM      1  C   UNL A   1      31.030  29.915  24.905  1.00  0.00     0.116 C 
ENDROOT
BRANCH   1   2
ATOM      2  N   UNL A   1      30.848  29.620  23.505  1.00  0.00    -0.353 N 
ATOM      3  C   UNL A   1      29.887  28.907  22.860  1.00  0.00     0.260 C 
ATOM      4  O   UNL A   1      29.919  28.959  21.622  1.00  0.00    -0.271 OA
ATOM      5  H   UNL A   1      31.538  30.000  22.915  1.00  0.00     0.163 HD
BRANCH   3   6
ATOM      6  C   UNL A   1      28.865  27.968  23.564  1.00  0.00     0.258 C 
ATOM      7  C   UNL A   1      27.447  28.371  23.165  1.00  0.00     0.064 C 
BRANCH   6   8
ATOM      8  O   UNL A   1      29.146  26.591  23.779  1.00  0.00    -0.481 OA
BRANCH   8   9
ATOM      9  C   UNL A   1      30.373  26.011  23.759  1.00  0.00     0.120 A 
ATOM     10  C   UNL A   1      32.991  24.999  23.993  1.00  0.00    -0.024 A 
ATOM     11  C   UNL A   1      32.298  24.923  22.783  1.00  0.00     0.012 A 
ATOM     12  C   UNL A   1      32.366  25.571  25.100  1.00  0.00     0.012 A 
ATOM     13  C   UNL A   1      30.994  25.411  22.673  1.00  0.00     0.047 A 
ATOM     14  C   UNL A   1      31.057  26.056  24.982  1.00  0.00     0.047 A 
BRANCH  10  15
ATOM     15  C   UNL A   1      34.315  24.375  24.034  1.00  0.00     0.029 C 
ATOM     16  N   UNL A   1      34.174  21.015  25.413  1.00  0.00    -0.198 N 
ATOM     17  C   UNL A   1      33.539  22.200  25.072  1.00  0.00     0.285 C 
ATOM     18  C   UNL A   1      35.436  20.782  24.911  1.00  0.00     0.168 C 
ATOM     19  O   UNL A   1      32.359  22.435  25.262  1.00  0.00    -0.266 OA
ATOM     20  C   UNL A   1      34.526  23.111  24.426  1.00  0.00     0.082 C 
ATOM     21  S   UNL A   1      36.028  22.281  24.186  1.00  0.00    -0.052 SA
ATOM     22  S   UNL A   1      36.307  19.362  24.928  1.00  0.00    -0.050 S 
BRANCH  16  23
ATOM     23  N   UNL A   1      33.394  20.055  26.043  1.00  0.00    -0.254 N 
ATOM     24  C   UNL A   1      32.937  18.874  25.504  1.00  0.00     0.273 C 
ATOM     25  O   UNL A   1      32.488  18.043  26.296  1.00  0.00    -0.267 OA
ATOM     26  H   UNL A   1      33.140  20.239  26.975  1.00  0.00     0.192 HD
BRANCH  24  27
ATOM     27  C   UNL A   1      32.841  18.636  24.068  1.00  0.00     0.082 A 
ATOM     28  C   UNL A   1      33.973  16.320  23.374  1.00  0.00     0.088 C 
ATOM     29  C   UNL A   1      33.281  17.615  23.234  1.00  0.00     0.113 A 
ATOM     30  O   UNL A   1      32.920  17.875  21.941  1.00  0.00    -0.469 OA
ATOM     31  C   UNL A   1      32.194  19.012  21.932  1.00  0.00     0.196 A 
ATOM     32  C   UNL A   1      32.092  19.507  23.204  1.00  0.00     0.056 A 
ENDBRANCH  24  27
ENDBRANCH  16  23
ENDBRANCH  10  15
ENDBRANCH   8   9
ENDBRANCH   6   8
ENDBRANCH   3   6
ENDBRANCH   1   2
BRANCH   1  33
ATOM     33  C   UNL A   1      32.482  29.796  25.358  1.00  0.00     0.023 C 
BRANCH  33  34
ATOM     34  C   UNL A   1      32.720  28.730  26.430  1.00  0.00     0.023 C 
BRANCH  34  35
ATOM     35  C   UNL A   1      33.926  28.972  27.338  1.00  0.00     0.116 C 
BRANCH  35  36
ATOM     36  N   UNL A   1      33.906  30.256  28.025  1.00  0.00    -0.352 N 
ATOM     37  C   UNL A   1      34.926  30.860  28.723  1.00  0.00     0.251 C 
ATOM     38  H   UNL A   1      33.057  30.752  27.983  1.00  0.00     0.163 HD
ATOM     39  O   UNL A   1      34.732  31.912  29.323  1.00  0.00    -0.269 OA
BRANCH  37  40
ATOM     40  C   UNL A   1      36.246  30.197  28.783  1.00  0.00     0.039 A 
ATOM     41  C   UNL A   1      37.071  30.235  27.656  1.00  0.00     0.014 A 
ATOM     42  C   UNL A   1      36.690  29.597  29.964  1.00  0.00     0.014 A 
ATOM     43  C   UNL A   1      38.377  29.748  27.743  1.00  0.00     0.010 A 
ATOM     44  C   UNL A   1      38.014  29.177  30.070  1.00  0.00     0.010 A 
ATOM     45  C   UNL A   1      38.873  29.260  28.963  1.00  0.00    -0.014 A 
BRANCH  45  46
ATOM     46  C   UNL A   1      40.298  28.869  29.108  1.00  0.00     0.031 A 
ATOM     47  C   UNL A   1      41.301  29.831  29.678  1.00  0.00     0.074 A 
ATOM     48  C   UNL A   1      40.701  27.663  28.662  1.00  0.00     0.049 A 
ATOM     49  N   UNL A   1      42.589  29.673  29.854  1.00  0.00    -0.248 NA
ATOM     50  C   UNL A   1      40.799  31.156  30.075  1.00  0.00     0.031 C 
ATOM     51  C   UNL A   1      39.840  26.664  28.024  1.00  0.00     0.029 A 
ATOM     52  N   UNL A   1      41.941  27.073  28.670  1.00  0.00    -0.354 N 
ATOM     53  C   UNL A   1      43.050  30.876  30.373  1.00  0.00     0.074 A 
ATOM     54  C   UNL A   1      41.916  31.773  30.430  1.00  0.00     0.031 C 
ATOM     55  C   UNL A   1      40.569  25.577  27.730  1.00  0.00     0.029 A 
ATOM     56  C   UNL A   1      41.953  25.809  28.132  1.00  0.00     0.049 A 
ATOM     57  H   UNL A   1      42.744  27.514  29.028  1.00  0.00     0.167 HD
ATOM     58  C   UNL A   1      44.299  31.196  30.787  1.00  0.00     0.037 A 
ATOM     59  C   UNL A   1      42.964  24.934  27.982  1.00  0.00     0.037 A 
ATOM     60  C   UNL A   1      45.422  30.295  30.752  1.00  0.00     0.049 A 
ATOM     61  C   UNL A   1      44.337  25.307  28.465  1.00  0.00     0.074 A 
ATOM     62  C   UNL A   1      46.709  30.503  31.215  1.00  0.00     0.029 A 
ATOM     63  N   UNL A   1      45.390  29.015  30.220  1.00  0.00    -0.354 N 
ATOM     64  N   UNL A   1      44.740  26.418  29.032  1.00  0.00    -0.248 NA
ATOM     65  C   UNL A   1      45.394  24.300  28.294  1.00  0.00     0.031 C 
ATOM     66  C   UNL A   1      47.467  29.362  30.929  1.00  0.00     0.029 A 
ATOM     67  C   UNL A   1      46.640  28.428  30.324  1.00  0.00     0.049 A 
ATOM     68  H   UNL A   1      44.596  28.586  29.825  1.00  0.00     0.167 HD
ATOM     69  C   UNL A   1      46.089  26.237  29.305  1.00  0.00     0.074 A 
ATOM     70  C   UNL A   1      46.432  24.903  28.859  1.00  0.00     0.031 C 
ATOM     71  C   UNL A   1      46.966  27.100  29.875  1.00  0.00     0.037 A 
BRANCH  58  72
ATOM     72  C   UNL A   1      44.513  32.580  31.326  1.00  0.00     0.057 A 
ATOM     73  C   UNL A   1      44.339  32.874  32.685  1.00  0.00     0.134 A 
ATOM     74  C   UNL A   1      44.928  33.621  30.487  1.00  0.00     0.134 A 
ATOM     75  F   UNL A   1      43.931  31.924  33.540  1.00  0.00    -0.206 F 
ATOM     76  C   UNL A   1      44.544  34.162  33.185  1.00  0.00     0.040 A 
ATOM     77  C   UNL A   1      45.161  34.906  30.981  1.00  0.00     0.040 A 
ATOM     78  F   UNL A   1      45.118  33.406  29.177  1.00  0.00    -0.206 F 
ATOM     79  C   UNL A   1      44.962  35.180  32.332  1.00  0.00     0.006 A 
ENDBRANCH  58  72
BRANCH  59  80
ATOM     80  C   UNL A   1      42.710  23.602  27.378  1.00  0.00     0.057 A 
ATOM     81  C   UNL A   1      42.860  23.398  26.001  1.00  0.00     0.134 A 
ATOM     82  C   UNL A   1      42.309  22.510  28.154  1.00  0.00     0.134 A 
ATOM     83  F   UNL A   1      43.225  24.412  25.204  1.00  0.00    -0.206 F 
ATOM     84  C   UNL A   1      42.603  22.158  25.415  1.00  0.00     0.040 A 
ATOM     85  C   UNL A   1      42.070  21.258  27.585  1.00  0.00     0.040 A 
ATOM     86  F   UNL A   1      42.155  22.640  29.480  1.00  0.00    -0.206 F 
ATOM     87  C   UNL A   1      42.210  21.082  26.208  1.00  0.00     0.006 A 
ENDBRANCH  59  80
BRANCH  71  88
ATOM     88  C   UNL A   1      48.373  26.616  30.063  1.00  0.00     0.057 A 
ATOM     89  C   UNL A   1      48.762  25.905  31.205  1.00  0.00     0.134 A 
ATOM     90  C   UNL A   1      49.343  26.840  29.077  1.00  0.00     0.134 A 
ATOM     91  F   UNL A   1      47.883  25.671  32.191  1.00  0.00    -0.206 F 
ATOM     92  C   UNL A   1      50.073  25.454  31.372  1.00  0.00     0.040 A 
ATOM     93  C   UNL A   1      50.650  26.373  29.222  1.00  0.00     0.040 A 
ATOM     94  F   UNL A   1      49.034  27.507  27.956  1.00  0.00    -0.206 F 
ATOM     95  C   UNL A   1      51.019  25.684  30.376  1.00  0.00     0.006 A 
ENDBRANCH  71  88
ENDBRANCH  45  46
ENDBRANCH  37  40
ENDBRANCH  35  36
ENDBRANCH  34  35
ENDBRANCH  33  34
ENDBRANCH   1  33
TORSDOF 16
ENDMDL
MODEL 3
REMARK VINA RESULT:     -12.5      4.278      7.555
REMARK SMILES Cc1occc1C(=O)NN1C(=O)/C(=C\c2ccc(O[C@H](C)C(=O)NCCCCNC(=O)c3ccc(-c4c5nc(c(-c6c(F)cccc6F)c6ccc([nH]6)c(-c6c(F)cccc6F)c6nc(c(-c7c(F)cccc7F)c7ccc4[nH]7)C=C6)C=C5)cc3)cc2)SC1=S
REMARK SMILES IDX 25 1 24 2 22 3 23 4 20 6 21 7 19 8 18 9 15 10 16 11 87 12
REMARK SMILES IDX 17 13 86 14 14 15 10 16 11 17 89 18 12 19 13 20 88 21 90 22
REMARK SMILES IDX 9 23 7 24 8 25 6 27 1 28 2 29 3 30 4 31 5 32 26 33 27 34
REMARK SMILES IDX 28 35 29 36 30 37 31 39 32 40 33 41 85 42 34 43 84 44 35 45
REMARK SMILES IDX 36 46 37 47 78 48 38 49 83 50 77 51 79 52 39 53 82 54 76 55
REMARK SMILES IDX 75 56 40 58 66 59 49 60 65 61 50 62 53 63 64 64 80 65 51 66
REMARK SMILES IDX 52 67 63 69 81 70 54 71 41 72 42 73 47 74 43 75 44 76 46 77
REMARK SMILES IDX 48 78 45 79 67 80 68 81 73 82 69 83 70 84 72 85 74 86 71 87
REMARK SMILES IDX 55 88 56 89 61 90 57 91 58 92 60 93 62 94 59 95
REMARK H PARENT 24 5 9 26 29 38 79 57 53 68
REMARK Flexibility Score: inf
ROOT
ATOM      1  C   UNL A   1      31.220  29.770  25.297  1.00  0.00     0.116 C 
ENDROOT
BRANCH   1   2
ATOM      2  N   UNL A   1      31.224  29.603  23.865  1.00  0.00    -0.353 N 
ATOM      3  C   UNL A   1      30.347  28.977  23.035  1.00  0.00     0.260 C 
ATOM      4  O   UNL A   1      30.547  29.136  21.823  1.00  0.00    -0.271 OA
ATOM      5  H   UNL A   1      31.994  30.013  23.408  1.00  0.00     0.163 HD
BRANCH   3   6
ATOM      6  C   UNL A   1      29.223  28.011  23.510  1.00  0.00     0.258 C 
ATOM      7  C   UNL A   1      27.877  28.499  22.979  1.00  0.00     0.064 C 
BRANCH   6   8
ATOM      8  O   UNL A   1      29.444  26.611  23.620  1.00  0.00    -0.481 OA
BRANCH   8   9
ATOM      9  C   UNL A   1      30.650  25.989  23.633  1.00  0.00     0.120 A 
ATOM     10  C   UNL A   1      33.242  24.921  23.906  1.00  0.00    -0.024 A 
ATOM     11  C   UNL A   1      32.498  24.711  22.743  1.00  0.00     0.012 A 
ATOM     12  C   UNL A   1      32.681  25.656  24.949  1.00  0.00     0.012 A 
ATOM     13  C   UNL A   1      31.207  25.228  22.615  1.00  0.00     0.047 A 
ATOM     14  C   UNL A   1      31.385  26.170  24.815  1.00  0.00     0.047 A 
BRANCH  10  15
ATOM     15  C   UNL A   1      34.546  24.260  23.983  1.00  0.00     0.029 C 
ATOM     16  N   UNL A   1      34.282  20.929  25.414  1.00  0.00    -0.198 N 
ATOM     17  C   UNL A   1      33.688  22.126  25.042  1.00  0.00     0.285 C 
ATOM     18  C   UNL A   1      35.545  20.651  24.940  1.00  0.00     0.168 C 
ATOM     19  O   UNL A   1      32.513  22.398  25.206  1.00  0.00    -0.266 OA
ATOM     20  C   UNL A   1      34.714  22.997  24.399  1.00  0.00     0.082 C 
ATOM     21  S   UNL A   1      36.195  22.119  24.201  1.00  0.00    -0.052 SA
ATOM     22  S   UNL A   1      36.374  19.207  24.997  1.00  0.00    -0.050 S 
BRANCH  16  23
ATOM     23  N   UNL A   1      33.463  20.003  26.045  1.00  0.00    -0.254 N 
ATOM     24  C   UNL A   1      32.973  18.833  25.514  1.00  0.00     0.273 C 
ATOM     25  O   UNL A   1      32.486  18.026  26.310  1.00  0.00    -0.267 OA
ATOM     26  H   UNL A   1      33.204  20.206  26.973  1.00  0.00     0.192 HD
BRANCH  24  27
ATOM     27  C   UNL A   1      32.886  18.581  24.079  1.00  0.00     0.082 A 
ATOM     28  C   UNL A   1      34.032  16.265  23.412  1.00  0.00     0.088 C 
ATOM     29  C   UNL A   1      33.334  17.555  23.257  1.00  0.00     0.113 A 
ATOM     30  O   UNL A   1      32.979  17.802  21.959  1.00  0.00    -0.469 OA
ATOM     31  C   UNL A   1      32.247  18.936  21.937  1.00  0.00     0.196 A 
ATOM     32  C   UNL A   1      32.137  19.441  23.204  1.00  0.00     0.056 A 
ENDBRANCH  24  27
ENDBRANCH  16  23
ENDBRANCH  10  15
ENDBRANCH   8   9
ENDBRANCH   6   8
ENDBRANCH   3   6
ENDBRANCH   1   2
BRANCH   1  33
ATOM     33  C   UNL A   1      32.609  30.027  25.873  1.00  0.00     0.023 C 
BRANCH  33  34
ATOM     34  C   UNL A   1      33.142  28.895  26.755  1.00  0.00     0.023 C 
BRANCH  34  35
ATOM     35  C   UNL A   1      34.535  29.123  27.342  1.00  0.00     0.116 C 
BRANCH  35  36
ATOM     36  N   UNL A   1      34.605  30.217  28.300  1.00  0.00    -0.352 N 
ATOM     37  C   UNL A   1      35.688  30.625  29.043  1.00  0.00     0.251 C 
ATOM     38  H   UNL A   1      33.773  30.727  28.432  1.00  0.00     0.163 HD
ATOM     39  O   UNL A   1      35.571  31.517  29.877  1.00  0.00    -0.269 OA
BRANCH  37  40
ATOM     40  C   UNL A   1      36.985  29.940  28.858  1.00  0.00     0.039 A 
ATOM     41  C   UNL A   1      37.527  29.859  27.574  1.00  0.00     0.014 A 
ATOM     42  C   UNL A   1      37.688  29.437  29.956  1.00  0.00     0.014 A 
ATOM     43  C   UNL A   1      38.818  29.352  27.403  1.00  0.00     0.010 A 
ATOM     44  C   UNL A   1      38.999  28.996  29.793  1.00  0.00     0.010 A 
ATOM     45  C   UNL A   1      39.580  28.961  28.516  1.00  0.00    -0.014 A 
BRANCH  45  46
ATOM     46  C   UNL A   1      41.000  28.552  28.365  1.00  0.00     0.031 A 
ATOM     47  C   UNL A   1      41.355  27.127  28.048  1.00  0.00     0.074 A 
ATOM     48  C   UNL A   1      41.975  29.457  28.578  1.00  0.00     0.049 A 
ATOM     49  N   UNL A   1      42.538  26.583  27.905  1.00  0.00    -0.248 NA
ATOM     50  C   UNL A   1      40.238  26.181  27.901  1.00  0.00     0.031 C 
ATOM     51  C   UNL A   1      41.764  30.855  28.961  1.00  0.00     0.029 A 
ATOM     52  N   UNL A   1      43.340  29.335  28.512  1.00  0.00    -0.354 N 
ATOM     53  C   UNL A   1      42.308  25.236  27.661  1.00  0.00     0.074 A 
ATOM     54  C   UNL A   1      40.877  25.033  27.731  1.00  0.00     0.031 C 
ATOM     55  C   UNL A   1      42.953  31.468  29.065  1.00  0.00     0.029 A 
ATOM     56  C   UNL A   1      44.011  30.502  28.785  1.00  0.00     0.049 A 
ATOM     57  H   UNL A   1      43.795  28.492  28.288  1.00  0.00     0.167 HD
ATOM     58  C   UNL A   1      43.205  24.261  27.380  1.00  0.00     0.037 A 
ATOM     59  C   UNL A   1      45.331  30.766  28.805  1.00  0.00     0.037 A 
ATOM     60  C   UNL A   1      44.627  24.469  27.287  1.00  0.00     0.049 A 
ATOM     61  C   UNL A   1      46.305  29.671  28.473  1.00  0.00     0.074 A 
ATOM     62  C   UNL A   1      45.610  23.560  26.938  1.00  0.00     0.029 A 
ATOM     63  N   UNL A   1      45.268  25.670  27.550  1.00  0.00    -0.354 N 
ATOM     64  N   UNL A   1      46.068  28.421  28.161  1.00  0.00    -0.248 NA
ATOM     65  C   UNL A   1      47.731  30.027  28.489  1.00  0.00     0.031 C 
ATOM     66  C   UNL A   1      46.851  24.202  27.025  1.00  0.00     0.029 A 
ATOM     67  C   UNL A   1      46.635  25.521  27.390  1.00  0.00     0.049 A 
ATOM     68  H   UNL A   1      44.817  26.506  27.812  1.00  0.00     0.167 HD
ATOM     69  C   UNL A   1      47.309  27.847  27.921  1.00  0.00     0.074 A 
ATOM     70  C   UNL A   1      48.296  28.890  28.107  1.00  0.00     0.031 C 
ATOM     71  C   UNL A   1      47.605  26.569  27.579  1.00  0.00     0.037 A 
BRANCH  58  72
ATOM     72  C   UNL A   1      42.670  22.880  27.141  1.00  0.00     0.057 A 
ATOM     73  C   UNL A   1      42.299  22.042  28.201  1.00  0.00     0.134 A 
ATOM     74  C   UNL A   1      42.494  22.394  25.840  1.00  0.00     0.134 A 
ATOM     75  F   UNL A   1      42.454  22.444  29.472  1.00  0.00    -0.206 F 
ATOM     76  C   UNL A   1      41.796  20.759  27.976  1.00  0.00     0.040 A 
ATOM     77  C   UNL A   1      41.968  21.122  25.602  1.00  0.00     0.040 A 
ATOM     78  F   UNL A   1      42.824  23.146  24.780  1.00  0.00    -0.206 F 
ATOM     79  C   UNL A   1      41.624  20.299  26.672  1.00  0.00     0.006 A 
ENDBRANCH  58  72
BRANCH  59  80
ATOM     80  C   UNL A   1      45.809  32.136  29.117  1.00  0.00     0.057 A 
ATOM     81  C   UNL A   1      46.127  32.505  30.430  1.00  0.00     0.134 A 
ATOM     82  C   UNL A   1      45.956  33.106  28.119  1.00  0.00     0.134 A 
ATOM     83  F   UNL A   1      45.989  31.623  31.430  1.00  0.00    -0.206 F 
ATOM     84  C   UNL A   1      46.555  33.795  30.742  1.00  0.00     0.040 A 
ATOM     85  C   UNL A   1      46.405  34.394  28.414  1.00  0.00     0.040 A 
ATOM     86  F   UNL A   1      45.676  32.812  26.842  1.00  0.00    -0.206 F 
ATOM     87  C   UNL A   1      46.700  34.744  29.731  1.00  0.00     0.006 A 
ENDBRANCH  59  80
BRANCH  71  88
ATOM     88  C   UNL A   1      49.052  26.238  27.366  1.00  0.00     0.057 A 
ATOM     89  C   UNL A   1      49.869  25.793  28.412  1.00  0.00     0.134 A 
ATOM     90  C   UNL A   1      49.627  26.340  26.093  1.00  0.00     0.134 A 
ATOM     91  F   UNL A   1      49.381  25.688  29.658  1.00  0.00    -0.206 F 
ATOM     92  C   UNL A   1      51.215  25.483  28.205  1.00  0.00     0.040 A 
ATOM     93  C   UNL A   1      50.964  26.010  25.869  1.00  0.00     0.040 A 
ATOM     94  F   UNL A   1      48.897  26.753  25.046  1.00  0.00    -0.206 F 
ATOM     95  C   UNL A   1      51.764  25.587  26.929  1.00  0.00     0.006 A 
ENDBRANCH  71  88
ENDBRANCH  45  46
ENDBRANCH  37  40
ENDBRANCH  35  36
ENDBRANCH  34  35
ENDBRANCH  33  34
ENDBRANCH   1  33
TORSDOF 16
ENDMDL
