MODEL 1
REMARK VINA RESULT:     -11.8      0.000      0.000
REMARK SMILES O=C(NCCCCNC(=O)[C@]1(CCc2cccnc2)C[C@H]2CC[C@@H]1O2)c1ccc(-c2c3nc(c(-c4c(F)cccc4F)c4ccc([nH]4)c(-c4c(F)cccc4F)c4nc(c(-c5c(F)cccc5F)c5ccc2[nH]5)C=C4)C=C3)cc1
REMARK SMILES IDX 6 1 5 2 4 3 3 4 1 5 2 6 26 8 27 9 79 10 28 11 78 12 29 13
REMARK SMILES IDX 30 14 31 15 72 16 32 17 77 18 71 19 73 20 33 21 76 22 70 23
REMARK SMILES IDX 69 24 34 26 60 27 43 28 59 29 44 30 47 31 58 32 74 33 45 34
REMARK SMILES IDX 46 35 57 37 75 38 48 39 35 40 36 41 41 42 37 43 38 44 40 45
REMARK SMILES IDX 42 46 39 47 61 48 62 49 67 50 63 51 64 52 66 53 68 54 65 55
REMARK SMILES IDX 49 56 50 57 55 58 51 59 52 60 54 61 56 62 53 63 7 64 8 65
REMARK SMILES IDX 9 66 10 68 11 69 20 70 24 71 21 72 23 73 25 74 22 75 12 76
REMARK SMILES IDX 13 77 14 78 15 79 19 80 16 81 18 82 17 83
REMARK H PARENT 3 7 73 25 47 36 8 67
REMARK Flexibility Score: inf
ROOT
ATOM      1  C   UNL A   1      37.067  20.856  24.592  1.00  0.00     0.023 C 
ENDROOT
BRANCH   1   2
ATOM      2  C   UNL A   1      38.160  19.811  24.886  1.00  0.00     0.023 C 
BRANCH   2   3
ATOM      3  C   UNL A   1      39.117  20.068  26.039  1.00  0.00     0.116 C 
BRANCH   3   4
ATOM      4  N   UNL A   1      40.294  19.223  25.943  1.00  0.00    -0.352 N 
ATOM      5  O   UNL A   1      42.478  18.761  25.679  1.00  0.00    -0.269 OA
ATOM      6  C   UNL A   1      41.626  19.566  26.024  1.00  0.00     0.251 C 
ATOM      7  H   UNL A   1      40.114  18.265  25.800  1.00  0.00     0.163 HD
BRANCH   6   8
ATOM      8  C   UNL A   1      42.037  20.907  26.517  1.00  0.00     0.039 A 
ATOM      9  C   UNL A   1      42.338  21.946  25.635  1.00  0.00     0.014 A 
ATOM     10  C   UNL A   1      42.041  21.149  27.897  1.00  0.00     0.014 A 
ATOM     11  C   UNL A   1      42.726  23.192  26.126  1.00  0.00     0.010 A 
ATOM     12  C   UNL A   1      42.364  22.420  28.388  1.00  0.00     0.010 A 
ATOM     13  C   UNL A   1      42.722  23.452  27.506  1.00  0.00    -0.014 A 
BRANCH  13  14
ATOM     14  C   UNL A   1      43.023  24.820  28.005  1.00  0.00     0.031 A 
ATOM     15  C   UNL A   1      44.436  25.254  28.282  1.00  0.00     0.074 A 
ATOM     16  C   UNL A   1      42.004  25.676  28.217  1.00  0.00     0.049 A 
ATOM     17  N   UNL A   1      44.874  26.401  28.741  1.00  0.00    -0.248 NA
ATOM     18  C   UNL A   1      45.497  24.269  28.023  1.00  0.00     0.031 C 
ATOM     19  C   UNL A   1      40.588  25.367  28.004  1.00  0.00     0.029 A 
ATOM     20  N   UNL A   1      41.997  26.979  28.649  1.00  0.00    -0.354 N 
ATOM     21  C   UNL A   1      46.254  26.269  28.849  1.00  0.00     0.074 A 
ATOM     22  C   UNL A   1      46.578  24.920  28.431  1.00  0.00     0.031 C 
ATOM     23  C   UNL A   1      39.854  26.460  28.264  1.00  0.00     0.029 A 
ATOM     24  C   UNL A   1      40.739  27.525  28.722  1.00  0.00     0.049 A 
ATOM     25  H   UNL A   1      42.815  27.474  28.882  1.00  0.00     0.167 HD
ATOM     26  C   UNL A   1      47.163  27.188  29.254  1.00  0.00     0.037 A 
ATOM     27  C   UNL A   1      40.336  28.744  29.129  1.00  0.00     0.037 A 
ATOM     28  C   UNL A   1      46.833  28.534  29.654  1.00  0.00     0.049 A 
ATOM     29  C   UNL A   1      41.364  29.736  29.589  1.00  0.00     0.074 A 
ATOM     30  C   UNL A   1      47.688  29.554  30.040  1.00  0.00     0.029 A 
ATOM     31  N   UNL A   1      45.546  29.047  29.726  1.00  0.00    -0.354 N 
ATOM     32  N   UNL A   1      42.668  29.610  29.649  1.00  0.00    -0.248 NA
ATOM     33  C   UNL A   1      40.865  31.043  30.038  1.00  0.00     0.031 C 
ATOM     34  C   UNL A   1      46.915  30.665  30.395  1.00  0.00     0.029 A 
ATOM     35  C   UNL A   1      45.582  30.360  30.170  1.00  0.00     0.049 A 
ATOM     36  H   UNL A   1      44.728  28.550  29.495  1.00  0.00     0.167 HD
ATOM     37  C   UNL A   1      43.147  30.829  30.108  1.00  0.00     0.074 A 
ATOM     38  C   UNL A   1      41.995  31.685  30.299  1.00  0.00     0.031 C 
ATOM     39  C   UNL A   1      44.428  31.205  30.346  1.00  0.00     0.037 A 
BRANCH  26  40
ATOM     40  C   UNL A   1      48.605  26.765  29.312  1.00  0.00     0.057 A 
ATOM     41  C   UNL A   1      49.160  26.154  30.444  1.00  0.00     0.134 A 
ATOM     42  C   UNL A   1      49.443  26.940  28.202  1.00  0.00     0.134 A 
ATOM     43  F   UNL A   1      48.417  25.962  31.546  1.00  0.00    -0.206 F 
ATOM     44  C   UNL A   1      50.499  25.757  30.480  1.00  0.00     0.040 A 
ATOM     45  C   UNL A   1      50.776  26.522  28.216  1.00  0.00     0.040 A 
ATOM     46  F   UNL A   1      48.979  27.509  27.079  1.00  0.00    -0.206 F 
ATOM     47  C   UNL A   1      51.309  25.936  29.362  1.00  0.00     0.006 A 
ENDBRANCH  26  40
BRANCH  27  48
ATOM     48  C   UNL A   1      38.893  29.094  29.111  1.00  0.00     0.057 A 
ATOM     49  C   UNL A   1      38.278  29.556  27.941  1.00  0.00     0.134 A 
ATOM     50  C   UNL A   1      38.096  28.978  30.256  1.00  0.00     0.134 A 
ATOM     51  F   UNL A   1      38.991  29.705  26.816  1.00  0.00    -0.206 F 
ATOM     52  C   UNL A   1      36.927  29.907  27.915  1.00  0.00     0.040 A 
ATOM     53  C   UNL A   1      36.737  29.297  30.237  1.00  0.00     0.040 A 
ATOM     54  F   UNL A   1      38.623  28.534  31.406  1.00  0.00    -0.206 F 
ATOM     55  C   UNL A   1      36.151  29.772  29.065  1.00  0.00     0.006 A 
ENDBRANCH  27  48
BRANCH  39  56
ATOM     56  C   UNL A   1      44.650  32.625  30.782  1.00  0.00     0.057 A 
ATOM     57  C   UNL A   1      44.697  32.994  32.132  1.00  0.00     0.134 A 
ATOM     58  C   UNL A   1      44.832  33.637  29.829  1.00  0.00     0.134 A 
ATOM     59  F   UNL A   1      44.517  32.076  33.094  1.00  0.00    -0.206 F 
ATOM     60  C   UNL A   1      44.882  34.322  32.519  1.00  0.00     0.040 A 
ATOM     61  C   UNL A   1      45.048  34.963  30.204  1.00  0.00     0.040 A 
ATOM     62  F   UNL A   1      44.806  33.352  28.519  1.00  0.00    -0.206 F 
ATOM     63  C   UNL A   1      45.064  35.311  31.553  1.00  0.00     0.006 A 
ENDBRANCH  39  56
ENDBRANCH  13  14
ENDBRANCH   6   8
ENDBRANCH   3   4
ENDBRANCH   2   3
ENDBRANCH   1   2
BRANCH   1  64
ATOM     64  C   UNL A   1      36.456  21.892  25.602  1.00  0.00     0.116 C 
BRANCH  64  65
ATOM     65  N   UNL A   1      35.399  21.625  26.610  1.00  0.00    -0.356 N 
ATOM     66  C   UNL A   1      34.052  21.792  26.846  1.00  0.00     0.228 C 
ATOM     67  H   UNL A   1      35.804  21.167  27.382  1.00  0.00     0.163 HD
ATOM     68  O   UNL A   1      33.630  21.216  27.855  1.00  0.00    -0.274 OA
BRANCH  66  69
ATOM     69  C   UNL A   1      33.087  22.574  25.937  1.00  0.00     0.078 C 
ATOM     70  C   UNL A   1      33.334  24.095  25.701  1.00  0.00     0.051 C 
ATOM     71  C   UNL A   1      31.782  22.658  26.797  1.00  0.00     0.134 C 
ATOM     72  C   UNL A   1      32.048  24.736  26.215  1.00  0.00     0.120 C 
ATOM     73  C   UNL A   1      30.502  22.926  26.030  1.00  0.00     0.036 C 
ATOM     74  O   UNL A   1      31.900  23.982  27.427  1.00  0.00    -0.374 OA
ATOM     75  C   UNL A   1      30.794  24.301  25.432  1.00  0.00     0.035 C 
BRANCH  69  76
ATOM     76  C   UNL A   1      33.116  21.942  24.555  1.00  0.00     0.024 C 
BRANCH  76  77
ATOM     77  C   UNL A   1      32.411  20.535  24.429  1.00  0.00     0.038 C 
BRANCH  77  78
ATOM     78  C   UNL A   1      33.064  19.228  23.967  1.00  0.00    -0.030 A 
ATOM     79  C   UNL A   1      34.175  18.606  24.551  1.00  0.00     0.007 A 
ATOM     80  C   UNL A   1      32.467  18.470  22.965  1.00  0.00     0.114 A 
ATOM     81  C   UNL A   1      34.661  17.368  24.135  1.00  0.00     0.020 A 
ATOM     82  N   UNL A   1      32.887  17.245  22.542  1.00  0.00    -0.264 NA
ATOM     83  C   UNL A   1      33.981  16.725  23.133  1.00  0.00     0.111 A 
ENDBRANCH  77  78
ENDBRANCH  76  77
ENDBRANCH  69  76
ENDBRANCH  66  69
ENDBRANCH  64  65
ENDBRANCH   1  64
TORSDOF 14
ENDMDL
MODEL 2
REMARK VINA RESULT:     -11.7      0.285      6.321
REMARK SMILES O=C(NCCCCNC(=O)[C@]1(CCc2cccnc2)C[C@H]2CC[C@@H]1O2)c1ccc(-c2c3nc(c(-c4c(F)cccc4F)c4ccc([nH]4)c(-c4c(F)cccc4F)c4nc(c(-c5c(F)cccc5F)c5ccc2[nH]5)C=C4)C=C3)cc1
REMARK SMILES IDX 6 1 5 2 4 3 3 4 1 5 2 6 26 8 27 9 79 10 28 11 78 12 29 13
REMARK SMILES IDX 30 14 31 15 72 16 32 17 77 18 71 19 73 20 33 21 76 22 70 23
REMARK SMILES IDX 69 24 34 26 60 27 43 28 59 29 44 30 47 31 58 32 74 33 45 34
REMARK SMILES IDX 46 35 57 37 75 38 48 39 35 40 36 41 41 42 37 43 38 44 40 45
REMARK SMILES IDX 42 46 39 47 61 48 62 49 67 50 63 51 64 52 66 53 68 54 65 55
REMARK SMILES IDX 49 56 50 57 55 58 51 59 52 60 54 61 56 62 53 63 7 64 8 65
REMARK SMILES IDX 9 66 10 68 11 69 20 70 24 71 21 72 23 73 25 74 22 75 12 76
REMARK SMILES IDX 13 77 14 78 15 79 19 80 16 81 18 82 17 83
REMARK H PARENT 3 7 73 25 47 36 8 67
REMARK Flexibility Score: inf
ROOT
ATOM      1  C   UNL A   1      37.104  21.133  24.500  1.00  0.00     0.023 C 
ENDROOT
BRANCH   1   2
ATOM      2  C   UNL A   1      38.122  20.018  24.804  1.00  0.00     0.023 C 
BRANCH   2   3
ATOM      3  C   UNL A   1      39.027  20.175  26.015  1.00  0.00     0.116 C 
BRANCH   3   4
ATOM      4  N   UNL A   1      40.175  19.289  25.931  1.00  0.00    -0.352 N 
ATOM      5  O   UNL A   1      42.344  18.752  25.685  1.00  0.00    -0.269 OA
ATOM      6  C   UNL A   1      41.517  19.588  26.021  1.00  0.00     0.251 C 
ATOM      7  H   UNL A   1      39.964  18.338  25.789  1.00  0.00     0.163 HD
BRANCH   6   8
ATOM      8  C   UNL A   1      41.970  20.916  26.512  1.00  0.00     0.039 A 
ATOM      9  C   UNL A   1      42.265  21.956  25.630  1.00  0.00     0.014 A 
ATOM     10  C   UNL A   1      42.023  21.145  27.893  1.00  0.00     0.014 A 
ATOM     11  C   UNL A   1      42.693  23.190  26.119  1.00  0.00     0.010 A 
ATOM     12  C   UNL A   1      42.386  22.404  28.385  1.00  0.00     0.010 A 
ATOM     13  C   UNL A   1      42.738  23.437  27.501  1.00  0.00    -0.014 A 
BRANCH  13  14
ATOM     14  C   UNL A   1      43.081  24.794  28.003  1.00  0.00     0.031 A 
ATOM     15  C   UNL A   1      42.013  25.816  28.277  1.00  0.00     0.074 A 
ATOM     16  C   UNL A   1      44.377  25.106  28.205  1.00  0.00     0.049 A 
ATOM     17  N   UNL A   1      42.138  27.052  28.695  1.00  0.00    -0.248 NA
ATOM     18  C   UNL A   1      40.622  25.403  28.039  1.00  0.00     0.031 C 
ATOM     19  C   UNL A   1      45.507  24.208  27.958  1.00  0.00     0.029 A 
ATOM     20  N   UNL A   1      44.964  26.256  28.669  1.00  0.00    -0.354 N 
ATOM     21  C   UNL A   1      40.850  27.571  28.746  1.00  0.00     0.074 A 
ATOM     22  C   UNL A   1      39.959  26.523  28.293  1.00  0.00     0.031 C 
ATOM     23  C   UNL A   1      46.645  24.823  28.312  1.00  0.00     0.029 A 
ATOM     24  C   UNL A   1      46.334  26.179  28.751  1.00  0.00     0.049 A 
ATOM     25  H   UNL A   1      44.453  27.059  28.921  1.00  0.00     0.167 HD
ATOM     26  C   UNL A   1      40.449  28.804  29.140  1.00  0.00     0.037 A 
ATOM     27  C   UNL A   1      47.242  27.100  29.121  1.00  0.00     0.037 A 
ATOM     28  C   UNL A   1      41.342  29.838  29.605  1.00  0.00     0.049 A 
ATOM     29  C   UNL A   1      46.771  28.464  29.536  1.00  0.00     0.074 A 
ATOM     30  C   UNL A   1      41.029  31.105  30.067  1.00  0.00     0.029 A 
ATOM     31  N   UNL A   1      42.724  29.725  29.663  1.00  0.00    -0.354 N 
ATOM     32  N   UNL A   1      45.546  28.928  29.616  1.00  0.00    -0.248 NA
ATOM     33  C   UNL A   1      47.808  29.434  29.913  1.00  0.00     0.031 C 
ATOM     34  C   UNL A   1      42.223  31.776  30.353  1.00  0.00     0.029 A 
ATOM     35  C   UNL A   1      43.278  30.906  30.130  1.00  0.00     0.049 A 
ATOM     36  H   UNL A   1      43.235  28.922  29.408  1.00  0.00     0.167 HD
ATOM     37  C   UNL A   1      45.663  30.229  30.085  1.00  0.00     0.074 A 
ATOM     38  C   UNL A   1      47.077  30.476  30.282  1.00  0.00     0.031 C 
ATOM     39  C   UNL A   1      44.687  31.135  30.333  1.00  0.00     0.037 A 
BRANCH  26  40
ATOM     40  C   UNL A   1      38.981  29.119  29.062  1.00  0.00     0.057 A 
ATOM     41  C   UNL A   1      38.368  29.533  27.872  1.00  0.00     0.134 A 
ATOM     42  C   UNL A   1      38.160  28.971  30.188  1.00  0.00     0.134 A 
ATOM     43  F   UNL A   1      39.095  29.703  26.756  1.00  0.00    -0.206 F 
ATOM     44  C   UNL A   1      37.001  29.813  27.811  1.00  0.00     0.040 A 
ATOM     45  C   UNL A   1      36.787  29.222  30.133  1.00  0.00     0.040 A 
ATOM     46  F   UNL A   1      38.676  28.570  31.360  1.00  0.00    -0.206 F 
ATOM     47  C   UNL A   1      36.205  29.652  28.943  1.00  0.00     0.006 A 
ENDBRANCH  26  40
BRANCH  27  48
ATOM     48  C   UNL A   1      48.687  26.760  29.124  1.00  0.00     0.057 A 
ATOM     49  C   UNL A   1      49.304  26.240  30.268  1.00  0.00     0.134 A 
ATOM     50  C   UNL A   1      49.487  26.946  27.989  1.00  0.00     0.134 A 
ATOM     51  F   UNL A   1      48.596  26.055  31.392  1.00  0.00    -0.206 F 
ATOM     52  C   UNL A   1      50.665  25.933  30.291  1.00  0.00     0.040 A 
ATOM     53  C   UNL A   1      50.843  26.616  27.988  1.00  0.00     0.040 A 
ATOM     54  F   UNL A   1      48.955  27.432  26.859  1.00  0.00    -0.206 F 
ATOM     55  C   UNL A   1      51.438  26.116  29.145  1.00  0.00     0.006 A 
ENDBRANCH  27  48
BRANCH  39  56
ATOM     56  C   UNL A   1      45.114  32.458  30.902  1.00  0.00     0.057 A 
ATOM     57  C   UNL A   1      45.254  32.668  32.280  1.00  0.00     0.134 A 
ATOM     58  C   UNL A   1      45.401  33.534  30.052  1.00  0.00     0.134 A 
ATOM     59  F   UNL A   1      44.982  31.684  33.150  1.00  0.00    -0.206 F 
ATOM     60  C   UNL A   1      45.630  33.912  32.792  1.00  0.00     0.040 A 
ATOM     61  C   UNL A   1      45.807  34.772  30.551  1.00  0.00     0.040 A 
ATOM     62  F   UNL A   1      45.294  33.399  28.722  1.00  0.00    -0.206 F 
ATOM     63  C   UNL A   1      45.913  34.966  31.926  1.00  0.00     0.006 A 
ENDBRANCH  39  56
ENDBRANCH  13  14
ENDBRANCH   6   8
ENDBRANCH   3   4
ENDBRANCH   2   3
ENDBRANCH   1   2
BRANCH   1  64
ATOM     64  C   UNL A   1      36.445  22.118  25.531  1.00  0.00     0.116 C 
BRANCH  64  65
ATOM     65  N   UNL A   1      35.412  21.777  26.542  1.00  0.00    -0.356 N 
ATOM     66  C   UNL A   1      34.066  21.904  26.809  1.00  0.00     0.228 C 
ATOM     67  H   UNL A   1      35.840  21.287  27.281  1.00  0.00     0.163 HD
ATOM     68  O   UNL A   1      33.674  21.267  27.794  1.00  0.00    -0.274 OA
BRANCH  66  69
ATOM     69  C   UNL A   1      33.070  22.712  25.959  1.00  0.00     0.078 C 
ATOM     70  C   UNL A   1      33.336  24.230  25.720  1.00  0.00     0.051 C 
ATOM     71  C   UNL A   1      31.816  22.817  26.890  1.00  0.00     0.134 C 
ATOM     72  C   UNL A   1      32.094  24.893  26.307  1.00  0.00     0.120 C 
ATOM     73  C   UNL A   1      30.502  23.117  26.196  1.00  0.00     0.036 C 
ATOM     74  O   UNL A   1      31.996  24.133  27.521  1.00  0.00    -0.374 OA
ATOM     75  C   UNL A   1      30.790  24.490  25.592  1.00  0.00     0.035 C 
BRANCH  69  76
ATOM     76  C   UNL A   1      33.011  22.090  24.574  1.00  0.00     0.024 C 
BRANCH  76  77
ATOM     77  C   UNL A   1      32.351  20.658  24.493  1.00  0.00     0.038 C 
BRANCH  77  78
ATOM     78  C   UNL A   1      33.034  19.366  24.034  1.00  0.00    -0.030 A 
ATOM     79  C   UNL A   1      34.174  18.786  24.605  1.00  0.00     0.007 A 
ATOM     80  C   UNL A   1      32.441  18.577  23.054  1.00  0.00     0.114 A 
ATOM     81  C   UNL A   1      34.690  17.557  24.196  1.00  0.00     0.020 A 
ATOM     82  N   UNL A   1      32.890  17.360  22.639  1.00  0.00    -0.264 NA
ATOM     83  C   UNL A   1      34.011  16.881  23.215  1.00  0.00     0.111 A 
ENDBRANCH  77  78
ENDBRANCH  76  77
ENDBRANCH  69  76
ENDBRANCH  66  69
ENDBRANCH  64  65
ENDBRANCH   1  64
TORSDOF 14
ENDMDL
MODEL 3
REMARK VINA RESULT:     -11.4      3.252      7.964
REMARK SMILES O=C(NCCCCNC(=O)[C@]1(CCc2cccnc2)C[C@H]2CC[C@@H]1O2)c1ccc(-c2c3nc(c(-c4c(F)cccc4F)c4ccc([nH]4)c(-c4c(F)cccc4F)c4nc(c(-c5c(F)cccc5F)c5ccc2[nH]5)C=C4)C=C3)cc1
REMARK SMILES IDX 6 1 5 2 4 3 3 4 1 5 2 6 26 8 27 9 79 10 28 11 78 12 29 13
REMARK SMILES IDX 30 14 31 15 72 16 32 17 77 18 71 19 73 20 33 21 76 22 70 23
REMARK SMILES IDX 69 24 34 26 60 27 43 28 59 29 44 30 47 31 58 32 74 33 45 34
REMARK SMILES IDX 46 35 57 37 75 38 48 39 35 40 36 41 41 42 37 43 38 44 40 45
REMARK SMILES IDX 42 46 39 47 61 48 62 49 67 50 63 51 64 52 66 53 68 54 65 55
REMARK SMILES IDX 49 56 50 57 55 58 51 59 52 60 54 61 56 62 53 63 7 64 8 65
REMARK SMILES IDX 9 66 10 68 11 69 20 70 24 71 21 72 23 73 25 74 22 75 12 76
REMARK SMILES IDX 13 77 14 78 15 79 19 80 16 81 18 82 17 83
REMARK H PARENT 3 7 73 25 47 36 8 67
REMARK Flexibility Score: inf
ROOT
ATOM      1  C   UNL A   1      31.779  27.955  26.833  1.00  0.00     0.023 C 
ENDROOT
BRANCH   1   2
ATOM      2  C   UNL A   1      33.313  28.071  26.909  1.00  0.00     0.023 C 
BRANCH   2   3
ATOM      3  C   UNL A   1      34.003  29.121  26.053  1.00  0.00     0.116 C 
BRANCH   3   4
ATOM      4  N   UNL A   1      33.874  30.444  26.638  1.00  0.00    -0.352 N 
ATOM      5  O   UNL A   1      34.184  32.049  28.180  1.00  0.00    -0.269 OA
ATOM      6  C   UNL A   1      34.593  31.021  27.662  1.00  0.00     0.251 C 
ATOM      7  H   UNL A   1      33.169  31.010  26.246  1.00  0.00     0.163 HD
BRANCH   6   8
ATOM      8  C   UNL A   1      35.854  30.403  28.148  1.00  0.00     0.039 A 
ATOM      9  C   UNL A   1      37.067  30.608  27.488  1.00  0.00     0.014 A 
ATOM     10  C   UNL A   1      35.832  29.666  29.339  1.00  0.00     0.014 A 
ATOM     11  C   UNL A   1      38.233  30.011  27.963  1.00  0.00     0.010 A 
ATOM     12  C   UNL A   1      37.016  29.124  29.854  1.00  0.00     0.010 A 
ATOM     13  C   UNL A   1      38.228  29.281  29.163  1.00  0.00    -0.014 A 
BRANCH  13  14
ATOM     14  C   UNL A   1      39.503  28.752  29.717  1.00  0.00     0.031 A 
ATOM     15  C   UNL A   1      40.122  29.350  30.950  1.00  0.00     0.074 A 
ATOM     16  C   UNL A   1      40.109  27.724  29.092  1.00  0.00     0.049 A 
ATOM     17  N   UNL A   1      41.240  29.027  31.554  1.00  0.00    -0.248 NA
ATOM     18  C   UNL A   1      39.402  30.466  31.581  1.00  0.00     0.031 C 
ATOM     19  C   UNL A   1      39.617  27.070  27.877  1.00  0.00     0.029 A 
ATOM     20  N   UNL A   1      41.262  27.042  29.391  1.00  0.00    -0.354 N 
ATOM     21  C   UNL A   1      41.369  29.912  32.618  1.00  0.00     0.074 A 
ATOM     22  C   UNL A   1      40.228  30.802  32.563  1.00  0.00     0.031 C 
ATOM     23  C   UNL A   1      40.437  26.057  27.558  1.00  0.00     0.029 A 
ATOM     24  C   UNL A   1      41.545  26.029  28.507  1.00  0.00     0.049 A 
ATOM     25  H   UNL A   1      41.831  27.258  30.164  1.00  0.00     0.167 HD
ATOM     26  C   UNL A   1      42.347  29.971  33.555  1.00  0.00     0.037 A 
ATOM     27  C   UNL A   1      42.588  25.179  28.453  1.00  0.00     0.037 A 
ATOM     28  C   UNL A   1      43.472  29.070  33.612  1.00  0.00     0.049 A 
ATOM     29  C   UNL A   1      43.665  25.280  29.495  1.00  0.00     0.074 A 
ATOM     30  C   UNL A   1      44.492  29.022  34.548  1.00  0.00     0.029 A 
ATOM     31  N   UNL A   1      43.730  28.064  32.693  1.00  0.00    -0.354 N 
ATOM     32  N   UNL A   1      43.753  26.096  30.518  1.00  0.00    -0.248 NA
ATOM     33  C   UNL A   1      44.787  24.339  29.376  1.00  0.00     0.031 C 
ATOM     34  C   UNL A   1      45.393  28.022  34.165  1.00  0.00     0.029 A 
ATOM     35  C   UNL A   1      44.902  27.404  33.026  1.00  0.00     0.049 A 
ATOM     36  H   UNL A   1      43.162  27.851  31.917  1.00  0.00     0.167 HD
ATOM     37  C   UNL A   1      44.920  25.745  31.182  1.00  0.00     0.074 A 
ATOM     38  C   UNL A   1      45.499  24.635  30.454  1.00  0.00     0.031 C 
ATOM     39  C   UNL A   1      45.461  26.293  32.298  1.00  0.00     0.037 A 
BRANCH  26  40
ATOM     40  C   UNL A   1      42.260  31.063  34.586  1.00  0.00     0.057 A 
ATOM     41  C   UNL A   1      41.610  30.882  35.813  1.00  0.00     0.134 A 
ATOM     42  C   UNL A   1      42.870  32.305  34.359  1.00  0.00     0.134 A 
ATOM     43  F   UNL A   1      40.997  29.721  36.093  1.00  0.00    -0.206 F 
ATOM     44  C   UNL A   1      41.545  31.902  36.765  1.00  0.00     0.040 A 
ATOM     45  C   UNL A   1      42.836  33.323  35.315  1.00  0.00     0.040 A 
ATOM     46  F   UNL A   1      43.519  32.547  33.211  1.00  0.00    -0.206 F 
ATOM     47  C   UNL A   1      42.165  33.125  36.520  1.00  0.00     0.006 A 
ENDBRANCH  26  40
BRANCH  27  48
ATOM     48  C   UNL A   1      42.659  24.156  27.380  1.00  0.00     0.057 A 
ATOM     49  C   UNL A   1      42.152  22.867  27.578  1.00  0.00     0.134 A 
ATOM     50  C   UNL A   1      43.234  24.439  26.135  1.00  0.00     0.134 A 
ATOM     51  F   UNL A   1      41.604  22.529  28.754  1.00  0.00    -0.206 F 
ATOM     52  C   UNL A   1      42.229  21.889  26.584  1.00  0.00     0.040 A 
ATOM     53  C   UNL A   1      43.291  23.480  25.121  1.00  0.00     0.040 A 
ATOM     54  F   UNL A   1      43.730  25.657  25.878  1.00  0.00    -0.206 F 
ATOM     55  C   UNL A   1      42.795  22.198  25.348  1.00  0.00     0.006 A 
ENDBRANCH  27  48
BRANCH  39  56
ATOM     56  C   UNL A   1      46.713  25.656  32.831  1.00  0.00     0.057 A 
ATOM     57  C   UNL A   1      47.987  26.018  32.377  1.00  0.00     0.134 A 
ATOM     58  C   UNL A   1      46.637  24.671  33.826  1.00  0.00     0.134 A 
ATOM     59  F   UNL A   1      48.130  26.944  31.416  1.00  0.00    -0.206 F 
ATOM     60  C   UNL A   1      49.139  25.398  32.867  1.00  0.00     0.040 A 
ATOM     61  C   UNL A   1      47.783  24.068  34.345  1.00  0.00     0.040 A 
ATOM     62  F   UNL A   1      45.449  24.283  34.311  1.00  0.00    -0.206 F 
ATOM     63  C   UNL A   1      49.038  24.424  33.858  1.00  0.00     0.006 A 
ENDBRANCH  39  56
ENDBRANCH  13  14
ENDBRANCH   6   8
ENDBRANCH   3   4
ENDBRANCH   2   3
ENDBRANCH   1   2
BRANCH   1  64
ATOM     64  C   UNL A   1      30.952  26.839  26.098  1.00  0.00     0.116 C 
BRANCH  64  65
ATOM     65  N   UNL A   1      30.702  25.459  26.586  1.00  0.00    -0.356 N 
ATOM     66  C   UNL A   1      31.170  24.167  26.488  1.00  0.00     0.228 C 
ATOM     67  H   UNL A   1      29.928  25.474  27.196  1.00  0.00     0.163 HD
ATOM     68  O   UNL A   1      30.645  23.368  27.272  1.00  0.00    -0.274 OA
BRANCH  66  69
ATOM     69  C   UNL A   1      32.289  23.704  25.539  1.00  0.00     0.078 C 
ATOM     70  C   UNL A   1      32.772  24.666  24.411  1.00  0.00     0.051 C 
ATOM     71  C   UNL A   1      31.583  22.618  24.663  1.00  0.00     0.134 C 
ATOM     72  C   UNL A   1      32.503  23.867  23.139  1.00  0.00     0.120 C 
ATOM     73  C   UNL A   1      32.500  21.628  23.971  1.00  0.00     0.036 C 
ATOM     74  O   UNL A   1      31.193  23.377  23.465  1.00  0.00    -0.374 OA
ATOM     75  C   UNL A   1      33.306  22.554  23.061  1.00  0.00     0.035 C 
BRANCH  69  76
ATOM     76  C   UNL A   1      33.526  23.407  26.371  1.00  0.00     0.024 C 
BRANCH  76  77
ATOM     77  C   UNL A   1      34.875  24.034  25.842  1.00  0.00     0.038 C 
BRANCH  77  78
ATOM     78  C   UNL A   1      36.240  23.340  25.785  1.00  0.00    -0.030 A 
ATOM     79  C   UNL A   1      37.462  23.883  26.201  1.00  0.00     0.007 A 
ATOM     80  C   UNL A   1      36.323  21.999  25.423  1.00  0.00     0.114 A 
ATOM     81  C   UNL A   1      38.654  23.161  26.207  1.00  0.00     0.020 A 
ATOM     82  N   UNL A   1      37.456  21.244  25.437  1.00  0.00    -0.264 NA
ATOM     83  C   UNL A   1      38.600  21.846  25.823  1.00  0.00     0.111 A 
ENDBRANCH  77  78
ENDBRANCH  76  77
ENDBRANCH  69  76
ENDBRANCH  66  69
ENDBRANCH  64  65
ENDBRANCH   1  64
TORSDOF 14
ENDMDL
