MODEL 1
REMARK VINA RESULT:     -11.8      0.000      0.000
REMARK SMILES CC1(C)[C@H]2CC[C@]1(C)[C@H](NC(=O)CCC(=O)NCCCCNC(=O)c1ccc(-c3c4nc(c(-c5c(F)cccc5F)c5ccc([nH]5)c(-c5c(F)cccc5F)c5nc(c(-c6c(F)cccc6F)c6ccc3[nH]6)C=C5)C=C4)cc1)C2
REMARK SMILES IDX 19 1 18 2 17 3 15 4 16 5 14 7 13 8 11 9 10 10 12 12 9 13
REMARK SMILES IDX 1 14 2 15 3 16 4 17 7 18 5 19 79 20 6 21 8 22 20 23 21 24
REMARK SMILES IDX 22 25 23 26 24 28 25 29 26 30 78 31 27 32 77 33 28 34 29 35
REMARK SMILES IDX 30 36 71 37 31 38 76 39 70 40 72 41 32 42 75 43 69 44 68 45
REMARK SMILES IDX 33 47 59 48 42 49 58 50 43 51 46 52 57 53 73 54 44 55 45 56
REMARK SMILES IDX 56 58 74 59 47 60 34 61 35 62 40 63 36 64 37 65 39 66 41 67
REMARK SMILES IDX 38 68 60 69 61 70 66 71 62 72 63 73 65 74 67 75 64 76 48 77
REMARK SMILES IDX 49 78 54 79 50 80 51 81 53 82 55 83 52 84
REMARK H PARENT 17 6 10 11 22 27 72 46 46 57
REMARK Flexibility Score: inf
ROOT
ATOM      1  C   UNL A   1      32.990  29.616  25.164  1.00  0.00     0.023 C 
ENDROOT
BRANCH   1   2
ATOM      2  C   UNL A   1      31.569  29.143  24.865  1.00  0.00     0.116 C 
BRANCH   2   3
ATOM      3  N   UNL A   1      31.101  29.601  23.574  1.00  0.00    -0.356 N 
ATOM      4  C   UNL A   1      30.574  28.878  22.554  1.00  0.00     0.220 C 
ATOM      5  O   UNL A   1      30.123  29.488  21.585  1.00  0.00    -0.275 OA
ATOM      6  H   UNL A   1      31.177  30.570  23.414  1.00  0.00     0.163 HD
BRANCH   4   7
ATOM      7  C   UNL A   1      30.489  27.375  22.643  1.00  0.00     0.110 C 
BRANCH   7   8
ATOM      8  C   UNL A   1      31.549  26.518  21.970  1.00  0.00     0.110 C 
BRANCH   8   9
ATOM      9  C   UNL A   1      32.997  26.584  22.388  1.00  0.00     0.220 C 
ATOM     10  N   UNL A   1      33.479  26.004  23.517  1.00  0.00    -0.353 N 
ATOM     11  H   UNL A   1      34.260  26.470  23.892  1.00  0.00     0.163 HD
ATOM     12  O   UNL A   1      33.788  27.265  21.726  1.00  0.00    -0.275 OA
BRANCH  10  13
ATOM     13  C   UNL A   1      33.079  24.831  24.290  1.00  0.00     0.088 C 
ATOM     14  C   UNL A   1      34.455  21.248  25.029  1.00  0.00     0.012 C 
ATOM     15  C   UNL A   1      33.659  22.567  25.048  1.00  0.00    -0.025 C 
ATOM     16  C   UNL A   1      32.201  22.185  25.389  1.00  0.00     0.012 C 
ATOM     17  C   UNL A   1      34.298  23.619  25.983  1.00  0.00    -0.003 C 
ATOM     18  C   UNL A   1      33.812  23.511  23.813  1.00  0.00    -0.007 C 
ATOM     19  C   UNL A   1      35.646  23.964  25.306  1.00  0.00     0.005 C 
ATOM     20  C   UNL A   1      33.398  24.846  25.796  1.00  0.00     0.029 C 
ATOM     21  C   UNL A   1      35.337  23.797  23.810  1.00  0.00     0.010 C 
ATOM     22  C   UNL A   1      33.309  22.953  22.492  1.00  0.00     0.014 C 
ENDBRANCH  10  13
ENDBRANCH   8   9
ENDBRANCH   7   8
ENDBRANCH   4   7
ENDBRANCH   2   3
ENDBRANCH   1   2
BRANCH   1  23
ATOM     23  C   UNL A   1      33.883  28.599  25.857  1.00  0.00     0.023 C 
BRANCH  23  24
ATOM     24  C   UNL A   1      33.843  28.663  27.371  1.00  0.00     0.116 C 
BRANCH  24  25
ATOM     25  N   UNL A   1      33.867  30.022  27.896  1.00  0.00    -0.352 N 
ATOM     26  C   UNL A   1      34.918  30.712  28.449  1.00  0.00     0.251 C 
ATOM     27  H   UNL A   1      33.014  30.512  27.847  1.00  0.00     0.163 HD
ATOM     28  O   UNL A   1      34.768  31.831  28.915  1.00  0.00    -0.269 OA
BRANCH  26  29
ATOM     29  C   UNL A   1      36.226  30.040  28.508  1.00  0.00     0.039 A 
ATOM     30  C   UNL A   1      37.097  30.164  27.425  1.00  0.00     0.014 A 
ATOM     31  C   UNL A   1      36.620  29.400  29.684  1.00  0.00     0.014 A 
ATOM     32  C   UNL A   1      38.407  29.706  27.553  1.00  0.00     0.010 A 
ATOM     33  C   UNL A   1      37.949  29.050  29.847  1.00  0.00     0.010 A 
ATOM     34  C   UNL A   1      38.850  29.188  28.780  1.00  0.00    -0.014 A 
BRANCH  34  35
ATOM     35  C   UNL A   1      40.244  28.733  28.979  1.00  0.00     0.031 A 
ATOM     36  C   UNL A   1      41.237  29.686  29.579  1.00  0.00     0.074 A 
ATOM     37  C   UNL A   1      40.634  27.525  28.532  1.00  0.00     0.049 A 
ATOM     38  N   UNL A   1      42.536  29.578  29.678  1.00  0.00    -0.248 NA
ATOM     39  C   UNL A   1      40.698  30.961  30.083  1.00  0.00     0.031 C 
ATOM     40  C   UNL A   1      39.769  26.534  27.887  1.00  0.00     0.029 A 
ATOM     41  N   UNL A   1      41.868  26.931  28.545  1.00  0.00    -0.354 N 
ATOM     42  C   UNL A   1      42.969  30.789  30.202  1.00  0.00     0.074 A 
ATOM     43  C   UNL A   1      41.806  31.635  30.345  1.00  0.00     0.031 C 
ATOM     44  C   UNL A   1      40.492  25.438  27.606  1.00  0.00     0.029 A 
ATOM     45  C   UNL A   1      41.875  25.667  28.009  1.00  0.00     0.049 A 
ATOM     46  H   UNL A   1      42.674  27.369  28.903  1.00  0.00     0.167 HD
ATOM     47  C   UNL A   1      44.223  31.154  30.559  1.00  0.00     0.037 A 
ATOM     48  C   UNL A   1      42.890  24.795  27.866  1.00  0.00     0.037 A 
ATOM     49  C   UNL A   1      45.359  30.278  30.482  1.00  0.00     0.049 A 
ATOM     50  C   UNL A   1      44.264  25.198  28.320  1.00  0.00     0.074 A 
ATOM     51  C   UNL A   1      46.660  30.510  30.887  1.00  0.00     0.029 A 
ATOM     52  N   UNL A   1      45.317  28.985  29.979  1.00  0.00    -0.354 N 
ATOM     53  N   UNL A   1      44.661  26.332  28.847  1.00  0.00    -0.248 NA
ATOM     54  C   UNL A   1      45.332  24.202  28.160  1.00  0.00     0.031 C 
ATOM     55  C   UNL A   1      47.411  29.361  30.613  1.00  0.00     0.029 A 
ATOM     56  C   UNL A   1      46.569  28.406  30.064  1.00  0.00     0.049 A 
ATOM     57  H   UNL A   1      44.514  28.546  29.616  1.00  0.00     0.167 HD
ATOM     58  C   UNL A   1      46.015  26.177  29.108  1.00  0.00     0.074 A 
ATOM     59  C   UNL A   1      46.371  24.837  28.684  1.00  0.00     0.031 C 
ATOM     60  C   UNL A   1      46.888  27.063  29.649  1.00  0.00     0.037 A 
BRANCH  47  61
ATOM     61  C   UNL A   1      44.404  32.553  31.069  1.00  0.00     0.057 A 
ATOM     62  C   UNL A   1      44.265  32.869  32.428  1.00  0.00     0.134 A 
ATOM     63  C   UNL A   1      44.683  33.603  30.187  1.00  0.00     0.134 A 
ATOM     64  F   UNL A   1      43.977  31.912  33.322  1.00  0.00    -0.206 F 
ATOM     65  C   UNL A   1      44.349  34.186  32.884  1.00  0.00     0.040 A 
ATOM     66  C   UNL A   1      44.799  34.921  30.636  1.00  0.00     0.040 A 
ATOM     67  F   UNL A   1      44.830  33.371  28.874  1.00  0.00    -0.206 F 
ATOM     68  C   UNL A   1      44.619  35.216  31.986  1.00  0.00     0.006 A 
ENDBRANCH  47  61
BRANCH  48  69
ATOM     69  C   UNL A   1      42.630  23.439  27.328  1.00  0.00     0.057 A 
ATOM     70  C   UNL A   1      42.224  22.404  28.180  1.00  0.00     0.134 A 
ATOM     71  C   UNL A   1      42.756  23.143  25.967  1.00  0.00     0.134 A 
ATOM     72  F   UNL A   1      42.100  22.625  29.496  1.00  0.00    -0.206 F 
ATOM     73  C   UNL A   1      41.964  21.121  27.699  1.00  0.00     0.040 A 
ATOM     74  C   UNL A   1      42.482  21.868  25.469  1.00  0.00     0.040 A 
ATOM     75  F   UNL A   1      43.132  24.095  25.099  1.00  0.00    -0.206 F 
ATOM     76  C   UNL A   1      42.088  20.851  26.338  1.00  0.00     0.006 A 
ENDBRANCH  48  69
BRANCH  60  77
ATOM     77  C   UNL A   1      48.295  26.593  29.851  1.00  0.00     0.057 A 
ATOM     78  C   UNL A   1      49.295  26.837  28.903  1.00  0.00     0.134 A 
ATOM     79  C   UNL A   1      48.658  25.930  31.029  1.00  0.00     0.134 A 
ATOM     80  F   UNL A   1      49.003  27.455  27.750  1.00  0.00    -0.206 F 
ATOM     81  C   UNL A   1      50.611  26.424  29.117  1.00  0.00     0.040 A 
ATOM     82  C   UNL A   1      49.974  25.531  31.262  1.00  0.00     0.040 A 
ATOM     83  F   UNL A   1      47.744  25.674  31.977  1.00  0.00    -0.206 F 
ATOM     84  C   UNL A   1      50.954  25.775  30.302  1.00  0.00     0.006 A 
ENDBRANCH  60  77
ENDBRANCH  34  35
ENDBRANCH  26  29
ENDBRANCH  24  25
ENDBRANCH  23  24
ENDBRANCH   1  23
TORSDOF 14
ENDMDL
MODEL 2
REMARK VINA RESULT:     -11.8      2.677      7.510
REMARK SMILES CC1(C)[C@H]2CC[C@]1(C)[C@H](NC(=O)CCC(=O)NCCCCNC(=O)c1ccc(-c3c4nc(c(-c5c(F)cccc5F)c5ccc([nH]5)c(-c5c(F)cccc5F)c5nc(c(-c6c(F)cccc6F)c6ccc3[nH]6)C=C5)C=C4)cc1)C2
REMARK SMILES IDX 19 1 18 2 17 3 15 4 16 5 14 7 13 8 11 9 10 10 12 12 9 13
REMARK SMILES IDX 1 14 2 15 3 16 4 17 7 18 5 19 79 20 6 21 8 22 20 23 21 24
REMARK SMILES IDX 22 25 23 26 24 28 25 29 26 30 78 31 27 32 77 33 28 34 29 35
REMARK SMILES IDX 30 36 71 37 31 38 76 39 70 40 72 41 32 42 75 43 69 44 68 45
REMARK SMILES IDX 33 47 59 48 42 49 58 50 43 51 46 52 57 53 73 54 44 55 45 56
REMARK SMILES IDX 56 58 74 59 47 60 34 61 35 62 40 63 36 64 37 65 39 66 41 67
REMARK SMILES IDX 38 68 60 69 61 70 66 71 62 72 63 73 65 74 67 75 64 76 48 77
REMARK SMILES IDX 49 78 54 79 50 80 51 81 53 82 55 83 52 84
REMARK H PARENT 17 6 10 11 22 27 72 46 46 57
REMARK Flexibility Score: inf
ROOT
ATOM      1  C   UNL A   1      36.217  21.498  25.571  1.00  0.00     0.023 C 
ENDROOT
BRANCH   1   2
ATOM      2  C   UNL A   1      34.982  21.615  24.679  1.00  0.00     0.116 C 
BRANCH   2   3
ATOM      3  N   UNL A   1      34.067  20.510  24.867  1.00  0.00    -0.356 N 
ATOM      4  C   UNL A   1      32.725  20.540  25.067  1.00  0.00     0.220 C 
ATOM      5  O   UNL A   1      32.117  19.470  25.078  1.00  0.00    -0.275 OA
ATOM      6  H   UNL A   1      34.474  19.613  24.847  1.00  0.00     0.163 HD
BRANCH   4   7
ATOM      7  C   UNL A   1      32.000  21.855  25.207  1.00  0.00     0.110 C 
BRANCH   7   8
ATOM      8  C   UNL A   1      31.913  22.529  26.567  1.00  0.00     0.110 C 
BRANCH   8   9
ATOM      9  C   UNL A   1      30.978  23.685  26.814  1.00  0.00     0.220 C 
ATOM     10  N   UNL A   1      31.291  24.976  26.534  1.00  0.00    -0.353 N 
ATOM     11  H   UNL A   1      30.836  25.624  27.119  1.00  0.00     0.163 HD
ATOM     12  O   UNL A   1      29.895  23.481  27.374  1.00  0.00    -0.275 OA
BRANCH  10  13
ATOM     13  C   UNL A   1      32.162  25.604  25.543  1.00  0.00     0.088 C 
ATOM     14  C   UNL A   1      33.045  29.218  24.345  1.00  0.00     0.012 C 
ATOM     15  C   UNL A   1      33.029  27.698  24.592  1.00  0.00    -0.025 C 
ATOM     16  C   UNL A   1      33.483  27.041  23.270  1.00  0.00     0.012 C 
ATOM     17  C   UNL A   1      33.851  27.301  25.840  1.00  0.00    -0.003 C 
ATOM     18  C   UNL A   1      31.728  27.089  25.207  1.00  0.00    -0.007 C 
ATOM     19  C   UNL A   1      33.070  27.917  27.025  1.00  0.00     0.005 C 
ATOM     20  C   UNL A   1      33.641  25.785  25.931  1.00  0.00     0.029 C 
ATOM     21  C   UNL A   1      31.611  27.859  26.549  1.00  0.00     0.010 C 
ATOM     22  C   UNL A   1      30.479  27.201  24.347  1.00  0.00     0.014 C 
ENDBRANCH  10  13
ENDBRANCH   8   9
ENDBRANCH   7   8
ENDBRANCH   4   7
ENDBRANCH   2   3
ENDBRANCH   1   2
BRANCH   1  23
ATOM     23  C   UNL A   1      37.447  20.899  24.906  1.00  0.00     0.023 C 
BRANCH  23  24
ATOM     24  C   UNL A   1      38.727  21.064  25.700  1.00  0.00     0.116 C 
BRANCH  24  25
ATOM     25  N   UNL A   1      39.610  19.907  25.626  1.00  0.00    -0.352 N 
ATOM     26  C   UNL A   1      40.932  19.809  25.987  1.00  0.00     0.251 C 
ATOM     27  H   UNL A   1      39.203  19.084  25.270  1.00  0.00     0.163 HD
ATOM     28  O   UNL A   1      41.567  18.783  25.798  1.00  0.00    -0.269 OA
BRANCH  26  29
ATOM     29  C   UNL A   1      41.576  21.000  26.563  1.00  0.00     0.039 A 
ATOM     30  C   UNL A   1      42.050  21.992  25.705  1.00  0.00     0.014 A 
ATOM     31  C   UNL A   1      41.591  21.173  27.949  1.00  0.00     0.014 A 
ATOM     32  C   UNL A   1      42.474  23.206  26.241  1.00  0.00     0.010 A 
ATOM     33  C   UNL A   1      41.905  22.417  28.468  1.00  0.00     0.010 A 
ATOM     34  C   UNL A   1      42.361  23.439  27.621  1.00  0.00    -0.014 A 
BRANCH  34  35
ATOM     35  C   UNL A   1      42.755  24.729  28.232  1.00  0.00     0.031 A 
ATOM     36  C   UNL A   1      41.697  25.768  28.471  1.00  0.00     0.074 A 
ATOM     37  C   UNL A   1      44.051  25.000  28.468  1.00  0.00     0.049 A 
ATOM     38  N   UNL A   1      41.828  27.021  28.817  1.00  0.00    -0.248 NA
ATOM     39  C   UNL A   1      40.305  25.352  28.229  1.00  0.00     0.031 C 
ATOM     40  C   UNL A   1      45.171  24.087  28.229  1.00  0.00     0.029 A 
ATOM     41  N   UNL A   1      44.645  26.134  28.956  1.00  0.00    -0.354 N 
ATOM     42  C   UNL A   1      40.545  27.552  28.780  1.00  0.00     0.074 A 
ATOM     43  C   UNL A   1      39.661  26.503  28.322  1.00  0.00     0.031 C 
ATOM     44  C   UNL A   1      46.313  24.684  28.611  1.00  0.00     0.029 A 
ATOM     45  C   UNL A   1      46.009  26.031  29.079  1.00  0.00     0.049 A 
ATOM     46  H   UNL A   1      44.142  26.947  29.194  1.00  0.00     0.167 HD
ATOM     47  C   UNL A   1      40.136  28.795  29.124  1.00  0.00     0.037 A 
ATOM     48  C   UNL A   1      46.905  26.930  29.524  1.00  0.00     0.037 A 
ATOM     49  C   UNL A   1      41.013  29.805  29.648  1.00  0.00     0.049 A 
ATOM     50  C   UNL A   1      46.424  28.287  29.954  1.00  0.00     0.074 A 
ATOM     51  C   UNL A   1      40.700  31.072  30.102  1.00  0.00     0.029 A 
ATOM     52  N   UNL A   1      42.383  29.646  29.805  1.00  0.00    -0.354 N 
ATOM     53  N   UNL A   1      45.205  28.770  29.949  1.00  0.00    -0.248 NA
ATOM     54  C   UNL A   1      47.442  29.222  30.451  1.00  0.00     0.031 C 
ATOM     55  C   UNL A   1      41.886  31.688  30.520  1.00  0.00     0.029 A 
ATOM     56  C   UNL A   1      42.931  30.792  30.351  1.00  0.00     0.049 A 
ATOM     57  H   UNL A   1      42.890  28.837  29.564  1.00  0.00     0.167 HD
ATOM     58  C   UNL A   1      45.303  30.054  30.467  1.00  0.00     0.074 A 
ATOM     59  C   UNL A   1      46.702  30.272  30.780  1.00  0.00     0.031 C 
ATOM     60  C   UNL A   1      44.325  30.972  30.667  1.00  0.00     0.037 A 
BRANCH  47  61
ATOM     61  C   UNL A   1      38.679  29.104  28.945  1.00  0.00     0.057 A 
ATOM     62  C   UNL A   1      38.161  29.550  27.721  1.00  0.00     0.134 A 
ATOM     63  C   UNL A   1      37.789  28.991  30.020  1.00  0.00     0.134 A 
ATOM     64  F   UNL A   1      38.965  29.700  26.658  1.00  0.00    -0.206 F 
ATOM     65  C   UNL A   1      36.822  29.918  27.585  1.00  0.00     0.040 A 
ATOM     66  C   UNL A   1      36.441  29.328  29.888  1.00  0.00     0.040 A 
ATOM     67  F   UNL A   1      38.217  28.569  31.219  1.00  0.00    -0.206 F 
ATOM     68  C   UNL A   1      35.957  29.806  28.672  1.00  0.00     0.006 A 
ENDBRANCH  47  61
BRANCH  48  69
ATOM     69  C   UNL A   1      48.333  26.552  29.645  1.00  0.00     0.057 A 
ATOM     70  C   UNL A   1      48.794  25.876  30.782  1.00  0.00     0.134 A 
ATOM     71  C   UNL A   1      49.263  26.830  28.638  1.00  0.00     0.134 A 
ATOM     72  F   UNL A   1      47.951  25.594  31.786  1.00  0.00    -0.206 F 
ATOM     73  C   UNL A   1      50.130  25.500  30.918  1.00  0.00     0.040 A 
ATOM     74  C   UNL A   1      50.600  26.445  28.753  1.00  0.00     0.040 A 
ATOM     75  F   UNL A   1      48.881  27.467  27.521  1.00  0.00    -0.206 F 
ATOM     76  C   UNL A   1      51.037  25.780  29.898  1.00  0.00     0.006 A 
ENDBRANCH  48  69
BRANCH  60  77
ATOM     77  C   UNL A   1      44.731  32.272  31.289  1.00  0.00     0.057 A 
ATOM     78  C   UNL A   1      44.758  32.447  32.676  1.00  0.00     0.134 A 
ATOM     79  C   UNL A   1      45.141  33.344  30.486  1.00  0.00     0.134 A 
ATOM     80  F   UNL A   1      44.362  31.461  33.494  1.00  0.00    -0.206 F 
ATOM     81  C   UNL A   1      45.170  33.653  33.246  1.00  0.00     0.040 A 
ATOM     82  C   UNL A   1      45.574  34.546  31.046  1.00  0.00     0.040 A 
ATOM     83  F   UNL A   1      45.142  33.233  29.150  1.00  0.00    -0.206 F 
ATOM     84  C   UNL A   1      45.585  34.703  32.430  1.00  0.00     0.006 A 
ENDBRANCH  60  77
ENDBRANCH  34  35
ENDBRANCH  26  29
ENDBRANCH  24  25
ENDBRANCH  23  24
ENDBRANCH   1  23
TORSDOF 14
ENDMDL
MODEL 3
REMARK VINA RESULT:     -11.7      2.735      7.782
REMARK SMILES CC1(C)[C@H]2CC[C@]1(C)[C@H](NC(=O)CCC(=O)NCCCCNC(=O)c1ccc(-c3c4nc(c(-c5c(F)cccc5F)c5ccc([nH]5)c(-c5c(F)cccc5F)c5nc(c(-c6c(F)cccc6F)c6ccc3[nH]6)C=C5)C=C4)cc1)C2
REMARK SMILES IDX 19 1 18 2 17 3 15 4 16 5 14 7 13 8 11 9 10 10 12 12 9 13
REMARK SMILES IDX 1 14 2 15 3 16 4 17 7 18 5 19 79 20 6 21 8 22 20 23 21 24
REMARK SMILES IDX 22 25 23 26 24 28 25 29 26 30 78 31 27 32 77 33 28 34 29 35
REMARK SMILES IDX 30 36 71 37 31 38 76 39 70 40 72 41 32 42 75 43 69 44 68 45
REMARK SMILES IDX 33 47 59 48 42 49 58 50 43 51 46 52 57 53 73 54 44 55 45 56
REMARK SMILES IDX 56 58 74 59 47 60 34 61 35 62 40 63 36 64 37 65 39 66 41 67
REMARK SMILES IDX 38 68 60 69 61 70 66 71 62 72 63 73 65 74 67 75 64 76 48 77
REMARK SMILES IDX 49 78 54 79 50 80 51 81 53 82 55 83 52 84
REMARK H PARENT 17 6 10 11 22 27 72 46 46 57
REMARK Flexibility Score: inf
ROOT
ATOM      1  C   UNL A   1      36.777  19.898  24.966  1.00  0.00     0.023 C 
ENDROOT
BRANCH   1   2
ATOM      2  C   UNL A   1      35.542  20.775  25.167  1.00  0.00     0.116 C 
BRANCH   2   3
ATOM      3  N   UNL A   1      34.317  20.005  25.149  1.00  0.00    -0.356 N 
ATOM      4  C   UNL A   1      33.045  20.424  25.370  1.00  0.00     0.220 C 
ATOM      5  O   UNL A   1      32.131  19.622  25.181  1.00  0.00    -0.275 OA
ATOM      6  H   UNL A   1      34.421  19.046  24.949  1.00  0.00     0.163 HD
BRANCH   4   7
ATOM      7  C   UNL A   1      32.766  21.850  25.773  1.00  0.00     0.110 C 
BRANCH   7   8
ATOM      8  C   UNL A   1      31.340  22.374  25.755  1.00  0.00     0.110 C 
BRANCH   8   9
ATOM      9  C   UNL A   1      30.915  23.527  26.630  1.00  0.00     0.220 C 
ATOM     10  N   UNL A   1      31.535  24.734  26.634  1.00  0.00    -0.353 N 
ATOM     11  H   UNL A   1      31.476  25.201  27.499  1.00  0.00     0.163 HD
ATOM     12  O   UNL A   1      30.007  23.362  27.453  1.00  0.00    -0.275 OA
BRANCH  10  13
ATOM     13  C   UNL A   1      32.273  25.486  25.621  1.00  0.00     0.088 C 
ATOM     14  C   UNL A   1      32.616  29.201  24.456  1.00  0.00     0.012 C 
ATOM     15  C   UNL A   1      32.813  27.688  24.675  1.00  0.00    -0.025 C 
ATOM     16  C   UNL A   1      33.293  27.115  23.324  1.00  0.00     0.012 C 
ATOM     17  C   UNL A   1      33.733  27.389  25.881  1.00  0.00    -0.003 C 
ATOM     18  C   UNL A   1      31.631  26.904  25.330  1.00  0.00    -0.007 C 
ATOM     19  C   UNL A   1      32.928  27.880  27.108  1.00  0.00     0.005 C 
ATOM     20  C   UNL A   1      33.730  25.857  25.952  1.00  0.00     0.029 C 
ATOM     21  C   UNL A   1      31.471  27.633  26.690  1.00  0.00     0.010 C 
ATOM     22  C   UNL A   1      30.343  26.859  24.524  1.00  0.00     0.014 C 
ENDBRANCH  10  13
ENDBRANCH   8   9
ENDBRANCH   7   8
ENDBRANCH   4   7
ENDBRANCH   2   3
ENDBRANCH   1   2
BRANCH   1  23
ATOM     23  C   UNL A   1      38.095  20.646  24.845  1.00  0.00     0.023 C 
BRANCH  23  24
ATOM     24  C   UNL A   1      39.006  20.502  26.047  1.00  0.00     0.116 C 
BRANCH  24  25
ATOM     25  N   UNL A   1      40.046  19.497  25.872  1.00  0.00    -0.352 N 
ATOM     26  C   UNL A   1      41.399  19.614  26.075  1.00  0.00     0.251 C 
ATOM     27  H   UNL A   1      39.736  18.613  25.567  1.00  0.00     0.163 HD
ATOM     28  O   UNL A   1      42.162  18.696  25.815  1.00  0.00    -0.269 OA
BRANCH  26  29
ATOM     29  C   UNL A   1      41.911  20.902  26.571  1.00  0.00     0.039 A 
ATOM     30  C   UNL A   1      42.304  21.871  25.648  1.00  0.00     0.014 A 
ATOM     31  C   UNL A   1      41.877  21.176  27.939  1.00  0.00     0.014 A 
ATOM     32  C   UNL A   1      42.594  23.157  26.098  1.00  0.00     0.010 A 
ATOM     33  C   UNL A   1      42.055  22.479  28.368  1.00  0.00     0.010 A 
ATOM     34  C   UNL A   1      42.427  23.478  27.455  1.00  0.00    -0.014 A 
BRANCH  34  35
ATOM     35  C   UNL A   1      42.678  24.841  27.973  1.00  0.00     0.031 A 
ATOM     36  C   UNL A   1      44.075  25.215  28.377  1.00  0.00     0.074 A 
ATOM     37  C   UNL A   1      41.653  25.689  28.177  1.00  0.00     0.049 A 
ATOM     38  N   UNL A   1      44.498  26.271  29.020  1.00  0.00    -0.248 NA
ATOM     39  C   UNL A   1      45.131  24.237  28.065  1.00  0.00     0.031 C 
ATOM     40  C   UNL A   1      40.247  25.416  27.869  1.00  0.00     0.029 A 
ATOM     41  N   UNL A   1      41.639  26.953  28.702  1.00  0.00    -0.354 N 
ATOM     42  C   UNL A   1      45.854  26.056  29.235  1.00  0.00     0.074 A 
ATOM     43  C   UNL A   1      46.168  24.747  28.708  1.00  0.00     0.031 C 
ATOM     44  C   UNL A   1      39.514  26.500  28.173  1.00  0.00     0.029 A 
ATOM     45  C   UNL A   1      40.390  27.522  28.735  1.00  0.00     0.049 A 
ATOM     46  H   UNL A   1      42.449  27.411  29.027  1.00  0.00     0.167 HD
ATOM     47  C   UNL A   1      46.761  26.887  29.798  1.00  0.00     0.037 A 
ATOM     48  C   UNL A   1      40.005  28.736  29.170  1.00  0.00     0.037 A 
ATOM     49  C   UNL A   1      46.451  28.214  30.251  1.00  0.00     0.049 A 
ATOM     50  C   UNL A   1      41.038  29.666  29.740  1.00  0.00     0.074 A 
ATOM     51  C   UNL A   1      47.303  29.174  30.766  1.00  0.00     0.029 A 
ATOM     52  N   UNL A   1      45.182  28.774  30.222  1.00  0.00    -0.354 N 
ATOM     53  N   UNL A   1      42.323  29.469  29.908  1.00  0.00    -0.248 NA
ATOM     54  C   UNL A   1      40.567  30.986  30.181  1.00  0.00     0.031 C 
ATOM     55  C   UNL A   1      46.543  30.312  31.064  1.00  0.00     0.029 A 
ATOM     56  C   UNL A   1      45.226  30.068  30.709  1.00  0.00     0.049 A 
ATOM     57  H   UNL A   1      44.370  28.318  29.903  1.00  0.00     0.167 HD
ATOM     58  C   UNL A   1      42.821  30.647  30.447  1.00  0.00     0.074 A 
ATOM     59  C   UNL A   1      41.698  31.555  30.573  1.00  0.00     0.031 C 
ATOM     60  C   UNL A   1      44.093  30.952  30.806  1.00  0.00     0.037 A 
BRANCH  47  61
ATOM     61  C   UNL A   1      48.163  26.369  29.934  1.00  0.00     0.057 A 
ATOM     62  C   UNL A   1      48.602  25.719  31.096  1.00  0.00     0.134 A 
ATOM     63  C   UNL A   1      49.095  26.557  28.908  1.00  0.00     0.134 A 
ATOM     64  F   UNL A   1      47.764  25.527  32.125  1.00  0.00    -0.206 F 
ATOM     65  C   UNL A   1      49.930  25.318  31.250  1.00  0.00     0.040 A 
ATOM     66  C   UNL A   1      50.419  26.133  29.038  1.00  0.00     0.040 A 
ATOM     67  F   UNL A   1      48.742  27.170  27.768  1.00  0.00    -0.206 F 
ATOM     68  C   UNL A   1      50.842  25.523  30.218  1.00  0.00     0.006 A 
ENDBRANCH  47  61
BRANCH  48  69
ATOM     69  C   UNL A   1      38.592  29.160  29.022  1.00  0.00     0.057 A 
ATOM     70  C   UNL A   1      38.110  29.599  27.783  1.00  0.00     0.134 A 
ATOM     71  C   UNL A   1      37.690  29.122  30.090  1.00  0.00     0.134 A 
ATOM     72  F   UNL A   1      38.933  29.671  26.727  1.00  0.00    -0.206 F 
ATOM     73  C   UNL A   1      36.783  29.996  27.613  1.00  0.00     0.040 A 
ATOM     74  C   UNL A   1      36.355  29.499  29.930  1.00  0.00     0.040 A 
ATOM     75  F   UNL A   1      38.089  28.701  31.299  1.00  0.00    -0.206 F 
ATOM     76  C   UNL A   1      35.900  29.941  28.689  1.00  0.00     0.006 A 
ENDBRANCH  48  69
BRANCH  60  77
ATOM     77  C   UNL A   1      44.339  32.335  31.326  1.00  0.00     0.057 A 
ATOM     78  C   UNL A   1      44.294  32.626  32.693  1.00  0.00     0.134 A 
ATOM     79  C   UNL A   1      44.669  33.374  30.447  1.00  0.00     0.134 A 
ATOM     80  F   UNL A   1      43.969  31.674  33.581  1.00  0.00    -0.206 F 
ATOM     81  C   UNL A   1      44.558  33.911  33.170  1.00  0.00     0.040 A 
ATOM     82  C   UNL A   1      44.954  34.657  30.914  1.00  0.00     0.040 A 
ATOM     83  F   UNL A   1      44.733  33.154  29.126  1.00  0.00    -0.206 F 
ATOM     84  C   UNL A   1      44.896  34.928  32.279  1.00  0.00     0.006 A 
ENDBRANCH  60  77
ENDBRANCH  34  35
ENDBRANCH  26  29
ENDBRANCH  24  25
ENDBRANCH  23  24
ENDBRANCH   1  23
TORSDOF 14
ENDMDL
