MODEL 1
REMARK VINA RESULT:     -11.0      0.000      0.000
REMARK SMILES CC(=O)N[C@H](CC(=O)NCC(=O)NCCCCNC(=O)c1ccc(-c2c3nc(c(-c4c(F)cccc4F)c4ccc([nH]4)c(-c4c(F)cccc4F)c4nc(c(-c5c(F)cccc5F)c5ccc2[nH]5)C=C4)C=C3)cc1)c1cccs1
REMARK SMILES IDX 14 1 13 2 11 3 12 4 10 6 9 7 7 8 8 9 6 11 5 12 4 13 1 14
REMARK SMILES IDX 2 15 3 16 75 18 76 19 79 20 77 21 78 22 15 23 16 24 17 25
REMARK SMILES IDX 18 26 19 27 20 29 21 30 22 31 74 32 23 33 73 34 24 35 25 36
REMARK SMILES IDX 26 37 67 38 27 39 72 40 66 41 68 42 28 43 71 44 65 45 64 46
REMARK SMILES IDX 29 48 55 49 38 50 54 51 39 52 42 53 53 54 69 55 40 56 41 57
REMARK SMILES IDX 52 59 70 60 43 61 30 62 31 63 36 64 32 65 33 66 35 67 37 68
REMARK SMILES IDX 34 69 56 70 57 71 62 72 58 73 59 74 61 75 63 76 60 77 44 78
REMARK SMILES IDX 45 79 50 80 46 81 47 82 49 83 51 84 48 85
REMARK H PARENT 13 5 9 10 4 17 18 28 68 47 42 58
REMARK Flexibility Score: inf
ROOT
ATOM      1  C   UNL A   1      35.133  20.892  24.642  1.00  0.00     0.116 C 
ENDROOT
BRANCH   1   2
ATOM      2  N   UNL A   1      34.153  19.965  25.171  1.00  0.00    -0.355 N 
ATOM      3  C   UNL A   1      32.792  20.078  25.244  1.00  0.00     0.239 C 
ATOM      4  O   UNL A   1      32.154  19.029  25.386  1.00  0.00    -0.273 OA
ATOM      5  H   UNL A   1      34.524  19.127  25.532  1.00  0.00     0.163 HD
BRANCH   3   6
ATOM      6  C   UNL A   1      32.032  21.413  25.038  1.00  0.00     0.216 C 
BRANCH   6   7
ATOM      7  N   UNL A   1      31.162  21.827  26.122  1.00  0.00    -0.347 N 
ATOM      8  C   UNL A   1      30.574  23.018  26.398  1.00  0.00     0.222 C 
ATOM      9  O   UNL A   1      30.126  23.163  27.538  1.00  0.00    -0.275 OA
ATOM     10  H   UNL A   1      30.962  21.117  26.774  1.00  0.00     0.164 HD
BRANCH   8  11
ATOM     11  C   UNL A   1      30.418  24.130  25.378  1.00  0.00     0.130 C 
BRANCH  11  12
ATOM     12  C   UNL A   1      31.331  25.377  25.435  1.00  0.00     0.131 C 
BRANCH  12  13
ATOM     13  N   UNL A   1      31.226  26.152  26.654  1.00  0.00    -0.348 N 
ATOM     14  C   UNL A   1      31.629  28.422  25.725  1.00  0.00     0.114 C 
ATOM     15  C   UNL A   1      31.423  27.478  26.873  1.00  0.00     0.217 C 
ATOM     16  O   UNL A   1      31.408  27.874  28.036  1.00  0.00    -0.275 OA
ATOM     17  H   UNL A   1      30.972  25.635  27.451  1.00  0.00     0.164 HD
ENDBRANCH  12  13
BRANCH  12  18
ATOM     18  C   UNL A   1      32.763  25.014  25.069  1.00  0.00     0.027 A 
ATOM     19  C   UNL A   1      33.809  24.882  25.970  1.00  0.00     0.017 A 
ATOM     20  S   UNL A   1      33.307  24.697  23.467  1.00  0.00    -0.147 S 
ATOM     21  C   UNL A   1      35.048  24.578  25.345  1.00  0.00     0.012 A 
ATOM     22  C   UNL A   1      34.916  24.453  23.983  1.00  0.00     0.065 A 
ENDBRANCH  12  18
ENDBRANCH  11  12
ENDBRANCH   8  11
ENDBRANCH   6   7
ENDBRANCH   3   6
ENDBRANCH   1   2
BRANCH   1  23
ATOM     23  C   UNL A   1      36.282  21.224  25.586  1.00  0.00     0.023 C 
BRANCH  23  24
ATOM     24  C   UNL A   1      37.673  21.213  24.960  1.00  0.00     0.023 C 
BRANCH  24  25
ATOM     25  C   UNL A   1      38.859  21.135  25.925  1.00  0.00     0.116 C 
BRANCH  25  26
ATOM     26  N   UNL A   1      39.762  20.014  25.706  1.00  0.00    -0.352 N 
ATOM     27  C   UNL A   1      41.091  19.891  26.047  1.00  0.00     0.251 C 
ATOM     28  H   UNL A   1      39.367  19.235  25.252  1.00  0.00     0.163 HD
ATOM     29  O   UNL A   1      41.705  18.846  25.851  1.00  0.00    -0.269 OA
BRANCH  27  30
ATOM     30  C   UNL A   1      41.804  21.061  26.591  1.00  0.00     0.039 A 
ATOM     31  C   UNL A   1      42.297  22.010  25.694  1.00  0.00     0.014 A 
ATOM     32  C   UNL A   1      41.907  21.263  27.969  1.00  0.00     0.014 A 
ATOM     33  C   UNL A   1      42.773  23.228  26.177  1.00  0.00     0.010 A 
ATOM     34  C   UNL A   1      42.320  22.503  28.448  1.00  0.00     0.010 A 
ATOM     35  C   UNL A   1      42.719  23.508  27.552  1.00  0.00    -0.014 A 
BRANCH  35  36
ATOM     36  C   UNL A   1      42.987  24.877  28.058  1.00  0.00     0.031 A 
ATOM     37  C   UNL A   1      44.367  25.285  28.472  1.00  0.00     0.074 A 
ATOM     38  C   UNL A   1      41.953  25.727  28.220  1.00  0.00     0.049 A 
ATOM     39  N   UNL A   1      44.771  26.417  28.992  1.00  0.00    -0.248 NA
ATOM     40  C   UNL A   1      45.431  24.285  28.302  1.00  0.00     0.031 C 
ATOM     41  C   UNL A   1      40.552  25.425  27.913  1.00  0.00     0.029 A 
ATOM     42  N   UNL A   1      41.916  27.013  28.695  1.00  0.00    -0.354 N 
ATOM     43  C   UNL A   1      46.131  26.262  29.221  1.00  0.00     0.074 A 
ATOM     44  C   UNL A   1      46.475  24.912  28.827  1.00  0.00     0.031 C 
ATOM     45  C   UNL A   1      39.799  26.500  28.191  1.00  0.00     0.029 A 
ATOM     46  C   UNL A   1      40.654  27.555  28.724  1.00  0.00     0.049 A 
ATOM     47  H   UNL A   1      42.719  27.501  28.989  1.00  0.00     0.167 HD
ATOM     48  C   UNL A   1      47.016  27.171  29.694  1.00  0.00     0.037 A 
ATOM     49  C   UNL A   1      40.231  28.764  29.137  1.00  0.00     0.037 A 
ATOM     50  C   UNL A   1      46.675  28.517  30.073  1.00  0.00     0.049 A 
ATOM     51  C   UNL A   1      41.234  29.755  29.655  1.00  0.00     0.074 A 
ATOM     52  C   UNL A   1      47.511  29.528  30.513  1.00  0.00     0.029 A 
ATOM     53  N   UNL A   1      45.390  29.040  30.061  1.00  0.00    -0.354 N 
ATOM     54  N   UNL A   1      42.531  29.622  29.796  1.00  0.00    -0.248 NA
ATOM     55  C   UNL A   1      40.718  31.069  30.064  1.00  0.00     0.031 C 
ATOM     56  C   UNL A   1      46.729  30.651  30.800  1.00  0.00     0.029 A 
ATOM     57  C   UNL A   1      45.410  30.353  30.500  1.00  0.00     0.049 A 
ATOM     58  H   UNL A   1      44.584  28.550  29.780  1.00  0.00     0.167 HD
ATOM     59  C   UNL A   1      42.987  30.836  30.287  1.00  0.00     0.074 A 
ATOM     60  C   UNL A   1      41.831  31.701  30.406  1.00  0.00     0.031 C 
ATOM     61  C   UNL A   1      44.251  31.204  30.608  1.00  0.00     0.037 A 
BRANCH  48  62
ATOM     62  C   UNL A   1      48.445  26.733  29.822  1.00  0.00     0.057 A 
ATOM     63  C   UNL A   1      48.915  26.093  30.977  1.00  0.00     0.134 A 
ATOM     64  C   UNL A   1      49.352  26.929  28.775  1.00  0.00     0.134 A 
ATOM     65  F   UNL A   1      48.098  25.886  32.021  1.00  0.00    -0.206 F 
ATOM     66  C   UNL A   1      50.245  25.688  31.095  1.00  0.00     0.040 A 
ATOM     67  C   UNL A   1      50.679  26.507  28.873  1.00  0.00     0.040 A 
ATOM     68  F   UNL A   1      48.964  27.531  27.640  1.00  0.00    -0.206 F 
ATOM     69  C   UNL A   1      51.130  25.890  30.038  1.00  0.00     0.006 A 
ENDBRANCH  48  62
BRANCH  49  70
ATOM     70  C   UNL A   1      38.793  29.114  29.055  1.00  0.00     0.057 A 
ATOM     71  C   UNL A   1      38.226  29.550  27.852  1.00  0.00     0.134 A 
ATOM     72  C   UNL A   1      37.953  29.025  30.172  1.00  0.00     0.134 A 
ATOM     73  F   UNL A   1      38.985  29.672  26.754  1.00  0.00    -0.206 F 
ATOM     74  C   UNL A   1      36.878  29.903  27.765  1.00  0.00     0.040 A 
ATOM     75  C   UNL A   1      36.599  29.353  30.093  1.00  0.00     0.040 A 
ATOM     76  F   UNL A   1      38.436  28.608  31.351  1.00  0.00    -0.206 F 
ATOM     77  C   UNL A   1      36.060  29.800  28.888  1.00  0.00     0.006 A 
ENDBRANCH  49  70
BRANCH  61  78
ATOM     78  C   UNL A   1      44.454  32.608  31.092  1.00  0.00     0.057 A 
ATOM     79  C   UNL A   1      44.426  32.930  32.455  1.00  0.00     0.134 A 
ATOM     80  C   UNL A   1      44.717  33.642  30.186  1.00  0.00     0.134 A 
ATOM     81  F   UNL A   1      44.164  31.986  33.371  1.00  0.00    -0.206 F 
ATOM     82  C   UNL A   1      44.634  34.237  32.898  1.00  0.00     0.040 A 
ATOM     83  C   UNL A   1      44.949  34.949  30.619  1.00  0.00     0.040 A 
ATOM     84  F   UNL A   1      44.763  33.399  28.868  1.00  0.00    -0.206 F 
ATOM     85  C   UNL A   1      44.904  35.249  31.979  1.00  0.00     0.006 A 
ENDBRANCH  61  78
ENDBRANCH  35  36
ENDBRANCH  27  30
ENDBRANCH  25  26
ENDBRANCH  24  25
ENDBRANCH  23  24
ENDBRANCH   1  23
TORSDOF 16
ENDMDL
MODEL 2
REMARK VINA RESULT:     -10.8      2.519      7.715
REMARK SMILES CC(=O)N[C@H](CC(=O)NCC(=O)NCCCCNC(=O)c1ccc(-c2c3nc(c(-c4c(F)cccc4F)c4ccc([nH]4)c(-c4c(F)cccc4F)c4nc(c(-c5c(F)cccc5F)c5ccc2[nH]5)C=C4)C=C3)cc1)c1cccs1
REMARK SMILES IDX 14 1 13 2 11 3 12 4 10 6 9 7 7 8 8 9 6 11 5 12 4 13 1 14
REMARK SMILES IDX 2 15 3 16 75 18 76 19 79 20 77 21 78 22 15 23 16 24 17 25
REMARK SMILES IDX 18 26 19 27 20 29 21 30 22 31 74 32 23 33 73 34 24 35 25 36
REMARK SMILES IDX 26 37 67 38 27 39 72 40 66 41 68 42 28 43 71 44 65 45 64 46
REMARK SMILES IDX 29 48 55 49 38 50 54 51 39 52 42 53 53 54 69 55 40 56 41 57
REMARK SMILES IDX 52 59 70 60 43 61 30 62 31 63 36 64 32 65 33 66 35 67 37 68
REMARK SMILES IDX 34 69 56 70 57 71 62 72 58 73 59 74 61 75 63 76 60 77 44 78
REMARK SMILES IDX 45 79 50 80 46 81 47 82 49 83 51 84 48 85
REMARK H PARENT 13 5 9 10 4 17 18 28 68 47 42 58
REMARK Flexibility Score: inf
ROOT
ATOM      1  C   UNL A   1      32.331  29.225  24.516  1.00  0.00     0.116 C 
ENDROOT
BRANCH   1   2
ATOM      2  N   UNL A   1      31.516  29.469  23.342  1.00  0.00    -0.355 N 
ATOM      3  C   UNL A   1      30.758  28.598  22.608  1.00  0.00     0.239 C 
ATOM      4  O   UNL A   1      29.876  29.092  21.898  1.00  0.00    -0.273 OA
ATOM      5  H   UNL A   1      31.507  30.401  23.027  1.00  0.00     0.163 HD
BRANCH   3   6
ATOM      6  C   UNL A   1      30.875  27.056  22.722  1.00  0.00     0.216 C 
BRANCH   6   7
ATOM      7  N   UNL A   1      31.512  26.380  21.609  1.00  0.00    -0.347 N 
ATOM      8  C   UNL A   1      32.750  25.840  21.476  1.00  0.00     0.222 C 
ATOM      9  O   UNL A   1      33.123  25.590  20.326  1.00  0.00    -0.275 OA
ATOM     10  H   UNL A   1      30.946  26.297  20.808  1.00  0.00     0.164 HD
BRANCH   8  11
ATOM     11  C   UNL A   1      33.649  25.506  22.650  1.00  0.00     0.130 C 
BRANCH  11  12
ATOM     12  C   UNL A   1      33.571  24.117  23.325  1.00  0.00     0.131 C 
BRANCH  12  13
ATOM     13  N   UNL A   1      32.935  23.089  22.528  1.00  0.00    -0.348 N 
ATOM     14  C   UNL A   1      31.947  21.719  24.351  1.00  0.00     0.114 C 
ATOM     15  C   UNL A   1      32.274  21.965  22.908  1.00  0.00     0.217 C 
ATOM     16  O   UNL A   1      31.942  21.172  22.029  1.00  0.00    -0.275 OA
ATOM     17  H   UNL A   1      32.990  23.227  21.556  1.00  0.00     0.164 HD
ENDBRANCH  12  13
BRANCH  12  18
ATOM     18  C   UNL A   1      34.932  23.707  23.870  1.00  0.00     0.027 A 
ATOM     19  C   UNL A   1      35.894  23.000  23.165  1.00  0.00     0.017 A 
ATOM     20  S   UNL A   1      35.493  24.069  25.456  1.00  0.00    -0.147 S 
ATOM     21  C   UNL A   1      37.054  22.716  23.937  1.00  0.00     0.012 A 
ATOM     22  C   UNL A   1      36.964  23.239  25.205  1.00  0.00     0.065 A 
ENDBRANCH  12  18
ENDBRANCH  11  12
ENDBRANCH   8  11
ENDBRANCH   6   7
ENDBRANCH   3   6
ENDBRANCH   1   2
BRANCH   1  23
ATOM     23  C   UNL A   1      31.551  28.940  25.793  1.00  0.00     0.023 C 
BRANCH  23  24
ATOM     24  C   UNL A   1      32.396  28.728  27.047  1.00  0.00     0.023 C 
BRANCH  24  25
ATOM     25  C   UNL A   1      33.754  29.433  27.086  1.00  0.00     0.116 C 
BRANCH  25  26
ATOM     26  N   UNL A   1      33.831  30.579  27.980  1.00  0.00    -0.352 N 
ATOM     27  C   UNL A   1      34.902  31.037  28.714  1.00  0.00     0.251 C 
ATOM     28  H   UNL A   1      33.000  31.100  28.073  1.00  0.00     0.163 HD
ATOM     29  O   UNL A   1      34.827  32.067  29.378  1.00  0.00    -0.269 OA
BRANCH  27  30
ATOM     30  C   UNL A   1      36.138  30.235  28.757  1.00  0.00     0.039 A 
ATOM     31  C   UNL A   1      36.982  30.261  27.645  1.00  0.00     0.014 A 
ATOM     32  C   UNL A   1      36.503  29.537  29.911  1.00  0.00     0.014 A 
ATOM     33  C   UNL A   1      38.255  29.700  27.737  1.00  0.00     0.010 A 
ATOM     34  C   UNL A   1      37.796  29.035  30.025  1.00  0.00     0.010 A 
ATOM     35  C   UNL A   1      38.694  29.149  28.952  1.00  0.00    -0.014 A 
BRANCH  35  36
ATOM     36  C   UNL A   1      40.117  28.774  29.143  1.00  0.00     0.031 A 
ATOM     37  C   UNL A   1      41.100  29.753  29.706  1.00  0.00     0.074 A 
ATOM     38  C   UNL A   1      40.534  27.562  28.722  1.00  0.00     0.049 A 
ATOM     39  N   UNL A   1      42.390  29.617  29.884  1.00  0.00    -0.248 NA
ATOM     40  C   UNL A   1      40.572  31.067  30.100  1.00  0.00     0.031 C 
ATOM     41  C   UNL A   1      39.685  26.543  28.098  1.00  0.00     0.029 A 
ATOM     42  N   UNL A   1      41.779  26.987  28.744  1.00  0.00    -0.354 N 
ATOM     43  C   UNL A   1      42.829  30.827  30.401  1.00  0.00     0.074 A 
ATOM     44  C   UNL A   1      41.677  31.703  30.464  1.00  0.00     0.031 C 
ATOM     45  C   UNL A   1      40.430  25.464  27.814  1.00  0.00     0.029 A 
ATOM     46  C   UNL A   1      41.811  25.723  28.205  1.00  0.00     0.049 A 
ATOM     47  H   UNL A   1      42.574  27.436  29.110  1.00  0.00     0.167 HD
ATOM     48  C   UNL A   1      44.074  31.170  30.807  1.00  0.00     0.037 A 
ATOM     49  C   UNL A   1      42.840  24.870  28.038  1.00  0.00     0.037 A 
ATOM     50  C   UNL A   1      45.216  30.295  30.755  1.00  0.00     0.049 A 
ATOM     51  C   UNL A   1      44.210  25.274  28.500  1.00  0.00     0.074 A 
ATOM     52  C   UNL A   1      46.507  30.533  31.193  1.00  0.00     0.029 A 
ATOM     53  N   UNL A   1      45.204  29.011  30.229  1.00  0.00    -0.354 N 
ATOM     54  N   UNL A   1      44.598  26.395  29.057  1.00  0.00    -0.248 NA
ATOM     55  C   UNL A   1      45.288  24.290  28.319  1.00  0.00     0.031 C 
ATOM     56  C   UNL A   1      47.284  29.408  30.902  1.00  0.00     0.029 A 
ATOM     57  C   UNL A   1      46.468  28.453  30.318  1.00  0.00     0.049 A 
ATOM     58  H   UNL A   1      44.413  28.563  29.850  1.00  0.00     0.167 HD
ATOM     59  C   UNL A   1      45.953  26.245  29.313  1.00  0.00     0.074 A 
ATOM     60  C   UNL A   1      46.319  24.918  28.864  1.00  0.00     0.031 C 
ATOM     61  C   UNL A   1      46.817  27.127  29.871  1.00  0.00     0.037 A 
BRANCH  48  62
ATOM     62  C   UNL A   1      44.261  32.556  31.349  1.00  0.00     0.057 A 
ATOM     63  C   UNL A   1      44.550  33.639  30.509  1.00  0.00     0.134 A 
ATOM     64  C   UNL A   1      44.126  32.816  32.717  1.00  0.00     0.134 A 
ATOM     65  F   UNL A   1      44.704  33.455  29.189  1.00  0.00    -0.206 F 
ATOM     66  C   UNL A   1      44.726  34.928  31.015  1.00  0.00     0.040 A 
ATOM     67  C   UNL A   1      44.275  34.105  33.232  1.00  0.00     0.040 A 
ATOM     68  F   UNL A   1      43.844  31.823  33.575  1.00  0.00    -0.206 F 
ATOM     69  C   UNL A   1      44.582  35.164  32.381  1.00  0.00     0.006 A 
ENDBRANCH  48  62
BRANCH  49  70
ATOM     70  C   UNL A   1      42.607  23.539  27.427  1.00  0.00     0.057 A 
ATOM     71  C   UNL A   1      42.707  23.356  26.044  1.00  0.00     0.134 A 
ATOM     72  C   UNL A   1      42.277  22.423  28.205  1.00  0.00     0.134 A 
ATOM     73  F   UNL A   1      43.002  24.392  25.245  1.00  0.00    -0.206 F 
ATOM     74  C   UNL A   1      42.470  22.114  25.452  1.00  0.00     0.040 A 
ATOM     75  C   UNL A   1      42.059  21.171  27.629  1.00  0.00     0.040 A 
ATOM     76  F   UNL A   1      42.172  22.534  29.537  1.00  0.00    -0.206 F 
ATOM     77  C   UNL A   1      42.150  21.016  26.248  1.00  0.00     0.006 A 
ENDBRANCH  49  70
BRANCH  61  78
ATOM     78  C   UNL A   1      48.234  26.675  30.055  1.00  0.00     0.057 A 
ATOM     79  C   UNL A   1      48.641  25.965  31.192  1.00  0.00     0.134 A 
ATOM     80  C   UNL A   1      49.194  26.921  29.066  1.00  0.00     0.134 A 
ATOM     81  F   UNL A   1      47.772  25.710  32.181  1.00  0.00    -0.206 F 
ATOM     82  C   UNL A   1      49.959  25.532  31.346  1.00  0.00     0.040 A 
ATOM     83  C   UNL A   1      50.509  26.474  29.199  1.00  0.00     0.040 A 
ATOM     84  F   UNL A   1      48.868  27.591  27.951  1.00  0.00    -0.206 F 
ATOM     85  C   UNL A   1      50.895  25.780  30.345  1.00  0.00     0.006 A 
ENDBRANCH  61  78
ENDBRANCH  35  36
ENDBRANCH  27  30
ENDBRANCH  25  26
ENDBRANCH  24  25
ENDBRANCH  23  24
ENDBRANCH   1  23
TORSDOF 16
ENDMDL
MODEL 3
REMARK VINA RESULT:     -10.7      2.416      7.794
REMARK SMILES CC(=O)N[C@H](CC(=O)NCC(=O)NCCCCNC(=O)c1ccc(-c2c3nc(c(-c4c(F)cccc4F)c4ccc([nH]4)c(-c4c(F)cccc4F)c4nc(c(-c5c(F)cccc5F)c5ccc2[nH]5)C=C4)C=C3)cc1)c1cccs1
REMARK SMILES IDX 14 1 13 2 11 3 12 4 10 6 9 7 7 8 8 9 6 11 5 12 4 13 1 14
REMARK SMILES IDX 2 15 3 16 75 18 76 19 79 20 77 21 78 22 15 23 16 24 17 25
REMARK SMILES IDX 18 26 19 27 20 29 21 30 22 31 74 32 23 33 73 34 24 35 25 36
REMARK SMILES IDX 26 37 67 38 27 39 72 40 66 41 68 42 28 43 71 44 65 45 64 46
REMARK SMILES IDX 29 48 55 49 38 50 54 51 39 52 42 53 53 54 69 55 40 56 41 57
REMARK SMILES IDX 52 59 70 60 43 61 30 62 31 63 36 64 32 65 33 66 35 67 37 68
REMARK SMILES IDX 34 69 56 70 57 71 62 72 58 73 59 74 61 75 63 76 60 77 44 78
REMARK SMILES IDX 45 79 50 80 46 81 47 82 49 83 51 84 48 85
REMARK H PARENT 13 5 9 10 4 17 18 28 68 47 42 58
REMARK Flexibility Score: inf
ROOT
ATOM      1  C   UNL A   1      32.275  29.185  24.686  1.00  0.00     0.116 C 
ENDROOT
BRANCH   1   2
ATOM      2  N   UNL A   1      31.544  29.544  23.487  1.00  0.00    -0.355 N 
ATOM      3  C   UNL A   1      30.749  28.773  22.684  1.00  0.00     0.239 C 
ATOM      4  O   UNL A   1      29.950  29.371  21.954  1.00  0.00    -0.273 OA
ATOM      5  H   UNL A   1      31.632  30.485  23.211  1.00  0.00     0.163 HD
BRANCH   3   6
ATOM      6  C   UNL A   1      30.724  27.224  22.738  1.00  0.00     0.216 C 
BRANCH   6   7
ATOM      7  N   UNL A   1      31.718  26.540  21.934  1.00  0.00    -0.347 N 
ATOM      8  C   UNL A   1      32.976  26.122  22.224  1.00  0.00     0.222 C 
ATOM      9  O   UNL A   1      33.697  25.832  21.266  1.00  0.00    -0.275 OA
ATOM     10  H   UNL A   1      31.428  26.344  21.014  1.00  0.00     0.164 HD
BRANCH   8  11
ATOM     11  C   UNL A   1      33.501  25.967  23.639  1.00  0.00     0.130 C 
BRANCH  11  12
ATOM     12  C   UNL A   1      33.939  24.579  24.162  1.00  0.00     0.131 C 
BRANCH  12  13
ATOM     13  N   UNL A   1      35.223  24.560  24.832  1.00  0.00    -0.348 N 
ATOM     14  C   UNL A   1      36.348  22.792  23.496  1.00  0.00     0.114 C 
ATOM     15  C   UNL A   1      36.298  23.751  24.648  1.00  0.00     0.217 C 
ATOM     16  O   UNL A   1      37.229  23.847  25.446  1.00  0.00    -0.275 OA
ATOM     17  H   UNL A   1      35.334  25.243  25.531  1.00  0.00     0.164 HD
ENDBRANCH  12  13
BRANCH  12  18
ATOM     18  C   UNL A   1      32.824  23.932  24.971  1.00  0.00     0.027 A 
ATOM     19  C   UNL A   1      32.767  23.883  26.356  1.00  0.00     0.017 A 
ATOM     20  S   UNL A   1      31.445  23.164  24.285  1.00  0.00    -0.147 S 
ATOM     21  C   UNL A   1      31.632  23.178  26.842  1.00  0.00     0.012 A 
ATOM     22  C   UNL A   1      30.832  22.731  25.819  1.00  0.00     0.065 A 
ENDBRANCH  12  18
ENDBRANCH  11  12
ENDBRANCH   8  11
ENDBRANCH   6   7
ENDBRANCH   3   6
ENDBRANCH   1   2
BRANCH   1  23
ATOM     23  C   UNL A   1      31.436  28.543  25.784  1.00  0.00     0.023 C 
BRANCH  23  24
ATOM     24  C   UNL A   1      32.023  28.619  27.190  1.00  0.00     0.023 C 
BRANCH  24  25
ATOM     25  C   UNL A   1      33.463  29.126  27.307  1.00  0.00     0.116 C 
BRANCH  25  26
ATOM     26  N   UNL A   1      33.613  30.419  27.957  1.00  0.00    -0.352 N 
ATOM     27  C   UNL A   1      34.744  30.997  28.490  1.00  0.00     0.251 C 
ATOM     28  H   UNL A   1      32.791  30.958  28.024  1.00  0.00     0.163 HD
ATOM     29  O   UNL A   1      34.723  32.135  28.952  1.00  0.00    -0.269 OA
BRANCH  27  30
ATOM     30  C   UNL A   1      35.984  30.204  28.572  1.00  0.00     0.039 A 
ATOM     31  C   UNL A   1      36.846  30.210  27.473  1.00  0.00     0.014 A 
ATOM     32  C   UNL A   1      36.334  29.535  29.747  1.00  0.00     0.014 A 
ATOM     33  C   UNL A   1      38.121  29.660  27.599  1.00  0.00     0.010 A 
ATOM     34  C   UNL A   1      37.629  29.044  29.894  1.00  0.00     0.010 A 
ATOM     35  C   UNL A   1      38.544  29.140  28.833  1.00  0.00    -0.014 A 
BRANCH  35  36
ATOM     36  C   UNL A   1      39.965  28.778  29.056  1.00  0.00     0.031 A 
ATOM     37  C   UNL A   1      40.927  29.769  29.637  1.00  0.00     0.074 A 
ATOM     38  C   UNL A   1      40.403  27.569  28.648  1.00  0.00     0.049 A 
ATOM     39  N   UNL A   1      42.214  29.645  29.843  1.00  0.00    -0.248 NA
ATOM     40  C   UNL A   1      40.378  31.079  30.016  1.00  0.00     0.031 C 
ATOM     41  C   UNL A   1      39.577  26.541  28.009  1.00  0.00     0.029 A 
ATOM     42  N   UNL A   1      41.651  27.005  28.698  1.00  0.00    -0.354 N 
ATOM     43  C   UNL A   1      42.630  30.861  30.366  1.00  0.00     0.074 A 
ATOM     44  C   UNL A   1      41.469  31.726  30.401  1.00  0.00     0.031 C 
ATOM     45  C   UNL A   1      40.337  25.467  27.745  1.00  0.00     0.029 A 
ATOM     46  C   UNL A   1      41.707  25.741  28.164  1.00  0.00     0.049 A 
ATOM     47  H   UNL A   1      42.434  27.463  29.081  1.00  0.00     0.167 HD
ATOM     48  C   UNL A   1      43.863  31.216  30.797  1.00  0.00     0.037 A 
ATOM     49  C   UNL A   1      42.747  24.897  28.023  1.00  0.00     0.037 A 
ATOM     50  C   UNL A   1      45.014  30.351  30.773  1.00  0.00     0.049 A 
ATOM     51  C   UNL A   1      44.103  25.314  28.513  1.00  0.00     0.074 A 
ATOM     52  C   UNL A   1      46.293  30.603  31.238  1.00  0.00     0.029 A 
ATOM     53  N   UNL A   1      45.025  29.066  30.251  1.00  0.00    -0.354 N 
ATOM     54  N   UNL A   1      44.469  26.441  29.074  1.00  0.00    -0.248 NA
ATOM     55  C   UNL A   1      45.193  24.340  28.359  1.00  0.00     0.031 C 
ATOM     56  C   UNL A   1      47.087  29.484  30.967  1.00  0.00     0.029 A 
ATOM     57  C   UNL A   1      46.292  28.520  30.369  1.00  0.00     0.049 A 
ATOM     58  H   UNL A   1      44.247  28.610  29.857  1.00  0.00     0.167 HD
ATOM     59  C   UNL A   1      45.819  26.304  29.360  1.00  0.00     0.074 A 
ATOM     60  C   UNL A   1      46.207  24.979  28.924  1.00  0.00     0.031 C 
ATOM     61  C   UNL A   1      46.662  27.196  29.934  1.00  0.00     0.037 A 
BRANCH  48  62
ATOM     62  C   UNL A   1      44.025  32.605  31.339  1.00  0.00     0.057 A 
ATOM     63  C   UNL A   1      44.328  33.688  30.502  1.00  0.00     0.134 A 
ATOM     64  C   UNL A   1      43.853  32.869  32.702  1.00  0.00     0.134 A 
ATOM     65  F   UNL A   1      44.518  33.500  29.188  1.00  0.00    -0.206 F 
ATOM     66  C   UNL A   1      44.481  34.980  31.008  1.00  0.00     0.040 A 
ATOM     67  C   UNL A   1      43.979  34.161  33.216  1.00  0.00     0.040 A 
ATOM     68  F   UNL A   1      43.555  31.878  33.556  1.00  0.00    -0.206 F 
ATOM     69  C   UNL A   1      44.300  35.219  32.369  1.00  0.00     0.006 A 
ENDBRANCH  48  62
BRANCH  49  70
ATOM     70  C   UNL A   1      42.540  23.562  27.411  1.00  0.00     0.057 A 
ATOM     71  C   UNL A   1      42.178  22.460  28.194  1.00  0.00     0.134 A 
ATOM     72  C   UNL A   1      42.699  23.354  26.036  1.00  0.00     0.134 A 
ATOM     73  F   UNL A   1      42.029  22.594  29.519  1.00  0.00    -0.206 F 
ATOM     74  C   UNL A   1      42.000  21.193  27.635  1.00  0.00     0.040 A 
ATOM     75  C   UNL A   1      42.503  22.098  25.461  1.00  0.00     0.040 A 
ATOM     76  F   UNL A   1      43.038  24.372  25.232  1.00  0.00    -0.206 F 
ATOM     77  C   UNL A   1      42.158  21.012  26.262  1.00  0.00     0.006 A 
ENDBRANCH  49  70
BRANCH  61  78
ATOM     78  C   UNL A   1      48.080  26.758  30.150  1.00  0.00     0.057 A 
ATOM     79  C   UNL A   1      49.095  27.068  29.235  1.00  0.00     0.134 A 
ATOM     80  C   UNL A   1      48.439  26.050  31.302  1.00  0.00     0.134 A 
ATOM     81  F   UNL A   1      48.812  27.731  28.104  1.00  0.00    -0.206 F 
ATOM     82  C   UNL A   1      50.415  26.671  29.452  1.00  0.00     0.040 A 
ATOM     83  C   UNL A   1      49.760  25.668  31.541  1.00  0.00     0.040 A 
ATOM     84  F   UNL A   1      47.516  25.726  32.220  1.00  0.00    -0.206 F 
ATOM     85  C   UNL A   1      50.752  25.976  30.611  1.00  0.00     0.006 A 
ENDBRANCH  61  78
ENDBRANCH  35  36
ENDBRANCH  27  30
ENDBRANCH  25  26
ENDBRANCH  24  25
ENDBRANCH  23  24
ENDBRANCH   1  23
TORSDOF 16
ENDMDL
