MODEL 1
REMARK VINA RESULT:     -12.4      0.000      0.000
REMARK SMILES CC(C)c1cc2c(cc1Cl)C=C(C(=O)NCCCCNC(=O)c1ccc(-c3c4nc(c(-c5c(F)cccc5F)c5ccc([nH]5)c(-c5c(F)cccc5F)c5nc(c(-c6c(F)cccc6F)c6ccc3[nH]6)C=C5)C=C4)cc1)[C@@H](C(F)(F)F)O2
REMARK SMILES IDX 18 1 17 2 16 3 15 4 13 5 14 6 12 8 4 9 5 10 9 11 6 12 8 13
REMARK SMILES IDX 10 14 7 15 82 16 11 17 77 18 2 19 1 20 3 21 78 22 79 23
REMARK SMILES IDX 80 24 81 25 19 26 20 27 21 28 22 30 23 31 24 32 76 33 25 34
REMARK SMILES IDX 75 35 26 36 27 37 28 38 69 39 29 40 74 41 68 42 70 43 30 44
REMARK SMILES IDX 73 45 67 46 66 47 31 49 57 50 40 51 56 52 41 53 44 54 55 55
REMARK SMILES IDX 71 56 42 57 43 58 54 60 72 61 45 62 32 63 33 64 38 65 34 66
REMARK SMILES IDX 35 67 37 68 39 69 36 70 58 71 59 72 64 73 60 74 61 75 63 76
REMARK SMILES IDX 65 77 62 78 46 79 47 80 52 81 48 82 49 83 51 84 53 85 50 86
REMARK H PARENT 15 7 20 29 70 48 44 59
REMARK Flexibility Score: inf
ROOT
ATOM      1  C   UNL A   1      37.219  23.561  24.999  1.00  0.00     0.023 C 
ENDROOT
BRANCH   1   2
ATOM      2  C   UNL A   1      37.044  22.133  24.479  1.00  0.00     0.023 C 
BRANCH   2   3
ATOM      3  C   UNL A   1      36.744  21.103  25.565  1.00  0.00     0.116 C 
BRANCH   3   4
ATOM      4  N   UNL A   1      35.770  20.117  25.132  1.00  0.00    -0.352 N 
ATOM      5  C   UNL A   1      34.457  20.108  24.798  1.00  0.00     0.251 C 
ATOM      6  O   UNL A   1      34.005  19.004  24.476  1.00  0.00    -0.270 OA
ATOM      7  H   UNL A   1      36.167  19.219  25.064  1.00  0.00     0.163 HD
BRANCH   5   8
ATOM      8  C   UNL A   1      33.558  21.300  24.798  1.00  0.00     0.067 C 
ATOM      9  C   UNL A   1      31.008  25.485  23.512  1.00  0.00    -0.023 A 
ATOM     10  C   UNL A   1      30.894  24.519  24.529  1.00  0.00     0.052 A 
ATOM     11  C   UNL A   1      32.019  25.302  22.550  1.00  0.00     0.045 A 
ATOM     12  C   UNL A   1      31.759  23.428  24.586  1.00  0.00     0.128 A 
ATOM     13  C   UNL A   1      32.876  24.193  22.604  1.00  0.00     0.032 A 
ATOM     14  Cl  UNL A   1      32.267  26.411  21.246  1.00  0.00    -0.084 Cl
ATOM     15  C   UNL A   1      32.747  23.249  23.625  1.00  0.00     0.019 A 
ATOM     16  O   UNL A   1      31.547  22.538  25.599  1.00  0.00    -0.475 OA
ATOM     17  C   UNL A   1      33.591  22.062  23.686  1.00  0.00     0.025 C 
ATOM     18  C   UNL A   1      32.681  21.700  25.951  1.00  0.00     0.314 C 
BRANCH   9  19
ATOM     19  C   UNL A   1      30.039  26.660  23.498  1.00  0.00     0.014 C 
ATOM     20  C   UNL A   1      28.689  26.274  24.114  1.00  0.00     0.012 C 
ATOM     21  C   UNL A   1      30.631  27.881  24.211  1.00  0.00     0.012 C 
ENDBRANCH   9  19
BRANCH  18  22
ATOM     22  C   UNL A   1      33.473  22.369  27.092  1.00  0.00     0.429 C 
ATOM     23  F   UNL A   1      34.287  23.335  26.599  1.00  0.00    -0.167 F 
ATOM     24  F   UNL A   1      32.666  22.975  27.996  1.00  0.00    -0.167 F 
ATOM     25  F   UNL A   1      34.245  21.496  27.776  1.00  0.00    -0.167 F 
ENDBRANCH  18  22
ENDBRANCH   5   8
ENDBRANCH   3   4
ENDBRANCH   2   3
ENDBRANCH   1   2
BRANCH   1  26
ATOM     26  C   UNL A   1      38.056  23.698  26.269  1.00  0.00     0.116 C 
BRANCH  26  27
ATOM     27  N   UNL A   1      39.489  23.522  26.071  1.00  0.00    -0.352 N 
ATOM     28  C   UNL A   1      40.505  24.333  26.530  1.00  0.00     0.251 C 
ATOM     29  H   UNL A   1      39.763  22.735  25.547  1.00  0.00     0.163 HD
ATOM     30  O   UNL A   1      41.675  24.111  26.241  1.00  0.00    -0.269 OA
BRANCH  28  31
ATOM     31  C   UNL A   1      40.139  25.517  27.330  1.00  0.00     0.039 A 
ATOM     32  C   UNL A   1      40.740  26.748  27.064  1.00  0.00     0.014 A 
ATOM     33  C   UNL A   1      39.298  25.354  28.432  1.00  0.00     0.014 A 
ATOM     34  C   UNL A   1      40.648  27.765  28.005  1.00  0.00     0.010 A 
ATOM     35  C   UNL A   1      39.146  26.405  29.338  1.00  0.00     0.010 A 
ATOM     36  C   UNL A   1      39.873  27.594  29.166  1.00  0.00    -0.014 A 
BRANCH  36  37
ATOM     37  C   UNL A   1      39.886  28.649  30.208  1.00  0.00     0.031 A 
ATOM     38  C   UNL A   1      38.886  29.775  30.171  1.00  0.00     0.074 A 
ATOM     39  C   UNL A   1      40.752  28.551  31.232  1.00  0.00     0.049 A 
ATOM     40  N   UNL A   1      38.732  30.772  31.008  1.00  0.00    -0.248 NA
ATOM     41  C   UNL A   1      37.937  29.788  29.046  1.00  0.00     0.031 C 
ATOM     42  C   UNL A   1      41.756  27.497  31.390  1.00  0.00     0.029 A 
ATOM     43  N   UNL A   1      40.910  29.333  32.347  1.00  0.00    -0.354 N 
ATOM     44  C   UNL A   1      37.692  31.540  30.500  1.00  0.00     0.074 A 
ATOM     45  C   UNL A   1      37.263  30.907  29.271  1.00  0.00     0.031 C 
ATOM     46  C   UNL A   1      42.388  27.666  32.560  1.00  0.00     0.029 A 
ATOM     47  C   UNL A   1      41.874  28.870  33.207  1.00  0.00     0.049 A 
ATOM     48  H   UNL A   1      40.382  30.147  32.516  1.00  0.00     0.167 HD
ATOM     49  C   UNL A   1      37.139  32.664  31.014  1.00  0.00     0.037 A 
ATOM     50  C   UNL A   1      42.305  29.365  34.381  1.00  0.00     0.037 A 
ATOM     51  C   UNL A   1      37.544  33.277  32.252  1.00  0.00     0.049 A 
ATOM     52  C   UNL A   1      41.694  30.626  34.914  1.00  0.00     0.074 A 
ATOM     53  C   UNL A   1      37.028  34.403  32.870  1.00  0.00     0.029 A 
ATOM     54  N   UNL A   1      38.566  32.809  33.064  1.00  0.00    -0.354 N 
ATOM     55  N   UNL A   1      40.716  31.343  34.418  1.00  0.00    -0.248 NA
ATOM     56  C   UNL A   1      42.258  31.153  36.163  1.00  0.00     0.031 C 
ATOM     57  C   UNL A   1      37.759  34.635  34.041  1.00  0.00     0.029 A 
ATOM     58  C   UNL A   1      38.708  33.635  34.169  1.00  0.00     0.049 A 
ATOM     59  H   UNL A   1      39.111  32.010  32.883  1.00  0.00     0.167 HD
ATOM     60  C   UNL A   1      40.545  32.406  35.295  1.00  0.00     0.074 A 
ATOM     61  C   UNL A   1      41.504  32.224  36.365  1.00  0.00     0.031 C 
ATOM     62  C   UNL A   1      39.677  33.443  35.216  1.00  0.00     0.037 A 
BRANCH  49  63
ATOM     63  C   UNL A   1      36.041  33.316  30.226  1.00  0.00     0.057 A 
ATOM     64  C   UNL A   1      34.701  33.143  30.594  1.00  0.00     0.134 A 
ATOM     65  C   UNL A   1      36.305  34.093  29.092  1.00  0.00     0.134 A 
ATOM     66  F   UNL A   1      34.379  32.408  31.668  1.00  0.00    -0.206 F 
ATOM     67  C   UNL A   1      33.663  33.722  29.862  1.00  0.00     0.040 A 
ATOM     68  C   UNL A   1      35.277  34.695  28.363  1.00  0.00     0.040 A 
ATOM     69  F   UNL A   1      37.569  34.311  28.696  1.00  0.00    -0.206 F 
ATOM     70  C   UNL A   1      33.949  34.505  28.746  1.00  0.00     0.006 A 
ENDBRANCH  49  63
BRANCH  50  71
ATOM     71  C   UNL A   1      43.378  28.663  35.123  1.00  0.00     0.057 A 
ATOM     72  C   UNL A   1      44.729  28.881  34.828  1.00  0.00     0.134 A 
ATOM     73  C   UNL A   1      43.074  27.747  36.135  1.00  0.00     0.134 A 
ATOM     74  F   UNL A   1      45.080  29.745  33.864  1.00  0.00    -0.206 F 
ATOM     75  C   UNL A   1      45.741  28.200  35.503  1.00  0.00     0.040 A 
ATOM     76  C   UNL A   1      44.078  27.075  36.834  1.00  0.00     0.040 A 
ATOM     77  F   UNL A   1      41.798  27.512  36.473  1.00  0.00    -0.206 F 
ATOM     78  C   UNL A   1      45.416  27.297  36.513  1.00  0.00     0.006 A 
ENDBRANCH  50  71
BRANCH  62  79
ATOM     79  C   UNL A   1      39.734  34.451  36.322  1.00  0.00     0.057 A 
ATOM     80  C   UNL A   1      40.523  35.602  36.205  1.00  0.00     0.134 A 
ATOM     81  C   UNL A   1      39.006  34.279  37.507  1.00  0.00     0.134 A 
ATOM     82  F   UNL A   1      41.246  35.822  35.097  1.00  0.00    -0.206 F 
ATOM     83  C   UNL A   1      40.584  36.548  37.228  1.00  0.00     0.040 A 
ATOM     84  C   UNL A   1      39.044  35.229  38.528  1.00  0.00     0.040 A 
ATOM     85  F   UNL A   1      38.219  33.206  37.669  1.00  0.00    -0.206 F 
ATOM     86  C   UNL A   1      39.837  36.366  38.391  1.00  0.00     0.006 A 
ENDBRANCH  62  79
ENDBRANCH  36  37
ENDBRANCH  28  31
ENDBRANCH  26  27
ENDBRANCH   1  26
TORSDOF 13
ENDMDL
MODEL 2
REMARK VINA RESULT:     -12.4      5.609     10.176
REMARK SMILES CC(C)c1cc2c(cc1Cl)C=C(C(=O)NCCCCNC(=O)c1ccc(-c3c4nc(c(-c5c(F)cccc5F)c5ccc([nH]5)c(-c5c(F)cccc5F)c5nc(c(-c6c(F)cccc6F)c6ccc3[nH]6)C=C5)C=C4)cc1)[C@@H](C(F)(F)F)O2
REMARK SMILES IDX 18 1 17 2 16 3 15 4 13 5 14 6 12 8 4 9 5 10 9 11 6 12 8 13
REMARK SMILES IDX 10 14 7 15 82 16 11 17 77 18 2 19 1 20 3 21 78 22 79 23
REMARK SMILES IDX 80 24 81 25 19 26 20 27 21 28 22 30 23 31 24 32 76 33 25 34
REMARK SMILES IDX 75 35 26 36 27 37 28 38 69 39 29 40 74 41 68 42 70 43 30 44
REMARK SMILES IDX 73 45 67 46 66 47 31 49 57 50 40 51 56 52 41 53 44 54 55 55
REMARK SMILES IDX 71 56 42 57 43 58 54 60 72 61 45 62 32 63 33 64 38 65 34 66
REMARK SMILES IDX 35 67 37 68 39 69 36 70 58 71 59 72 64 73 60 74 61 75 63 76
REMARK SMILES IDX 65 77 62 78 46 79 47 80 52 81 48 82 49 83 51 84 53 85 50 86
REMARK H PARENT 15 7 20 29 70 48 44 59
REMARK Flexibility Score: inf
ROOT
ATOM      1  C   UNL A   1      33.317  28.651  27.283  1.00  0.00     0.023 C 
ENDROOT
BRANCH   1   2
ATOM      2  C   UNL A   1      32.064  29.463  26.948  1.00  0.00     0.023 C 
BRANCH   2   3
ATOM      3  C   UNL A   1      32.239  30.433  25.782  1.00  0.00     0.116 C 
BRANCH   3   4
ATOM      4  N   UNL A   1      31.091  30.435  24.894  1.00  0.00    -0.352 N 
ATOM      5  C   UNL A   1      30.495  29.560  24.048  1.00  0.00     0.251 C 
ATOM      6  O   UNL A   1      29.497  29.993  23.463  1.00  0.00    -0.270 OA
ATOM      7  H   UNL A   1      30.622  31.301  24.908  1.00  0.00     0.163 HD
BRANCH   5   8
ATOM      8  C   UNL A   1      30.955  28.164  23.789  1.00  0.00     0.067 C 
ATOM      9  C   UNL A   1      31.662  23.150  23.968  1.00  0.00    -0.023 A 
ATOM     10  C   UNL A   1      31.926  24.162  23.027  1.00  0.00     0.052 A 
ATOM     11  C   UNL A   1      31.007  23.520  25.158  1.00  0.00     0.045 A 
ATOM     12  C   UNL A   1      31.561  25.485  23.271  1.00  0.00     0.128 A 
ATOM     13  C   UNL A   1      30.629  24.851  25.390  1.00  0.00     0.032 A 
ATOM     14  Cl  UNL A   1      30.621  22.376  26.395  1.00  0.00    -0.084 Cl
ATOM     15  C   UNL A   1      30.904  25.840  24.444  1.00  0.00     0.019 A 
ATOM     16  O   UNL A   1      31.841  26.384  22.283  1.00  0.00    -0.475 OA
ATOM     17  C   UNL A   1      30.485  27.224  24.633  1.00  0.00     0.025 C 
ATOM     18  C   UNL A   1      31.913  27.775  22.697  1.00  0.00     0.314 C 
BRANCH   9  19
ATOM     19  C   UNL A   1      32.085  21.721  23.653  1.00  0.00     0.014 C 
ATOM     20  C   UNL A   1      32.074  21.459  22.142  1.00  0.00     0.012 C 
ATOM     21  C   UNL A   1      33.461  21.402  24.248  1.00  0.00     0.012 C 
ENDBRANCH   9  19
BRANCH  18  22
ATOM     22  C   UNL A   1      33.373  28.131  23.038  1.00  0.00     0.429 C 
ATOM     23  F   UNL A   1      33.699  27.662  24.268  1.00  0.00    -0.167 F 
ATOM     24  F   UNL A   1      34.256  27.577  22.172  1.00  0.00    -0.167 F 
ATOM     25  F   UNL A   1      33.603  29.462  23.036  1.00  0.00    -0.167 F 
ENDBRANCH  18  22
ENDBRANCH   5   8
ENDBRANCH   3   4
ENDBRANCH   2   3
ENDBRANCH   1   2
BRANCH   1  26
ATOM     26  C   UNL A   1      34.622  29.444  27.317  1.00  0.00     0.116 C 
BRANCH  26  27
ATOM     27  N   UNL A   1      34.757  30.336  28.462  1.00  0.00    -0.352 N 
ATOM     28  C   UNL A   1      35.861  30.502  29.270  1.00  0.00     0.251 C 
ATOM     29  H   UNL A   1      33.968  30.882  28.684  1.00  0.00     0.163 HD
ATOM     30  O   UNL A   1      35.829  31.242  30.246  1.00  0.00    -0.269 OA
BRANCH  28  31
ATOM     31  C   UNL A   1      37.070  29.714  28.964  1.00  0.00     0.039 A 
ATOM     32  C   UNL A   1      37.700  28.988  29.975  1.00  0.00     0.014 A 
ATOM     33  C   UNL A   1      37.641  29.819  27.694  1.00  0.00     0.014 A 
ATOM     34  C   UNL A   1      38.993  28.523  29.771  1.00  0.00     0.010 A 
ATOM     35  C   UNL A   1      38.911  29.284  27.469  1.00  0.00     0.010 A 
ATOM     36  C   UNL A   1      39.622  28.692  28.525  1.00  0.00    -0.014 A 
BRANCH  36  37
ATOM     37  C   UNL A   1      41.042  28.291  28.371  1.00  0.00     0.031 A 
ATOM     38  C   UNL A   1      41.404  26.876  28.004  1.00  0.00     0.074 A 
ATOM     39  C   UNL A   1      42.005  29.224  28.486  1.00  0.00     0.049 A 
ATOM     40  N   UNL A   1      42.587  26.351  27.804  1.00  0.00    -0.248 NA
ATOM     41  C   UNL A   1      40.294  25.923  27.845  1.00  0.00     0.031 C 
ATOM     42  C   UNL A   1      41.779  30.632  28.818  1.00  0.00     0.029 A 
ATOM     43  N   UNL A   1      43.361  29.134  28.311  1.00  0.00    -0.354 N 
ATOM     44  C   UNL A   1      42.367  25.008  27.523  1.00  0.00     0.074 A 
ATOM     45  C   UNL A   1      40.938  24.792  27.597  1.00  0.00     0.031 C 
ATOM     46  C   UNL A   1      42.948  31.286  28.770  1.00  0.00     0.029 A 
ATOM     47  C   UNL A   1      44.011  30.334  28.459  1.00  0.00     0.049 A 
ATOM     48  H   UNL A   1      43.824  28.292  28.098  1.00  0.00     0.167 HD
ATOM     49  C   UNL A   1      43.271  24.046  27.221  1.00  0.00     0.037 A 
ATOM     50  C   UNL A   1      45.319  30.634  28.366  1.00  0.00     0.037 A 
ATOM     51  C   UNL A   1      44.690  24.266  27.117  1.00  0.00     0.049 A 
ATOM     52  C   UNL A   1      46.301  29.544  28.058  1.00  0.00     0.074 A 
ATOM     53  C   UNL A   1      45.685  23.361  26.792  1.00  0.00     0.029 A 
ATOM     54  N   UNL A   1      45.315  25.485  27.333  1.00  0.00    -0.354 N 
ATOM     55  N   UNL A   1      46.077  28.279  27.801  1.00  0.00    -0.248 NA
ATOM     56  C   UNL A   1      47.720  29.922  28.042  1.00  0.00     0.031 C 
ATOM     57  C   UNL A   1      46.916  24.024  26.842  1.00  0.00     0.029 A 
ATOM     58  C   UNL A   1      46.684  25.351  27.166  1.00  0.00     0.049 A 
ATOM     59  H   UNL A   1      44.855  26.321  27.571  1.00  0.00     0.167 HD
ATOM     60  C   UNL A   1      47.325  27.709  27.590  1.00  0.00     0.074 A 
ATOM     61  C   UNL A   1      48.299  28.773  27.725  1.00  0.00     0.031 C 
ATOM     62  C   UNL A   1      47.637  26.419  27.318  1.00  0.00     0.037 A 
BRANCH  49  63
ATOM     63  C   UNL A   1      42.750  22.656  26.998  1.00  0.00     0.057 A 
ATOM     64  C   UNL A   1      42.327  21.873  28.079  1.00  0.00     0.134 A 
ATOM     65  C   UNL A   1      42.688  22.085  25.722  1.00  0.00     0.134 A 
ATOM     66  F   UNL A   1      42.364  22.359  29.328  1.00  0.00    -0.206 F 
ATOM     67  C   UNL A   1      41.860  20.570  27.897  1.00  0.00     0.040 A 
ATOM     68  C   UNL A   1      42.203  20.790  25.524  1.00  0.00     0.040 A 
ATOM     69  F   UNL A   1      43.062  22.789  24.642  1.00  0.00    -0.206 F 
ATOM     70  C   UNL A   1      41.792  20.026  26.616  1.00  0.00     0.006 A 
ENDBRANCH  49  63
BRANCH  50  71
ATOM     71  C   UNL A   1      45.768  32.030  28.576  1.00  0.00     0.057 A 
ATOM     72  C   UNL A   1      46.149  32.488  29.843  1.00  0.00     0.134 A 
ATOM     73  C   UNL A   1      45.812  32.940  27.515  1.00  0.00     0.134 A 
ATOM     74  F   UNL A   1      46.123  31.662  30.898  1.00  0.00    -0.206 F 
ATOM     75  C   UNL A   1      46.543  33.809  30.051  1.00  0.00     0.040 A 
ATOM     76  C   UNL A   1      46.226  34.259  27.706  1.00  0.00     0.040 A 
ATOM     77  F   UNL A   1      45.475  32.551  26.277  1.00  0.00    -0.206 F 
ATOM     78  C   UNL A   1      46.587  34.698  28.978  1.00  0.00     0.006 A 
ENDBRANCH  50  71
BRANCH  62  79
ATOM     79  C   UNL A   1      49.091  26.101  27.148  1.00  0.00     0.057 A 
ATOM     80  C   UNL A   1      49.689  26.135  25.882  1.00  0.00     0.134 A 
ATOM     81  C   UNL A   1      49.898  25.759  28.240  1.00  0.00     0.134 A 
ATOM     82  F   UNL A   1      48.968  26.452  24.797  1.00  0.00    -0.206 F 
ATOM     83  C   UNL A   1      51.041  25.841  25.710  1.00  0.00     0.040 A 
ATOM     84  C   UNL A   1      51.256  25.483  28.083  1.00  0.00     0.040 A 
ATOM     85  F   UNL A   1      49.385  25.727  29.479  1.00  0.00    -0.206 F 
ATOM     86  C   UNL A   1      51.831  25.520  26.813  1.00  0.00     0.006 A 
ENDBRANCH  62  79
ENDBRANCH  36  37
ENDBRANCH  28  31
ENDBRANCH  26  27
ENDBRANCH   1  26
TORSDOF 13
ENDMDL
MODEL 3
REMARK VINA RESULT:     -12.3      3.279      7.996
REMARK SMILES CC(C)c1cc2c(cc1Cl)C=C(C(=O)NCCCCNC(=O)c1ccc(-c3c4nc(c(-c5c(F)cccc5F)c5ccc([nH]5)c(-c5c(F)cccc5F)c5nc(c(-c6c(F)cccc6F)c6ccc3[nH]6)C=C5)C=C4)cc1)[C@@H](C(F)(F)F)O2
REMARK SMILES IDX 18 1 17 2 16 3 15 4 13 5 14 6 12 8 4 9 5 10 9 11 6 12 8 13
REMARK SMILES IDX 10 14 7 15 82 16 11 17 77 18 2 19 1 20 3 21 78 22 79 23
REMARK SMILES IDX 80 24 81 25 19 26 20 27 21 28 22 30 23 31 24 32 76 33 25 34
REMARK SMILES IDX 75 35 26 36 27 37 28 38 69 39 29 40 74 41 68 42 70 43 30 44
REMARK SMILES IDX 73 45 67 46 66 47 31 49 57 50 40 51 56 52 41 53 44 54 55 55
REMARK SMILES IDX 71 56 42 57 43 58 54 60 72 61 45 62 32 63 33 64 38 65 34 66
REMARK SMILES IDX 35 67 37 68 39 69 36 70 58 71 59 72 64 73 60 74 61 75 63 76
REMARK SMILES IDX 65 77 62 78 46 79 47 80 52 81 48 82 49 83 51 84 53 85 50 86
REMARK H PARENT 15 7 20 29 70 48 44 59
REMARK Flexibility Score: inf
ROOT
ATOM      1  C   UNL A   1      31.336  31.986  26.985  1.00  0.00     0.023 C 
ENDROOT
BRANCH   1   2
ATOM      2  C   UNL A   1      31.795  30.532  26.857  1.00  0.00     0.023 C 
BRANCH   2   3
ATOM      3  C   UNL A   1      32.171  30.116  25.438  1.00  0.00     0.116 C 
BRANCH   3   4
ATOM      4  N   UNL A   1      31.024  30.103  24.548  1.00  0.00    -0.352 N 
ATOM      5  C   UNL A   1      30.418  29.207  23.733  1.00  0.00     0.251 C 
ATOM      6  O   UNL A   1      29.426  29.631  23.131  1.00  0.00    -0.270 OA
ATOM      7  H   UNL A   1      30.566  30.974  24.531  1.00  0.00     0.163 HD
BRANCH   5   8
ATOM      8  C   UNL A   1      30.860  27.796  23.523  1.00  0.00     0.067 C 
ATOM      9  C   UNL A   1      31.590  22.800  23.946  1.00  0.00    -0.023 A 
ATOM     10  C   UNL A   1      31.780  23.754  22.929  1.00  0.00     0.052 A 
ATOM     11  C   UNL A   1      31.027  23.242  25.157  1.00  0.00     0.045 A 
ATOM     12  C   UNL A   1      31.431  25.090  23.121  1.00  0.00     0.128 A 
ATOM     13  C   UNL A   1      30.664  24.585  25.338  1.00  0.00     0.032 A 
ATOM     14  Cl  UNL A   1      30.738  22.174  26.486  1.00  0.00    -0.084 Cl
ATOM     15  C   UNL A   1      30.864  25.515  24.317  1.00  0.00     0.019 A 
ATOM     16  O   UNL A   1      31.634  25.928  22.063  1.00  0.00    -0.475 OA
ATOM     17  C   UNL A   1      30.458  26.909  24.454  1.00  0.00     0.025 C 
ATOM     18  C   UNL A   1      31.733  27.341  22.386  1.00  0.00     0.314 C 
BRANCH   9  19
ATOM     19  C   UNL A   1      31.992  21.354  23.685  1.00  0.00     0.014 C 
ATOM     20  C   UNL A   1      32.010  21.046  22.183  1.00  0.00     0.012 C 
ATOM     21  C   UNL A   1      33.347  21.027  24.322  1.00  0.00     0.012 C 
ENDBRANCH   9  19
BRANCH  18  22
ATOM     22  C   UNL A   1      33.215  27.713  22.594  1.00  0.00     0.429 C 
ATOM     23  F   UNL A   1      33.572  27.526  23.889  1.00  0.00    -0.167 F 
ATOM     24  F   UNL A   1      34.050  26.947  21.852  1.00  0.00    -0.167 F 
ATOM     25  F   UNL A   1      33.481  29.001  22.281  1.00  0.00    -0.167 F 
ENDBRANCH  18  22
ENDBRANCH   5   8
ENDBRANCH   3   4
ENDBRANCH   2   3
ENDBRANCH   1   2
BRANCH   1  26
ATOM     26  C   UNL A   1      32.420  33.038  26.762  1.00  0.00     0.116 C 
BRANCH  26  27
ATOM     27  N   UNL A   1      32.339  34.187  27.654  1.00  0.00    -0.352 N 
ATOM     28  C   UNL A   1      33.227  34.543  28.646  1.00  0.00     0.251 C 
ATOM     29  H   UNL A   1      31.559  34.776  27.537  1.00  0.00     0.163 HD
ATOM     30  O   UNL A   1      33.014  35.504  29.376  1.00  0.00    -0.269 OA
BRANCH  28  31
ATOM     31  C   UNL A   1      34.418  33.696  28.848  1.00  0.00     0.039 A 
ATOM     32  C   UNL A   1      34.273  32.403  29.354  1.00  0.00     0.014 A 
ATOM     33  C   UNL A   1      35.684  34.252  28.656  1.00  0.00     0.014 A 
ATOM     34  C   UNL A   1      35.389  31.739  29.845  1.00  0.00     0.010 A 
ATOM     35  C   UNL A   1      36.812  33.548  29.082  1.00  0.00     0.010 A 
ATOM     36  C   UNL A   1      36.666  32.317  29.739  1.00  0.00    -0.014 A 
BRANCH  36  37
ATOM     37  C   UNL A   1      37.823  31.639  30.375  1.00  0.00     0.031 A 
ATOM     38  C   UNL A   1      38.153  31.884  31.824  1.00  0.00     0.074 A 
ATOM     39  C   UNL A   1      38.532  30.743  29.664  1.00  0.00     0.049 A 
ATOM     40  N   UNL A   1      39.110  31.364  32.552  1.00  0.00    -0.248 NA
ATOM     41  C   UNL A   1      37.303  32.840  32.550  1.00  0.00     0.031 C 
ATOM     42  C   UNL A   1      38.296  30.405  28.259  1.00  0.00     0.029 A 
ATOM     43  N   UNL A   1      39.574  29.934  30.034  1.00  0.00    -0.354 N 
ATOM     44  C   UNL A   1      38.992  31.946  33.809  1.00  0.00     0.074 A 
ATOM     45  C   UNL A   1      37.885  32.874  33.740  1.00  0.00     0.031 C 
ATOM     46  C   UNL A   1      39.133  29.420  27.900  1.00  0.00     0.029 A 
ATOM     47  C   UNL A   1      39.998  29.098  29.031  1.00  0.00     0.049 A 
ATOM     48  H   UNL A   1      39.979  29.949  30.931  1.00  0.00     0.167 HD
ATOM     49  C   UNL A   1      39.734  31.721  34.920  1.00  0.00     0.037 A 
ATOM     50  C   UNL A   1      40.983  28.181  29.018  1.00  0.00     0.037 A 
ATOM     51  C   UNL A   1      40.817  30.775  34.998  1.00  0.00     0.049 A 
ATOM     52  C   UNL A   1      41.805  27.972  30.254  1.00  0.00     0.074 A 
ATOM     53  C   UNL A   1      41.611  30.457  36.085  1.00  0.00     0.029 A 
ATOM     54  N   UNL A   1      41.254  29.990  33.941  1.00  0.00    -0.354 N 
ATOM     55  N   UNL A   1      41.686  28.535  31.431  1.00  0.00    -0.248 NA
ATOM     56  C   UNL A   1      42.910  27.009  30.153  1.00  0.00     0.031 C 
ATOM     57  C   UNL A   1      42.550  29.501  35.679  1.00  0.00     0.029 A 
ATOM     58  C   UNL A   1      42.319  29.202  34.347  1.00  0.00     0.049 A 
ATOM     59  H   UNL A   1      40.866  29.993  33.037  1.00  0.00     0.167 HD
ATOM     60  C   UNL A   1      42.697  27.994  32.213  1.00  0.00     0.074 A 
ATOM     61  C   UNL A   1      43.404  27.041  31.383  1.00  0.00     0.031 C 
ATOM     62  C   UNL A   1      43.017  28.269  33.501  1.00  0.00     0.037 A 
BRANCH  49  63
ATOM     63  C   UNL A   1      39.407  32.528  36.142  1.00  0.00     0.057 A 
ATOM     64  C   UNL A   1      38.446  32.078  37.056  1.00  0.00     0.134 A 
ATOM     65  C   UNL A   1      40.024  33.757  36.404  1.00  0.00     0.134 A 
ATOM     66  F   UNL A   1      37.816  30.910  36.862  1.00  0.00    -0.206 F 
ATOM     67  C   UNL A   1      38.111  32.823  38.188  1.00  0.00     0.040 A 
ATOM     68  C   UNL A   1      39.712  34.502  37.543  1.00  0.00     0.040 A 
ATOM     69  F   UNL A   1      40.965  34.235  35.576  1.00  0.00    -0.206 F 
ATOM     70  C   UNL A   1      38.748  34.037  38.437  1.00  0.00     0.006 A 
ENDBRANCH  49  63
BRANCH  50  71
ATOM     71  C   UNL A   1      41.243  27.401  27.786  1.00  0.00     0.057 A 
ATOM     72  C   UNL A   1      40.678  26.135  27.595  1.00  0.00     0.134 A 
ATOM     73  C   UNL A   1      42.074  27.901  26.779  1.00  0.00     0.134 A 
ATOM     74  F   UNL A   1      39.876  25.603  28.528  1.00  0.00    -0.206 F 
ATOM     75  C   UNL A   1      40.944  25.384  26.450  1.00  0.00     0.040 A 
ATOM     76  C   UNL A   1      42.331  27.169  25.619  1.00  0.00     0.040 A 
ATOM     77  F   UNL A   1      42.628  29.116  26.901  1.00  0.00    -0.206 F 
ATOM     78  C   UNL A   1      41.771  25.904  25.455  1.00  0.00     0.006 A 
ENDBRANCH  50  71
BRANCH  62  79
ATOM     79  C   UNL A   1      44.180  27.522  34.078  1.00  0.00     0.057 A 
ATOM     80  C   UNL A   1      44.000  26.273  34.686  1.00  0.00     0.134 A 
ATOM     81  C   UNL A   1      45.479  28.043  34.034  1.00  0.00     0.134 A 
ATOM     82  F   UNL A   1      42.779  25.723  34.763  1.00  0.00    -0.206 F 
ATOM     83  C   UNL A   1      45.074  25.567  35.227  1.00  0.00     0.040 A 
ATOM     84  C   UNL A   1      46.564  27.337  34.554  1.00  0.00     0.040 A 
ATOM     85  F   UNL A   1      45.716  29.226  33.449  1.00  0.00    -0.206 F 
ATOM     86  C   UNL A   1      46.362  26.096  35.156  1.00  0.00     0.006 A 
ENDBRANCH  62  79
ENDBRANCH  36  37
ENDBRANCH  28  31
ENDBRANCH  26  27
ENDBRANCH   1  26
TORSDOF 13
ENDMDL
