MODEL 1
REMARK VINA RESULT:     -12.3      0.000      0.000
REMARK SMILES Cc1ccc(F)c(C(=O)N[C@@H]2C=C[C@@H](C(=O)NCCCCNC(=O)c3ccc(-c4c5nc(c(-c6c(F)cccc6F)c6ccc([nH]6)c(-c6c(F)cccc6F)c6nc(c(-c7c(F)cccc7F)c7ccc4[nH]7)C=C6)C=C5)cc3)C2)c1
REMARK SMILES IDX 19 1 18 2 17 3 15 4 16 5 14 7 11 8 12 9 79 10 13 11 10 12
REMARK SMILES IDX 8 13 9 14 7 16 1 17 2 18 3 19 80 20 4 21 5 22 6 23 20 24
REMARK SMILES IDX 21 25 22 26 23 27 24 29 25 30 26 31 78 32 27 33 77 34 28 35
REMARK SMILES IDX 29 36 30 37 71 38 31 39 76 40 70 41 72 42 32 43 75 44 69 45
REMARK SMILES IDX 68 46 33 48 59 49 42 50 58 51 43 52 46 53 57 54 73 55 44 56
REMARK SMILES IDX 45 57 56 59 74 60 47 61 34 62 35 63 40 64 36 65 37 66 39 67
REMARK SMILES IDX 41 68 38 69 60 70 61 71 66 72 62 73 63 74 65 75 67 76 64 77
REMARK SMILES IDX 48 78 49 79 54 80 50 81 51 82 53 83 55 84 52 85
REMARK H PARENT 17 6 10 15 22 28 72 47 46 58
REMARK Flexibility Score: inf
ROOT
ATOM      1  C   UNL A   1      31.492  30.808  26.014  1.00  0.00     0.023 C 
ENDROOT
BRANCH   1   2
ATOM      2  C   UNL A   1      32.403  29.940  26.880  1.00  0.00     0.116 C 
BRANCH   2   3
ATOM      3  N   UNL A   1      31.821  28.653  27.202  1.00  0.00    -0.356 N 
ATOM      4  C   UNL A   1      31.620  27.538  26.449  1.00  0.00     0.227 C 
ATOM      5  O   UNL A   1      31.263  26.523  27.060  1.00  0.00    -0.274 OA
ATOM      6  H   UNL A   1      31.516  28.571  28.134  1.00  0.00     0.163 HD
BRANCH   4   7
ATOM      7  C   UNL A   1      31.708  27.511  24.915  1.00  0.00     0.103 C 
ATOM      8  C   UNL A   1      31.841  25.432  23.597  1.00  0.00     0.106 C 
ATOM      9  C   UNL A   1      30.565  26.177  23.352  1.00  0.00    -0.006 C 
ATOM     10  C   UNL A   1      32.665  26.428  24.422  1.00  0.00     0.047 C 
ATOM     11  C   UNL A   1      30.466  27.270  24.121  1.00  0.00    -0.016 C 
BRANCH   8  12
ATOM     12  N   UNL A   1      32.433  25.007  22.350  1.00  0.00    -0.346 N 
ATOM     13  C   UNL A   1      33.179  23.886  22.042  1.00  0.00     0.254 C 
ATOM     14  O   UNL A   1      33.392  23.634  20.859  1.00  0.00    -0.269 OA
ATOM     15  H   UNL A   1      32.279  25.617  21.593  1.00  0.00     0.164 HD
BRANCH  13  16
ATOM     16  C   UNL A   1      33.788  23.038  23.099  1.00  0.00     0.075 A 
ATOM     17  C   UNL A   1      37.225  22.157  24.463  1.00  0.00     0.044 C 
ATOM     18  C   UNL A   1      35.735  22.164  24.271  1.00  0.00    -0.050 A 
ATOM     19  C   UNL A   1      34.956  21.123  24.783  1.00  0.00     0.006 A 
ATOM     20  C   UNL A   1      35.116  23.178  23.523  1.00  0.00     0.020 A 
ATOM     21  C   UNL A   1      33.596  21.058  24.489  1.00  0.00     0.040 A 
ATOM     22  C   UNL A   1      33.027  21.994  23.626  1.00  0.00     0.135 A 
ATOM     23  F   UNL A   1      31.743  21.823  23.280  1.00  0.00    -0.206 F 
ENDBRANCH  13  16
ENDBRANCH   8  12
ENDBRANCH   4   7
ENDBRANCH   2   3
ENDBRANCH   1   2
BRANCH   1  24
ATOM     24  C   UNL A   1      31.297  32.242  26.511  1.00  0.00     0.023 C 
BRANCH  24  25
ATOM     25  C   UNL A   1      32.494  32.826  27.252  1.00  0.00     0.116 C 
BRANCH  25  26
ATOM     26  N   UNL A   1      32.297  34.219  27.622  1.00  0.00    -0.352 N 
ATOM     27  C   UNL A   1      32.970  34.977  28.550  1.00  0.00     0.251 C 
ATOM     28  H   UNL A   1      31.577  34.686  27.139  1.00  0.00     0.163 HD
ATOM     29  O   UNL A   1      32.564  36.093  28.844  1.00  0.00    -0.269 OA
BRANCH  27  30
ATOM     30  C   UNL A   1      34.172  34.425  29.210  1.00  0.00     0.039 A 
ATOM     31  C   UNL A   1      34.016  33.702  30.394  1.00  0.00     0.014 A 
ATOM     32  C   UNL A   1      35.441  34.613  28.658  1.00  0.00     0.014 A 
ATOM     33  C   UNL A   1      35.131  33.115  30.992  1.00  0.00     0.010 A 
ATOM     34  C   UNL A   1      36.537  33.955  29.207  1.00  0.00     0.010 A 
ATOM     35  C   UNL A   1      36.394  33.206  30.385  1.00  0.00    -0.014 A 
BRANCH  35  36
ATOM     36  C   UNL A   1      37.573  32.521  30.969  1.00  0.00     0.031 A 
ATOM     37  C   UNL A   1      38.185  33.017  32.249  1.00  0.00     0.074 A 
ATOM     38  C   UNL A   1      38.130  31.486  30.311  1.00  0.00     0.049 A 
ATOM     39  N   UNL A   1      39.233  32.571  32.893  1.00  0.00    -0.248 NA
ATOM     40  C   UNL A   1      37.553  34.192  32.870  1.00  0.00     0.031 C 
ATOM     41  C   UNL A   1      37.672  30.955  29.026  1.00  0.00     0.029 A 
ATOM     42  N   UNL A   1      39.210  30.703  30.630  1.00  0.00    -0.354 N 
ATOM     43  C   UNL A   1      39.388  33.410  33.988  1.00  0.00     0.074 A 
ATOM     44  C   UNL A   1      38.373  34.435  33.880  1.00  0.00     0.031 C 
ATOM     45  C   UNL A   1      38.450  29.921  28.677  1.00  0.00     0.029 A 
ATOM     46  C   UNL A   1      39.483  29.738  29.691  1.00  0.00     0.049 A 
ATOM     47  H   UNL A   1      39.739  30.821  31.451  1.00  0.00     0.167 HD
ATOM     48  C   UNL A   1      40.275  33.319  35.008  1.00  0.00     0.037 A 
ATOM     49  C   UNL A   1      40.461  28.814  29.649  1.00  0.00     0.037 A 
ATOM     50  C   UNL A   1      41.283  32.295  35.109  1.00  0.00     0.049 A 
ATOM     51  C   UNL A   1      41.438  28.729  30.787  1.00  0.00     0.074 A 
ATOM     52  C   UNL A   1      42.197  32.080  36.126  1.00  0.00     0.029 A 
ATOM     53  N   UNL A   1      41.517  31.320  34.150  1.00  0.00    -0.354 N 
ATOM     54  N   UNL A   1      41.523  29.478  31.861  1.00  0.00    -0.248 NA
ATOM     55  C   UNL A   1      42.445  27.664  30.715  1.00  0.00     0.031 C 
ATOM     56  C   UNL A   1      43.019  31.010  35.756  1.00  0.00     0.029 A 
ATOM     57  C   UNL A   1      42.579  30.518  34.537  1.00  0.00     0.049 A 
ATOM     58  H   UNL A   1      41.003  31.213  33.318  1.00  0.00     0.167 HD
ATOM     59  C   UNL A   1      42.581  28.964  32.601  1.00  0.00     0.074 A 
ATOM     60  C   UNL A   1      43.089  27.825  31.863  1.00  0.00     0.031 C 
ATOM     61  C   UNL A   1      43.086  29.397  33.784  1.00  0.00     0.037 A 
BRANCH  48  62
ATOM     62  C   UNL A   1      40.190  34.365  36.084  1.00  0.00     0.057 A 
ATOM     63  C   UNL A   1      40.923  35.560  36.016  1.00  0.00     0.134 A 
ATOM     64  C   UNL A   1      39.377  34.176  37.208  1.00  0.00     0.134 A 
ATOM     65  F   UNL A   1      41.732  35.803  34.974  1.00  0.00    -0.206 F 
ATOM     66  C   UNL A   1      40.884  36.503  37.044  1.00  0.00     0.040 A 
ATOM     67  C   UNL A   1      39.303  35.128  38.227  1.00  0.00     0.040 A 
ATOM     68  F   UNL A   1      38.643  33.060  37.338  1.00  0.00    -0.206 F 
ATOM     69  C   UNL A   1      40.069  36.289  38.153  1.00  0.00     0.006 A 
ENDBRANCH  48  62
BRANCH  49  70
ATOM     70  C   UNL A   1      40.544  27.887  28.492  1.00  0.00     0.057 A 
ATOM     71  C   UNL A   1      39.897  26.648  28.505  1.00  0.00     0.134 A 
ATOM     72  C   UNL A   1      41.254  28.234  27.335  1.00  0.00     0.134 A 
ATOM     73  F   UNL A   1      39.215  26.253  29.590  1.00  0.00    -0.206 F 
ATOM     74  C   UNL A   1      39.961  25.779  27.415  1.00  0.00     0.040 A 
ATOM     75  C   UNL A   1      41.304  27.386  26.228  1.00  0.00     0.040 A 
ATOM     76  F   UNL A   1      41.886  29.414  27.255  1.00  0.00    -0.206 F 
ATOM     77  C   UNL A   1      40.661  26.151  26.268  1.00  0.00     0.006 A 
ENDBRANCH  49  70
BRANCH  61  78
ATOM     78  C   UNL A   1      44.239  28.622  34.356  1.00  0.00     0.057 A 
ATOM     79  C   UNL A   1      45.571  28.976  34.100  1.00  0.00     0.134 A 
ATOM     80  C   UNL A   1      44.015  27.517  35.188  1.00  0.00     0.134 A 
ATOM     81  F   UNL A   1      45.857  30.016  33.301  1.00  0.00    -0.206 F 
ATOM     82  C   UNL A   1      46.636  28.239  34.621  1.00  0.00     0.040 A 
ATOM     83  C   UNL A   1      45.071  26.793  35.742  1.00  0.00     0.040 A 
ATOM     84  F   UNL A   1      42.766  27.130  35.484  1.00  0.00    -0.206 F 
ATOM     85  C   UNL A   1      46.387  27.147  35.450  1.00  0.00     0.006 A 
ENDBRANCH  61  78
ENDBRANCH  35  36
ENDBRANCH  27  30
ENDBRANCH  25  26
ENDBRANCH  24  25
ENDBRANCH   1  24
TORSDOF 13
ENDMDL
MODEL 2
REMARK VINA RESULT:     -12.3      1.724      2.513
REMARK SMILES Cc1ccc(F)c(C(=O)N[C@@H]2C=C[C@@H](C(=O)NCCCCNC(=O)c3ccc(-c4c5nc(c(-c6c(F)cccc6F)c6ccc([nH]6)c(-c6c(F)cccc6F)c6nc(c(-c7c(F)cccc7F)c7ccc4[nH]7)C=C6)C=C5)cc3)C2)c1
REMARK SMILES IDX 19 1 18 2 17 3 15 4 16 5 14 7 11 8 12 9 79 10 13 11 10 12
REMARK SMILES IDX 8 13 9 14 7 16 1 17 2 18 3 19 80 20 4 21 5 22 6 23 20 24
REMARK SMILES IDX 21 25 22 26 23 27 24 29 25 30 26 31 78 32 27 33 77 34 28 35
REMARK SMILES IDX 29 36 30 37 71 38 31 39 76 40 70 41 72 42 32 43 75 44 69 45
REMARK SMILES IDX 68 46 33 48 59 49 42 50 58 51 43 52 46 53 57 54 73 55 44 56
REMARK SMILES IDX 45 57 56 59 74 60 47 61 34 62 35 63 40 64 36 65 37 66 39 67
REMARK SMILES IDX 41 68 38 69 60 70 61 71 66 72 62 73 63 74 65 75 67 76 64 77
REMARK SMILES IDX 48 78 49 79 54 80 50 81 51 82 53 83 55 84 52 85
REMARK H PARENT 17 6 10 15 22 28 72 47 46 58
REMARK Flexibility Score: inf
ROOT
ATOM      1  C   UNL A   1      31.590  30.411  25.722  1.00  0.00     0.023 C 
ENDROOT
BRANCH   1   2
ATOM      2  C   UNL A   1      32.885  29.667  26.043  1.00  0.00     0.116 C 
BRANCH   2   3
ATOM      3  N   UNL A   1      33.714  29.442  24.876  1.00  0.00    -0.356 N 
ATOM      4  C   UNL A   1      33.706  28.457  23.938  1.00  0.00     0.227 C 
ATOM      5  O   UNL A   1      34.428  28.638  22.950  1.00  0.00    -0.274 OA
ATOM      6  H   UNL A   1      34.410  30.124  24.739  1.00  0.00     0.163 HD
BRANCH   4   7
ATOM      7  C   UNL A   1      32.949  27.129  24.094  1.00  0.00     0.103 C 
ATOM      8  C   UNL A   1      31.594  26.560  26.073  1.00  0.00     0.106 C 
ATOM      9  C   UNL A   1      30.758  26.710  24.839  1.00  0.00    -0.006 C 
ATOM     10  C   UNL A   1      33.025  26.598  25.523  1.00  0.00     0.047 C 
ATOM     11  C   UNL A   1      31.489  27.086  23.779  1.00  0.00    -0.016 C 
BRANCH   8  12
ATOM     12  N   UNL A   1      31.229  25.364  26.797  1.00  0.00    -0.346 N 
ATOM     13  C   UNL A   1      31.745  24.085  26.741  1.00  0.00     0.254 C 
ATOM     14  O   UNL A   1      31.413  23.284  27.612  1.00  0.00    -0.269 OA
ATOM     15  H   UNL A   1      30.490  25.481  27.436  1.00  0.00     0.164 HD
BRANCH  13  16
ATOM     16  C   UNL A   1      32.618  23.641  25.624  1.00  0.00     0.075 A 
ATOM     17  C   UNL A   1      36.289  23.688  24.641  1.00  0.00     0.044 C 
ATOM     18  C   UNL A   1      34.805  23.460  24.571  1.00  0.00    -0.050 A 
ATOM     19  C   UNL A   1      34.190  23.205  23.343  1.00  0.00     0.006 A 
ATOM     20  C   UNL A   1      34.012  23.565  25.726  1.00  0.00     0.020 A 
ATOM     21  C   UNL A   1      32.802  23.130  23.259  1.00  0.00     0.040 A 
ATOM     22  C   UNL A   1      32.024  23.379  24.388  1.00  0.00     0.135 A 
ATOM     23  F   UNL A   1      30.692  23.410  24.234  1.00  0.00    -0.206 F 
ENDBRANCH  13  16
ENDBRANCH   8  12
ENDBRANCH   4   7
ENDBRANCH   2   3
ENDBRANCH   1   2
BRANCH   1  24
ATOM     24  C   UNL A   1      31.354  31.684  26.536  1.00  0.00     0.023 C 
BRANCH  24  25
ATOM     25  C   UNL A   1      32.620  32.330  27.088  1.00  0.00     0.116 C 
BRANCH  25  26
ATOM     26  N   UNL A   1      32.399  33.693  27.546  1.00  0.00    -0.352 N 
ATOM     27  C   UNL A   1      33.129  34.441  28.438  1.00  0.00     0.251 C 
ATOM     28  H   UNL A   1      31.612  34.144  27.163  1.00  0.00     0.163 HD
ATOM     29  O   UNL A   1      32.704  35.520  28.828  1.00  0.00    -0.269 OA
BRANCH  27  30
ATOM     30  C   UNL A   1      34.416  33.921  28.945  1.00  0.00     0.039 A 
ATOM     31  C   UNL A   1      34.419  33.152  30.111  1.00  0.00     0.014 A 
ATOM     32  C   UNL A   1      35.610  34.183  28.269  1.00  0.00     0.014 A 
ATOM     33  C   UNL A   1      35.615  32.595  30.564  1.00  0.00     0.010 A 
ATOM     34  C   UNL A   1      36.784  33.557  28.673  1.00  0.00     0.010 A 
ATOM     35  C   UNL A   1      36.800  32.763  29.829  1.00  0.00    -0.014 A 
BRANCH  35  36
ATOM     36  C   UNL A   1      38.062  32.112  30.258  1.00  0.00     0.031 A 
ATOM     37  C   UNL A   1      38.959  32.779  31.262  1.00  0.00     0.074 A 
ATOM     38  C   UNL A   1      38.429  30.945  29.694  1.00  0.00     0.049 A 
ATOM     39  N   UNL A   1      40.113  32.381  31.733  1.00  0.00    -0.248 NA
ATOM     40  C   UNL A   1      38.515  34.082  31.781  1.00  0.00     0.031 C 
ATOM     41  C   UNL A   1      37.678  30.233  28.659  1.00  0.00     0.029 A 
ATOM     42  N   UNL A   1      39.531  30.158  29.908  1.00  0.00    -0.354 N 
ATOM     43  C   UNL A   1      40.534  33.384  32.597  1.00  0.00     0.074 A 
ATOM     44  C   UNL A   1      39.548  34.440  32.527  1.00  0.00     0.031 C 
ATOM     45  C   UNL A   1      38.330  29.104  28.343  1.00  0.00     0.029 A 
ATOM     46  C   UNL A   1      39.561  29.031  29.124  1.00  0.00     0.049 A 
ATOM     47  H   UNL A   1      40.235  30.380  30.559  1.00  0.00     0.167 HD
ATOM     48  C   UNL A   1      41.625  33.411  33.398  1.00  0.00     0.037 A 
ATOM     49  C   UNL A   1      40.479  28.050  29.040  1.00  0.00     0.037 A 
ATOM     50  C   UNL A   1      42.603  32.355  33.463  1.00  0.00     0.049 A 
ATOM     51  C   UNL A   1      41.685  28.097  29.935  1.00  0.00     0.074 A 
ATOM     52  C   UNL A   1      43.717  32.258  34.278  1.00  0.00     0.029 A 
ATOM     53  N   UNL A   1      42.589  31.216  32.670  1.00  0.00    -0.354 N 
ATOM     54  N   UNL A   1      42.030  29.012  30.809  1.00  0.00    -0.248 NA
ATOM     55  C   UNL A   1      42.622  26.971  29.841  1.00  0.00     0.031 C 
ATOM     56  C   UNL A   1      44.406  31.087  33.940  1.00  0.00     0.029 A 
ATOM     57  C   UNL A   1      43.690  30.424  32.956  1.00  0.00     0.049 A 
ATOM     58  H   UNL A   1      41.898  31.002  32.003  1.00  0.00     0.167 HD
ATOM     59  C   UNL A   1      43.213  28.564  31.383  1.00  0.00     0.074 A 
ATOM     60  C   UNL A   1      43.512  27.285  30.772  1.00  0.00     0.031 C 
ATOM     61  C   UNL A   1      43.984  29.159  32.328  1.00  0.00     0.037 A 
BRANCH  48  62
ATOM     62  C   UNL A   1      41.814  34.630  34.258  1.00  0.00     0.057 A 
ATOM     63  C   UNL A   1      41.331  34.690  35.574  1.00  0.00     0.134 A 
ATOM     64  C   UNL A   1      42.475  35.761  33.766  1.00  0.00     0.134 A 
ATOM     65  F   UNL A   1      40.678  33.647  36.108  1.00  0.00    -0.206 F 
ATOM     66  C   UNL A   1      41.460  35.844  36.350  1.00  0.00     0.040 A 
ATOM     67  C   UNL A   1      42.640  36.909  34.543  1.00  0.00     0.040 A 
ATOM     68  F   UNL A   1      42.968  35.774  32.518  1.00  0.00    -0.206 F 
ATOM     69  C   UNL A   1      42.119  36.957  35.835  1.00  0.00     0.006 A 
ENDBRANCH  48  62
BRANCH  49  70
ATOM     70  C   UNL A   1      40.275  26.935  28.081  1.00  0.00     0.057 A 
ATOM     71  C   UNL A   1      40.865  26.950  26.813  1.00  0.00     0.134 A 
ATOM     72  C   UNL A   1      39.504  25.817  28.422  1.00  0.00     0.134 A 
ATOM     73  F   UNL A   1      41.602  28.000  26.423  1.00  0.00    -0.206 F 
ATOM     74  C   UNL A   1      40.687  25.898  25.912  1.00  0.00     0.040 A 
ATOM     75  C   UNL A   1      39.339  24.747  27.541  1.00  0.00     0.040 A 
ATOM     76  F   UNL A   1      38.920  25.737  29.627  1.00  0.00    -0.206 F 
ATOM     77  C   UNL A   1      39.927  24.789  26.279  1.00  0.00     0.006 A 
ENDBRANCH  49  70
BRANCH  61  78
ATOM     78  C   UNL A   1      45.216  28.420  32.767  1.00  0.00     0.057 A 
ATOM     79  C   UNL A   1      46.467  28.646  32.178  1.00  0.00     0.134 A 
ATOM     80  C   UNL A   1      45.153  27.480  33.805  1.00  0.00     0.134 A 
ATOM     81  F   UNL A   1      46.596  29.523  31.170  1.00  0.00    -0.206 F 
ATOM     82  C   UNL A   1      47.602  27.940  32.580  1.00  0.00     0.040 A 
ATOM     83  C   UNL A   1      46.287  26.793  34.238  1.00  0.00     0.040 A 
ATOM     84  F   UNL A   1      43.990  27.222  34.420  1.00  0.00    -0.206 F 
ATOM     85  C   UNL A   1      47.515  27.014  33.618  1.00  0.00     0.006 A 
ENDBRANCH  61  78
ENDBRANCH  35  36
ENDBRANCH  27  30
ENDBRANCH  25  26
ENDBRANCH  24  25
ENDBRANCH   1  24
TORSDOF 13
ENDMDL
MODEL 3
REMARK VINA RESULT:     -12.2      1.376      1.996
REMARK SMILES Cc1ccc(F)c(C(=O)N[C@@H]2C=C[C@@H](C(=O)NCCCCNC(=O)c3ccc(-c4c5nc(c(-c6c(F)cccc6F)c6ccc([nH]6)c(-c6c(F)cccc6F)c6nc(c(-c7c(F)cccc7F)c7ccc4[nH]7)C=C6)C=C5)cc3)C2)c1
REMARK SMILES IDX 19 1 18 2 17 3 15 4 16 5 14 7 11 8 12 9 79 10 13 11 10 12
REMARK SMILES IDX 8 13 9 14 7 16 1 17 2 18 3 19 80 20 4 21 5 22 6 23 20 24
REMARK SMILES IDX 21 25 22 26 23 27 24 29 25 30 26 31 78 32 27 33 77 34 28 35
REMARK SMILES IDX 29 36 30 37 71 38 31 39 76 40 70 41 72 42 32 43 75 44 69 45
REMARK SMILES IDX 68 46 33 48 59 49 42 50 58 51 43 52 46 53 57 54 73 55 44 56
REMARK SMILES IDX 45 57 56 59 74 60 47 61 34 62 35 63 40 64 36 65 37 66 39 67
REMARK SMILES IDX 41 68 38 69 60 70 61 71 66 72 62 73 63 74 65 75 67 76 64 77
REMARK SMILES IDX 48 78 49 79 54 80 50 81 51 82 53 83 55 84 52 85
REMARK H PARENT 17 6 10 15 22 28 72 47 46 58
REMARK Flexibility Score: inf
ROOT
ATOM      1  C   UNL A   1      31.603  30.444  25.738  1.00  0.00     0.023 C 
ENDROOT
BRANCH   1   2
ATOM      2  C   UNL A   1      32.889  29.683  26.053  1.00  0.00     0.116 C 
BRANCH   2   3
ATOM      3  N   UNL A   1      33.710  29.448  24.882  1.00  0.00    -0.356 N 
ATOM      4  C   UNL A   1      33.695  28.455  23.952  1.00  0.00     0.227 C 
ATOM      5  O   UNL A   1      34.410  28.627  22.958  1.00  0.00    -0.274 OA
ATOM      6  H   UNL A   1      34.404  30.129  24.734  1.00  0.00     0.163 HD
BRANCH   4   7
ATOM      7  C   UNL A   1      32.939  27.128  24.126  1.00  0.00     0.103 C 
ATOM      8  C   UNL A   1      31.806  26.470  26.214  1.00  0.00     0.106 C 
ATOM      9  C   UNL A   1      30.840  26.692  25.091  1.00  0.00    -0.006 C 
ATOM     10  C   UNL A   1      33.167  26.523  25.509  1.00  0.00     0.047 C 
ATOM     11  C   UNL A   1      31.453  27.116  23.977  1.00  0.00    -0.016 C 
BRANCH   8  12
ATOM     12  N   UNL A   1      31.507  25.242  26.913  1.00  0.00    -0.346 N 
ATOM     13  C   UNL A   1      31.936  23.949  26.688  1.00  0.00     0.254 C 
ATOM     14  O   UNL A   1      31.714  23.103  27.550  1.00  0.00    -0.269 OA
ATOM     15  H   UNL A   1      30.896  25.344  27.678  1.00  0.00     0.164 HD
BRANCH  13  16
ATOM     16  C   UNL A   1      32.579  23.550  25.409  1.00  0.00     0.075 A 
ATOM     17  C   UNL A   1      36.032  23.470  23.824  1.00  0.00     0.044 C 
ATOM     18  C   UNL A   1      34.546  23.333  23.991  1.00  0.00    -0.050 A 
ATOM     19  C   UNL A   1      33.721  23.215  22.870  1.00  0.00     0.006 A 
ATOM     20  C   UNL A   1      33.963  23.387  25.268  1.00  0.00     0.020 A 
ATOM     21  C   UNL A   1      32.336  23.226  23.017  1.00  0.00     0.040 A 
ATOM     22  C   UNL A   1      31.773  23.425  24.277  1.00  0.00     0.135 A 
ATOM     23  F   UNL A   1      30.440  23.544  24.354  1.00  0.00    -0.206 F 
ENDBRANCH  13  16
ENDBRANCH   8  12
ENDBRANCH   4   7
ENDBRANCH   2   3
ENDBRANCH   1   2
BRANCH   1  24
ATOM     24  C   UNL A   1      31.401  31.735  26.534  1.00  0.00     0.023 C 
BRANCH  24  25
ATOM     25  C   UNL A   1      32.689  32.388  27.023  1.00  0.00     0.116 C 
BRANCH  25  26
ATOM     26  N   UNL A   1      32.491  33.763  27.454  1.00  0.00    -0.352 N 
ATOM     27  C   UNL A   1      33.143  34.471  28.434  1.00  0.00     0.251 C 
ATOM     28  H   UNL A   1      31.787  34.258  26.975  1.00  0.00     0.163 HD
ATOM     29  O   UNL A   1      32.735  35.575  28.771  1.00  0.00    -0.269 OA
BRANCH  27  30
ATOM     30  C   UNL A   1      34.323  33.880  29.099  1.00  0.00     0.039 A 
ATOM     31  C   UNL A   1      34.123  32.950  30.121  1.00  0.00     0.014 A 
ATOM     32  C   UNL A   1      35.617  34.234  28.709  1.00  0.00     0.014 A 
ATOM     33  C   UNL A   1      35.224  32.329  30.711  1.00  0.00     0.010 A 
ATOM     34  C   UNL A   1      36.708  33.553  29.238  1.00  0.00     0.010 A 
ATOM     35  C   UNL A   1      36.523  32.599  30.249  1.00  0.00    -0.014 A 
BRANCH  35  36
ATOM     36  C   UNL A   1      37.697  31.889  30.815  1.00  0.00     0.031 A 
ATOM     37  C   UNL A   1      38.227  32.256  32.172  1.00  0.00     0.074 A 
ATOM     38  C   UNL A   1      38.322  30.952  30.076  1.00  0.00     0.049 A 
ATOM     39  N   UNL A   1      39.258  31.772  32.817  1.00  0.00    -0.248 NA
ATOM     40  C   UNL A   1      37.524  33.334  32.886  1.00  0.00     0.031 C 
ATOM     41  C   UNL A   1      37.946  30.556  28.718  1.00  0.00     0.029 A 
ATOM     42  N   UNL A   1      39.413  30.171  30.362  1.00  0.00    -0.354 N 
ATOM     43  C   UNL A   1      39.329  32.487  34.005  1.00  0.00     0.074 A 
ATOM     44  C   UNL A   1      38.284  33.487  33.959  1.00  0.00     0.031 C 
ATOM     45  C   UNL A   1      38.778  29.592  28.297  1.00  0.00     0.029 A 
ATOM     46  C   UNL A   1      39.766  29.328  29.338  1.00  0.00     0.049 A 
ATOM     47  H   UNL A   1      39.897  30.212  31.218  1.00  0.00     0.167 HD
ATOM     48  C   UNL A   1      40.168  32.309  35.053  1.00  0.00     0.037 A 
ATOM     49  C   UNL A   1      40.778  28.444  29.245  1.00  0.00     0.037 A 
ATOM     50  C   UNL A   1      41.206  31.312  35.093  1.00  0.00     0.049 A 
ATOM     51  C   UNL A   1      41.700  28.262  30.416  1.00  0.00     0.074 A 
ATOM     52  C   UNL A   1      42.077  31.012  36.126  1.00  0.00     0.029 A 
ATOM     53  N   UNL A   1      41.522  30.458  34.045  1.00  0.00    -0.354 N 
ATOM     54  N   UNL A   1      41.706  28.887  31.569  1.00  0.00    -0.248 NA
ATOM     55  C   UNL A   1      42.748  27.243  30.279  1.00  0.00     0.031 C 
ATOM     56  C   UNL A   1      42.955  30.016  35.683  1.00  0.00     0.029 A 
ATOM     57  C   UNL A   1      42.593  29.651  34.396  1.00  0.00     0.049 A 
ATOM     58  H   UNL A   1      41.054  30.430  33.180  1.00  0.00     0.167 HD
ATOM     59  C   UNL A   1      42.744  28.326  32.302  1.00  0.00     0.074 A 
ATOM     60  C   UNL A   1      43.329  27.294  31.470  1.00  0.00     0.031 C 
ATOM     61  C   UNL A   1      43.176  28.638  33.550  1.00  0.00     0.037 A 
BRANCH  48  62
ATOM     62  C   UNL A   1      39.994  33.225  36.233  1.00  0.00     0.057 A 
ATOM     63  C   UNL A   1      39.109  32.924  37.280  1.00  0.00     0.134 A 
ATOM     64  C   UNL A   1      40.708  34.426  36.323  1.00  0.00     0.134 A 
ATOM     65  F   UNL A   1      38.383  31.797  37.255  1.00  0.00    -0.206 F 
ATOM     66  C   UNL A   1      38.909  33.803  38.346  1.00  0.00     0.040 A 
ATOM     67  C   UNL A   1      40.543  35.297  37.401  1.00  0.00     0.040 A 
ATOM     68  F   UNL A   1      41.576  34.776  35.361  1.00  0.00    -0.206 F 
ATOM     69  C   UNL A   1      39.631  34.993  38.410  1.00  0.00     0.006 A 
ENDBRANCH  48  62
BRANCH  49  70
ATOM     70  C   UNL A   1      40.951  27.657  27.998  1.00  0.00     0.057 A 
ATOM     71  C   UNL A   1      40.341  26.409  27.836  1.00  0.00     0.134 A 
ATOM     72  C   UNL A   1      41.710  28.149  26.929  1.00  0.00     0.134 A 
ATOM     73  F   UNL A   1      39.615  25.878  28.830  1.00  0.00    -0.206 F 
ATOM     74  C   UNL A   1      40.490  25.671  26.661  1.00  0.00     0.040 A 
ATOM     75  C   UNL A   1      41.844  27.434  25.738  1.00  0.00     0.040 A 
ATOM     76  F   UNL A   1      42.310  29.346  27.017  1.00  0.00    -0.206 F 
ATOM     77  C   UNL A   1      41.238  26.187  25.604  1.00  0.00     0.006 A 
ENDBRANCH  49  70
BRANCH  61  78
ATOM     78  C   UNL A   1      44.327  27.840  34.093  1.00  0.00     0.057 A 
ATOM     79  C   UNL A   1      45.654  28.277  33.977  1.00  0.00     0.134 A 
ATOM     80  C   UNL A   1      44.105  26.624  34.753  1.00  0.00     0.134 A 
ATOM     81  F   UNL A   1      45.938  29.426  33.345  1.00  0.00    -0.206 F 
ATOM     82  C   UNL A   1      46.718  27.519  34.468  1.00  0.00     0.040 A 
ATOM     83  C   UNL A   1      45.159  25.874  35.278  1.00  0.00     0.040 A 
ATOM     84  F   UNL A   1      42.860  26.151  34.909  1.00  0.00    -0.206 F 
ATOM     85  C   UNL A   1      46.472  26.316  35.126  1.00  0.00     0.006 A 
ENDBRANCH  61  78
ENDBRANCH  35  36
ENDBRANCH  27  30
ENDBRANCH  25  26
ENDBRANCH  24  25
ENDBRANCH   1  24
TORSDOF 13
ENDMDL
