MODEL 1
REMARK VINA RESULT:     -10.6      0.000      0.000
REMARK SMILES C[C@@H]1C[N@@H+](CC(C)(C)C(=O)NCCCCNC(=O)c2ccc(-c3c4nc(c(-c5c(F)cccc5F)c5ccc([nH]5)c(-c5c(F)cccc5F)c5nc(c(-c6c(F)cccc6F)c6ccc3[nH]6)C=C5)C=C4)cc2)CC[C@@H]1[NH3+]
REMARK SMILES IDX 13 1 12 2 11 3 9 4 10 5 6 7 7 8 8 9 5 10 4 11 1 12 2 13 3 14
REMARK SMILES IDX 75 15 74 16 73 17 76 19 14 23 15 24 16 25 17 26 18 28 19 29
REMARK SMILES IDX 20 30 72 31 21 32 71 33 22 34 23 35 24 36 65 37 25 38 70 39
REMARK SMILES IDX 64 40 66 41 26 42 69 43 63 44 62 45 27 47 53 48 36 49 52 50
REMARK SMILES IDX 37 51 40 52 51 53 67 54 38 55 39 56 50 58 68 59 41 60 28 61
REMARK SMILES IDX 29 62 34 63 30 64 31 65 33 66 35 67 32 68 54 69 55 70 60 71
REMARK SMILES IDX 56 72 57 73 59 74 61 75 58 76 42 77 43 78 48 79 44 80 45 81
REMARK SMILES IDX 47 82 49 83 46 84
REMARK H PARENT 11 6 4 18 76 20 76 21 76 22 16 27 66 46 40 57
REMARK Flexibility Score: inf
ROOT
ATOM      1  C   UNL A   1      31.842  28.266  26.577  1.00  0.00     0.023 C 
ENDROOT
BRANCH   1   2
ATOM      2  C   UNL A   1      31.063  27.103  25.969  1.00  0.00     0.116 C 
BRANCH   2   3
ATOM      3  N   UNL A   1      31.217  25.919  26.782  1.00  0.00    -0.355 N 
ATOM      4  C   UNL A   1      31.390  24.622  26.423  1.00  0.00     0.231 C 
ATOM      5  O   UNL A   1      30.922  23.799  27.217  1.00  0.00    -0.274 OA
ATOM      6  H   UNL A   1      31.192  26.078  27.753  1.00  0.00     0.163 HD
BRANCH   4   7
ATOM      7  C   UNL A   1      32.050  24.198  25.097  1.00  0.00     0.092 C 
ATOM      8  C   UNL A   1      32.869  25.294  24.396  1.00  0.00     0.027 C 
ATOM      9  C   UNL A   1      30.896  23.776  24.161  1.00  0.00     0.027 C 
BRANCH   7  10
ATOM     10  C   UNL A   1      32.954  22.929  25.353  1.00  0.00     0.278 C 
BRANCH  10  11
ATOM     11  N   UNL A   1      34.429  22.946  25.213  1.00  0.00    -0.333 N 
ATOM     12  C   UNL A   1      36.735  22.893  23.114  1.00  0.00     0.020 C 
ATOM     13  C   UNL A   1      36.482  21.874  24.235  1.00  0.00     0.099 C 
ATOM     14  C   UNL A   1      34.978  21.761  24.545  1.00  0.00     0.271 C 
ATOM     15  C   UNL A   1      37.221  22.186  25.548  1.00  0.00     0.194 C 
ATOM     16  C   UNL A   1      36.677  23.473  26.168  1.00  0.00     0.126 C 
ATOM     17  C   UNL A   1      35.172  23.338  26.409  1.00  0.00     0.268 C 
ATOM     18  H   UNL A   1      34.588  23.723  24.571  1.00  0.00     0.348 HD
BRANCH  15  19
ATOM     19  N   UNL A   1      38.673  22.256  25.371  1.00  0.00    -0.355 N 
ATOM     20  H   UNL A   1      38.915  23.122  24.889  1.00  0.00     0.344 HD
ATOM     21  H   UNL A   1      38.988  21.460  24.819  1.00  0.00     0.344 HD
ATOM     22  H   UNL A   1      39.127  22.238  26.285  1.00  0.00     0.344 HD
ENDBRANCH  15  19
ENDBRANCH  10  11
ENDBRANCH   7  10
ENDBRANCH   4   7
ENDBRANCH   2   3
ENDBRANCH   1   2
BRANCH   1  23
ATOM     23  C   UNL A   1      33.306  27.955  26.886  1.00  0.00     0.023 C 
BRANCH  23  24
ATOM     24  C   UNL A   1      34.300  28.997  26.388  1.00  0.00     0.116 C 
BRANCH  24  25
ATOM     25  N   UNL A   1      33.965  30.344  26.823  1.00  0.00    -0.352 N 
ATOM     26  C   UNL A   1      34.575  31.128  27.772  1.00  0.00     0.251 C 
ATOM     27  H   UNL A   1      33.190  30.752  26.373  1.00  0.00     0.163 HD
ATOM     28  O   UNL A   1      34.071  32.183  28.122  1.00  0.00    -0.269 OA
BRANCH  26  29
ATOM     29  C   UNL A   1      35.836  30.661  28.384  1.00  0.00     0.039 A 
ATOM     30  C   UNL A   1      35.775  29.720  29.414  1.00  0.00     0.014 A 
ATOM     31  C   UNL A   1      37.067  31.133  27.924  1.00  0.00     0.014 A 
ATOM     32  C   UNL A   1      36.957  29.205  29.942  1.00  0.00     0.010 A 
ATOM     33  C   UNL A   1      38.243  30.558  28.392  1.00  0.00     0.010 A 
ATOM     34  C   UNL A   1      38.200  29.594  29.411  1.00  0.00    -0.014 A 
BRANCH  34  35
ATOM     35  C   UNL A   1      39.465  29.009  29.919  1.00  0.00     0.031 A 
ATOM     36  C   UNL A   1      40.123  29.586  31.140  1.00  0.00     0.074 A 
ATOM     37  C   UNL A   1      40.047  27.998  29.246  1.00  0.00     0.049 A 
ATOM     38  N   UNL A   1      41.250  29.244  31.711  1.00  0.00    -0.248 NA
ATOM     39  C   UNL A   1      39.442  30.718  31.790  1.00  0.00     0.031 C 
ATOM     40  C   UNL A   1      39.535  27.391  28.016  1.00  0.00     0.029 A 
ATOM     41  N   UNL A   1      41.204  27.306  29.500  1.00  0.00    -0.354 N 
ATOM     42  C   UNL A   1      41.417  30.123  32.773  1.00  0.00     0.074 A 
ATOM     43  C   UNL A   1      40.309  31.052  32.732  1.00  0.00     0.031 C 
ATOM     44  C   UNL A   1      40.357  26.400  27.639  1.00  0.00     0.029 A 
ATOM     45  C   UNL A   1      41.472  26.324  28.576  1.00  0.00     0.049 A 
ATOM     46  H   UNL A   1      41.787  27.493  30.271  1.00  0.00     0.167 HD
ATOM     47  C   UNL A   1      42.391  30.138  33.713  1.00  0.00     0.037 A 
ATOM     48  C   UNL A   1      42.504  25.464  28.495  1.00  0.00     0.037 A 
ATOM     49  C   UNL A   1      43.476  29.195  33.764  1.00  0.00     0.049 A 
ATOM     50  C   UNL A   1      43.571  25.498  29.554  1.00  0.00     0.074 A 
ATOM     51  C   UNL A   1      44.478  29.084  34.712  1.00  0.00     0.029 A 
ATOM     52  N   UNL A   1      43.704  28.202  32.822  1.00  0.00    -0.354 N 
ATOM     53  N   UNL A   1      43.675  26.284  30.598  1.00  0.00    -0.248 NA
ATOM     54  C   UNL A   1      44.660  24.520  29.429  1.00  0.00     0.031 C 
ATOM     55  C   UNL A   1      45.339  28.055  34.319  1.00  0.00     0.029 A 
ATOM     56  C   UNL A   1      44.844  27.489  33.155  1.00  0.00     0.049 A 
ATOM     57  H   UNL A   1      43.139  28.031  32.034  1.00  0.00     0.167 HD
ATOM     58  C   UNL A   1      44.821  25.878  31.269  1.00  0.00     0.074 A 
ATOM     59  C   UNL A   1      45.369  24.764  30.521  1.00  0.00     0.031 C 
ATOM     60  C   UNL A   1      45.372  26.379  32.401  1.00  0.00     0.037 A 
BRANCH  47  61
ATOM     61  C   UNL A   1      42.321  31.208  34.765  1.00  0.00     0.057 A 
ATOM     62  C   UNL A   1      42.913  32.464  34.582  1.00  0.00     0.134 A 
ATOM     63  C   UNL A   1      41.630  30.989  35.963  1.00  0.00     0.134 A 
ATOM     64  F   UNL A   1      43.603  32.736  33.464  1.00  0.00    -0.206 F 
ATOM     65  C   UNL A   1      42.846  33.454  35.565  1.00  0.00     0.040 A 
ATOM     66  C   UNL A   1      41.530  31.980  36.940  1.00  0.00     0.040 A 
ATOM     67  F   UNL A   1      41.036  29.810  36.201  1.00  0.00    -0.206 F 
ATOM     68  C   UNL A   1      42.146  33.215  36.745  1.00  0.00     0.006 A 
ENDBRANCH  47  61
BRANCH  48  69
ATOM     69  C   UNL A   1      42.565  24.478  27.386  1.00  0.00     0.057 A 
ATOM     70  C   UNL A   1      42.072  23.178  27.546  1.00  0.00     0.134 A 
ATOM     71  C   UNL A   1      43.122  24.807  26.144  1.00  0.00     0.134 A 
ATOM     72  F   UNL A   1      41.542  22.796  28.718  1.00  0.00    -0.206 F 
ATOM     73  C   UNL A   1      42.151  22.234  26.521  1.00  0.00     0.040 A 
ATOM     74  C   UNL A   1      43.183  23.882  25.102  1.00  0.00     0.040 A 
ATOM     75  F   UNL A   1      43.604  26.040  25.924  1.00  0.00    -0.206 F 
ATOM     76  C   UNL A   1      42.703  22.587  25.292  1.00  0.00     0.006 A 
ENDBRANCH  48  69
BRANCH  60  77
ATOM     77  C   UNL A   1      46.609  25.707  32.920  1.00  0.00     0.057 A 
ATOM     78  C   UNL A   1      47.891  26.091  32.505  1.00  0.00     0.134 A 
ATOM     79  C   UNL A   1      46.517  24.686  33.875  1.00  0.00     0.134 A 
ATOM     80  F   UNL A   1      48.048  27.054  31.584  1.00  0.00    -0.206 F 
ATOM     81  C   UNL A   1      49.035  25.465  33.002  1.00  0.00     0.040 A 
ATOM     82  C   UNL A   1      47.655  24.074  34.401  1.00  0.00     0.040 A 
ATOM     83  F   UNL A   1      45.320  24.278  34.322  1.00  0.00    -0.206 F 
ATOM     84  C   UNL A   1      48.918  24.458  33.958  1.00  0.00     0.006 A 
ENDBRANCH  60  77
ENDBRANCH  34  35
ENDBRANCH  26  29
ENDBRANCH  24  25
ENDBRANCH  23  24
ENDBRANCH   1  23
TORSDOF 14
ENDMDL
MODEL 2
REMARK VINA RESULT:     -10.5      2.733      4.253
REMARK SMILES C[C@@H]1C[N@@H+](CC(C)(C)C(=O)NCCCCNC(=O)c2ccc(-c3c4nc(c(-c5c(F)cccc5F)c5ccc([nH]5)c(-c5c(F)cccc5F)c5nc(c(-c6c(F)cccc6F)c6ccc3[nH]6)C=C5)C=C4)cc2)CC[C@@H]1[NH3+]
REMARK SMILES IDX 13 1 12 2 11 3 9 4 10 5 6 7 7 8 8 9 5 10 4 11 1 12 2 13 3 14
REMARK SMILES IDX 75 15 74 16 73 17 76 19 14 23 15 24 16 25 17 26 18 28 19 29
REMARK SMILES IDX 20 30 72 31 21 32 71 33 22 34 23 35 24 36 65 37 25 38 70 39
REMARK SMILES IDX 64 40 66 41 26 42 69 43 63 44 62 45 27 47 53 48 36 49 52 50
REMARK SMILES IDX 37 51 40 52 51 53 67 54 38 55 39 56 50 58 68 59 41 60 28 61
REMARK SMILES IDX 29 62 34 63 30 64 31 65 33 66 35 67 32 68 54 69 55 70 60 71
REMARK SMILES IDX 56 72 57 73 59 74 61 75 58 76 42 77 43 78 48 79 44 80 45 81
REMARK SMILES IDX 47 82 49 83 46 84
REMARK H PARENT 11 6 4 18 76 20 76 21 76 22 16 27 66 46 40 57
REMARK Flexibility Score: inf
ROOT
ATOM      1  C   UNL A   1      31.559  30.859  26.332  1.00  0.00     0.023 C 
ENDROOT
BRANCH   1   2
ATOM      2  C   UNL A   1      32.481  30.103  27.286  1.00  0.00     0.116 C 
BRANCH   2   3
ATOM      3  N   UNL A   1      31.948  28.788  27.560  1.00  0.00    -0.355 N 
ATOM      4  C   UNL A   1      32.017  27.643  26.836  1.00  0.00     0.231 C 
ATOM      5  O   UNL A   1      31.051  26.885  26.973  1.00  0.00    -0.274 OA
ATOM      6  H   UNL A   1      31.457  28.710  28.409  1.00  0.00     0.163 HD
BRANCH   4   7
ATOM      7  C   UNL A   1      33.168  27.334  25.858  1.00  0.00     0.092 C 
ATOM      8  C   UNL A   1      34.478  28.090  26.133  1.00  0.00     0.027 C 
ATOM      9  C   UNL A   1      32.657  27.735  24.457  1.00  0.00     0.027 C 
BRANCH   7  10
ATOM     10  C   UNL A   1      33.434  25.778  25.850  1.00  0.00     0.278 C 
BRANCH  10  11
ATOM     11  N   UNL A   1      32.961  24.883  24.767  1.00  0.00    -0.333 N 
ATOM     12  C   UNL A   1      30.420  24.018  23.180  1.00  0.00     0.020 C 
ATOM     13  C   UNL A   1      31.326  23.119  24.033  1.00  0.00     0.099 C 
ATOM     14  C   UNL A   1      31.947  23.913  25.197  1.00  0.00     0.271 C 
ATOM     15  C   UNL A   1      32.466  22.448  23.247  1.00  0.00     0.194 C 
ATOM     16  C   UNL A   1      33.454  23.501  22.745  1.00  0.00     0.126 C 
ATOM     17  C   UNL A   1      34.005  24.302  23.928  1.00  0.00     0.268 C 
ATOM     18  H   UNL A   1      32.478  25.523  24.137  1.00  0.00     0.348 HD
BRANCH  15  19
ATOM     19  N   UNL A   1      31.975  21.617  22.147  1.00  0.00    -0.355 N 
ATOM     20  H   UNL A   1      31.009  21.870  21.934  1.00  0.00     0.344 HD
ATOM     21  H   UNL A   1      32.017  20.634  22.417  1.00  0.00     0.344 HD
ATOM     22  H   UNL A   1      32.555  21.768  21.321  1.00  0.00     0.344 HD
ENDBRANCH  15  19
ENDBRANCH  10  11
ENDBRANCH   7  10
ENDBRANCH   4   7
ENDBRANCH   2   3
ENDBRANCH   1   2
BRANCH   1  23
ATOM     23  C   UNL A   1      31.382  32.340  26.665  1.00  0.00     0.023 C 
BRANCH  23  24
ATOM     24  C   UNL A   1      32.618  33.017  27.244  1.00  0.00     0.116 C 
BRANCH  24  25
ATOM     25  N   UNL A   1      32.349  34.367  27.714  1.00  0.00    -0.352 N 
ATOM     26  C   UNL A   1      32.974  35.083  28.707  1.00  0.00     0.251 C 
ATOM     27  H   UNL A   1      31.615  34.836  27.255  1.00  0.00     0.163 HD
ATOM     28  O   UNL A   1      32.522  36.154  29.076  1.00  0.00    -0.269 OA
BRANCH  26  29
ATOM     29  C   UNL A   1      34.184  34.522  29.341  1.00  0.00     0.039 A 
ATOM     30  C   UNL A   1      34.058  33.863  30.565  1.00  0.00     0.014 A 
ATOM     31  C   UNL A   1      35.429  34.626  28.714  1.00  0.00     0.014 A 
ATOM     32  C   UNL A   1      35.175  33.253  31.133  1.00  0.00     0.010 A 
ATOM     33  C   UNL A   1      36.521  33.947  29.239  1.00  0.00     0.010 A 
ATOM     34  C   UNL A   1      36.407  33.260  30.458  1.00  0.00    -0.014 A 
BRANCH  34  35
ATOM     35  C   UNL A   1      37.590  32.562  31.018  1.00  0.00     0.031 A 
ATOM     36  C   UNL A   1      38.215  33.048  32.296  1.00  0.00     0.074 A 
ATOM     37  C   UNL A   1      38.134  31.529  30.346  1.00  0.00     0.049 A 
ATOM     38  N   UNL A   1      39.275  32.601  32.919  1.00  0.00    -0.248 NA
ATOM     39  C   UNL A   1      37.584  34.209  32.943  1.00  0.00     0.031 C 
ATOM     40  C   UNL A   1      37.653  31.002  29.067  1.00  0.00     0.029 A 
ATOM     41  N   UNL A   1      39.216  30.741  30.643  1.00  0.00    -0.354 N 
ATOM     42  C   UNL A   1      39.443  33.432  34.019  1.00  0.00     0.074 A 
ATOM     43  C   UNL A   1      38.415  34.446  33.946  1.00  0.00     0.031 C 
ATOM     44  C   UNL A   1      38.418  29.961  28.705  1.00  0.00     0.029 A 
ATOM     45  C   UNL A   1      39.465  29.770  29.703  1.00  0.00     0.049 A 
ATOM     46  H   UNL A   1      39.763  30.858  31.454  1.00  0.00     0.167 HD
ATOM     47  C   UNL A   1      40.356  33.342  35.016  1.00  0.00     0.037 A 
ATOM     48  C   UNL A   1      40.431  28.834  29.653  1.00  0.00     0.037 A 
ATOM     49  C   UNL A   1      41.360  32.315  35.098  1.00  0.00     0.049 A 
ATOM     50  C   UNL A   1      41.430  28.751  30.773  1.00  0.00     0.074 A 
ATOM     51  C   UNL A   1      42.291  32.096  36.098  1.00  0.00     0.029 A 
ATOM     52  N   UNL A   1      41.569  31.337  34.136  1.00  0.00    -0.354 N 
ATOM     53  N   UNL A   1      41.529  29.495  31.849  1.00  0.00    -0.248 NA
ATOM     54  C   UNL A   1      42.446  27.695  30.678  1.00  0.00     0.031 C 
ATOM     55  C   UNL A   1      43.092  31.015  35.721  1.00  0.00     0.029 A 
ATOM     56  C   UNL A   1      42.628  30.526  34.510  1.00  0.00     0.049 A 
ATOM     57  H   UNL A   1      41.042  31.234  33.311  1.00  0.00     0.167 HD
ATOM     58  C   UNL A   1      42.598  28.979  32.571  1.00  0.00     0.074 A 
ATOM     59  C   UNL A   1      43.104  27.850  31.818  1.00  0.00     0.031 C 
ATOM     60  C   UNL A   1      43.115  29.402  33.751  1.00  0.00     0.037 A 
BRANCH  47  61
ATOM     61  C   UNL A   1      40.303  34.381  36.099  1.00  0.00     0.057 A 
ATOM     62  C   UNL A   1      41.019  35.582  36.006  1.00  0.00     0.134 A 
ATOM     63  C   UNL A   1      39.507  34.191  37.234  1.00  0.00     0.134 A 
ATOM     64  F   UNL A   1      41.812  35.822  34.951  1.00  0.00    -0.206 F 
ATOM     65  C   UNL A   1      40.967  36.544  37.016  1.00  0.00     0.040 A 
ATOM     66  C   UNL A   1      39.423  35.157  38.238  1.00  0.00     0.040 A 
ATOM     67  F   UNL A   1      38.792  33.065  37.386  1.00  0.00    -0.206 F 
ATOM     68  C   UNL A   1      40.161  36.336  38.134  1.00  0.00     0.006 A 
ENDBRANCH  47  61
BRANCH  48  69
ATOM     69  C   UNL A   1      40.484  27.881  28.515  1.00  0.00     0.057 A 
ATOM     70  C   UNL A   1      41.206  28.181  27.354  1.00  0.00     0.134 A 
ATOM     71  C   UNL A   1      39.811  26.654  28.555  1.00  0.00     0.134 A 
ATOM     72  F   UNL A   1      41.858  29.348  27.247  1.00  0.00    -0.206 F 
ATOM     73  C   UNL A   1      41.239  27.307  26.266  1.00  0.00     0.040 A 
ATOM     74  C   UNL A   1      39.858  25.758  27.486  1.00  0.00     0.040 A 
ATOM     75  F   UNL A   1      39.109  26.302  29.643  1.00  0.00    -0.206 F 
ATOM     76  C   UNL A   1      40.568  26.089  26.333  1.00  0.00     0.006 A 
ENDBRANCH  48  69
BRANCH  60  77
ATOM     77  C   UNL A   1      44.263  28.619  34.317  1.00  0.00     0.057 A 
ATOM     78  C   UNL A   1      45.595  28.972  34.070  1.00  0.00     0.134 A 
ATOM     79  C   UNL A   1      44.030  27.518  35.152  1.00  0.00     0.134 A 
ATOM     80  F   UNL A   1      45.887  30.009  33.269  1.00  0.00    -0.206 F 
ATOM     81  C   UNL A   1      46.654  28.243  34.611  1.00  0.00     0.040 A 
ATOM     82  C   UNL A   1      45.080  26.799  35.722  1.00  0.00     0.040 A 
ATOM     83  F   UNL A   1      42.777  27.132  35.437  1.00  0.00    -0.206 F 
ATOM     84  C   UNL A   1      46.398  27.157  35.445  1.00  0.00     0.006 A 
ENDBRANCH  60  77
ENDBRANCH  34  35
ENDBRANCH  26  29
ENDBRANCH  24  25
ENDBRANCH  23  24
ENDBRANCH   1  23
TORSDOF 14
ENDMDL
MODEL 3
REMARK VINA RESULT:     -10.5      3.017      8.166
REMARK SMILES C[C@@H]1C[N@@H+](CC(C)(C)C(=O)NCCCCNC(=O)c2ccc(-c3c4nc(c(-c5c(F)cccc5F)c5ccc([nH]5)c(-c5c(F)cccc5F)c5nc(c(-c6c(F)cccc6F)c6ccc3[nH]6)C=C5)C=C4)cc2)CC[C@@H]1[NH3+]
REMARK SMILES IDX 13 1 12 2 11 3 9 4 10 5 6 7 7 8 8 9 5 10 4 11 1 12 2 13 3 14
REMARK SMILES IDX 75 15 74 16 73 17 76 19 14 23 15 24 16 25 17 26 18 28 19 29
REMARK SMILES IDX 20 30 72 31 21 32 71 33 22 34 23 35 24 36 65 37 25 38 70 39
REMARK SMILES IDX 64 40 66 41 26 42 69 43 63 44 62 45 27 47 53 48 36 49 52 50
REMARK SMILES IDX 37 51 40 52 51 53 67 54 38 55 39 56 50 58 68 59 41 60 28 61
REMARK SMILES IDX 29 62 34 63 30 64 31 65 33 66 35 67 32 68 54 69 55 70 60 71
REMARK SMILES IDX 56 72 57 73 59 74 61 75 58 76 42 77 43 78 48 79 44 80 45 81
REMARK SMILES IDX 47 82 49 83 46 84
REMARK H PARENT 11 6 4 18 76 20 76 21 76 22 16 27 66 46 40 57
REMARK Flexibility Score: inf
ROOT
ATOM      1  C   UNL A   1      37.026  21.144  24.683  1.00  0.00     0.023 C 
ENDROOT
BRANCH   1   2
ATOM      2  C   UNL A   1      35.663  20.962  25.347  1.00  0.00     0.116 C 
BRANCH   2   3
ATOM      3  N   UNL A   1      34.616  21.453  24.482  1.00  0.00    -0.355 N 
ATOM      4  C   UNL A   1      33.653  22.382  24.707  1.00  0.00     0.231 C 
ATOM      5  O   UNL A   1      32.601  22.198  24.087  1.00  0.00    -0.274 OA
ATOM      6  H   UNL A   1      34.597  21.050  23.584  1.00  0.00     0.163 HD
BRANCH   4   7
ATOM      7  C   UNL A   1      33.819  23.539  25.712  1.00  0.00     0.092 C 
ATOM      8  C   UNL A   1      35.041  24.440  25.472  1.00  0.00     0.027 C 
ATOM      9  C   UNL A   1      33.963  22.881  27.102  1.00  0.00     0.027 C 
BRANCH   7  10
ATOM     10  C   UNL A   1      32.501  24.408  25.721  1.00  0.00     0.278 C 
BRANCH  10  11
ATOM     11  N   UNL A   1      32.503  25.881  25.562  1.00  0.00    -0.333 N 
ATOM     12  C   UNL A   1      33.190  28.546  27.029  1.00  0.00     0.020 C 
ATOM     13  C   UNL A   1      31.819  28.118  26.486  1.00  0.00     0.099 C 
ATOM     14  C   UNL A   1      31.663  26.586  26.536  1.00  0.00     0.271 C 
ATOM     15  C   UNL A   1      31.540  28.582  25.046  1.00  0.00     0.194 C 
ATOM     16  C   UNL A   1      32.493  27.887  24.072  1.00  0.00     0.126 C 
ATOM     17  C   UNL A   1      32.344  26.368  24.194  1.00  0.00     0.268 C 
ATOM     18  H   UNL A   1      33.464  26.134  25.794  1.00  0.00     0.348 HD
BRANCH  15  19
ATOM     19  N   UNL A   1      31.607  30.037  24.902  1.00  0.00    -0.355 N 
ATOM     20  H   UNL A   1      30.863  30.467  25.452  1.00  0.00     0.344 HD
ATOM     21  H   UNL A   1      31.493  30.288  23.920  1.00  0.00     0.344 HD
ATOM     22  H   UNL A   1      32.512  30.370  25.236  1.00  0.00     0.344 HD
ENDBRANCH  15  19
ENDBRANCH  10  11
ENDBRANCH   7  10
ENDBRANCH   4   7
ENDBRANCH   2   3
ENDBRANCH   1   2
BRANCH   1  23
ATOM     23  C   UNL A   1      37.995  19.982  24.899  1.00  0.00     0.023 C 
BRANCH  23  24
ATOM     24  C   UNL A   1      39.075  20.237  25.943  1.00  0.00     0.116 C 
BRANCH  24  25
ATOM     25  N   UNL A   1      40.199  19.321  25.822  1.00  0.00    -0.352 N 
ATOM     26  C   UNL A   1      41.538  19.558  26.013  1.00  0.00     0.251 C 
ATOM     27  H   UNL A   1      39.966  18.398  25.568  1.00  0.00     0.163 HD
ATOM     28  O   UNL A   1      42.366  18.709  25.723  1.00  0.00    -0.269 OA
BRANCH  26  29
ATOM     29  C   UNL A   1      41.965  20.867  26.549  1.00  0.00     0.039 A 
ATOM     30  C   UNL A   1      42.355  21.864  25.653  1.00  0.00     0.014 A 
ATOM     31  C   UNL A   1      41.953  21.111  27.924  1.00  0.00     0.014 A 
ATOM     32  C   UNL A   1      42.676  23.132  26.137  1.00  0.00     0.010 A 
ATOM     33  C   UNL A   1      42.191  22.396  28.396  1.00  0.00     0.010 A 
ATOM     34  C   UNL A   1      42.563  23.417  27.509  1.00  0.00    -0.014 A 
BRANCH  34  35
ATOM     35  C   UNL A   1      42.840  24.777  28.031  1.00  0.00     0.031 A 
ATOM     36  C   UNL A   1      44.243  25.167  28.407  1.00  0.00     0.074 A 
ATOM     37  C   UNL A   1      41.822  25.637  28.221  1.00  0.00     0.049 A 
ATOM     38  N   UNL A   1      44.678  26.288  28.921  1.00  0.00    -0.248 NA
ATOM     39  C   UNL A   1      45.290  24.152  28.208  1.00  0.00     0.031 C 
ATOM     40  C   UNL A   1      40.411  25.355  27.949  1.00  0.00     0.029 A 
ATOM     41  N   UNL A   1      41.817  26.925  28.695  1.00  0.00    -0.354 N 
ATOM     42  C   UNL A   1      46.041  26.108  29.118  1.00  0.00     0.074 A 
ATOM     43  C   UNL A   1      46.350  24.751  28.726  1.00  0.00     0.031 C 
ATOM     44  C   UNL A   1      39.681  26.445  28.233  1.00  0.00     0.029 A 
ATOM     45  C   UNL A   1      40.564  27.489  28.742  1.00  0.00     0.049 A 
ATOM     46  H   UNL A   1      42.632  27.400  28.975  1.00  0.00     0.167 HD
ATOM     47  C   UNL A   1      46.957  27.002  29.559  1.00  0.00     0.037 A 
ATOM     48  C   UNL A   1      40.175  28.711  29.151  1.00  0.00     0.037 A 
ATOM     49  C   UNL A   1      46.649  28.359  29.923  1.00  0.00     0.049 A 
ATOM     50  C   UNL A   1      41.212  29.687  29.634  1.00  0.00     0.074 A 
ATOM     51  C   UNL A   1      47.513  29.364  30.321  1.00  0.00     0.029 A 
ATOM     52  N   UNL A   1      45.371  28.901  29.938  1.00  0.00    -0.354 N 
ATOM     53  N   UNL A   1      42.509  29.529  29.741  1.00  0.00    -0.248 NA
ATOM     54  C   UNL A   1      40.732  31.013  30.046  1.00  0.00     0.031 C 
ATOM     55  C   UNL A   1      46.755  30.499  30.622  1.00  0.00     0.029 A 
ATOM     56  C   UNL A   1      45.424  30.219  30.360  1.00  0.00     0.049 A 
ATOM     57  H   UNL A   1      44.550  28.420  29.686  1.00  0.00     0.167 HD
ATOM     58  C   UNL A   1      43.003  30.742  30.202  1.00  0.00     0.074 A 
ATOM     59  C   UNL A   1      41.867  31.630  30.340  1.00  0.00     0.031 C 
ATOM     60  C   UNL A   1      44.282  31.091  30.487  1.00  0.00     0.037 A 
BRANCH  47  61
ATOM     61  C   UNL A   1      48.381  26.537  29.668  1.00  0.00     0.057 A 
ATOM     62  C   UNL A   1      49.305  26.736  28.634  1.00  0.00     0.134 A 
ATOM     63  C   UNL A   1      48.842  25.909  30.832  1.00  0.00     0.134 A 
ATOM     64  F   UNL A   1      48.927  27.319  27.486  1.00  0.00    -0.206 F 
ATOM     65  C   UNL A   1      50.627  26.300  28.740  1.00  0.00     0.040 A 
ATOM     66  C   UNL A   1      50.168  25.495  30.963  1.00  0.00     0.040 A 
ATOM     67  F   UNL A   1      48.011  25.691  31.863  1.00  0.00    -0.206 F 
ATOM     68  C   UNL A   1      51.064  25.684  29.911  1.00  0.00     0.006 A 
ENDBRANCH  47  61
BRANCH  48  69
ATOM     69  C   UNL A   1      38.740  29.090  29.098  1.00  0.00     0.057 A 
ATOM     70  C   UNL A   1      38.158  29.551  27.912  1.00  0.00     0.134 A 
ATOM     71  C   UNL A   1      37.918  29.009  30.229  1.00  0.00     0.134 A 
ATOM     72  F   UNL A   1      38.897  29.669  26.798  1.00  0.00    -0.206 F 
ATOM     73  C   UNL A   1      36.818  29.939  27.856  1.00  0.00     0.040 A 
ATOM     74  C   UNL A   1      36.571  29.367  30.181  1.00  0.00     0.040 A 
ATOM     75  F   UNL A   1      38.413  28.566  31.394  1.00  0.00    -0.206 F 
ATOM     76  C   UNL A   1      36.019  29.842  28.992  1.00  0.00     0.006 A 
ENDBRANCH  48  69
BRANCH  60  77
ATOM     77  C   UNL A   1      44.525  32.501  30.940  1.00  0.00     0.057 A 
ATOM     78  C   UNL A   1      44.541  32.851  32.296  1.00  0.00     0.134 A 
ATOM     79  C   UNL A   1      44.782  33.514  30.007  1.00  0.00     0.134 A 
ATOM     80  F   UNL A   1      44.290  31.931  33.240  1.00  0.00    -0.206 F 
ATOM     81  C   UNL A   1      44.778  34.164  32.707  1.00  0.00     0.040 A 
ATOM     82  C   UNL A   1      45.049  34.823  30.407  1.00  0.00     0.040 A 
ATOM     83  F   UNL A   1      44.791  33.244  28.693  1.00  0.00    -0.206 F 
ATOM     84  C   UNL A   1      45.040  35.152  31.761  1.00  0.00     0.006 A 
ENDBRANCH  60  77
ENDBRANCH  34  35
ENDBRANCH  26  29
ENDBRANCH  24  25
ENDBRANCH  23  24
ENDBRANCH   1  23
TORSDOF 14
ENDMDL
