MODEL 1
REMARK VINA RESULT:     -12.7      0.000      0.000
REMARK SMILES CCc1cc(N2CCC[C@H](C(=O)NCCCCNC(=O)c3ccc(-c4c5nc(c(-c6c(F)cccc6F)c6ccc([nH]6)c(-c6c(F)cccc6F)c6nc(c(-c7c(F)cccc7F)c7ccc4[nH]7)C=C6)C=C5)cc3)C2)nc(-c2ccc(Cl)cc2)n1
REMARK SMILES IDX 15 1 14 2 13 3 11 4 12 5 10 7 6 8 7 9 75 10 8 11 9 12 5 13
REMARK SMILES IDX 3 14 4 15 85 16 77 17 76 18 2 19 1 20 78 21 79 22 84 23
REMARK SMILES IDX 80 24 83 25 81 26 82 27 16 28 17 29 18 30 19 31 20 33 21 34
REMARK SMILES IDX 22 35 74 36 23 37 73 38 24 39 25 40 26 41 67 42 27 43 72 44
REMARK SMILES IDX 66 45 68 46 28 47 71 48 65 49 64 50 29 52 55 53 38 54 54 55
REMARK SMILES IDX 39 56 42 57 53 58 69 59 40 60 41 61 52 63 70 64 43 65 30 66
REMARK SMILES IDX 31 67 36 68 32 69 33 70 35 71 37 72 34 73 56 74 57 75 62 76
REMARK SMILES IDX 58 77 59 78 61 79 63 80 60 81 44 82 45 83 50 84 46 85 47 86
REMARK SMILES IDX 49 87 51 88 48 89
REMARK H PARENT 13 6 18 32 68 51 42 62
REMARK Flexibility Score: inf
ROOT
ATOM      1  C   UNL A   1      31.422  30.474  25.797  1.00  0.00     0.023 C 
ENDROOT
BRANCH   1   2
ATOM      2  C   UNL A   1      32.651  29.696  26.259  1.00  0.00     0.116 C 
BRANCH   2   3
ATOM      3  N   UNL A   1      33.510  29.242  25.188  1.00  0.00    -0.356 N 
ATOM      4  C   UNL A   1      33.228  28.462  24.114  1.00  0.00     0.224 C 
ATOM      5  O   UNL A   1      34.034  28.517  23.174  1.00  0.00    -0.275 OA
ATOM      6  H   UNL A   1      34.444  29.548  25.248  1.00  0.00     0.163 HD
BRANCH   4   7
ATOM      7  C   UNL A   1      32.014  27.533  23.995  1.00  0.00     0.098 C 
ATOM      8  N   UNL A   1      32.683  25.177  23.993  1.00  0.00    -0.356 N 
ATOM      9  C   UNL A   1      32.009  24.814  22.758  1.00  0.00     0.118 C 
ATOM     10  C   UNL A   1      32.133  26.247  24.804  1.00  0.00     0.131 C 
ATOM     11  C   UNL A   1      31.812  26.045  21.865  1.00  0.00     0.022 C 
ATOM     12  C   UNL A   1      31.436  27.341  22.589  1.00  0.00     0.017 C 
BRANCH   8  13
ATOM     13  C   UNL A   1      33.563  24.300  24.593  1.00  0.00     0.132 A 
ATOM     14  C   UNL A   1      35.683  23.752  25.477  1.00  0.00     0.046 A 
ATOM     15  C   UNL A   1      34.822  24.717  24.995  1.00  0.00     0.070 A 
ATOM     16  N   UNL A   1      35.301  22.475  25.604  1.00  0.00    -0.233 NA
ATOM     17  C   UNL A   1      34.083  22.145  25.158  1.00  0.00     0.161 A 
ATOM     18  N   UNL A   1      33.191  23.005  24.649  1.00  0.00    -0.211 NA
BRANCH  14  19
ATOM     19  C   UNL A   1      37.107  24.070  25.849  1.00  0.00     0.053 C 
ATOM     20  C   UNL A   1      38.033  22.857  25.751  1.00  0.00     0.011 C 
ENDBRANCH  14  19
BRANCH  17  21
ATOM     21  C   UNL A   1      33.891  20.702  25.010  1.00  0.00     0.019 A 
ATOM     22  C   UNL A   1      35.003  19.839  25.002  1.00  0.00     0.013 A 
ATOM     23  C   UNL A   1      32.640  20.182  24.629  1.00  0.00     0.013 A 
ATOM     24  C   UNL A   1      34.891  18.527  24.539  1.00  0.00     0.021 A 
ATOM     25  C   UNL A   1      32.526  18.869  24.160  1.00  0.00     0.021 A 
ATOM     26  C   UNL A   1      33.660  18.061  24.083  1.00  0.00     0.041 A 
ATOM     27  Cl  UNL A   1      33.541  16.486  23.405  1.00  0.00    -0.084 Cl
ENDBRANCH  17  21
ENDBRANCH   8  13
ENDBRANCH   4   7
ENDBRANCH   2   3
ENDBRANCH   1   2
BRANCH   1  28
ATOM     28  C   UNL A   1      31.207  31.812  26.499  1.00  0.00     0.023 C 
BRANCH  28  29
ATOM     29  C   UNL A   1      32.458  32.669  26.696  1.00  0.00     0.116 C 
BRANCH  29  30
ATOM     30  N   UNL A   1      32.280  33.846  27.534  1.00  0.00    -0.352 N 
ATOM     31  C   UNL A   1      33.098  34.317  28.542  1.00  0.00     0.251 C 
ATOM     32  H   UNL A   1      31.470  34.378  27.357  1.00  0.00     0.163 HD
ATOM     33  O   UNL A   1      32.767  35.305  29.196  1.00  0.00    -0.269 OA
BRANCH  31  34
ATOM     34  C   UNL A   1      34.363  33.613  28.869  1.00  0.00     0.039 A 
ATOM     35  C   UNL A   1      35.590  34.265  28.699  1.00  0.00     0.014 A 
ATOM     36  C   UNL A   1      34.342  32.313  29.369  1.00  0.00     0.014 A 
ATOM     37  C   UNL A   1      36.773  33.652  29.132  1.00  0.00     0.010 A 
ATOM     38  C   UNL A   1      35.503  31.721  29.844  1.00  0.00     0.010 A 
ATOM     39  C   UNL A   1      36.725  32.393  29.748  1.00  0.00    -0.014 A 
BRANCH  39  40
ATOM     40  C   UNL A   1      37.892  31.786  30.423  1.00  0.00     0.031 A 
ATOM     41  C   UNL A   1      38.687  30.700  29.764  1.00  0.00     0.074 A 
ATOM     42  C   UNL A   1      38.087  32.078  31.722  1.00  0.00     0.049 A 
ATOM     43  N   UNL A   1      39.658  29.974  30.254  1.00  0.00    -0.248 NA
ATOM     44  C   UNL A   1      38.308  30.357  28.387  1.00  0.00     0.031 C 
ATOM     45  C   UNL A   1      37.280  33.020  32.502  1.00  0.00     0.029 A 
ATOM     46  N   UNL A   1      38.984  31.577  32.628  1.00  0.00    -0.354 N 
ATOM     47  C   UNL A   1      39.992  29.068  29.255  1.00  0.00     0.074 A 
ATOM     48  C   UNL A   1      39.091  29.313  28.148  1.00  0.00     0.031 C 
ATOM     49  C   UNL A   1      37.711  33.018  33.771  1.00  0.00     0.029 A 
ATOM     50  C   UNL A   1      38.817  32.074  33.896  1.00  0.00     0.049 A 
ATOM     51  H   UNL A   1      39.682  30.923  32.392  1.00  0.00     0.167 HD
ATOM     52  C   UNL A   1      40.968  28.127  29.263  1.00  0.00     0.037 A 
ATOM     53  C   UNL A   1      39.482  31.802  35.032  1.00  0.00     0.037 A 
ATOM     54  C   UNL A   1      41.863  27.908  30.372  1.00  0.00     0.049 A 
ATOM     55  C   UNL A   1      40.628  30.837  34.993  1.00  0.00     0.074 A 
ATOM     56  C   UNL A   1      42.969  27.079  30.441  1.00  0.00     0.029 A 
ATOM     57  N   UNL A   1      41.741  28.514  31.615  1.00  0.00    -0.354 N 
ATOM     58  N   UNL A   1      41.037  30.087  33.998  1.00  0.00    -0.248 NA
ATOM     59  C   UNL A   1      41.423  30.701  36.219  1.00  0.00     0.031 C 
ATOM     60  C   UNL A   1      43.493  27.154  31.738  1.00  0.00     0.029 A 
ATOM     61  C   UNL A   1      42.741  28.064  32.463  1.00  0.00     0.049 A 
ATOM     62  H   UNL A   1      41.047  29.168  31.859  1.00  0.00     0.167 HD
ATOM     63  C   UNL A   1      42.147  29.401  34.470  1.00  0.00     0.074 A 
ATOM     64  C   UNL A   1      42.356  29.840  35.837  1.00  0.00     0.031 C 
ATOM     65  C   UNL A   1      42.925  28.495  33.828  1.00  0.00     0.037 A 
BRANCH  52  66
ATOM     66  C   UNL A   1      41.122  27.272  28.036  1.00  0.00     0.057 A 
ATOM     67  C   UNL A   1      41.959  27.644  26.973  1.00  0.00     0.134 A 
ATOM     68  C   UNL A   1      40.455  26.046  27.926  1.00  0.00     0.134 A 
ATOM     69  F   UNL A   1      42.629  28.806  27.009  1.00  0.00    -0.206 F 
ATOM     70  C   UNL A   1      42.095  26.848  25.834  1.00  0.00     0.040 A 
ATOM     71  C   UNL A   1      40.607  25.226  26.805  1.00  0.00     0.040 A 
ATOM     72  F   UNL A   1      39.649  25.617  28.909  1.00  0.00    -0.206 F 
ATOM     73  C   UNL A   1      41.421  25.632  25.750  1.00  0.00     0.006 A 
ENDBRANCH  52  66
BRANCH  53  74
ATOM     74  C   UNL A   1      39.114  32.526  36.271  1.00  0.00     0.057 A 
ATOM     75  C   UNL A   1      38.234  31.953  37.195  1.00  0.00     0.134 A 
ATOM     76  C   UNL A   1      39.690  33.758  36.600  1.00  0.00     0.134 A 
ATOM     77  F   UNL A   1      37.648  30.776  36.928  1.00  0.00    -0.206 F 
ATOM     78  C   UNL A   1      37.936  32.579  38.405  1.00  0.00     0.040 A 
ATOM     79  C   UNL A   1      39.414  34.388  37.815  1.00  0.00     0.040 A 
ATOM     80  F   UNL A   1      40.556  34.346  35.763  1.00  0.00    -0.206 F 
ATOM     81  C   UNL A   1      38.535  33.798  38.721  1.00  0.00     0.006 A 
ENDBRANCH  53  74
BRANCH  65  82
ATOM     82  C   UNL A   1      44.077  27.923  34.597  1.00  0.00     0.057 A 
ATOM     83  C   UNL A   1      45.331  28.547  34.621  1.00  0.00     0.134 A 
ATOM     84  C   UNL A   1      43.925  26.748  35.343  1.00  0.00     0.134 A 
ATOM     85  F   UNL A   1      45.545  29.668  33.915  1.00  0.00    -0.206 F 
ATOM     86  C   UNL A   1      46.399  28.010  35.341  1.00  0.00     0.040 A 
ATOM     87  C   UNL A   1      44.977  26.214  36.087  1.00  0.00     0.040 A 
ATOM     88  F   UNL A   1      42.747  26.105  35.368  1.00  0.00    -0.206 F 
ATOM     89  C   UNL A   1      46.222  26.843  36.082  1.00  0.00     0.006 A 
ENDBRANCH  65  82
ENDBRANCH  39  40
ENDBRANCH  31  34
ENDBRANCH  29  30
ENDBRANCH  28  29
ENDBRANCH   1  28
TORSDOF 14
ENDMDL
MODEL 2
REMARK VINA RESULT:     -12.7      3.700      7.178
REMARK SMILES CCc1cc(N2CCC[C@H](C(=O)NCCCCNC(=O)c3ccc(-c4c5nc(c(-c6c(F)cccc6F)c6ccc([nH]6)c(-c6c(F)cccc6F)c6nc(c(-c7c(F)cccc7F)c7ccc4[nH]7)C=C6)C=C5)cc3)C2)nc(-c2ccc(Cl)cc2)n1
REMARK SMILES IDX 15 1 14 2 13 3 11 4 12 5 10 7 6 8 7 9 75 10 8 11 9 12 5 13
REMARK SMILES IDX 3 14 4 15 85 16 77 17 76 18 2 19 1 20 78 21 79 22 84 23
REMARK SMILES IDX 80 24 83 25 81 26 82 27 16 28 17 29 18 30 19 31 20 33 21 34
REMARK SMILES IDX 22 35 74 36 23 37 73 38 24 39 25 40 26 41 67 42 27 43 72 44
REMARK SMILES IDX 66 45 68 46 28 47 71 48 65 49 64 50 29 52 55 53 38 54 54 55
REMARK SMILES IDX 39 56 42 57 53 58 69 59 40 60 41 61 52 63 70 64 43 65 30 66
REMARK SMILES IDX 31 67 36 68 32 69 33 70 35 71 37 72 34 73 56 74 57 75 62 76
REMARK SMILES IDX 58 77 59 78 61 79 63 80 60 81 44 82 45 83 50 84 46 85 47 86
REMARK SMILES IDX 49 87 51 88 48 89
REMARK H PARENT 13 6 18 32 68 51 42 62
REMARK Flexibility Score: inf
ROOT
ATOM      1  C   UNL A   1      33.980  27.384  25.503  1.00  0.00     0.023 C 
ENDROOT
BRANCH   1   2
ATOM      2  C   UNL A   1      33.476  25.966  25.756  1.00  0.00     0.116 C 
BRANCH   2   3
ATOM      3  N   UNL A   1      32.106  25.891  26.213  1.00  0.00    -0.356 N 
ATOM      4  C   UNL A   1      31.044  25.227  25.688  1.00  0.00     0.224 C 
ATOM      5  O   UNL A   1      30.089  25.036  26.453  1.00  0.00    -0.275 OA
ATOM      6  H   UNL A   1      31.914  26.400  27.034  1.00  0.00     0.163 HD
BRANCH   4   7
ATOM      7  C   UNL A   1      30.951  24.721  24.244  1.00  0.00     0.098 C 
ATOM      8  N   UNL A   1      32.910  23.385  23.632  1.00  0.00    -0.356 N 
ATOM      9  C   UNL A   1      33.262  24.141  22.442  1.00  0.00     0.118 C 
ATOM     10  C   UNL A   1      31.518  23.322  24.037  1.00  0.00     0.131 C 
ATOM     11  C   UNL A   1      32.719  25.572  22.529  1.00  0.00     0.022 C 
ATOM     12  C   UNL A   1      31.324  25.720  23.144  1.00  0.00     0.017 C 
BRANCH   8  13
ATOM     13  C   UNL A   1      33.772  22.432  24.135  1.00  0.00     0.132 A 
ATOM     14  C   UNL A   1      35.929  21.681  24.736  1.00  0.00     0.046 A 
ATOM     15  C   UNL A   1      35.111  22.722  24.345  1.00  0.00     0.070 A 
ATOM     16  N   UNL A   1      35.441  20.455  24.960  1.00  0.00    -0.233 NA
ATOM     17  C   UNL A   1      34.145  20.246  24.697  1.00  0.00     0.161 A 
ATOM     18  N   UNL A   1      33.282  21.184  24.286  1.00  0.00    -0.211 NA
BRANCH  14  19
ATOM     19  C   UNL A   1      37.416  21.856  24.898  1.00  0.00     0.053 C 
ATOM     20  C   UNL A   1      37.782  23.068  25.755  1.00  0.00     0.011 C 
ENDBRANCH  14  19
BRANCH  17  21
ATOM     21  C   UNL A   1      33.789  18.828  24.628  1.00  0.00     0.019 A 
ATOM     22  C   UNL A   1      32.543  18.390  25.115  1.00  0.00     0.013 A 
ATOM     23  C   UNL A   1      34.760  17.861  24.311  1.00  0.00     0.013 A 
ATOM     24  C   UNL A   1      32.307  17.037  25.367  1.00  0.00     0.021 A 
ATOM     25  C   UNL A   1      34.528  16.506  24.569  1.00  0.00     0.021 A 
ATOM     26  C   UNL A   1      33.316  16.107  25.130  1.00  0.00     0.041 A 
ATOM     27  Cl  UNL A   1      33.071  14.457  25.547  1.00  0.00    -0.084 Cl
ENDBRANCH  17  21
ENDBRANCH   8  13
ENDBRANCH   4   7
ENDBRANCH   2   3
ENDBRANCH   1   2
BRANCH   1  28
ATOM     28  C   UNL A   1      33.153  28.486  26.162  1.00  0.00     0.023 C 
BRANCH  28  29
ATOM     29  C   UNL A   1      33.492  28.790  27.621  1.00  0.00     0.116 C 
BRANCH  29  30
ATOM     30  N   UNL A   1      33.629  30.203  27.946  1.00  0.00    -0.352 N 
ATOM     31  C   UNL A   1      34.753  30.885  28.369  1.00  0.00     0.251 C 
ATOM     32  H   UNL A   1      32.812  30.745  27.851  1.00  0.00     0.163 HD
ATOM     33  O   UNL A   1      34.681  32.077  28.658  1.00  0.00    -0.269 OA
BRANCH  31  34
ATOM     34  C   UNL A   1      36.048  30.174  28.512  1.00  0.00     0.039 A 
ATOM     35  C   UNL A   1      36.933  30.107  27.430  1.00  0.00     0.014 A 
ATOM     36  C   UNL A   1      36.406  29.591  29.726  1.00  0.00     0.014 A 
ATOM     37  C   UNL A   1      38.209  29.556  27.604  1.00  0.00     0.010 A 
ATOM     38  C   UNL A   1      37.684  29.087  29.917  1.00  0.00     0.010 A 
ATOM     39  C   UNL A   1      38.603  29.082  28.864  1.00  0.00    -0.014 A 
BRANCH  39  40
ATOM     40  C   UNL A   1      39.996  28.693  29.174  1.00  0.00     0.031 A 
ATOM     41  C   UNL A   1      40.974  29.693  29.713  1.00  0.00     0.074 A 
ATOM     42  C   UNL A   1      40.418  27.486  28.756  1.00  0.00     0.049 A 
ATOM     43  N   UNL A   1      42.258  29.561  29.925  1.00  0.00    -0.248 NA
ATOM     44  C   UNL A   1      40.445  31.030  30.011  1.00  0.00     0.031 C 
ATOM     45  C   UNL A   1      39.579  26.487  28.091  1.00  0.00     0.029 A 
ATOM     46  N   UNL A   1      41.663  26.916  28.780  1.00  0.00    -0.354 N 
ATOM     47  C   UNL A   1      42.698  30.805  30.357  1.00  0.00     0.074 A 
ATOM     48  C   UNL A   1      41.550  31.687  30.339  1.00  0.00     0.031 C 
ATOM     49  C   UNL A   1      40.337  25.432  27.757  1.00  0.00     0.029 A 
ATOM     50  C   UNL A   1      41.711  25.683  28.180  1.00  0.00     0.049 A 
ATOM     51  H   UNL A   1      42.448  27.349  29.188  1.00  0.00     0.167 HD
ATOM     52  C   UNL A   1      43.946  31.170  30.742  1.00  0.00     0.037 A 
ATOM     53  C   UNL A   1      42.746  24.845  27.993  1.00  0.00     0.037 A 
ATOM     54  C   UNL A   1      45.074  30.272  30.765  1.00  0.00     0.049 A 
ATOM     55  C   UNL A   1      44.095  25.225  28.524  1.00  0.00     0.074 A 
ATOM     56  C   UNL A   1      46.347  30.494  31.260  1.00  0.00     0.029 A 
ATOM     57  N   UNL A   1      45.064  28.982  30.254  1.00  0.00    -0.354 N 
ATOM     58  N   UNL A   1      44.476  26.354  29.070  1.00  0.00    -0.248 NA
ATOM     59  C   UNL A   1      45.150  24.208  28.441  1.00  0.00     0.031 C 
ATOM     60  C   UNL A   1      47.119  29.352  31.013  1.00  0.00     0.029 A 
ATOM     61  C   UNL A   1      46.315  28.401  30.405  1.00  0.00     0.049 A 
ATOM     62  H   UNL A   1      44.285  28.542  29.844  1.00  0.00     0.167 HD
ATOM     63  C   UNL A   1      45.809  26.182  29.413  1.00  0.00     0.074 A 
ATOM     64  C   UNL A   1      46.165  24.829  29.026  1.00  0.00     0.031 C 
ATOM     65  C   UNL A   1      46.659  27.061  29.998  1.00  0.00     0.037 A 
BRANCH  52  66
ATOM     66  C   UNL A   1      44.153  32.595  31.175  1.00  0.00     0.057 A 
ATOM     67  C   UNL A   1      44.519  33.600  30.268  1.00  0.00     0.134 A 
ATOM     68  C   UNL A   1      43.954  32.977  32.508  1.00  0.00     0.134 A 
ATOM     69  F   UNL A   1      44.727  33.307  28.975  1.00  0.00    -0.206 F 
ATOM     70  C   UNL A   1      44.714  34.921  30.676  1.00  0.00     0.040 A 
ATOM     71  C   UNL A   1      44.117  34.301  32.923  1.00  0.00     0.040 A 
ATOM     72  F   UNL A   1      43.589  32.073  33.430  1.00  0.00    -0.206 F 
ATOM     73  C   UNL A   1      44.508  35.275  32.008  1.00  0.00     0.006 A 
ENDBRANCH  52  66
BRANCH  53  74
ATOM     74  C   UNL A   1      42.504  23.538  27.341  1.00  0.00     0.057 A 
ATOM     75  C   UNL A   1      42.740  23.371  25.972  1.00  0.00     0.134 A 
ATOM     76  C   UNL A   1      42.115  22.411  28.074  1.00  0.00     0.134 A 
ATOM     77  F   UNL A   1      43.108  24.418  25.219  1.00  0.00    -0.206 F 
ATOM     78  C   UNL A   1      42.596  22.130  25.352  1.00  0.00     0.040 A 
ATOM     79  C   UNL A   1      41.985  21.160  27.471  1.00  0.00     0.040 A 
ATOM     80  F   UNL A   1      41.895  22.506  29.394  1.00  0.00    -0.206 F 
ATOM     81  C   UNL A   1      42.226  21.017  26.106  1.00  0.00     0.006 A 
ENDBRANCH  53  74
BRANCH  65  82
ATOM     82  C   UNL A   1      48.056  26.583  30.261  1.00  0.00     0.057 A 
ATOM     83  C   UNL A   1      48.397  25.917  31.445  1.00  0.00     0.134 A 
ATOM     84  C   UNL A   1      49.065  26.769  29.309  1.00  0.00     0.134 A 
ATOM     85  F   UNL A   1      47.478  25.720  32.403  1.00  0.00    -0.206 F 
ATOM     86  C   UNL A   1      49.699  25.473  31.682  1.00  0.00     0.040 A 
ATOM     87  C   UNL A   1      50.364  26.308  29.523  1.00  0.00     0.040 A 
ATOM     88  F   UNL A   1      48.803  27.394  28.151  1.00  0.00    -0.206 F 
ATOM     89  C   UNL A   1      50.685  25.663  30.717  1.00  0.00     0.006 A 
ENDBRANCH  65  82
ENDBRANCH  39  40
ENDBRANCH  31  34
ENDBRANCH  29  30
ENDBRANCH  28  29
ENDBRANCH   1  28
TORSDOF 14
ENDMDL
MODEL 3
REMARK VINA RESULT:     -12.7      0.584      1.739
REMARK SMILES CCc1cc(N2CCC[C@H](C(=O)NCCCCNC(=O)c3ccc(-c4c5nc(c(-c6c(F)cccc6F)c6ccc([nH]6)c(-c6c(F)cccc6F)c6nc(c(-c7c(F)cccc7F)c7ccc4[nH]7)C=C6)C=C5)cc3)C2)nc(-c2ccc(Cl)cc2)n1
REMARK SMILES IDX 15 1 14 2 13 3 11 4 12 5 10 7 6 8 7 9 75 10 8 11 9 12 5 13
REMARK SMILES IDX 3 14 4 15 85 16 77 17 76 18 2 19 1 20 78 21 79 22 84 23
REMARK SMILES IDX 80 24 83 25 81 26 82 27 16 28 17 29 18 30 19 31 20 33 21 34
REMARK SMILES IDX 22 35 74 36 23 37 73 38 24 39 25 40 26 41 67 42 27 43 72 44
REMARK SMILES IDX 66 45 68 46 28 47 71 48 65 49 64 50 29 52 55 53 38 54 54 55
REMARK SMILES IDX 39 56 42 57 53 58 69 59 40 60 41 61 52 63 70 64 43 65 30 66
REMARK SMILES IDX 31 67 36 68 32 69 33 70 35 71 37 72 34 73 56 74 57 75 62 76
REMARK SMILES IDX 58 77 59 78 61 79 63 80 60 81 44 82 45 83 50 84 46 85 47 86
REMARK SMILES IDX 49 87 51 88 48 89
REMARK H PARENT 13 6 18 32 68 51 42 62
REMARK Flexibility Score: inf
ROOT
ATOM      1  C   UNL A   1      31.657  30.782  26.118  1.00  0.00     0.023 C 
ENDROOT
BRANCH   1   2
ATOM      2  C   UNL A   1      32.827  29.981  26.681  1.00  0.00     0.116 C 
BRANCH   2   3
ATOM      3  N   UNL A   1      33.521  29.169  25.705  1.00  0.00    -0.356 N 
ATOM      4  C   UNL A   1      33.089  28.096  24.995  1.00  0.00     0.224 C 
ATOM      5  O   UNL A   1      33.746  27.811  23.985  1.00  0.00    -0.275 OA
ATOM      6  H   UNL A   1      34.452  29.438  25.529  1.00  0.00     0.163 HD
BRANCH   4   7
ATOM      7  C   UNL A   1      31.876  27.231  25.359  1.00  0.00     0.098 C 
ATOM      8  N   UNL A   1      32.374  24.845  25.125  1.00  0.00    -0.356 N 
ATOM      9  C   UNL A   1      31.261  24.528  24.245  1.00  0.00     0.118 C 
ATOM     10  C   UNL A   1      32.230  25.933  26.074  1.00  0.00     0.131 C 
ATOM     11  C   UNL A   1      30.800  25.777  23.483  1.00  0.00     0.022 C 
ATOM     12  C   UNL A   1      30.796  27.082  24.283  1.00  0.00     0.017 C 
BRANCH   8  13
ATOM     13  C   UNL A   1      33.371  23.918  25.351  1.00  0.00     0.132 A 
ATOM     14  C   UNL A   1      35.625  23.335  25.746  1.00  0.00     0.046 A 
ATOM     15  C   UNL A   1      34.662  24.320  25.652  1.00  0.00     0.070 A 
ATOM     16  N   UNL A   1      35.316  22.040  25.609  1.00  0.00    -0.233 NA
ATOM     17  C   UNL A   1      34.054  21.736  25.281  1.00  0.00     0.161 A 
ATOM     18  N   UNL A   1      33.061  22.623  25.139  1.00  0.00    -0.211 NA
BRANCH  14  19
ATOM     19  C   UNL A   1      37.078  23.662  25.970  1.00  0.00     0.053 C 
ATOM     20  C   UNL A   1      38.000  22.468  25.723  1.00  0.00     0.011 C 
ENDBRANCH  14  19
BRANCH  17  21
ATOM     21  C   UNL A   1      33.893  20.360  24.810  1.00  0.00     0.019 A 
ATOM     22  C   UNL A   1      32.609  19.791  24.719  1.00  0.00     0.013 A 
ATOM     23  C   UNL A   1      35.009  19.512  24.682  1.00  0.00     0.013 A 
ATOM     24  C   UNL A   1      32.442  18.411  24.599  1.00  0.00     0.021 A 
ATOM     25  C   UNL A   1      34.844  18.128  24.567  1.00  0.00     0.021 A 
ATOM     26  C   UNL A   1      33.561  17.582  24.563  1.00  0.00     0.041 A 
ATOM     27  Cl  UNL A   1      33.359  15.876  24.531  1.00  0.00    -0.084 Cl
ENDBRANCH  17  21
ENDBRANCH   8  13
ENDBRANCH   4   7
ENDBRANCH   2   3
ENDBRANCH   1   2
BRANCH   1  28
ATOM     28  C   UNL A   1      31.349  32.078  26.864  1.00  0.00     0.023 C 
BRANCH  28  29
ATOM     29  C   UNL A   1      32.457  33.130  26.857  1.00  0.00     0.116 C 
BRANCH  29  30
ATOM     30  N   UNL A   1      32.277  34.230  27.795  1.00  0.00    -0.352 N 
ATOM     31  C   UNL A   1      33.082  34.596  28.856  1.00  0.00     0.251 C 
ATOM     32  H   UNL A   1      31.477  34.786  27.653  1.00  0.00     0.163 HD
ATOM     33  O   UNL A   1      32.751  35.525  29.590  1.00  0.00    -0.269 OA
BRANCH  31  34
ATOM     34  C   UNL A   1      34.333  33.849  29.139  1.00  0.00     0.039 A 
ATOM     35  C   UNL A   1      35.572  34.413  28.814  1.00  0.00     0.014 A 
ATOM     36  C   UNL A   1      34.288  32.598  29.750  1.00  0.00     0.014 A 
ATOM     37  C   UNL A   1      36.755  33.770  29.202  1.00  0.00     0.010 A 
ATOM     38  C   UNL A   1      35.454  31.981  30.179  1.00  0.00     0.010 A 
ATOM     39  C   UNL A   1      36.695  32.570  29.926  1.00  0.00    -0.014 A 
BRANCH  39  40
ATOM     40  C   UNL A   1      37.884  31.954  30.555  1.00  0.00     0.031 A 
ATOM     41  C   UNL A   1      38.632  30.849  29.874  1.00  0.00     0.074 A 
ATOM     42  C   UNL A   1      38.142  32.258  31.841  1.00  0.00     0.049 A 
ATOM     43  N   UNL A   1      39.614  30.114  30.328  1.00  0.00    -0.248 NA
ATOM     44  C   UNL A   1      38.186  30.495  28.521  1.00  0.00     0.031 C 
ATOM     45  C   UNL A   1      37.385  33.221  32.644  1.00  0.00     0.029 A 
ATOM     46  N   UNL A   1      39.073  31.755  32.710  1.00  0.00    -0.354 N 
ATOM     47  C   UNL A   1      39.889  29.192  29.326  1.00  0.00     0.074 A 
ATOM     48  C   UNL A   1      38.942  29.438  28.259  1.00  0.00     0.031 C 
ATOM     49  C   UNL A   1      37.873  33.228  33.893  1.00  0.00     0.029 A 
ATOM     50  C   UNL A   1      38.971  32.269  33.978  1.00  0.00     0.049 A 
ATOM     51  H   UNL A   1      39.749  31.088  32.451  1.00  0.00     0.167 HD
ATOM     52  C   UNL A   1      40.851  28.237  29.301  1.00  0.00     0.037 A 
ATOM     53  C   UNL A   1      39.683  32.001  35.087  1.00  0.00     0.037 A 
ATOM     54  C   UNL A   1      41.793  28.018  30.371  1.00  0.00     0.049 A 
ATOM     55  C   UNL A   1      40.813  31.019  35.007  1.00  0.00     0.074 A 
ATOM     56  C   UNL A   1      42.889  27.174  30.400  1.00  0.00     0.029 A 
ATOM     57  N   UNL A   1      41.736  28.640  31.610  1.00  0.00    -0.354 N 
ATOM     58  N   UNL A   1      41.165  30.251  34.004  1.00  0.00    -0.248 NA
ATOM     59  C   UNL A   1      41.661  30.886  36.196  1.00  0.00     0.031 C 
ATOM     60  C   UNL A   1      43.472  27.256  31.670  1.00  0.00     0.029 A 
ATOM     61  C   UNL A   1      42.768  28.185  32.418  1.00  0.00     0.049 A 
ATOM     62  H   UNL A   1      41.064  29.307  31.877  1.00  0.00     0.167 HD
ATOM     63  C   UNL A   1      42.285  29.554  34.433  1.00  0.00     0.074 A 
ATOM     64  C   UNL A   1      42.563  30.006  35.783  1.00  0.00     0.031 C 
ATOM     65  C   UNL A   1      43.020  28.630  33.767  1.00  0.00     0.037 A 
BRANCH  52  66
ATOM     66  C   UNL A   1      40.937  27.366  28.079  1.00  0.00     0.057 A 
ATOM     67  C   UNL A   1      40.211  26.170  27.968  1.00  0.00     0.134 A 
ATOM     68  C   UNL A   1      41.726  27.739  26.984  1.00  0.00     0.134 A 
ATOM     69  F   UNL A   1      39.435  25.749  28.978  1.00  0.00    -0.206 F 
ATOM     70  C   UNL A   1      40.298  25.362  26.832  1.00  0.00     0.040 A 
ATOM     71  C   UNL A   1      41.798  26.955  25.830  1.00  0.00     0.040 A 
ATOM     72  F   UNL A   1      42.437  28.877  27.012  1.00  0.00    -0.206 F 
ATOM     73  C   UNL A   1      41.090  25.757  25.756  1.00  0.00     0.006 A 
ENDBRANCH  52  66
BRANCH  53  74
ATOM     74  C   UNL A   1      39.383  32.745  36.331  1.00  0.00     0.057 A 
ATOM     75  C   UNL A   1      39.993  33.977  36.589  1.00  0.00     0.134 A 
ATOM     76  C   UNL A   1      38.426  32.290  37.246  1.00  0.00     0.134 A 
ATOM     77  F   UNL A   1      40.921  34.458  35.749  1.00  0.00    -0.206 F 
ATOM     78  C   UNL A   1      39.664  34.733  37.714  1.00  0.00     0.040 A 
ATOM     79  C   UNL A   1      38.075  33.044  38.367  1.00  0.00     0.040 A 
ATOM     80  F   UNL A   1      37.794  31.126  37.042  1.00  0.00    -0.206 F 
ATOM     81  C   UNL A   1      38.696  34.270  38.602  1.00  0.00     0.006 A 
ENDBRANCH  53  74
BRANCH  65  82
ATOM     82  C   UNL A   1      44.199  28.050  34.490  1.00  0.00     0.057 A 
ATOM     83  C   UNL A   1      44.095  26.874  35.244  1.00  0.00     0.134 A 
ATOM     84  C   UNL A   1      45.456  28.660  34.411  1.00  0.00     0.134 A 
ATOM     85  F   UNL A   1      42.914  26.249  35.371  1.00  0.00    -0.206 F 
ATOM     86  C   UNL A   1      45.197  26.338  35.913  1.00  0.00     0.040 A 
ATOM     87  C   UNL A   1      46.570  28.120  35.054  1.00  0.00     0.040 A 
ATOM     88  F   UNL A   1      45.624  29.785  33.699  1.00  0.00    -0.206 F 
ATOM     89  C   UNL A   1      46.440  26.959  35.814  1.00  0.00     0.006 A 
ENDBRANCH  65  82
ENDBRANCH  39  40
ENDBRANCH  31  34
ENDBRANCH  29  30
ENDBRANCH  28  29
ENDBRANCH   1  28
TORSDOF 14
ENDMDL
