MODEL 1
REMARK VINA RESULT:     -11.1      0.000      0.000
REMARK SMILES O=C(NCCCCNC(=O)C1([NH+]2CCOCC2)CCC1)c1ccc(-c2c3nc(c(-c4c(F)cccc4F)c4ccc([nH]4)c(-c4c(F)cccc4F)c4nc(c(-c5c(F)cccc5F)c5ccc2[nH]5)C=C4)C=C3)cc1
REMARK SMILES IDX 5 1 4 2 3 3 1 4 2 5 21 7 22 8 74 9 23 10 73 11 24 12 25 13
REMARK SMILES IDX 26 14 67 15 27 16 72 17 66 18 68 19 28 20 71 21 65 22 64 23
REMARK SMILES IDX 29 25 55 26 38 27 54 28 39 29 42 30 53 31 69 32 40 33 41 34
REMARK SMILES IDX 52 36 70 37 43 38 30 39 31 40 36 41 32 42 33 43 35 44 37 45
REMARK SMILES IDX 34 46 56 47 57 48 62 49 58 50 59 51 61 52 63 53 60 54 44 55
REMARK SMILES IDX 45 56 50 57 46 58 47 59 49 60 51 61 48 62 6 63 7 64 8 65
REMARK SMILES IDX 9 66 10 68 11 69 18 70 20 71 19 72 12 73 13 74 17 75 14 77
REMARK SMILES IDX 16 78 15 79
REMARK H PARENT 3 6 68 24 42 35 8 67 12 76
REMARK Flexibility Score: inf
ROOT
ATOM      1  C   UNL A   1      33.181  29.007  26.614  1.00  0.00     0.023 C 
ENDROOT
BRANCH   1   2
ATOM      2  C   UNL A   1      34.461  28.969  27.438  1.00  0.00     0.116 C 
BRANCH   2   3
ATOM      3  N   UNL A   1      34.583  30.069  28.384  1.00  0.00    -0.352 N 
ATOM      4  O   UNL A   1      35.549  31.404  29.926  1.00  0.00    -0.269 OA
ATOM      5  C   UNL A   1      35.675  30.508  29.096  1.00  0.00     0.251 C 
ATOM      6  H   UNL A   1      33.755  30.578  28.538  1.00  0.00     0.163 HD
BRANCH   5   7
ATOM      7  C   UNL A   1      36.999  29.874  28.898  1.00  0.00     0.039 A 
ATOM      8  C   UNL A   1      37.635  29.212  29.947  1.00  0.00     0.014 A 
ATOM      9  C   UNL A   1      37.623  29.962  27.649  1.00  0.00     0.014 A 
ATOM     10  C   UNL A   1      38.963  28.829  29.811  1.00  0.00     0.010 A 
ATOM     11  C   UNL A   1      38.923  29.469  27.481  1.00  0.00     0.010 A 
ATOM     12  C   UNL A   1      39.624  28.943  28.575  1.00  0.00    -0.014 A 
BRANCH  12  13
ATOM     13  C   UNL A   1      41.026  28.457  28.473  1.00  0.00     0.031 A 
ATOM     14  C   UNL A   1      41.345  27.032  28.108  1.00  0.00     0.074 A 
ATOM     15  C   UNL A   1      42.023  29.352  28.626  1.00  0.00     0.049 A 
ATOM     16  N   UNL A   1      42.514  26.484  27.888  1.00  0.00    -0.248 NA
ATOM     17  C   UNL A   1      40.215  26.099  27.982  1.00  0.00     0.031 C 
ATOM     18  C   UNL A   1      41.840  30.756  29.005  1.00  0.00     0.029 A 
ATOM     19  N   UNL A   1      43.375  29.233  28.439  1.00  0.00    -0.354 N 
ATOM     20  C   UNL A   1      42.265  25.144  27.617  1.00  0.00     0.074 A 
ATOM     21  C   UNL A   1      40.835  24.954  27.723  1.00  0.00     0.031 C 
ATOM     22  C   UNL A   1      43.021  31.386  28.943  1.00  0.00     0.029 A 
ATOM     23  C   UNL A   1      44.052  30.419  28.584  1.00  0.00     0.049 A 
ATOM     24  H   UNL A   1      43.818  28.381  28.222  1.00  0.00     0.167 HD
ATOM     25  C   UNL A   1      43.149  24.165  27.302  1.00  0.00     0.037 A 
ATOM     26  C   UNL A   1      45.359  30.706  28.445  1.00  0.00     0.037 A 
ATOM     27  C   UNL A   1      44.571  24.360  27.178  1.00  0.00     0.049 A 
ATOM     28  C   UNL A   1      46.308  29.610  28.065  1.00  0.00     0.074 A 
ATOM     29  C   UNL A   1      45.547  23.429  26.861  1.00  0.00     0.029 A 
ATOM     30  N   UNL A   1      45.221  25.573  27.356  1.00  0.00    -0.354 N 
ATOM     31  N   UNL A   1      46.052  28.349  27.813  1.00  0.00    -0.248 NA
ATOM     32  C   UNL A   1      47.726  29.973  27.956  1.00  0.00     0.031 C 
ATOM     33  C   UNL A   1      46.790  24.074  26.872  1.00  0.00     0.029 A 
ATOM     34  C   UNL A   1      46.584  25.412  27.161  1.00  0.00     0.049 A 
ATOM     35  H   UNL A   1      44.779  26.422  27.585  1.00  0.00     0.167 HD
ATOM     36  C   UNL A   1      47.276  27.765  27.527  1.00  0.00     0.074 A 
ATOM     37  C   UNL A   1      48.269  28.819  27.594  1.00  0.00     0.031 C 
ATOM     38  C   UNL A   1      47.557  26.470  27.248  1.00  0.00     0.037 A 
BRANCH  25  39
ATOM     39  C   UNL A   1      42.607  22.783  27.074  1.00  0.00     0.057 A 
ATOM     40  C   UNL A   1      42.528  22.225  25.792  1.00  0.00     0.134 A 
ATOM     41  C   UNL A   1      42.219  21.980  28.153  1.00  0.00     0.134 A 
ATOM     42  F   UNL A   1      42.873  22.947  24.714  1.00  0.00    -0.206 F 
ATOM     43  C   UNL A   1      42.072  20.921  25.590  1.00  0.00     0.040 A 
ATOM     44  C   UNL A   1      41.780  20.667  27.967  1.00  0.00     0.040 A 
ATOM     45  F   UNL A   1      42.277  22.450  29.408  1.00  0.00    -0.206 F 
ATOM     46  C   UNL A   1      41.704  20.135  26.682  1.00  0.00     0.006 A 
ENDBRANCH  25  39
BRANCH  26  47
ATOM     47  C   UNL A   1      45.837  32.090  28.675  1.00  0.00     0.057 A 
ATOM     48  C   UNL A   1      46.290  32.504  29.933  1.00  0.00     0.134 A 
ATOM     49  C   UNL A   1      45.873  33.026  27.634  1.00  0.00     0.134 A 
ATOM     50  F   UNL A   1      46.264  31.657  30.972  1.00  0.00    -0.206 F 
ATOM     51  C   UNL A   1      46.752  33.803  30.150  1.00  0.00     0.040 A 
ATOM     52  C   UNL A   1      46.358  34.319  27.830  1.00  0.00     0.040 A 
ATOM     53  F   UNL A   1      45.460  32.686  26.404  1.00  0.00    -0.206 F 
ATOM     54  C   UNL A   1      46.794  34.712  29.093  1.00  0.00     0.006 A 
ENDBRANCH  26  47
BRANCH  38  55
ATOM     55  C   UNL A   1      48.997  26.133  27.006  1.00  0.00     0.057 A 
ATOM     56  C   UNL A   1      49.560  26.215  25.726  1.00  0.00     0.134 A 
ATOM     57  C   UNL A   1      49.825  25.723  28.057  1.00  0.00     0.134 A 
ATOM     58  F   UNL A   1      48.813  26.587  24.677  1.00  0.00    -0.206 F 
ATOM     59  C   UNL A   1      50.893  25.871  25.495  1.00  0.00     0.040 A 
ATOM     60  C   UNL A   1      51.163  25.397  27.842  1.00  0.00     0.040 A 
ATOM     61  F   UNL A   1      49.345  25.629  29.306  1.00  0.00    -0.206 F 
ATOM     62  C   UNL A   1      51.699  25.463  26.555  1.00  0.00     0.006 A 
ENDBRANCH  38  55
ENDBRANCH  12  13
ENDBRANCH   5   7
ENDBRANCH   2   3
ENDBRANCH   1   2
BRANCH   1  63
ATOM     63  C   UNL A   1      32.000  28.220  27.172  1.00  0.00     0.023 C 
BRANCH  63  64
ATOM     64  C   UNL A   1      31.293  27.272  26.209  1.00  0.00     0.116 C 
BRANCH  64  65
ATOM     65  N   UNL A   1      31.004  25.959  26.746  1.00  0.00    -0.351 N 
ATOM     66  C   UNL A   1      31.679  24.775  26.522  1.00  0.00     0.281 C 
ATOM     67  H   UNL A   1      30.228  25.903  27.349  1.00  0.00     0.163 HD
ATOM     68  O   UNL A   1      31.371  23.834  27.269  1.00  0.00    -0.268 OA
BRANCH  66  69
ATOM     69  C   UNL A   1      32.748  24.668  25.327  1.00  0.00     0.177 C 
ATOM     70  C   UNL A   1      33.982  25.625  25.413  1.00  0.00     0.079 C 
ATOM     71  C   UNL A   1      33.768  23.494  25.460  1.00  0.00     0.079 C 
ATOM     72  C   UNL A   1      34.921  24.450  25.128  1.00  0.00     0.014 C 
BRANCH  69  73
ATOM     73  N   UNL A   1      32.075  24.715  23.990  1.00  0.00    -0.318 N 
ATOM     74  C   UNL A   1      32.148  23.444  23.232  1.00  0.00     0.291 C 
ATOM     75  C   UNL A   1      32.259  25.849  23.078  1.00  0.00     0.291 C 
ATOM     76  H   UNL A   1      31.137  24.888  24.354  1.00  0.00     0.349 HD
ATOM     77  C   UNL A   1      33.288  23.355  22.202  1.00  0.00     0.221 C 
ATOM     78  C   UNL A   1      33.404  25.701  22.062  1.00  0.00     0.221 C 
ATOM     79  O   UNL A   1      33.292  24.482  21.322  1.00  0.00    -0.370 OA
ENDBRANCH  69  73
ENDBRANCH  66  69
ENDBRANCH  64  65
ENDBRANCH  63  64
ENDBRANCH   1  63
TORSDOF 12
ENDMDL
MODEL 2
REMARK VINA RESULT:     -11.0      5.339      9.150
REMARK SMILES O=C(NCCCCNC(=O)C1([NH+]2CCOCC2)CCC1)c1ccc(-c2c3nc(c(-c4c(F)cccc4F)c4ccc([nH]4)c(-c4c(F)cccc4F)c4nc(c(-c5c(F)cccc5F)c5ccc2[nH]5)C=C4)C=C3)cc1
REMARK SMILES IDX 5 1 4 2 3 3 1 4 2 5 21 7 22 8 74 9 23 10 73 11 24 12 25 13
REMARK SMILES IDX 26 14 67 15 27 16 72 17 66 18 68 19 28 20 71 21 65 22 64 23
REMARK SMILES IDX 29 25 55 26 38 27 54 28 39 29 42 30 53 31 69 32 40 33 41 34
REMARK SMILES IDX 52 36 70 37 43 38 30 39 31 40 36 41 32 42 33 43 35 44 37 45
REMARK SMILES IDX 34 46 56 47 57 48 62 49 58 50 59 51 61 52 63 53 60 54 44 55
REMARK SMILES IDX 45 56 50 57 46 58 47 59 49 60 51 61 48 62 6 63 7 64 8 65
REMARK SMILES IDX 9 66 10 68 11 69 18 70 20 71 19 72 12 73 13 74 17 75 14 77
REMARK SMILES IDX 16 78 15 79
REMARK H PARENT 3 6 68 24 42 35 8 67 12 76
REMARK Flexibility Score: inf
ROOT
ATOM      1  C   UNL A   1      31.463  31.997  26.655  1.00  0.00     0.023 C 
ENDROOT
BRANCH   1   2
ATOM      2  C   UNL A   1      32.648  32.744  27.249  1.00  0.00     0.116 C 
BRANCH   2   3
ATOM      3  N   UNL A   1      32.346  34.118  27.627  1.00  0.00    -0.352 N 
ATOM      4  O   UNL A   1      32.491  36.047  28.788  1.00  0.00    -0.269 OA
ATOM      5  C   UNL A   1      32.962  34.940  28.542  1.00  0.00     0.251 C 
ATOM      6  H   UNL A   1      31.582  34.520  27.155  1.00  0.00     0.163 HD
BRANCH   5   7
ATOM      7  C   UNL A   1      34.170  34.480  29.265  1.00  0.00     0.039 A 
ATOM      8  C   UNL A   1      35.439  34.660  28.718  1.00  0.00     0.014 A 
ATOM      9  C   UNL A   1      34.028  33.840  30.502  1.00  0.00     0.014 A 
ATOM     10  C   UNL A   1      36.531  34.023  29.293  1.00  0.00     0.010 A 
ATOM     11  C   UNL A   1      35.151  33.297  31.140  1.00  0.00     0.010 A 
ATOM     12  C   UNL A   1      36.406  33.340  30.516  1.00  0.00    -0.014 A 
BRANCH  12  13
ATOM     13  C   UNL A   1      37.622  32.731  31.117  1.00  0.00     0.031 A 
ATOM     14  C   UNL A   1      38.136  33.158  32.465  1.00  0.00     0.074 A 
ATOM     15  C   UNL A   1      38.213  31.711  30.463  1.00  0.00     0.049 A 
ATOM     16  N   UNL A   1      39.126  32.656  33.161  1.00  0.00    -0.248 NA
ATOM     17  C   UNL A   1      37.466  34.294  33.115  1.00  0.00     0.031 C 
ATOM     18  C   UNL A   1      37.821  31.224  29.137  1.00  0.00     0.029 A 
ATOM     19  N   UNL A   1      39.232  30.873  30.835  1.00  0.00    -0.354 N 
ATOM     20  C   UNL A   1      39.211  33.423  34.317  1.00  0.00     0.074 A 
ATOM     21  C   UNL A   1      38.186  34.440  34.220  1.00  0.00     0.031 C 
ATOM     22  C   UNL A   1      38.531  30.126  28.844  1.00  0.00     0.029 A 
ATOM     23  C   UNL A   1      39.471  29.870  29.928  1.00  0.00     0.049 A 
ATOM     24  H   UNL A   1      39.740  30.978  31.672  1.00  0.00     0.167 HD
ATOM     25  C   UNL A   1      40.060  33.286  35.365  1.00  0.00     0.037 A 
ATOM     26  C   UNL A   1      40.351  28.852  29.959  1.00  0.00     0.037 A 
ATOM     27  C   UNL A   1      41.067  32.260  35.469  1.00  0.00     0.049 A 
ATOM     28  C   UNL A   1      41.255  28.707  31.145  1.00  0.00     0.074 A 
ATOM     29  C   UNL A   1      41.974  32.040  36.492  1.00  0.00     0.029 A 
ATOM     30  N   UNL A   1      41.295  31.277  34.517  1.00  0.00    -0.354 N 
ATOM     31  N   UNL A   1      41.318  29.443  32.228  1.00  0.00    -0.248 NA
ATOM     32  C   UNL A   1      42.215  27.596  31.112  1.00  0.00     0.031 C 
ATOM     33  C   UNL A   1      42.767  30.939  36.148  1.00  0.00     0.029 A 
ATOM     34  C   UNL A   1      42.330  30.452  34.928  1.00  0.00     0.049 A 
ATOM     35  H   UNL A   1      40.794  31.179  33.676  1.00  0.00     0.167 HD
ATOM     36  C   UNL A   1      42.330  28.892  33.000  1.00  0.00     0.074 A 
ATOM     37  C   UNL A   1      42.823  27.735  32.281  1.00  0.00     0.031 C 
ATOM     38  C   UNL A   1      42.817  29.315  34.191  1.00  0.00     0.037 A 
BRANCH  25  39
ATOM     39  C   UNL A   1      39.946  34.275  36.489  1.00  0.00     0.057 A 
ATOM     40  C   UNL A   1      40.610  35.508  36.456  1.00  0.00     0.134 A 
ATOM     41  C   UNL A   1      39.115  34.017  37.587  1.00  0.00     0.134 A 
ATOM     42  F   UNL A   1      41.430  35.810  35.438  1.00  0.00    -0.206 F 
ATOM     43  C   UNL A   1      40.459  36.445  37.480  1.00  0.00     0.040 A 
ATOM     44  C   UNL A   1      38.940  34.956  38.607  1.00  0.00     0.040 A 
ATOM     45  F   UNL A   1      38.445  32.859  37.677  1.00  0.00    -0.206 F 
ATOM     46  C   UNL A   1      39.615  36.172  38.556  1.00  0.00     0.006 A 
ENDBRANCH  25  39
BRANCH  26  47
ATOM     47  C   UNL A   1      40.414  27.901  28.823  1.00  0.00     0.057 A 
ATOM     48  C   UNL A   1      41.220  28.153  27.707  1.00  0.00     0.134 A 
ATOM     49  C   UNL A   1      39.686  26.705  28.840  1.00  0.00     0.134 A 
ATOM     50  F   UNL A   1      41.928  29.289  27.628  1.00  0.00    -0.206 F 
ATOM     51  C   UNL A   1      41.291  27.253  26.642  1.00  0.00     0.040 A 
ATOM     52  C   UNL A   1      39.769  25.784  27.795  1.00  0.00     0.040 A 
ATOM     53  F   UNL A   1      38.903  26.403  29.886  1.00  0.00    -0.206 F 
ATOM     54  C   UNL A   1      40.570  26.061  26.689  1.00  0.00     0.006 A 
ENDBRANCH  26  47
BRANCH  38  55
ATOM     55  C   UNL A   1      43.945  28.519  34.774  1.00  0.00     0.057 A 
ATOM     56  C   UNL A   1      43.707  27.427  35.618  1.00  0.00     0.134 A 
ATOM     57  C   UNL A   1      45.276  28.848  34.492  1.00  0.00     0.134 A 
ATOM     58  F   UNL A   1      42.453  27.074  35.936  1.00  0.00    -0.206 F 
ATOM     59  C   UNL A   1      44.758  26.705  36.185  1.00  0.00     0.040 A 
ATOM     60  C   UNL A   1      46.333  28.121  35.038  1.00  0.00     0.040 A 
ATOM     61  F   UNL A   1      45.568  29.880  33.688  1.00  0.00    -0.206 F 
ATOM     62  C   UNL A   1      46.076  27.051  35.895  1.00  0.00     0.006 A 
ENDBRANCH  38  55
ENDBRANCH  12  13
ENDBRANCH   5   7
ENDBRANCH   2   3
ENDBRANCH   1   2
BRANCH   1  63
ATOM     63  C   UNL A   1      31.589  30.478  26.593  1.00  0.00     0.023 C 
BRANCH  63  64
ATOM     64  C   UNL A   1      32.070  29.884  25.271  1.00  0.00     0.116 C 
BRANCH  64  65
ATOM     65  N   UNL A   1      31.038  29.706  24.271  1.00  0.00    -0.351 N 
ATOM     66  C   UNL A   1      30.488  28.527  23.809  1.00  0.00     0.281 C 
ATOM     67  H   UNL A   1      30.683  30.532  23.870  1.00  0.00     0.163 HD
ATOM     68  O   UNL A   1      29.469  28.648  23.114  1.00  0.00    -0.268 OA
BRANCH  66  69
ATOM     69  C   UNL A   1      31.194  27.122  24.141  1.00  0.00     0.177 C 
ATOM     70  C   UNL A   1      31.092  26.628  25.622  1.00  0.00     0.079 C 
ATOM     71  C   UNL A   1      30.358  25.860  23.762  1.00  0.00     0.079 C 
ATOM     72  C   UNL A   1      30.650  25.245  25.136  1.00  0.00     0.014 C 
BRANCH  69  73
ATOM     73  N   UNL A   1      32.595  27.080  23.616  1.00  0.00    -0.318 N 
ATOM     74  C   UNL A   1      32.686  26.874  22.151  1.00  0.00     0.291 C 
ATOM     75  C   UNL A   1      33.646  26.310  24.292  1.00  0.00     0.291 C 
ATOM     76  H   UNL A   1      32.833  28.036  23.881  1.00  0.00     0.349 HD
ATOM     77  C   UNL A   1      32.905  25.418  21.703  1.00  0.00     0.221 C 
ATOM     78  C   UNL A   1      33.830  24.867  23.795  1.00  0.00     0.221 C 
ATOM     79  O   UNL A   1      34.016  24.821  22.377  1.00  0.00    -0.370 OA
ENDBRANCH  69  73
ENDBRANCH  66  69
ENDBRANCH  64  65
ENDBRANCH  63  64
ENDBRANCH   1  63
TORSDOF 12
ENDMDL
MODEL 3
REMARK VINA RESULT:     -10.9      5.461      9.289
REMARK SMILES O=C(NCCCCNC(=O)C1([NH+]2CCOCC2)CCC1)c1ccc(-c2c3nc(c(-c4c(F)cccc4F)c4ccc([nH]4)c(-c4c(F)cccc4F)c4nc(c(-c5c(F)cccc5F)c5ccc2[nH]5)C=C4)C=C3)cc1
REMARK SMILES IDX 5 1 4 2 3 3 1 4 2 5 21 7 22 8 74 9 23 10 73 11 24 12 25 13
REMARK SMILES IDX 26 14 67 15 27 16 72 17 66 18 68 19 28 20 71 21 65 22 64 23
REMARK SMILES IDX 29 25 55 26 38 27 54 28 39 29 42 30 53 31 69 32 40 33 41 34
REMARK SMILES IDX 52 36 70 37 43 38 30 39 31 40 36 41 32 42 33 43 35 44 37 45
REMARK SMILES IDX 34 46 56 47 57 48 62 49 58 50 59 51 61 52 63 53 60 54 44 55
REMARK SMILES IDX 45 56 50 57 46 58 47 59 49 60 51 61 48 62 6 63 7 64 8 65
REMARK SMILES IDX 9 66 10 68 11 69 18 70 20 71 19 72 12 73 13 74 17 75 14 77
REMARK SMILES IDX 16 78 15 79
REMARK H PARENT 3 6 68 24 42 35 8 67 12 76
REMARK Flexibility Score: inf
ROOT
ATOM      1  C   UNL A   1      31.463  31.956  26.869  1.00  0.00     0.023 C 
ENDROOT
BRANCH   1   2
ATOM      2  C   UNL A   1      32.684  32.776  27.259  1.00  0.00     0.116 C 
BRANCH   2   3
ATOM      3  N   UNL A   1      32.375  34.152  27.623  1.00  0.00    -0.352 N 
ATOM      4  O   UNL A   1      32.502  36.091  28.771  1.00  0.00    -0.269 OA
ATOM      5  C   UNL A   1      32.978  34.982  28.540  1.00  0.00     0.251 C 
ATOM      6  H   UNL A   1      31.617  34.549  27.138  1.00  0.00     0.163 HD
BRANCH   5   7
ATOM      7  C   UNL A   1      34.176  34.529  29.282  1.00  0.00     0.039 A 
ATOM      8  C   UNL A   1      35.441  34.595  28.701  1.00  0.00     0.014 A 
ATOM      9  C   UNL A   1      34.029  34.012  30.575  1.00  0.00     0.014 A 
ATOM     10  C   UNL A   1      36.512  33.958  29.315  1.00  0.00     0.010 A 
ATOM     11  C   UNL A   1      35.136  33.473  31.242  1.00  0.00     0.010 A 
ATOM     12  C   UNL A   1      36.379  33.396  30.597  1.00  0.00    -0.014 A 
BRANCH  12  13
ATOM     13  C   UNL A   1      37.576  32.784  31.231  1.00  0.00     0.031 A 
ATOM     14  C   UNL A   1      38.057  33.213  32.591  1.00  0.00     0.074 A 
ATOM     15  C   UNL A   1      38.179  31.759  30.597  1.00  0.00     0.049 A 
ATOM     16  N   UNL A   1      39.026  32.710  33.315  1.00  0.00    -0.248 NA
ATOM     17  C   UNL A   1      37.375  34.355  33.219  1.00  0.00     0.031 C 
ATOM     18  C   UNL A   1      37.820  31.269  29.263  1.00  0.00     0.029 A 
ATOM     19  N   UNL A   1      39.183  30.917  30.998  1.00  0.00    -0.354 N 
ATOM     20  C   UNL A   1      39.084  33.480  34.470  1.00  0.00     0.074 A 
ATOM     21  C   UNL A   1      38.066  34.502  34.343  1.00  0.00     0.031 C 
ATOM     22  C   UNL A   1      38.532  30.167  28.992  1.00  0.00     0.029 A 
ATOM     23  C   UNL A   1      39.442  29.910  30.102  1.00  0.00     0.049 A 
ATOM     24  H   UNL A   1      39.671  31.023  31.848  1.00  0.00     0.167 HD
ATOM     25  C   UNL A   1      39.904  33.343  35.540  1.00  0.00     0.037 A 
ATOM     26  C   UNL A   1      40.316  28.888  30.159  1.00  0.00     0.037 A 
ATOM     27  C   UNL A   1      40.904  32.313  35.674  1.00  0.00     0.049 A 
ATOM     28  C   UNL A   1      41.188  28.743  31.369  1.00  0.00     0.074 A 
ATOM     29  C   UNL A   1      41.782  32.092  36.722  1.00  0.00     0.029 A 
ATOM     30  N   UNL A   1      41.151  31.325  34.732  1.00  0.00    -0.354 N 
ATOM     31  N   UNL A   1      41.226  29.483  32.450  1.00  0.00    -0.248 NA
ATOM     32  C   UNL A   1      42.143  27.627  31.365  1.00  0.00     0.031 C 
ATOM     33  C   UNL A   1      42.578  30.986  36.403  1.00  0.00     0.029 A 
ATOM     34  C   UNL A   1      42.172  30.497  35.173  1.00  0.00     0.049 A 
ATOM     35  H   UNL A   1      40.672  31.227  33.878  1.00  0.00     0.167 HD
ATOM     36  C   UNL A   1      42.214  28.930  33.251  1.00  0.00     0.074 A 
ATOM     37  C   UNL A   1      42.721  27.768  32.549  1.00  0.00     0.031 C 
ATOM     38  C   UNL A   1      42.673  29.355  34.453  1.00  0.00     0.037 A 
BRANCH  25  39
ATOM     39  C   UNL A   1      39.765  34.336  36.658  1.00  0.00     0.057 A 
ATOM     40  C   UNL A   1      38.987  34.067  37.791  1.00  0.00     0.134 A 
ATOM     41  C   UNL A   1      40.467  35.548  36.629  1.00  0.00     0.134 A 
ATOM     42  F   UNL A   1      38.281  32.929  37.875  1.00  0.00    -0.206 F 
ATOM     43  C   UNL A   1      38.903  34.972  38.851  1.00  0.00     0.040 A 
ATOM     44  C   UNL A   1      40.407  36.452  37.692  1.00  0.00     0.040 A 
ATOM     45  F   UNL A   1      41.236  35.865  35.577  1.00  0.00    -0.206 F 
ATOM     46  C   UNL A   1      39.622  36.166  38.805  1.00  0.00     0.006 A 
ENDBRANCH  25  39
BRANCH  26  47
ATOM     47  C   UNL A   1      40.404  27.932  29.029  1.00  0.00     0.057 A 
ATOM     48  C   UNL A   1      39.663  26.745  29.020  1.00  0.00     0.134 A 
ATOM     49  C   UNL A   1      41.215  28.198  27.919  1.00  0.00     0.134 A 
ATOM     50  F   UNL A   1      38.881  26.430  30.063  1.00  0.00    -0.206 F 
ATOM     51  C   UNL A   1      39.734  25.850  27.952  1.00  0.00     0.040 A 
ATOM     52  C   UNL A   1      41.275  27.325  26.832  1.00  0.00     0.040 A 
ATOM     53  F   UNL A   1      41.942  29.324  27.865  1.00  0.00    -0.206 F 
ATOM     54  C   UNL A   1      40.536  26.144  26.850  1.00  0.00     0.006 A 
ENDBRANCH  26  47
BRANCH  38  55
ATOM     55  C   UNL A   1      43.781  28.556  35.068  1.00  0.00     0.057 A 
ATOM     56  C   UNL A   1      43.516  27.479  35.923  1.00  0.00     0.134 A 
ATOM     57  C   UNL A   1      45.120  28.866  34.806  1.00  0.00     0.134 A 
ATOM     58  F   UNL A   1      42.253  27.144  36.223  1.00  0.00    -0.206 F 
ATOM     59  C   UNL A   1      44.548  26.755  36.520  1.00  0.00     0.040 A 
ATOM     60  C   UNL A   1      46.160  28.137  35.382  1.00  0.00     0.040 A 
ATOM     61  F   UNL A   1      45.438  29.884  33.992  1.00  0.00    -0.206 F 
ATOM     62  C   UNL A   1      45.875  27.082  36.249  1.00  0.00     0.006 A 
ENDBRANCH  38  55
ENDBRANCH  12  13
ENDBRANCH   5   7
ENDBRANCH   2   3
ENDBRANCH   1   2
BRANCH   1  63
ATOM     63  C   UNL A   1      31.685  30.455  26.710  1.00  0.00     0.023 C 
BRANCH  63  64
ATOM     64  C   UNL A   1      32.236  29.982  25.367  1.00  0.00     0.116 C 
BRANCH  64  65
ATOM     65  N   UNL A   1      31.239  29.771  24.339  1.00  0.00    -0.351 N 
ATOM     66  C   UNL A   1      30.656  28.584  23.944  1.00  0.00     0.281 C 
ATOM     67  H   UNL A   1      30.938  30.578  23.861  1.00  0.00     0.163 HD
ATOM     68  O   UNL A   1      29.672  28.693  23.197  1.00  0.00    -0.268 OA
BRANCH  66  69
ATOM     69  C   UNL A   1      31.283  27.180  24.412  1.00  0.00     0.177 C 
ATOM     70  C   UNL A   1      31.175  26.847  25.937  1.00  0.00     0.079 C 
ATOM     71  C   UNL A   1      30.368  25.939  24.173  1.00  0.00     0.079 C 
ATOM     72  C   UNL A   1      30.645  25.451  25.601  1.00  0.00     0.014 C 
BRANCH  69  73
ATOM     73  N   UNL A   1      32.670  27.000  23.880  1.00  0.00    -0.318 N 
ATOM     74  C   UNL A   1      32.792  27.223  22.420  1.00  0.00     0.291 C 
ATOM     75  C   UNL A   1      33.504  25.860  24.279  1.00  0.00     0.291 C 
ATOM     76  H   UNL A   1      33.086  27.762  24.417  1.00  0.00     0.349 HD
ATOM     77  C   UNL A   1      32.730  25.954  21.551  1.00  0.00     0.221 C 
ATOM     78  C   UNL A   1      33.413  24.624  23.369  1.00  0.00     0.221 C 
ATOM     79  O   UNL A   1      33.658  24.963  22.001  1.00  0.00    -0.370 OA
ENDBRANCH  69  73
ENDBRANCH  66  69
ENDBRANCH  64  65
ENDBRANCH  63  64
ENDBRANCH   1  63
TORSDOF 12
ENDMDL
