MODEL 1
REMARK VINA RESULT:     -10.2      0.000      0.000
REMARK SMILES CCN(CC)C(=O)[C@H](C)S[C@H](C)C(=O)NCCCCNC(=O)c1ccc(-c2c3nc(c(-c4c(F)cccc4F)c4ccc([nH]4)c(-c4c(F)cccc4F)c4nc(c(-c5c(F)cccc5F)c5ccc2[nH]5)C=C4)C=C3)cc1
REMARK SMILES IDX 16 1 15 2 13 3 14 4 11 6 12 7 10 8 8 9 9 10 6 11 3 12 7 13
REMARK SMILES IDX 2 14 1 15 4 16 5 17 17 18 18 19 19 20 20 21 21 22 22 24
REMARK SMILES IDX 23 25 24 26 76 27 25 28 75 29 26 30 27 31 28 32 69 33 29 34
REMARK SMILES IDX 74 35 68 36 70 37 30 38 73 39 67 40 66 41 31 43 57 44 40 45
REMARK SMILES IDX 56 46 41 47 44 48 55 49 71 50 42 51 43 52 54 54 72 55 45 56
REMARK SMILES IDX 32 57 33 58 38 59 34 60 35 61 37 62 39 63 36 64 58 65 59 66
REMARK SMILES IDX 64 67 60 68 61 69 63 70 65 71 62 72 46 73 47 74 52 75 48 76
REMARK SMILES IDX 49 77 51 78 53 79 50 80
REMARK H PARENT 15 5 20 23 70 42 44 53
REMARK Flexibility Score: inf
ROOT
ATOM      1  C   UNL A   1      31.809  29.871  25.361  1.00  0.00     0.116 C 
ENDROOT
BRANCH   1   2
ATOM      2  N   UNL A   1      30.904  30.025  24.232  1.00  0.00    -0.355 N 
ATOM      3  C   UNL A   1      30.139  29.091  23.580  1.00  0.00     0.232 C 
ATOM      4  O   UNL A   1      29.325  29.490  22.743  1.00  0.00    -0.274 OA
ATOM      5  H   UNL A   1      30.828  30.942  23.881  1.00  0.00     0.163 HD
BRANCH   3   6
ATOM      6  C   UNL A   1      30.397  27.589  23.769  1.00  0.00     0.133 C 
ATOM      7  C   UNL A   1      28.991  26.973  23.863  1.00  0.00     0.030 C 
BRANCH   6   8
ATOM      8  S   UNL A   1      31.506  26.982  22.390  1.00  0.00    -0.136 SA
BRANCH   8   9
ATOM      9  C   UNL A   1      33.257  27.146  22.891  1.00  0.00     0.133 C 
ATOM     10  C   UNL A   1      34.004  28.434  22.604  1.00  0.00     0.030 C 
BRANCH   9  11
ATOM     11  C   UNL A   1      33.690  26.362  24.162  1.00  0.00     0.235 C 
ATOM     12  N   UNL A   1      34.065  25.025  24.152  1.00  0.00    -0.342 N 
ATOM     13  O   UNL A   1      33.655  26.967  25.244  1.00  0.00    -0.274 OA
BRANCH  12  14
ATOM     14  C   UNL A   1      34.556  24.420  25.393  1.00  0.00     0.116 C 
ATOM     15  C   UNL A   1      33.439  23.769  26.200  1.00  0.00     0.027 C 
ENDBRANCH  12  14
BRANCH  12  16
ATOM     16  C   UNL A   1      34.087  24.163  22.994  1.00  0.00     0.116 C 
ATOM     17  C   UNL A   1      32.773  23.449  22.747  1.00  0.00     0.027 C 
ENDBRANCH  12  16
ENDBRANCH   9  11
ENDBRANCH   8   9
ENDBRANCH   6   8
ENDBRANCH   3   6
ENDBRANCH   1   2
BRANCH   1  18
ATOM     18  C   UNL A   1      31.406  30.622  26.628  1.00  0.00     0.023 C 
BRANCH  18  19
ATOM     19  C   UNL A   1      31.416  32.137  26.511  1.00  0.00     0.023 C 
BRANCH  19  20
ATOM     20  C   UNL A   1      32.642  32.790  27.117  1.00  0.00     0.116 C 
BRANCH  20  21
ATOM     21  N   UNL A   1      32.387  34.127  27.632  1.00  0.00    -0.352 N 
ATOM     22  C   UNL A   1      33.068  34.793  28.625  1.00  0.00     0.251 C 
ATOM     23  H   UNL A   1      31.637  34.614  27.221  1.00  0.00     0.163 HD
ATOM     24  O   UNL A   1      32.693  35.875  29.029  1.00  0.00    -0.269 OA
BRANCH  22  25
ATOM     25  C   UNL A   1      34.247  34.129  29.215  1.00  0.00     0.039 A 
ATOM     26  C   UNL A   1      34.044  33.131  30.166  1.00  0.00     0.014 A 
ATOM     27  C   UNL A   1      35.533  34.454  28.775  1.00  0.00     0.014 A 
ATOM     28  C   UNL A   1      35.145  32.435  30.660  1.00  0.00     0.010 A 
ATOM     29  C   UNL A   1      36.610  33.685  29.183  1.00  0.00     0.010 A 
ATOM     30  C   UNL A   1      36.431  32.696  30.160  1.00  0.00    -0.014 A 
BRANCH  30  31
ATOM     31  C   UNL A   1      37.616  32.005  30.715  1.00  0.00     0.031 A 
ATOM     32  C   UNL A   1      38.093  32.357  32.098  1.00  0.00     0.074 A 
ATOM     33  C   UNL A   1      38.268  31.090  29.975  1.00  0.00     0.049 A 
ATOM     34  N   UNL A   1      39.108  31.877  32.768  1.00  0.00    -0.248 NA
ATOM     35  C   UNL A   1      37.351  33.411  32.809  1.00  0.00     0.031 C 
ATOM     36  C   UNL A   1      37.930  30.711  28.601  1.00  0.00     0.029 A 
ATOM     37  N   UNL A   1      39.351  30.308  30.278  1.00  0.00    -0.354 N 
ATOM     38  C   UNL A   1      39.131  32.581  33.967  1.00  0.00     0.074 A 
ATOM     39  C   UNL A   1      38.081  33.572  33.900  1.00  0.00     0.031 C 
ATOM     40  C   UNL A   1      38.765  29.739  28.196  1.00  0.00     0.029 A 
ATOM     41  C   UNL A   1      39.712  29.450  29.268  1.00  0.00     0.049 A 
ATOM     42  H   UNL A   1      39.825  30.355  31.140  1.00  0.00     0.167 HD
ATOM     43  C   UNL A   1      39.929  32.394  35.043  1.00  0.00     0.037 A 
ATOM     44  C   UNL A   1      40.692  28.530  29.223  1.00  0.00     0.037 A 
ATOM     45  C   UNL A   1      40.949  31.384  35.113  1.00  0.00     0.049 A 
ATOM     46  C   UNL A   1      41.555  28.328  30.437  1.00  0.00     0.074 A 
ATOM     47  C   UNL A   1      41.785  31.073  36.170  1.00  0.00     0.029 A 
ATOM     48  N   UNL A   1      41.266  30.516  34.078  1.00  0.00    -0.354 N 
ATOM     49  N   UNL A   1      41.522  28.952  31.591  1.00  0.00    -0.248 NA
ATOM     50  C   UNL A   1      42.580  27.279  30.351  1.00  0.00     0.031 C 
ATOM     51  C   UNL A   1      42.638  30.044  35.760  1.00  0.00     0.029 A 
ATOM     52  C   UNL A   1      42.294  29.674  34.469  1.00  0.00     0.049 A 
ATOM     53  H   UNL A   1      40.826  30.500  33.199  1.00  0.00     0.167 HD
ATOM     54  C   UNL A   1      42.492  28.347  32.380  1.00  0.00     0.074 A 
ATOM     55  C   UNL A   1      43.086  27.298  31.575  1.00  0.00     0.031 C 
ATOM     56  C   UNL A   1      42.857  28.627  33.656  1.00  0.00     0.037 A 
BRANCH  43  57
ATOM     57  C   UNL A   1      39.718  33.296  36.224  1.00  0.00     0.057 A 
ATOM     58  C   UNL A   1      38.813  32.978  37.247  1.00  0.00     0.134 A 
ATOM     59  C   UNL A   1      40.433  34.493  36.348  1.00  0.00     0.134 A 
ATOM     60  F   UNL A   1      38.080  31.855  37.182  1.00  0.00    -0.206 F 
ATOM     61  C   UNL A   1      38.604  33.830  38.332  1.00  0.00     0.040 A 
ATOM     62  C   UNL A   1      40.258  35.339  37.444  1.00  0.00     0.040 A 
ATOM     63  F   UNL A   1      41.316  34.860  35.407  1.00  0.00    -0.206 F 
ATOM     64  C   UNL A   1      39.335  35.012  38.437  1.00  0.00     0.006 A 
ENDBRANCH  43  57
BRANCH  44  65
ATOM     65  C   UNL A   1      40.880  27.698  28.007  1.00  0.00     0.057 A 
ATOM     66  C   UNL A   1      41.684  28.135  26.947  1.00  0.00     0.134 A 
ATOM     67  C   UNL A   1      40.253  26.454  27.867  1.00  0.00     0.134 A 
ATOM     68  F   UNL A   1      42.302  29.325  27.015  1.00  0.00    -0.206 F 
ATOM     69  C   UNL A   1      41.834  27.383  25.781  1.00  0.00     0.040 A 
ATOM     70  C   UNL A   1      40.416  25.677  26.719  1.00  0.00     0.040 A 
ATOM     71  F   UNL A   1      39.481  25.971  28.852  1.00  0.00    -0.206 F 
ATOM     72  C   UNL A   1      41.201  26.147  25.667  1.00  0.00     0.006 A 
ENDBRANCH  44  65
BRANCH  56  73
ATOM     73  C   UNL A   1      43.906  27.750  34.276  1.00  0.00     0.057 A 
ATOM     74  C   UNL A   1      45.266  28.081  34.250  1.00  0.00     0.134 A 
ATOM     75  C   UNL A   1      43.539  26.567  34.931  1.00  0.00     0.134 A 
ATOM     76  F   UNL A   1      45.685  29.195  33.629  1.00  0.00    -0.206 F 
ATOM     77  C   UNL A   1      46.229  27.249  34.823  1.00  0.00     0.040 A 
ATOM     78  C   UNL A   1      44.488  25.743  35.535  1.00  0.00     0.040 A 
ATOM     79  F   UNL A   1      42.251  26.199  35.003  1.00  0.00    -0.206 F 
ATOM     80  C   UNL A   1      45.839  26.079  35.473  1.00  0.00     0.006 A 
ENDBRANCH  56  73
ENDBRANCH  30  31
ENDBRANCH  22  25
ENDBRANCH  20  21
ENDBRANCH  19  20
ENDBRANCH  18  19
ENDBRANCH   1  18
TORSDOF 16
ENDMDL
MODEL 2
REMARK VINA RESULT:     -10.0      1.022      2.174
REMARK SMILES CCN(CC)C(=O)[C@H](C)S[C@H](C)C(=O)NCCCCNC(=O)c1ccc(-c2c3nc(c(-c4c(F)cccc4F)c4ccc([nH]4)c(-c4c(F)cccc4F)c4nc(c(-c5c(F)cccc5F)c5ccc2[nH]5)C=C4)C=C3)cc1
REMARK SMILES IDX 16 1 15 2 13 3 14 4 11 6 12 7 10 8 8 9 9 10 6 11 3 12 7 13
REMARK SMILES IDX 2 14 1 15 4 16 5 17 17 18 18 19 19 20 20 21 21 22 22 24
REMARK SMILES IDX 23 25 24 26 76 27 25 28 75 29 26 30 27 31 28 32 69 33 29 34
REMARK SMILES IDX 74 35 68 36 70 37 30 38 73 39 67 40 66 41 31 43 57 44 40 45
REMARK SMILES IDX 56 46 41 47 44 48 55 49 71 50 42 51 43 52 54 54 72 55 45 56
REMARK SMILES IDX 32 57 33 58 38 59 34 60 35 61 37 62 39 63 36 64 58 65 59 66
REMARK SMILES IDX 64 67 60 68 61 69 63 70 65 71 62 72 46 73 47 74 52 75 48 76
REMARK SMILES IDX 49 77 51 78 53 79 50 80
REMARK H PARENT 15 5 20 23 70 42 44 53
REMARK Flexibility Score: inf
ROOT
ATOM      1  C   UNL A   1      32.124  29.680  25.316  1.00  0.00     0.116 C 
ENDROOT
BRANCH   1   2
ATOM      2  N   UNL A   1      31.310  29.806  24.117  1.00  0.00    -0.355 N 
ATOM      3  C   UNL A   1      30.540  28.872  23.471  1.00  0.00     0.232 C 
ATOM      4  O   UNL A   1      29.810  29.257  22.553  1.00  0.00    -0.274 OA
ATOM      5  H   UNL A   1      31.312  30.700  23.705  1.00  0.00     0.163 HD
BRANCH   3   6
ATOM      6  C   UNL A   1      30.697  27.374  23.773  1.00  0.00     0.133 C 
ATOM      7  C   UNL A   1      29.252  26.855  23.873  1.00  0.00     0.030 C 
BRANCH   6   8
ATOM      8  S   UNL A   1      31.795  26.601  22.470  1.00  0.00    -0.136 SA
BRANCH   8   9
ATOM      9  C   UNL A   1      33.123  25.638  23.278  1.00  0.00     0.133 C 
ATOM     10  C   UNL A   1      33.636  26.061  24.642  1.00  0.00     0.030 C 
BRANCH   9  11
ATOM     11  C   UNL A   1      33.166  24.117  22.963  1.00  0.00     0.235 C 
ATOM     12  N   UNL A   1      32.183  23.220  23.359  1.00  0.00    -0.342 N 
ATOM     13  O   UNL A   1      34.161  23.688  22.359  1.00  0.00    -0.274 OA
BRANCH  12  14
ATOM     14  C   UNL A   1      32.277  21.827  22.914  1.00  0.00     0.116 C 
ATOM     15  C   UNL A   1      33.007  20.946  23.920  1.00  0.00     0.027 C 
ENDBRANCH  12  14
BRANCH  12  16
ATOM     16  C   UNL A   1      31.006  23.543  24.130  1.00  0.00     0.116 C 
ATOM     17  C   UNL A   1      31.204  23.402  25.625  1.00  0.00     0.027 C 
ENDBRANCH  12  16
ENDBRANCH   9  11
ENDBRANCH   8   9
ENDBRANCH   6   8
ENDBRANCH   3   6
ENDBRANCH   1   2
BRANCH   1  18
ATOM     18  C   UNL A   1      31.513  30.269  26.585  1.00  0.00     0.023 C 
BRANCH  18  19
ATOM     19  C   UNL A   1      31.275  31.768  26.552  1.00  0.00     0.023 C 
BRANCH  19  20
ATOM     20  C   UNL A   1      32.519  32.592  26.813  1.00  0.00     0.116 C 
BRANCH  20  21
ATOM     21  N   UNL A   1      32.238  33.888  27.412  1.00  0.00    -0.352 N 
ATOM     22  C   UNL A   1      32.931  34.521  28.418  1.00  0.00     0.251 C 
ATOM     23  H   UNL A   1      31.457  34.369  27.055  1.00  0.00     0.163 HD
ATOM     24  O   UNL A   1      32.533  35.565  28.896  1.00  0.00    -0.269 OA
BRANCH  22  25
ATOM     25  C   UNL A   1      34.152  33.869  28.928  1.00  0.00     0.039 A 
ATOM     26  C   UNL A   1      35.391  34.339  28.495  1.00  0.00     0.014 A 
ATOM     27  C   UNL A   1      34.062  32.847  29.877  1.00  0.00     0.014 A 
ATOM     28  C   UNL A   1      36.550  33.793  29.041  1.00  0.00     0.010 A 
ATOM     29  C   UNL A   1      35.211  32.387  30.499  1.00  0.00     0.010 A 
ATOM     30  C   UNL A   1      36.467  32.827  30.057  1.00  0.00    -0.014 A 
BRANCH  30  31
ATOM     31  C   UNL A   1      37.688  32.197  30.607  1.00  0.00     0.031 A 
ATOM     32  C   UNL A   1      38.280  32.730  31.883  1.00  0.00     0.074 A 
ATOM     33  C   UNL A   1      38.271  31.175  29.953  1.00  0.00     0.049 A 
ATOM     34  N   UNL A   1      39.343  32.330  32.531  1.00  0.00    -0.248 NA
ATOM     35  C   UNL A   1      37.607  33.888  32.496  1.00  0.00     0.031 C 
ATOM     36  C   UNL A   1      37.817  30.614  28.678  1.00  0.00     0.029 A 
ATOM     37  N   UNL A   1      39.369  30.423  30.276  1.00  0.00    -0.354 N 
ATOM     38  C   UNL A   1      39.470  33.194  33.612  1.00  0.00     0.074 A 
ATOM     39  C   UNL A   1      38.426  34.185  33.491  1.00  0.00     0.031 C 
ATOM     40  C   UNL A   1      38.609  29.580  28.348  1.00  0.00     0.029 A 
ATOM     41  C   UNL A   1      39.638  29.426  29.371  1.00  0.00     0.049 A 
ATOM     42  H   UNL A   1      39.912  30.581  31.081  1.00  0.00     0.167 HD
ATOM     43  C   UNL A   1      40.352  33.144  34.637  1.00  0.00     0.037 A 
ATOM     44  C   UNL A   1      40.604  28.490  29.377  1.00  0.00     0.037 A 
ATOM     45  C   UNL A   1      41.367  32.134  34.766  1.00  0.00     0.049 A 
ATOM     46  C   UNL A   1      41.563  28.443  30.535  1.00  0.00     0.074 A 
ATOM     47  C   UNL A   1      42.284  31.958  35.786  1.00  0.00     0.029 A 
ATOM     48  N   UNL A   1      41.591  31.124  33.842  1.00  0.00    -0.354 N 
ATOM     49  N   UNL A   1      41.630  29.223  31.588  1.00  0.00    -0.248 NA
ATOM     50  C   UNL A   1      42.570  27.373  30.515  1.00  0.00     0.031 C 
ATOM     51  C   UNL A   1      43.093  30.865  35.458  1.00  0.00     0.029 A 
ATOM     52  C   UNL A   1      42.641  30.326  34.263  1.00  0.00     0.049 A 
ATOM     53  H   UNL A   1      41.080  30.994  33.012  1.00  0.00     0.167 HD
ATOM     54  C   UNL A   1      42.657  28.716  32.374  1.00  0.00     0.074 A 
ATOM     55  C   UNL A   1      43.175  27.553  31.680  1.00  0.00     0.031 C 
ATOM     56  C   UNL A   1      43.128  29.165  33.563  1.00  0.00     0.037 A 
BRANCH  43  57
ATOM     57  C   UNL A   1      40.245  34.206  35.692  1.00  0.00     0.057 A 
ATOM     58  C   UNL A   1      40.932  35.425  35.588  1.00  0.00     0.134 A 
ATOM     59  C   UNL A   1      39.440  34.016  36.820  1.00  0.00     0.134 A 
ATOM     60  F   UNL A   1      41.736  35.665  34.541  1.00  0.00    -0.206 F 
ATOM     61  C   UNL A   1      40.846  36.401  36.581  1.00  0.00     0.040 A 
ATOM     62  C   UNL A   1      39.320  34.997  37.807  1.00  0.00     0.040 A 
ATOM     63  F   UNL A   1      38.754  32.875  36.985  1.00  0.00    -0.206 F 
ATOM     64  C   UNL A   1      40.032  36.191  37.692  1.00  0.00     0.006 A 
ENDBRANCH  43  57
BRANCH  44  65
ATOM     65  C   UNL A   1      40.686  27.492  28.280  1.00  0.00     0.057 A 
ATOM     66  C   UNL A   1      40.025  26.261  28.370  1.00  0.00     0.134 A 
ATOM     67  C   UNL A   1      41.435  27.736  27.123  1.00  0.00     0.134 A 
ATOM     68  F   UNL A   1      39.301  25.961  29.459  1.00  0.00    -0.206 F 
ATOM     69  C   UNL A   1      40.130  25.297  27.365  1.00  0.00     0.040 A 
ATOM     70  C   UNL A   1      41.526  26.794  26.097  1.00  0.00     0.040 A 
ATOM     71  F   UNL A   1      42.080  28.902  26.968  1.00  0.00    -0.206 F 
ATOM     72  C   UNL A   1      40.881  25.565  26.222  1.00  0.00     0.006 A 
ENDBRANCH  44  65
BRANCH  56  73
ATOM     73  C   UNL A   1      44.218  28.363  34.215  1.00  0.00     0.057 A 
ATOM     74  C   UNL A   1      43.946  27.278  35.056  1.00  0.00     0.134 A 
ATOM     75  C   UNL A   1      45.563  28.674  33.972  1.00  0.00     0.134 A 
ATOM     76  F   UNL A   1      42.679  26.935  35.337  1.00  0.00    -0.206 F 
ATOM     77  C   UNL A   1      44.971  26.550  35.661  1.00  0.00     0.040 A 
ATOM     78  C   UNL A   1      46.597  27.935  34.545  1.00  0.00     0.040 A 
ATOM     79  F   UNL A   1      45.892  29.694  33.165  1.00  0.00    -0.206 F 
ATOM     80  C   UNL A   1      46.302  26.875  35.401  1.00  0.00     0.006 A 
ENDBRANCH  56  73
ENDBRANCH  30  31
ENDBRANCH  22  25
ENDBRANCH  20  21
ENDBRANCH  19  20
ENDBRANCH  18  19
ENDBRANCH   1  18
TORSDOF 16
ENDMDL
MODEL 3
REMARK VINA RESULT:     -10.0      4.899     10.153
REMARK SMILES CCN(CC)C(=O)[C@H](C)S[C@H](C)C(=O)NCCCCNC(=O)c1ccc(-c2c3nc(c(-c4c(F)cccc4F)c4ccc([nH]4)c(-c4c(F)cccc4F)c4nc(c(-c5c(F)cccc5F)c5ccc2[nH]5)C=C4)C=C3)cc1
REMARK SMILES IDX 16 1 15 2 13 3 14 4 11 6 12 7 10 8 8 9 9 10 6 11 3 12 7 13
REMARK SMILES IDX 2 14 1 15 4 16 5 17 17 18 18 19 19 20 20 21 21 22 22 24
REMARK SMILES IDX 23 25 24 26 76 27 25 28 75 29 26 30 27 31 28 32 69 33 29 34
REMARK SMILES IDX 74 35 68 36 70 37 30 38 73 39 67 40 66 41 31 43 57 44 40 45
REMARK SMILES IDX 56 46 41 47 44 48 55 49 71 50 42 51 43 52 54 54 72 55 45 56
REMARK SMILES IDX 32 57 33 58 38 59 34 60 35 61 37 62 39 63 36 64 58 65 59 66
REMARK SMILES IDX 64 67 60 68 61 69 63 70 65 71 62 72 46 73 47 74 52 75 48 76
REMARK SMILES IDX 49 77 51 78 53 79 50 80
REMARK H PARENT 15 5 20 23 70 42 44 53
REMARK Flexibility Score: inf
ROOT
ATOM      1  C   UNL A   1      36.453  21.468  25.542  1.00  0.00     0.116 C 
ENDROOT
BRANCH   1   2
ATOM      2  N   UNL A   1      35.481  21.619  26.614  1.00  0.00    -0.355 N 
ATOM      3  C   UNL A   1      34.109  21.612  26.569  1.00  0.00     0.232 C 
ATOM      4  O   UNL A   1      33.495  21.602  27.639  1.00  0.00    -0.274 OA
ATOM      5  H   UNL A   1      35.866  21.747  27.510  1.00  0.00     0.163 HD
BRANCH   3   6
ATOM      6  C   UNL A   1      33.362  21.769  25.236  1.00  0.00     0.133 C 
ATOM      7  C   UNL A   1      32.703  20.398  25.008  1.00  0.00     0.030 C 
BRANCH   6   8
ATOM      8  S   UNL A   1      32.230  23.254  25.343  1.00  0.00    -0.136 SA
BRANCH   8   9
ATOM      9  C   UNL A   1      33.146  24.762  24.862  1.00  0.00     0.133 C 
ATOM     10  C   UNL A   1      34.653  24.810  25.025  1.00  0.00     0.030 C 
BRANCH   9  11
ATOM     11  C   UNL A   1      32.549  25.591  23.691  1.00  0.00     0.235 C 
ATOM     12  N   UNL A   1      31.500  26.489  23.839  1.00  0.00    -0.342 N 
ATOM     13  O   UNL A   1      33.019  25.400  22.558  1.00  0.00    -0.274 OA
BRANCH  12  14
ATOM     14  C   UNL A   1      31.091  27.294  22.685  1.00  0.00     0.116 C 
ATOM     15  C   UNL A   1      29.720  27.929  22.880  1.00  0.00     0.027 C 
ENDBRANCH  12  14
BRANCH  12  16
ATOM     16  C   UNL A   1      30.797  26.771  25.068  1.00  0.00     0.116 C 
ATOM     17  C   UNL A   1      31.532  27.731  25.979  1.00  0.00     0.027 C 
ENDBRANCH  12  16
ENDBRANCH   9  11
ENDBRANCH   8   9
ENDBRANCH   6   8
ENDBRANCH   3   6
ENDBRANCH   1   2
BRANCH   1  18
ATOM     18  C   UNL A   1      36.593  20.054  24.982  1.00  0.00     0.023 C 
BRANCH  18  19
ATOM     19  C   UNL A   1      38.015  19.620  24.674  1.00  0.00     0.023 C 
BRANCH  19  20
ATOM     20  C   UNL A   1      39.000  19.909  25.788  1.00  0.00     0.116 C 
BRANCH  20  21
ATOM     21  N   UNL A   1      40.136  19.000  25.805  1.00  0.00    -0.352 N 
ATOM     22  C   UNL A   1      41.447  19.294  26.099  1.00  0.00     0.251 C 
ATOM     23  H   UNL A   1      39.943  18.062  25.577  1.00  0.00     0.163 HD
ATOM     24  O   UNL A   1      42.321  18.457  25.984  1.00  0.00    -0.269 OA
BRANCH  22  25
ATOM     25  C   UNL A   1      41.766  20.672  26.519  1.00  0.00     0.039 A 
ATOM     26  C   UNL A   1      41.891  20.943  27.881  1.00  0.00     0.014 A 
ATOM     27  C   UNL A   1      42.003  21.664  25.563  1.00  0.00     0.014 A 
ATOM     28  C   UNL A   1      42.283  22.217  28.284  1.00  0.00     0.010 A 
ATOM     29  C   UNL A   1      42.501  22.893  25.962  1.00  0.00     0.010 A 
ATOM     30  C   UNL A   1      42.606  23.194  27.327  1.00  0.00    -0.014 A 
BRANCH  30  31
ATOM     31  C   UNL A   1      42.970  24.568  27.740  1.00  0.00     0.031 A 
ATOM     32  C   UNL A   1      44.416  24.982  27.724  1.00  0.00     0.074 A 
ATOM     33  C   UNL A   1      42.014  25.423  28.146  1.00  0.00     0.049 A 
ATOM     34  N   UNL A   1      44.950  26.131  28.049  1.00  0.00    -0.248 NA
ATOM     35  C   UNL A   1      45.397  23.961  27.320  1.00  0.00     0.031 C 
ATOM     36  C   UNL A   1      40.587  25.112  28.257  1.00  0.00     0.029 A 
ATOM     37  N   UNL A   1      42.100  26.733  28.537  1.00  0.00    -0.354 N 
ATOM     38  C   UNL A   1      46.322  25.961  27.903  1.00  0.00     0.074 A 
ATOM     39  C   UNL A   1      46.544  24.581  27.537  1.00  0.00     0.031 C 
ATOM     40  C   UNL A   1      39.927  26.214  28.649  1.00  0.00     0.029 A 
ATOM     41  C   UNL A   1      40.886  27.297  28.844  1.00  0.00     0.049 A 
ATOM     42  H   UNL A   1      42.951  27.224  28.591  1.00  0.00     0.167 HD
ATOM     43  C   UNL A   1      47.306  26.881  28.023  1.00  0.00     0.037 A 
ATOM     44  C   UNL A   1      40.587  28.550  29.231  1.00  0.00     0.037 A 
ATOM     45  C   UNL A   1      47.072  28.260  28.355  1.00  0.00     0.049 A 
ATOM     46  C   UNL A   1      41.696  29.560  29.342  1.00  0.00     0.074 A 
ATOM     47  C   UNL A   1      47.988  29.291  28.459  1.00  0.00     0.029 A 
ATOM     48  N   UNL A   1      45.825  28.799  28.634  1.00  0.00    -0.354 N 
ATOM     49  N   UNL A   1      42.982  29.406  29.133  1.00  0.00    -0.248 NA
ATOM     50  C   UNL A   1      41.309  30.925  29.723  1.00  0.00     0.031 C 
ATOM     51  C   UNL A   1      47.300  30.446  28.841  1.00  0.00     0.029 A 
ATOM     52  C   UNL A   1      45.948  30.149  28.919  1.00  0.00     0.049 A 
ATOM     53  H   UNL A   1      44.978  28.299  28.628  1.00  0.00     0.167 HD
ATOM     54  C   UNL A   1      43.551  30.659  29.319  1.00  0.00     0.074 A 
ATOM     55  C   UNL A   1      42.467  31.563  29.644  1.00  0.00     0.031 C 
ATOM     56  C   UNL A   1      44.852  31.032  29.224  1.00  0.00     0.037 A 
BRANCH  43  57
ATOM     57  C   UNL A   1      48.715  26.420  27.787  1.00  0.00     0.057 A 
ATOM     58  C   UNL A   1      49.539  25.989  28.836  1.00  0.00     0.134 A 
ATOM     59  C   UNL A   1      49.252  26.395  26.495  1.00  0.00     0.134 A 
ATOM     60  F   UNL A   1      49.093  26.005  30.102  1.00  0.00    -0.206 F 
ATOM     61  C   UNL A   1      50.855  25.581  28.614  1.00  0.00     0.040 A 
ATOM     62  C   UNL A   1      50.557  25.960  26.254  1.00  0.00     0.040 A 
ATOM     63  F   UNL A   1      48.520  26.793  25.443  1.00  0.00    -0.206 F 
ATOM     64  C   UNL A   1      51.365  25.559  27.317  1.00  0.00     0.006 A 
ENDBRANCH  43  57
BRANCH  44  65
ATOM     65  C   UNL A   1      39.177  28.934  29.495  1.00  0.00     0.057 A 
ATOM     66  C   UNL A   1      38.616  28.799  30.772  1.00  0.00     0.134 A 
ATOM     67  C   UNL A   1      38.352  29.433  28.481  1.00  0.00     0.134 A 
ATOM     68  F   UNL A   1      39.351  28.314  31.784  1.00  0.00    -0.206 F 
ATOM     69  C   UNL A   1      37.279  29.115  31.022  1.00  0.00     0.040 A 
ATOM     70  C   UNL A   1      37.022  29.780  28.723  1.00  0.00     0.040 A 
ATOM     71  F   UNL A   1      38.832  29.600  27.239  1.00  0.00    -0.206 F 
ATOM     72  C   UNL A   1      36.479  29.611  29.995  1.00  0.00     0.006 A 
ENDBRANCH  44  65
BRANCH  56  73
ATOM     73  C   UNL A   1      45.162  32.488  29.418  1.00  0.00     0.057 A 
ATOM     74  C   UNL A   1      45.518  33.015  30.665  1.00  0.00     0.134 A 
ATOM     75  C   UNL A   1      45.125  33.368  28.328  1.00  0.00     0.134 A 
ATOM     76  F   UNL A   1      45.562  32.227  31.751  1.00  0.00    -0.206 F 
ATOM     77  C   UNL A   1      45.794  34.374  30.829  1.00  0.00     0.040 A 
ATOM     78  C   UNL A   1      45.430  34.721  28.473  1.00  0.00     0.040 A 
ATOM     79  F   UNL A   1      44.804  32.924  27.104  1.00  0.00    -0.206 F 
ATOM     80  C   UNL A   1      45.756  35.229  29.729  1.00  0.00     0.006 A 
ENDBRANCH  56  73
ENDBRANCH  30  31
ENDBRANCH  22  25
ENDBRANCH  20  21
ENDBRANCH  19  20
ENDBRANCH  18  19
ENDBRANCH   1  18
TORSDOF 16
ENDMDL
