MODEL 1
REMARK VINA RESULT:     -12.5      0.000      0.000
REMARK SMILES CS(=O)(=O)c1ccc(-n2nc(C(F)(F)F)cc2-c2ccc(CC(=O)NCCCCNC(=O)c3ccc(-c4c5nc(c(-c6c(F)cccc6F)c6ccc([nH]6)c(-c6c(F)cccc6F)c6nc(c(-c7c(F)cccc7F)c7ccc4[nH]7)C=C6)C=C5)cc3)cc2)cc1
REMARK SMILES IDX 26 1 25 2 23 3 24 4 22 6 21 7 18 8 19 9 88 10 20 11 87 12
REMARK SMILES IDX 17 13 9 14 10 15 11 16 16 17 8 18 5 19 6 20 90 21 7 22 89 23
REMARK SMILES IDX 2 24 1 25 3 26 4 27 12 28 13 29 14 30 15 31 27 32 28 33
REMARK SMILES IDX 29 34 30 35 31 36 32 38 33 39 34 40 86 41 35 42 85 43 36 44
REMARK SMILES IDX 37 45 38 46 79 47 39 48 84 49 78 50 80 51 40 52 83 53 77 54
REMARK SMILES IDX 76 55 41 57 67 58 50 59 66 60 51 61 54 62 65 63 81 64 52 65
REMARK SMILES IDX 53 66 64 68 82 69 55 70 42 71 43 72 48 73 44 74 45 75 47 76
REMARK SMILES IDX 49 77 46 78 68 79 69 80 74 81 70 82 71 83 73 84 75 85 72 86
REMARK SMILES IDX 56 87 57 88 62 89 58 90 59 91 61 92 63 93 60 94
REMARK H PARENT 25 5 30 37 80 56 54 67
REMARK Flexibility Score: inf
ROOT
ATOM      1  C   UNL A   1      40.719  21.434  27.695  1.00  0.00     0.116 C 
ENDROOT
BRANCH   1   2
ATOM      2  N   UNL A   1      39.922  20.879  26.616  1.00  0.00    -0.356 N 
ATOM      3  C   UNL A   1      38.940  21.473  25.875  1.00  0.00     0.224 C 
ATOM      4  O   UNL A   1      38.306  20.771  25.083  1.00  0.00    -0.275 OA
ATOM      5  H   UNL A   1      40.119  19.943  26.384  1.00  0.00     0.163 HD
BRANCH   3   6
ATOM      6  C   UNL A   1      38.672  22.964  26.004  1.00  0.00     0.135 C 
BRANCH   6   7
ATOM      7  C   UNL A   1      37.236  23.351  25.755  1.00  0.00    -0.039 A 
ATOM      8  C   UNL A   1      34.508  23.879  25.295  1.00  0.00     0.000 A 
ATOM      9  C   UNL A   1      35.405  23.764  24.224  1.00  0.00     0.010 A 
ATOM     10  C   UNL A   1      34.999  23.796  26.600  1.00  0.00     0.010 A 
ATOM     11  C   UNL A   1      36.756  23.499  24.449  1.00  0.00     0.005 A 
ATOM     12  C   UNL A   1      36.354  23.546  26.828  1.00  0.00     0.005 A 
BRANCH   8  13
ATOM     13  C   UNL A   1      33.086  24.117  25.053  1.00  0.00     0.075 A 
ATOM     14  N   UNL A   1      32.198  23.204  24.497  1.00  0.00    -0.233 N 
ATOM     15  N   UNL A   1      31.032  23.787  24.126  1.00  0.00    -0.163 NA
ATOM     16  C   UNL A   1      31.075  25.017  24.675  1.00  0.00     0.167 A 
ATOM     17  C   UNL A   1      32.352  25.272  25.235  1.00  0.00     0.064 A 
BRANCH  14  18
ATOM     18  C   UNL A   1      32.360  21.802  24.371  1.00  0.00     0.065 A 
ATOM     19  C   UNL A   1      32.740  19.053  24.123  1.00  0.00     0.067 A 
ATOM     20  C   UNL A   1      32.760  19.650  25.382  1.00  0.00     0.022 A 
ATOM     21  C   UNL A   1      32.440  19.815  22.991  1.00  0.00     0.022 A 
ATOM     22  C   UNL A   1      32.639  21.035  25.507  1.00  0.00     0.030 A 
ATOM     23  C   UNL A   1      32.201  21.189  23.124  1.00  0.00     0.030 A 
BRANCH  19  24
ATOM     24  S   UNL A   1      33.038  17.302  23.982  1.00  0.00     0.175 S 
ATOM     25  C   UNL A   1      34.681  17.048  24.604  1.00  0.00     0.163 C 
ATOM     26  O   UNL A   1      33.066  16.977  22.569  1.00  0.00    -0.224 OA
ATOM     27  O   UNL A   1      32.115  16.646  24.888  1.00  0.00    -0.224 OA
ENDBRANCH  19  24
ENDBRANCH  14  18
BRANCH  16  28
ATOM     28  C   UNL A   1      29.909  25.971  24.663  1.00  0.00     0.435 C 
ATOM     29  F   UNL A   1      29.132  25.850  23.556  1.00  0.00    -0.164 F 
ATOM     30  F   UNL A   1      29.101  25.802  25.743  1.00  0.00    -0.164 F 
ATOM     31  F   UNL A   1      30.326  27.267  24.701  1.00  0.00    -0.164 F 
ENDBRANCH  16  28
ENDBRANCH   8  13
ENDBRANCH   6   7
ENDBRANCH   3   6
ENDBRANCH   1   2
BRANCH   1  32
ATOM     32  C   UNL A   1      42.201  21.081  27.543  1.00  0.00     0.023 C 
BRANCH  32  33
ATOM     33  C   UNL A   1      42.467  19.705  26.930  1.00  0.00     0.023 C 
BRANCH  33  34
ATOM     34  C   UNL A   1      42.537  19.672  25.421  1.00  0.00     0.116 C 
BRANCH  34  35
ATOM     35  N   UNL A   1      43.841  19.251  24.897  1.00  0.00    -0.352 N 
ATOM     36  C   UNL A   1      44.864  20.073  24.430  1.00  0.00     0.251 C 
ATOM     37  H   UNL A   1      44.011  18.281  24.874  1.00  0.00     0.163 HD
ATOM     38  O   UNL A   1      45.762  19.655  23.732  1.00  0.00    -0.269 OA
BRANCH  36  39
ATOM     39  C   UNL A   1      44.811  21.489  24.837  1.00  0.00     0.039 A 
ATOM     40  C   UNL A   1      43.880  22.391  24.322  1.00  0.00     0.014 A 
ATOM     41  C   UNL A   1      45.644  21.838  25.888  1.00  0.00     0.014 A 
ATOM     42  C   UNL A   1      43.734  23.625  24.956  1.00  0.00     0.010 A 
ATOM     43  C   UNL A   1      45.303  22.911  26.657  1.00  0.00     0.010 A 
ATOM     44  C   UNL A   1      44.434  23.866  26.149  1.00  0.00    -0.014 A 
BRANCH  44  45
ATOM     45  C   UNL A   1      44.270  25.093  26.920  1.00  0.00     0.031 A 
ATOM     46  C   UNL A   1      45.321  26.134  26.738  1.00  0.00     0.074 A 
ATOM     47  C   UNL A   1      43.120  25.356  27.586  1.00  0.00     0.049 A 
ATOM     48  N   UNL A   1      46.117  26.627  27.630  1.00  0.00    -0.248 NA
ATOM     49  C   UNL A   1      45.582  26.631  25.376  1.00  0.00     0.031 C 
ATOM     50  C   UNL A   1      41.863  24.588  27.621  1.00  0.00     0.029 A 
ATOM     51  N   UNL A   1      42.802  26.457  28.313  1.00  0.00    -0.354 N 
ATOM     52  C   UNL A   1      46.869  27.611  26.991  1.00  0.00     0.074 A 
ATOM     53  C   UNL A   1      46.591  27.480  25.584  1.00  0.00     0.031 C 
ATOM     54  C   UNL A   1      40.867  25.359  28.107  1.00  0.00     0.029 A 
ATOM     55  C   UNL A   1      41.453  26.579  28.617  1.00  0.00     0.049 A 
ATOM     56  H   UNL A   1      43.474  27.116  28.601  1.00  0.00     0.167 HD
ATOM     57  C   UNL A   1      47.531  28.576  27.689  1.00  0.00     0.037 A 
ATOM     58  C   UNL A   1      40.858  27.617  29.249  1.00  0.00     0.037 A 
ATOM     59  C   UNL A   1      47.667  28.216  29.076  1.00  0.00     0.049 A 
ATOM     60  C   UNL A   1      41.925  28.358  29.962  1.00  0.00     0.074 A 
ATOM     61  C   UNL A   1      48.309  27.193  29.749  1.00  0.00     0.029 A 
ATOM     62  N   UNL A   1      46.765  28.736  29.972  1.00  0.00    -0.354 N 
ATOM     63  N   UNL A   1      42.596  27.869  30.969  1.00  0.00    -0.248 NA
ATOM     64  C   UNL A   1      42.571  29.448  29.249  1.00  0.00     0.031 C 
ATOM     65  C   UNL A   1      47.413  26.827  30.796  1.00  0.00     0.029 A 
ATOM     66  C   UNL A   1      46.318  27.692  30.744  1.00  0.00     0.049 A 
ATOM     67  H   UNL A   1      46.492  29.678  30.046  1.00  0.00     0.167 HD
ATOM     68  C   UNL A   1      43.902  28.292  30.767  1.00  0.00     0.074 A 
ATOM     69  C   UNL A   1      43.809  29.323  29.734  1.00  0.00     0.031 C 
ATOM     70  C   UNL A   1      44.964  27.575  31.241  1.00  0.00     0.037 A 
BRANCH  57  71
ATOM     71  C   UNL A   1      47.799  29.975  27.193  1.00  0.00     0.057 A 
ATOM     72  C   UNL A   1      49.112  30.481  27.201  1.00  0.00     0.134 A 
ATOM     73  C   UNL A   1      46.792  30.933  26.966  1.00  0.00     0.134 A 
ATOM     74  F   UNL A   1      50.161  29.675  27.425  1.00  0.00    -0.206 F 
ATOM     75  C   UNL A   1      49.395  31.845  27.050  1.00  0.00     0.040 A 
ATOM     76  C   UNL A   1      47.065  32.290  26.766  1.00  0.00     0.040 A 
ATOM     77  F   UNL A   1      45.490  30.626  27.024  1.00  0.00    -0.206 F 
ATOM     78  C   UNL A   1      48.368  32.756  26.837  1.00  0.00     0.006 A 
ENDBRANCH  57  71
BRANCH  58  79
ATOM     79  C   UNL A   1      39.512  28.174  29.006  1.00  0.00     0.057 A 
ATOM     80  C   UNL A   1      38.543  28.193  30.016  1.00  0.00     0.134 A 
ATOM     81  C   UNL A   1      39.240  28.951  27.865  1.00  0.00     0.134 A 
ATOM     82  F   UNL A   1      38.735  27.510  31.153  1.00  0.00    -0.206 F 
ATOM     83  C   UNL A   1      37.378  28.964  29.911  1.00  0.00     0.040 A 
ATOM     84  C   UNL A   1      38.080  29.725  27.747  1.00  0.00     0.040 A 
ATOM     85  F   UNL A   1      40.131  29.054  26.868  1.00  0.00    -0.206 F 
ATOM     86  C   UNL A   1      37.151  29.745  28.780  1.00  0.00     0.006 A 
ENDBRANCH  58  79
BRANCH  70  87
ATOM     87  C   UNL A   1      44.682  26.417  32.164  1.00  0.00     0.057 A 
ATOM     88  C   UNL A   1      44.537  25.087  31.736  1.00  0.00     0.134 A 
ATOM     89  C   UNL A   1      44.729  26.626  33.546  1.00  0.00     0.134 A 
ATOM     90  F   UNL A   1      44.579  24.767  30.440  1.00  0.00    -0.206 F 
ATOM     91  C   UNL A   1      44.406  24.024  32.637  1.00  0.00     0.040 A 
ATOM     92  C   UNL A   1      44.631  25.570  34.458  1.00  0.00     0.040 A 
ATOM     93  F   UNL A   1      44.925  27.860  34.035  1.00  0.00    -0.206 F 
ATOM     94  C   UNL A   1      44.461  24.264  34.005  1.00  0.00     0.006 A 
ENDBRANCH  70  87
ENDBRANCH  44  45
ENDBRANCH  36  39
ENDBRANCH  34  35
ENDBRANCH  33  34
ENDBRANCH  32  33
ENDBRANCH   1  32
TORSDOF 16
ENDMDL
MODEL 2
REMARK VINA RESULT:     -11.8      5.406      9.270
REMARK SMILES CS(=O)(=O)c1ccc(-n2nc(C(F)(F)F)cc2-c2ccc(CC(=O)NCCCCNC(=O)c3ccc(-c4c5nc(c(-c6c(F)cccc6F)c6ccc([nH]6)c(-c6c(F)cccc6F)c6nc(c(-c7c(F)cccc7F)c7ccc4[nH]7)C=C6)C=C5)cc3)cc2)cc1
REMARK SMILES IDX 26 1 25 2 23 3 24 4 22 6 21 7 18 8 19 9 88 10 20 11 87 12
REMARK SMILES IDX 17 13 9 14 10 15 11 16 16 17 8 18 5 19 6 20 90 21 7 22 89 23
REMARK SMILES IDX 2 24 1 25 3 26 4 27 12 28 13 29 14 30 15 31 27 32 28 33
REMARK SMILES IDX 29 34 30 35 31 36 32 38 33 39 34 40 86 41 35 42 85 43 36 44
REMARK SMILES IDX 37 45 38 46 79 47 39 48 84 49 78 50 80 51 40 52 83 53 77 54
REMARK SMILES IDX 76 55 41 57 67 58 50 59 66 60 51 61 54 62 65 63 81 64 52 65
REMARK SMILES IDX 53 66 64 68 82 69 55 70 42 71 43 72 48 73 44 74 45 75 47 76
REMARK SMILES IDX 49 77 46 78 68 79 69 80 74 81 70 82 71 83 73 84 75 85 72 86
REMARK SMILES IDX 56 87 57 88 62 89 58 90 59 91 61 92 63 93 60 94
REMARK H PARENT 25 5 30 37 80 56 54 67
REMARK Flexibility Score: inf
ROOT
ATOM      1  C   UNL A   1      41.450  28.846  34.821  1.00  0.00     0.116 C 
ENDROOT
BRANCH   1   2
ATOM      2  N   UNL A   1      41.696  28.670  33.401  1.00  0.00    -0.356 N 
ATOM      3  C   UNL A   1      41.106  29.295  32.339  1.00  0.00     0.224 C 
ATOM      4  O   UNL A   1      41.385  28.900  31.204  1.00  0.00    -0.275 OA
ATOM      5  H   UNL A   1      42.387  28.007  33.171  1.00  0.00     0.163 HD
BRANCH   3   6
ATOM      6  C   UNL A   1      40.164  30.468  32.561  1.00  0.00     0.135 C 
BRANCH   6   7
ATOM      7  C   UNL A   1      39.002  30.509  31.601  1.00  0.00    -0.039 A 
ATOM      8  C   UNL A   1      36.922  30.439  29.703  1.00  0.00     0.000 A 
ATOM      9  C   UNL A   1      37.978  31.352  29.573  1.00  0.00     0.010 A 
ATOM     10  C   UNL A   1      36.879  29.609  30.825  1.00  0.00     0.010 A 
ATOM     11  C   UNL A   1      39.012  31.386  30.511  1.00  0.00     0.005 A 
ATOM     12  C   UNL A   1      37.905  29.652  31.773  1.00  0.00     0.005 A 
BRANCH   8  13
ATOM     13  C   UNL A   1      35.862  30.381  28.698  1.00  0.00     0.075 A 
ATOM     14  N   UNL A   1      34.722  31.176  28.680  1.00  0.00    -0.233 N 
ATOM     15  N   UNL A   1      33.789  30.711  27.814  1.00  0.00    -0.163 NA
ATOM     16  C   UNL A   1      34.430  29.768  27.095  1.00  0.00     0.167 A 
ATOM     17  C   UNL A   1      35.714  29.511  27.636  1.00  0.00     0.064 A 
BRANCH  14  18
ATOM     18  C   UNL A   1      34.501  32.392  29.373  1.00  0.00     0.065 A 
ATOM     19  C   UNL A   1      34.010  34.761  30.756  1.00  0.00     0.067 A 
ATOM     20  C   UNL A   1      34.578  33.671  31.415  1.00  0.00     0.022 A 
ATOM     21  C   UNL A   1      33.769  34.699  29.382  1.00  0.00     0.022 A 
ATOM     22  C   UNL A   1      34.762  32.461  30.746  1.00  0.00     0.030 A 
ATOM     23  C   UNL A   1      34.062  33.524  28.678  1.00  0.00     0.030 A 
BRANCH  19  24
ATOM     24  S   UNL A   1      33.656  36.247  31.671  1.00  0.00     0.175 S 
ATOM     25  C   UNL A   1      32.163  35.908  32.570  1.00  0.00     0.163 C 
ATOM     26  O   UNL A   1      33.342  37.287  30.710  1.00  0.00    -0.224 OA
ATOM     27  O   UNL A   1      34.726  36.411  32.635  1.00  0.00    -0.224 OA
ENDBRANCH  19  24
ENDBRANCH  14  18
BRANCH  16  28
ATOM     28  C   UNL A   1      33.825  29.090  25.893  1.00  0.00     0.435 C 
ATOM     29  F   UNL A   1      33.090  27.995  26.213  1.00  0.00    -0.164 F 
ATOM     30  F   UNL A   1      33.017  29.927  25.189  1.00  0.00    -0.164 F 
ATOM     31  F   UNL A   1      34.785  28.670  25.023  1.00  0.00    -0.164 F 
ENDBRANCH  16  28
ENDBRANCH   8  13
ENDBRANCH   6   7
ENDBRANCH   3   6
ENDBRANCH   1   2
BRANCH   1  32
ATOM     32  C   UNL A   1      41.768  27.574  35.612  1.00  0.00     0.023 C 
BRANCH  32  33
ATOM     33  C   UNL A   1      41.289  26.279  34.953  1.00  0.00     0.023 C 
BRANCH  33  34
ATOM     34  C   UNL A   1      41.920  25.013  35.483  1.00  0.00     0.116 C 
BRANCH  34  35
ATOM     35  N   UNL A   1      43.010  25.249  36.436  1.00  0.00    -0.352 N 
ATOM     36  C   UNL A   1      44.374  25.068  36.215  1.00  0.00     0.251 C 
ATOM     37  H   UNL A   1      42.749  25.571  37.329  1.00  0.00     0.163 HD
ATOM     38  O   UNL A   1      45.170  24.977  37.124  1.00  0.00    -0.269 OA
BRANCH  36  39
ATOM     39  C   UNL A   1      44.811  25.003  34.808  1.00  0.00     0.039 A 
ATOM     40  C   UNL A   1      44.952  23.802  34.113  1.00  0.00     0.014 A 
ATOM     41  C   UNL A   1      44.925  26.225  34.163  1.00  0.00     0.014 A 
ATOM     42  C   UNL A   1      45.108  23.855  32.728  1.00  0.00     0.010 A 
ATOM     43  C   UNL A   1      44.797  26.255  32.806  1.00  0.00     0.010 A 
ATOM     44  C   UNL A   1      45.000  25.093  32.076  1.00  0.00    -0.014 A 
BRANCH  44  45
ATOM     45  C   UNL A   1      45.062  25.223  30.624  1.00  0.00     0.031 A 
ATOM     46  C   UNL A   1      46.182  26.043  30.081  1.00  0.00     0.074 A 
ATOM     47  C   UNL A   1      44.284  24.464  29.817  1.00  0.00     0.049 A 
ATOM     48  N   UNL A   1      46.109  27.123  29.375  1.00  0.00    -0.248 NA
ATOM     49  C   UNL A   1      47.560  25.666  30.441  1.00  0.00     0.031 C 
ATOM     50  C   UNL A   1      43.347  23.382  30.168  1.00  0.00     0.029 A 
ATOM     51  N   UNL A   1      44.249  24.441  28.460  1.00  0.00    -0.354 N 
ATOM     52  C   UNL A   1      47.418  27.479  29.055  1.00  0.00     0.074 A 
ATOM     53  C   UNL A   1      48.270  26.626  29.843  1.00  0.00     0.031 C 
ATOM     54  C   UNL A   1      43.044  22.660  29.067  1.00  0.00     0.029 A 
ATOM     55  C   UNL A   1      43.580  23.353  27.916  1.00  0.00     0.049 A 
ATOM     56  H   UNL A   1      44.665  25.141  27.907  1.00  0.00     0.167 HD
ATOM     57  C   UNL A   1      47.701  28.333  28.032  1.00  0.00     0.037 A 
ATOM     58  C   UNL A   1      43.474  23.044  26.604  1.00  0.00     0.037 A 
ATOM     59  C   UNL A   1      46.533  29.072  27.630  1.00  0.00     0.049 A 
ATOM     60  C   UNL A   1      43.776  24.278  25.842  1.00  0.00     0.074 A 
ATOM     61  C   UNL A   1      45.709  29.988  28.256  1.00  0.00     0.029 A 
ATOM     62  N   UNL A   1      45.826  28.624  26.542  1.00  0.00    -0.354 N 
ATOM     63  N   UNL A   1      43.017  25.341  25.859  1.00  0.00    -0.248 NA
ATOM     64  C   UNL A   1      45.159  24.502  25.452  1.00  0.00     0.031 C 
ATOM     65  C   UNL A   1      44.393  29.651  27.821  1.00  0.00     0.029 A 
ATOM     66  C   UNL A   1      44.501  28.603  26.904  1.00  0.00     0.049 A 
ATOM     67  H   UNL A   1      46.198  28.367  25.668  1.00  0.00     0.167 HD
ATOM     68  C   UNL A   1      43.902  26.410  25.891  1.00  0.00     0.074 A 
ATOM     69  C   UNL A   1      45.205  25.833  25.561  1.00  0.00     0.031 C 
ATOM     70  C   UNL A   1      43.555  27.604  26.456  1.00  0.00     0.037 A 
BRANCH  57  71
ATOM     71  C   UNL A   1      48.955  28.296  27.194  1.00  0.00     0.057 A 
ATOM     72  C   UNL A   1      49.794  29.424  27.138  1.00  0.00     0.134 A 
ATOM     73  C   UNL A   1      49.227  27.302  26.233  1.00  0.00     0.134 A 
ATOM     74  F   UNL A   1      49.628  30.451  27.986  1.00  0.00    -0.206 F 
ATOM     75  C   UNL A   1      50.790  29.575  26.164  1.00  0.00     0.040 A 
ATOM     76  C   UNL A   1      50.250  27.420  25.287  1.00  0.00     0.040 A 
ATOM     77  F   UNL A   1      48.459  26.214  26.096  1.00  0.00    -0.206 F 
ATOM     78  C   UNL A   1      51.016  28.573  25.230  1.00  0.00     0.006 A 
ENDBRANCH  57  71
BRANCH  58  79
ATOM     79  C   UNL A   1      43.454  21.701  25.988  1.00  0.00     0.057 A 
ATOM     80  C   UNL A   1      44.640  21.054  25.622  1.00  0.00     0.134 A 
ATOM     81  C   UNL A   1      42.291  20.910  26.003  1.00  0.00     0.134 A 
ATOM     82  F   UNL A   1      45.802  21.722  25.615  1.00  0.00    -0.206 F 
ATOM     83  C   UNL A   1      44.675  19.688  25.315  1.00  0.00     0.040 A 
ATOM     84  C   UNL A   1      42.311  19.545  25.696  1.00  0.00     0.040 A 
ATOM     85  F   UNL A   1      41.114  21.416  26.401  1.00  0.00    -0.206 F 
ATOM     86  C   UNL A   1      43.510  18.926  25.365  1.00  0.00     0.006 A 
ENDBRANCH  58  79
BRANCH  70  87
ATOM     87  C   UNL A   1      42.119  27.803  26.869  1.00  0.00     0.057 A 
ATOM     88  C   UNL A   1      41.569  27.315  28.066  1.00  0.00     0.134 A 
ATOM     89  C   UNL A   1      41.310  28.659  26.115  1.00  0.00     0.134 A 
ATOM     90  F   UNL A   1      42.291  26.570  28.908  1.00  0.00    -0.206 F 
ATOM     91  C   UNL A   1      40.268  27.632  28.472  1.00  0.00     0.040 A 
ATOM     92  C   UNL A   1      40.020  29.010  26.524  1.00  0.00     0.040 A 
ATOM     93  F   UNL A   1      41.783  29.215  24.988  1.00  0.00    -0.206 F 
ATOM     94  C   UNL A   1      39.491  28.491  27.703  1.00  0.00     0.006 A 
ENDBRANCH  70  87
ENDBRANCH  44  45
ENDBRANCH  36  39
ENDBRANCH  34  35
ENDBRANCH  33  34
ENDBRANCH  32  33
ENDBRANCH   1  32
TORSDOF 16
ENDMDL
MODEL 3
REMARK VINA RESULT:     -11.7      3.752      6.039
REMARK SMILES CS(=O)(=O)c1ccc(-n2nc(C(F)(F)F)cc2-c2ccc(CC(=O)NCCCCNC(=O)c3ccc(-c4c5nc(c(-c6c(F)cccc6F)c6ccc([nH]6)c(-c6c(F)cccc6F)c6nc(c(-c7c(F)cccc7F)c7ccc4[nH]7)C=C6)C=C5)cc3)cc2)cc1
REMARK SMILES IDX 26 1 25 2 23 3 24 4 22 6 21 7 18 8 19 9 88 10 20 11 87 12
REMARK SMILES IDX 17 13 9 14 10 15 11 16 16 17 8 18 5 19 6 20 90 21 7 22 89 23
REMARK SMILES IDX 2 24 1 25 3 26 4 27 12 28 13 29 14 30 15 31 27 32 28 33
REMARK SMILES IDX 29 34 30 35 31 36 32 38 33 39 34 40 86 41 35 42 85 43 36 44
REMARK SMILES IDX 37 45 38 46 79 47 39 48 84 49 78 50 80 51 40 52 83 53 77 54
REMARK SMILES IDX 76 55 41 57 67 58 50 59 66 60 51 61 54 62 65 63 81 64 52 65
REMARK SMILES IDX 53 66 64 68 82 69 55 70 42 71 43 72 48 73 44 74 45 75 47 76
REMARK SMILES IDX 49 77 46 78 68 79 69 80 74 81 70 82 71 83 73 84 75 85 72 86
REMARK SMILES IDX 56 87 57 88 62 89 58 90 59 91 61 92 63 93 60 94
REMARK H PARENT 25 5 30 37 80 56 54 67
REMARK Flexibility Score: inf
ROOT
ATOM      1  C   UNL A   1      35.125  21.020  25.449  1.00  0.00     0.116 C 
ENDROOT
BRANCH   1   2
ATOM      2  N   UNL A   1      33.710  20.854  25.171  1.00  0.00    -0.356 N 
ATOM      3  C   UNL A   1      32.647  21.564  25.652  1.00  0.00     0.224 C 
ATOM      4  O   UNL A   1      31.512  21.169  25.375  1.00  0.00    -0.275 OA
ATOM      5  H   UNL A   1      33.486  20.126  24.547  1.00  0.00     0.163 HD
BRANCH   3   6
ATOM      6  C   UNL A   1      32.871  22.826  26.471  1.00  0.00     0.135 C 
BRANCH   6   7
ATOM      7  C   UNL A   1      32.278  24.068  25.854  1.00  0.00    -0.039 A 
ATOM      8  C   UNL A   1      31.319  26.492  24.787  1.00  0.00     0.000 A 
ATOM      9  C   UNL A   1      30.811  25.991  25.994  1.00  0.00     0.010 A 
ATOM     10  C   UNL A   1      32.262  25.737  24.085  1.00  0.00     0.010 A 
ATOM     11  C   UNL A   1      31.287  24.791  26.526  1.00  0.00     0.005 A 
ATOM     12  C   UNL A   1      32.728  24.529  24.608  1.00  0.00     0.005 A 
BRANCH   8  13
ATOM     13  C   UNL A   1      30.846  27.768  24.253  1.00  0.00     0.075 A 
ATOM     14  N   UNL A   1      31.180  29.023  24.747  1.00  0.00    -0.233 N 
ATOM     15  N   UNL A   1      30.379  29.997  24.252  1.00  0.00    -0.163 NA
ATOM     16  C   UNL A   1      29.699  29.403  23.250  1.00  0.00     0.167 A 
ATOM     17  C   UNL A   1      29.939  28.006  23.240  1.00  0.00     0.064 A 
BRANCH  14  18
ATOM     18  C   UNL A   1      32.263  29.361  25.596  1.00  0.00     0.065 A 
ATOM     19  C   UNL A   1      34.410  30.073  27.224  1.00  0.00     0.067 A 
ATOM     20  C   UNL A   1      33.188  30.731  27.352  1.00  0.00     0.022 A 
ATOM     21  C   UNL A   1      34.537  28.995  26.344  1.00  0.00     0.022 A 
ATOM     22  C   UNL A   1      32.131  30.427  26.493  1.00  0.00     0.030 A 
ATOM     23  C   UNL A   1      33.441  28.607  25.561  1.00  0.00     0.030 A 
BRANCH  19  24
ATOM     24  S   UNL A   1      35.784  30.578  28.238  1.00  0.00     0.175 S 
ATOM     25  C   UNL A   1      37.185  29.676  27.625  1.00  0.00     0.163 C 
ATOM     26  O   UNL A   1      35.532  30.102  29.584  1.00  0.00    -0.224 OA
ATOM     27  O   UNL A   1      36.010  31.985  27.966  1.00  0.00    -0.224 OA
ENDBRANCH  19  24
ENDBRANCH  14  18
BRANCH  16  28
ATOM     28  C   UNL A   1      28.802  30.153  22.300  1.00  0.00     0.435 C 
ATOM     29  F   UNL A   1      28.254  31.266  22.850  1.00  0.00    -0.164 F 
ATOM     30  F   UNL A   1      29.461  30.540  21.176  1.00  0.00    -0.164 F 
ATOM     31  F   UNL A   1      27.762  29.378  21.882  1.00  0.00    -0.164 F 
ENDBRANCH  16  28
ENDBRANCH   8  13
ENDBRANCH   6   7
ENDBRANCH   3   6
ENDBRANCH   1   2
BRANCH   1  32
ATOM     32  C   UNL A   1      35.783  21.997  24.469  1.00  0.00     0.023 C 
BRANCH  32  33
ATOM     33  C   UNL A   1      36.442  23.210  25.128  1.00  0.00     0.023 C 
BRANCH  33  34
ATOM     34  C   UNL A   1      37.952  23.239  25.064  1.00  0.00     0.116 C 
BRANCH  34  35
ATOM     35  N   UNL A   1      38.601  22.313  25.998  1.00  0.00    -0.352 N 
ATOM     36  C   UNL A   1      39.649  22.597  26.871  1.00  0.00     0.251 C 
ATOM     37  H   UNL A   1      38.258  21.390  26.009  1.00  0.00     0.163 HD
ATOM     38  O   UNL A   1      40.331  21.727  27.369  1.00  0.00    -0.269 OA
BRANCH  36  39
ATOM     39  C   UNL A   1      39.887  24.020  27.175  1.00  0.00     0.039 A 
ATOM     40  C   UNL A   1      38.854  24.947  27.317  1.00  0.00     0.014 A 
ATOM     41  C   UNL A   1      41.199  24.355  27.470  1.00  0.00     0.014 A 
ATOM     42  C   UNL A   1      39.157  26.195  27.863  1.00  0.00     0.010 A 
ATOM     43  C   UNL A   1      41.429  25.451  28.248  1.00  0.00     0.010 A 
ATOM     44  C   UNL A   1      40.450  26.429  28.355  1.00  0.00    -0.014 A 
BRANCH  44  45
ATOM     45  C   UNL A   1      40.824  27.672  29.020  1.00  0.00     0.031 A 
ATOM     46  C   UNL A   1      41.903  28.471  28.371  1.00  0.00     0.074 A 
ATOM     47  C   UNL A   1      40.083  28.176  30.036  1.00  0.00     0.049 A 
ATOM     48  N   UNL A   1      43.054  28.798  28.859  1.00  0.00    -0.248 NA
ATOM     49  C   UNL A   1      41.716  28.886  26.970  1.00  0.00     0.031 C 
ATOM     50  C   UNL A   1      38.813  27.686  30.600  1.00  0.00     0.029 A 
ATOM     51  N   UNL A   1      40.276  29.328  30.727  1.00  0.00    -0.354 N 
ATOM     52  C   UNL A   1      43.679  29.597  27.903  1.00  0.00     0.074 A 
ATOM     53  C   UNL A   1      42.869  29.509  26.715  1.00  0.00     0.031 C 
ATOM     54  C   UNL A   1      38.239  28.652  31.347  1.00  0.00     0.029 A 
ATOM     55  C   UNL A   1      39.192  29.730  31.495  1.00  0.00     0.049 A 
ATOM     56  H   UNL A   1      41.118  29.837  30.687  1.00  0.00     0.167 HD
ATOM     57  C   UNL A   1      44.724  30.412  28.219  1.00  0.00     0.037 A 
ATOM     58  C   UNL A   1      39.087  30.877  32.206  1.00  0.00     0.037 A 
ATOM     59  C   UNL A   1      45.305  30.049  29.485  1.00  0.00     0.049 A 
ATOM     60  C   UNL A   1      40.462  31.390  32.406  1.00  0.00     0.074 A 
ATOM     61  C   UNL A   1      45.950  28.924  29.963  1.00  0.00     0.029 A 
ATOM     62  N   UNL A   1      44.924  30.756  30.600  1.00  0.00    -0.354 N 
ATOM     63  N   UNL A   1      41.360  30.784  33.135  1.00  0.00    -0.248 NA
ATOM     64  C   UNL A   1      40.982  32.313  31.411  1.00  0.00     0.031 C 
ATOM     65  C   UNL A   1      45.465  28.764  31.295  1.00  0.00     0.029 A 
ATOM     66  C   UNL A   1      44.615  29.837  31.572  1.00  0.00     0.049 A 
ATOM     67  H   UNL A   1      44.881  31.735  30.684  1.00  0.00     0.167 HD
ATOM     68  C   UNL A   1      42.547  30.924  32.429  1.00  0.00     0.074 A 
ATOM     69  C   UNL A   1      42.265  31.940  31.415  1.00  0.00     0.031 C 
ATOM     70  C   UNL A   1      43.555  30.009  32.541  1.00  0.00     0.037 A 
BRANCH  57  71
ATOM     71  C   UNL A   1      45.041  31.719  27.536  1.00  0.00     0.057 A 
ATOM     72  C   UNL A   1      46.276  31.886  26.882  1.00  0.00     0.134 A 
ATOM     73  C   UNL A   1      44.303  32.904  27.727  1.00  0.00     0.134 A 
ATOM     74  F   UNL A   1      47.084  30.839  26.656  1.00  0.00    -0.206 F 
ATOM     75  C   UNL A   1      46.762  33.143  26.499  1.00  0.00     0.040 A 
ATOM     76  C   UNL A   1      44.755  34.157  27.305  1.00  0.00     0.040 A 
ATOM     77  F   UNL A   1      43.155  32.925  28.415  1.00  0.00    -0.206 F 
ATOM     78  C   UNL A   1      46.003  34.285  26.715  1.00  0.00     0.006 A 
ENDBRANCH  57  71
BRANCH  58  79
ATOM     79  C   UNL A   1      37.879  31.698  32.426  1.00  0.00     0.057 A 
ATOM     80  C   UNL A   1      37.339  31.862  33.707  1.00  0.00     0.134 A 
ATOM     81  C   UNL A   1      37.394  32.564  31.429  1.00  0.00     0.134 A 
ATOM     82  F   UNL A   1      37.768  31.105  34.726  1.00  0.00    -0.206 F 
ATOM     83  C   UNL A   1      36.388  32.852  33.990  1.00  0.00     0.040 A 
ATOM     84  C   UNL A   1      36.443  33.555  31.696  1.00  0.00     0.040 A 
ATOM     85  F   UNL A   1      37.891  32.533  30.183  1.00  0.00    -0.206 F 
ATOM     86  C   UNL A   1      35.948  33.711  32.985  1.00  0.00     0.006 A 
ENDBRANCH  58  79
BRANCH  70  87
ATOM     87  C   UNL A   1      43.432  28.945  33.603  1.00  0.00     0.057 A 
ATOM     88  C   UNL A   1      42.790  27.711  33.409  1.00  0.00     0.134 A 
ATOM     89  C   UNL A   1      44.130  29.104  34.803  1.00  0.00     0.134 A 
ATOM     90  F   UNL A   1      42.178  27.420  32.258  1.00  0.00    -0.206 F 
ATOM     91  C   UNL A   1      42.812  26.700  34.377  1.00  0.00     0.040 A 
ATOM     92  C   UNL A   1      44.187  28.091  35.766  1.00  0.00     0.040 A 
ATOM     93  F   UNL A   1      44.819  30.232  35.039  1.00  0.00    -0.206 F 
ATOM     94  C   UNL A   1      43.520  26.887  35.559  1.00  0.00     0.006 A 
ENDBRANCH  70  87
ENDBRANCH  44  45
ENDBRANCH  36  39
ENDBRANCH  34  35
ENDBRANCH  33  34
ENDBRANCH  32  33
ENDBRANCH   1  32
TORSDOF 16
ENDMDL
