MODEL 1
REMARK VINA RESULT:     -12.4      0.000      0.000
REMARK SMILES COc1ccc2c(c1)c(CC(=O)NCCCCNC(=O)c1ccc(-c3c4nc(c(-c5c(F)cccc5F)c5ccc([nH]5)c(-c5c(F)cccc5F)c5nc(c(-c6c(F)cccc6F)c6ccc3[nH]6)C=C5)C=C4)cc1)c(C(F)(F)F)n2C(=O)c1ccc(Cl)cc1
REMARK SMILES IDX 15 1 14 2 13 3 11 4 12 5 10 7 9 8 3 9 4 10 8 11 5 12 7 13
REMARK SMILES IDX 6 14 80 15 75 16 2 17 1 18 81 19 82 20 83 21 84 22 89 23
REMARK SMILES IDX 85 24 88 25 86 26 87 27 76 28 77 29 78 30 79 31 16 32 17 33
REMARK SMILES IDX 18 34 19 35 20 37 21 38 22 39 74 40 23 41 73 42 24 43 25 44
REMARK SMILES IDX 26 45 67 46 27 47 72 48 66 49 68 50 28 51 71 52 65 53 64 54
REMARK SMILES IDX 29 56 55 57 38 58 54 59 39 60 42 61 53 62 69 63 40 64 41 65
REMARK SMILES IDX 52 67 70 68 43 69 30 70 31 71 36 72 32 73 33 74 35 75 37 76
REMARK SMILES IDX 34 77 56 78 57 79 62 80 58 81 59 82 61 83 63 84 60 85 44 86
REMARK SMILES IDX 45 87 50 88 46 89 47 90 49 91 51 92 48 93
REMARK H PARENT 13 6 18 36 68 55 42 66
REMARK Flexibility Score: inf
ROOT
ATOM      1  C   UNL A   1      31.356  27.526  26.790  1.00  0.00     0.023 C 
ENDROOT
BRANCH   1   2
ATOM      2  C   UNL A   1      30.783  26.414  25.912  1.00  0.00     0.116 C 
BRANCH   2   3
ATOM      3  N   UNL A   1      30.611  25.176  26.646  1.00  0.00    -0.356 N 
ATOM      4  C   UNL A   1      30.875  23.898  26.237  1.00  0.00     0.224 C 
ATOM      5  O   UNL A   1      30.692  22.978  27.036  1.00  0.00    -0.275 OA
ATOM      6  H   UNL A   1      30.257  25.267  27.560  1.00  0.00     0.163 HD
BRANCH   4   7
ATOM      7  C   UNL A   1      31.428  23.642  24.842  1.00  0.00     0.138 C 
BRANCH   7   8
ATOM      8  C   UNL A   1      32.796  23.015  24.847  1.00  0.00     0.000 A 
ATOM      9  C   UNL A   1      32.825  19.195  24.731  1.00  0.00     0.119 A 
ATOM     10  C   UNL A   1      34.198  19.056  24.860  1.00  0.00     0.048 A 
ATOM     11  C   UNL A   1      32.263  20.473  24.700  1.00  0.00     0.057 A 
ATOM     12  C   UNL A   1      35.028  20.178  24.948  1.00  0.00     0.031 A 
ATOM     13  C   UNL A   1      33.080  21.622  24.785  1.00  0.00     0.008 A 
ATOM     14  C   UNL A   1      34.467  21.468  24.862  1.00  0.00     0.057 A 
ATOM     15  N   UNL A   1      35.036  22.745  24.762  1.00  0.00    -0.271 N 
ATOM     16  C   UNL A   1      34.018  23.670  24.991  1.00  0.00     0.135 A 
BRANCH   9  17
ATOM     17  O   UNL A   1      31.933  18.166  24.608  1.00  0.00    -0.497 OA
ATOM     18  C   UNL A   1      32.322  16.931  25.198  1.00  0.00     0.278 C 
ENDBRANCH   9  17
BRANCH  15  19
ATOM     19  C   UNL A   1      36.384  23.059  24.423  1.00  0.00     0.262 C 
ATOM     20  O   UNL A   1      36.625  23.432  23.291  1.00  0.00    -0.268 OA
BRANCH  19  21
ATOM     21  C   UNL A   1      37.532  22.909  25.340  1.00  0.00     0.040 A 
ATOM     22  C   UNL A   1      37.955  23.988  26.125  1.00  0.00     0.015 A 
ATOM     23  C   UNL A   1      38.218  21.691  25.363  1.00  0.00     0.015 A 
ATOM     24  C   UNL A   1      39.128  23.869  26.874  1.00  0.00     0.021 A 
ATOM     25  C   UNL A   1      39.384  21.575  26.124  1.00  0.00     0.021 A 
ATOM     26  C   UNL A   1      39.844  22.670  26.859  1.00  0.00     0.041 A 
ATOM     27  Cl  UNL A   1      41.322  22.549  27.730  1.00  0.00    -0.084 Cl
ENDBRANCH  19  21
ENDBRANCH  15  19
BRANCH  16  28
ATOM     28  C   UNL A   1      34.273  25.112  25.280  1.00  0.00     0.432 C 
ATOM     29  F   UNL A   1      33.682  25.923  24.371  1.00  0.00    -0.165 F 
ATOM     30  F   UNL A   1      33.736  25.447  26.487  1.00  0.00    -0.165 F 
ATOM     31  F   UNL A   1      35.582  25.440  25.373  1.00  0.00    -0.165 F 
ENDBRANCH  16  28
ENDBRANCH   7   8
ENDBRANCH   4   7
ENDBRANCH   2   3
ENDBRANCH   1   2
BRANCH   1  32
ATOM     32  C   UNL A   1      31.790  28.784  26.025  1.00  0.00     0.023 C 
BRANCH  32  33
ATOM     33  C   UNL A   1      33.216  29.261  26.318  1.00  0.00     0.116 C 
BRANCH  33  34
ATOM     34  N   UNL A   1      33.279  30.449  27.146  1.00  0.00    -0.352 N 
ATOM     35  C   UNL A   1      34.291  31.154  27.739  1.00  0.00     0.251 C 
ATOM     36  H   UNL A   1      32.392  30.837  27.321  1.00  0.00     0.163 HD
ATOM     37  O   UNL A   1      33.988  32.261  28.190  1.00  0.00    -0.269 OA
BRANCH  35  38
ATOM     38  C   UNL A   1      35.682  30.664  27.937  1.00  0.00     0.039 A 
ATOM     39  C   UNL A   1      36.124  29.369  27.683  1.00  0.00     0.014 A 
ATOM     40  C   UNL A   1      36.589  31.578  28.515  1.00  0.00     0.014 A 
ATOM     41  C   UNL A   1      37.395  28.972  28.080  1.00  0.00     0.010 A 
ATOM     42  C   UNL A   1      37.871  31.190  28.903  1.00  0.00     0.010 A 
ATOM     43  C   UNL A   1      38.259  29.871  28.722  1.00  0.00    -0.014 A 
BRANCH  43  44
ATOM     44  C   UNL A   1      39.598  29.385  29.048  1.00  0.00     0.031 A 
ATOM     45  C   UNL A   1      39.788  29.105  30.497  1.00  0.00     0.074 A 
ATOM     46  C   UNL A   1      40.596  29.162  28.167  1.00  0.00     0.049 A 
ATOM     47  N   UNL A   1      40.510  29.774  31.334  1.00  0.00    -0.248 NA
ATOM     48  C   UNL A   1      38.960  28.058  31.115  1.00  0.00     0.031 C 
ATOM     49  C   UNL A   1      40.530  29.145  26.706  1.00  0.00     0.029 A 
ATOM     50  N   UNL A   1      41.901  28.836  28.419  1.00  0.00    -0.354 N 
ATOM     51  C   UNL A   1      40.389  29.111  32.552  1.00  0.00     0.074 A 
ATOM     52  C   UNL A   1      39.315  28.164  32.397  1.00  0.00     0.031 C 
ATOM     53  C   UNL A   1      41.679  28.626  26.210  1.00  0.00     0.029 A 
ATOM     54  C   UNL A   1      42.614  28.412  27.303  1.00  0.00     0.049 A 
ATOM     55  H   UNL A   1      42.301  28.897  29.316  1.00  0.00     0.167 HD
ATOM     56  C   UNL A   1      41.356  29.221  33.501  1.00  0.00     0.037 A 
ATOM     57  C   UNL A   1      43.871  27.901  27.282  1.00  0.00     0.037 A 
ATOM     58  C   UNL A   1      42.164  30.397  33.298  1.00  0.00     0.049 A 
ATOM     59  C   UNL A   1      44.556  28.331  28.520  1.00  0.00     0.074 A 
ATOM     60  C   UNL A   1      41.934  31.758  33.246  1.00  0.00     0.029 A 
ATOM     61  N   UNL A   1      43.411  30.212  32.759  1.00  0.00    -0.354 N 
ATOM     62  N   UNL A   1      44.933  29.552  28.759  1.00  0.00    -0.248 NA
ATOM     63  C   UNL A   1      44.485  27.460  29.683  1.00  0.00     0.031 C 
ATOM     64  C   UNL A   1      42.844  32.254  32.263  1.00  0.00     0.029 A 
ATOM     65  C   UNL A   1      43.610  31.180  31.811  1.00  0.00     0.049 A 
ATOM     66  H   UNL A   1      44.052  29.508  33.010  1.00  0.00     0.167 HD
ATOM     67  C   UNL A   1      44.696  29.730  30.111  1.00  0.00     0.074 A 
ATOM     68  C   UNL A   1      44.546  28.381  30.649  1.00  0.00     0.031 C 
ATOM     69  C   UNL A   1      44.366  30.960  30.602  1.00  0.00     0.037 A 
BRANCH  56  70
ATOM     70  C   UNL A   1      41.853  28.042  34.309  1.00  0.00     0.057 A 
ATOM     71  C   UNL A   1      42.660  27.012  33.782  1.00  0.00     0.134 A 
ATOM     72  C   UNL A   1      41.827  28.118  35.714  1.00  0.00     0.134 A 
ATOM     73  F   UNL A   1      42.843  26.838  32.468  1.00  0.00    -0.206 F 
ATOM     74  C   UNL A   1      43.421  26.158  34.584  1.00  0.00     0.040 A 
ATOM     75  C   UNL A   1      42.624  27.300  36.524  1.00  0.00     0.040 A 
ATOM     76  F   UNL A   1      41.105  29.062  36.338  1.00  0.00    -0.206 F 
ATOM     77  C   UNL A   1      43.436  26.325  35.959  1.00  0.00     0.006 A 
ENDBRANCH  56  70
BRANCH  57  78
ATOM     78  C   UNL A   1      44.469  26.879  26.392  1.00  0.00     0.057 A 
ATOM     79  C   UNL A   1      44.133  25.522  26.518  1.00  0.00     0.134 A 
ATOM     80  C   UNL A   1      45.602  27.161  25.610  1.00  0.00     0.134 A 
ATOM     81  F   UNL A   1      43.113  25.135  27.298  1.00  0.00    -0.206 F 
ATOM     82  C   UNL A   1      44.890  24.504  25.929  1.00  0.00     0.040 A 
ATOM     83  C   UNL A   1      46.373  26.152  25.018  1.00  0.00     0.040 A 
ATOM     84  F   UNL A   1      46.031  28.423  25.460  1.00  0.00    -0.206 F 
ATOM     85  C   UNL A   1      46.024  24.816  25.189  1.00  0.00     0.006 A 
ENDBRANCH  57  78
BRANCH  69  86
ATOM     86  C   UNL A   1      44.612  32.147  29.713  1.00  0.00     0.057 A 
ATOM     87  C   UNL A   1      45.832  32.822  29.829  1.00  0.00     0.134 A 
ATOM     88  C   UNL A   1      43.669  32.686  28.824  1.00  0.00     0.134 A 
ATOM     89  F   UNL A   1      46.762  32.395  30.699  1.00  0.00    -0.206 F 
ATOM     90  C   UNL A   1      46.116  33.967  29.083  1.00  0.00     0.040 A 
ATOM     91  C   UNL A   1      43.957  33.811  28.043  1.00  0.00     0.040 A 
ATOM     92  F   UNL A   1      42.438  32.169  28.716  1.00  0.00    -0.206 F 
ATOM     93  C   UNL A   1      45.183  34.455  28.173  1.00  0.00     0.006 A 
ENDBRANCH  69  86
ENDBRANCH  43  44
ENDBRANCH  35  38
ENDBRANCH  33  34
ENDBRANCH  32  33
ENDBRANCH   1  32
TORSDOF 16
ENDMDL
MODEL 2
REMARK VINA RESULT:     -12.1      2.346      3.567
REMARK SMILES COc1ccc2c(c1)c(CC(=O)NCCCCNC(=O)c1ccc(-c3c4nc(c(-c5c(F)cccc5F)c5ccc([nH]5)c(-c5c(F)cccc5F)c5nc(c(-c6c(F)cccc6F)c6ccc3[nH]6)C=C5)C=C4)cc1)c(C(F)(F)F)n2C(=O)c1ccc(Cl)cc1
REMARK SMILES IDX 15 1 14 2 13 3 11 4 12 5 10 7 9 8 3 9 4 10 8 11 5 12 7 13
REMARK SMILES IDX 6 14 80 15 75 16 2 17 1 18 81 19 82 20 83 21 84 22 89 23
REMARK SMILES IDX 85 24 88 25 86 26 87 27 76 28 77 29 78 30 79 31 16 32 17 33
REMARK SMILES IDX 18 34 19 35 20 37 21 38 22 39 74 40 23 41 73 42 24 43 25 44
REMARK SMILES IDX 26 45 67 46 27 47 72 48 66 49 68 50 28 51 71 52 65 53 64 54
REMARK SMILES IDX 29 56 55 57 38 58 54 59 39 60 42 61 53 62 69 63 40 64 41 65
REMARK SMILES IDX 52 67 70 68 43 69 30 70 31 71 36 72 32 73 33 74 35 75 37 76
REMARK SMILES IDX 34 77 56 78 57 79 62 80 58 81 59 82 61 83 63 84 60 85 44 86
REMARK SMILES IDX 45 87 50 88 46 89 47 90 49 91 51 92 48 93
REMARK H PARENT 13 6 18 36 68 55 42 66
REMARK Flexibility Score: inf
ROOT
ATOM      1  C   UNL A   1      31.997  29.107  27.053  1.00  0.00     0.023 C 
ENDROOT
BRANCH   1   2
ATOM      2  C   UNL A   1      31.861  28.160  25.861  1.00  0.00     0.116 C 
BRANCH   2   3
ATOM      3  N   UNL A   1      31.042  27.006  26.173  1.00  0.00    -0.356 N 
ATOM      4  C   UNL A   1      31.439  25.729  26.454  1.00  0.00     0.224 C 
ATOM      5  O   UNL A   1      30.575  24.895  26.733  1.00  0.00    -0.275 OA
ATOM      6  H   UNL A   1      30.070  27.163  26.184  1.00  0.00     0.163 HD
BRANCH   4   7
ATOM      7  C   UNL A   1      32.920  25.375  26.467  1.00  0.00     0.138 C 
BRANCH   7   8
ATOM      8  C   UNL A   1      33.259  24.191  25.602  1.00  0.00     0.000 A 
ATOM      9  C   UNL A   1      32.845  24.761  21.847  1.00  0.00     0.119 A 
ATOM     10  C   UNL A   1      33.138  23.460  21.469  1.00  0.00     0.048 A 
ATOM     11  C   UNL A   1      32.876  25.109  23.199  1.00  0.00     0.057 A 
ATOM     12  C   UNL A   1      33.474  22.494  22.422  1.00  0.00     0.031 A 
ATOM     13  C   UNL A   1      33.214  24.151  24.181  1.00  0.00     0.008 A 
ATOM     14  C   UNL A   1      33.557  22.857  23.781  1.00  0.00     0.057 A 
ATOM     15  N   UNL A   1      34.009  22.174  24.919  1.00  0.00    -0.271 N 
ATOM     16  C   UNL A   1      33.601  22.911  26.031  1.00  0.00     0.135 A 
BRANCH   9  17
ATOM     17  O   UNL A   1      32.536  25.784  20.993  1.00  0.00    -0.497 OA
ATOM     18  C   UNL A   1      32.465  25.442  19.613  1.00  0.00     0.278 C 
ENDBRANCH   9  17
BRANCH  15  19
ATOM     19  C   UNL A   1      34.796  20.986  24.951  1.00  0.00     0.262 C 
ATOM     20  O   UNL A   1      36.004  21.094  25.044  1.00  0.00    -0.268 OA
BRANCH  19  21
ATOM     21  C   UNL A   1      34.251  19.620  24.820  1.00  0.00     0.040 A 
ATOM     22  C   UNL A   1      32.880  19.389  24.975  1.00  0.00     0.015 A 
ATOM     23  C   UNL A   1      35.138  18.562  24.598  1.00  0.00     0.015 A 
ATOM     24  C   UNL A   1      32.406  18.075  24.992  1.00  0.00     0.021 A 
ATOM     25  C   UNL A   1      34.655  17.251  24.604  1.00  0.00     0.021 A 
ATOM     26  C   UNL A   1      33.296  17.013  24.822  1.00  0.00     0.041 A 
ATOM     27  Cl  UNL A   1      32.720  15.395  24.909  1.00  0.00    -0.084 Cl
ENDBRANCH  19  21
ENDBRANCH  15  19
BRANCH  16  28
ATOM     28  C   UNL A   1      33.611  22.365  27.421  1.00  0.00     0.432 C 
ATOM     29  F   UNL A   1      34.578  22.933  28.181  1.00  0.00    -0.165 F 
ATOM     30  F   UNL A   1      32.431  22.649  28.042  1.00  0.00    -0.165 F 
ATOM     31  F   UNL A   1      33.732  21.020  27.493  1.00  0.00    -0.165 F 
ENDBRANCH  16  28
ENDBRANCH   7   8
ENDBRANCH   4   7
ENDBRANCH   2   3
ENDBRANCH   1   2
BRANCH   1  32
ATOM     32  C   UNL A   1      32.639  30.462  26.723  1.00  0.00     0.023 C 
BRANCH  32  33
ATOM     33  C   UNL A   1      34.036  30.678  27.314  1.00  0.00     0.116 C 
BRANCH  33  34
ATOM     34  N   UNL A   1      34.050  31.516  28.497  1.00  0.00    -0.352 N 
ATOM     35  C   UNL A   1      35.006  31.878  29.406  1.00  0.00     0.251 C 
ATOM     36  H   UNL A   1      33.171  31.915  28.690  1.00  0.00     0.163 HD
ATOM     37  O   UNL A   1      34.707  32.802  30.167  1.00  0.00    -0.269 OA
BRANCH  35  38
ATOM     38  C   UNL A   1      36.323  31.210  29.585  1.00  0.00     0.039 A 
ATOM     39  C   UNL A   1      37.564  31.813  29.401  1.00  0.00     0.014 A 
ATOM     40  C   UNL A   1      36.288  29.830  29.878  1.00  0.00     0.014 A 
ATOM     41  C   UNL A   1      38.723  31.047  29.412  1.00  0.00     0.010 A 
ATOM     42  C   UNL A   1      37.449  29.058  29.906  1.00  0.00     0.010 A 
ATOM     43  C   UNL A   1      38.667  29.663  29.630  1.00  0.00    -0.014 A 
BRANCH  43  44
ATOM     44  C   UNL A   1      39.940  28.948  29.687  1.00  0.00     0.031 A 
ATOM     45  C   UNL A   1      40.503  28.855  31.061  1.00  0.00     0.074 A 
ATOM     46  C   UNL A   1      40.576  28.379  28.643  1.00  0.00     0.049 A 
ATOM     47  N   UNL A   1      41.544  29.465  31.523  1.00  0.00    -0.248 NA
ATOM     48  C   UNL A   1      39.732  28.123  32.078  1.00  0.00     0.031 C 
ATOM     49  C   UNL A   1      40.076  28.156  27.286  1.00  0.00     0.029 A 
ATOM     50  N   UNL A   1      41.822  27.814  28.606  1.00  0.00    -0.354 N 
ATOM     51  C   UNL A   1      41.681  29.038  32.840  1.00  0.00     0.074 A 
ATOM     52  C   UNL A   1      40.466  28.340  33.171  1.00  0.00     0.031 C 
ATOM     53  C   UNL A   1      40.920  27.327  26.626  1.00  0.00     0.029 A 
ATOM     54  C   UNL A   1      42.087  27.079  27.456  1.00  0.00     0.049 A 
ATOM     55  H   UNL A   1      42.476  27.920  29.334  1.00  0.00     0.167 HD
ATOM     56  C   UNL A   1      42.891  29.073  33.458  1.00  0.00     0.037 A 
ATOM     57  C   UNL A   1      43.175  26.304  27.213  1.00  0.00     0.037 A 
ATOM     58  C   UNL A   1      43.789  29.996  32.810  1.00  0.00     0.049 A 
ATOM     59  C   UNL A   1      44.260  26.753  28.111  1.00  0.00     0.074 A 
ATOM     60  C   UNL A   1      43.787  31.351  32.538  1.00  0.00     0.029 A 
ATOM     61  N   UNL A   1      44.768  29.460  32.014  1.00  0.00    -0.354 N 
ATOM     62  N   UNL A   1      44.893  27.883  27.983  1.00  0.00    -0.248 NA
ATOM     63  C   UNL A   1      44.393  26.107  29.407  1.00  0.00     0.031 C 
ATOM     64  C   UNL A   1      44.433  31.478  31.271  1.00  0.00     0.029 A 
ATOM     65  C   UNL A   1      44.836  30.205  30.868  1.00  0.00     0.049 A 
ATOM     66  H   UNL A   1      45.326  28.678  32.229  1.00  0.00     0.167 HD
ATOM     67  C   UNL A   1      45.104  28.311  29.283  1.00  0.00     0.074 A 
ATOM     68  C   UNL A   1      44.895  27.126  30.110  1.00  0.00     0.031 C 
ATOM     69  C   UNL A   1      45.149  29.643  29.576  1.00  0.00     0.037 A 
BRANCH  56  70
ATOM     70  C   UNL A   1      43.400  27.949  34.335  1.00  0.00     0.057 A 
ATOM     71  C   UNL A   1      43.508  28.033  35.738  1.00  0.00     0.134 A 
ATOM     72  C   UNL A   1      43.445  26.643  33.810  1.00  0.00     0.134 A 
ATOM     73  F   UNL A   1      43.423  29.192  36.401  1.00  0.00    -0.206 F 
ATOM     74  C   UNL A   1      43.601  26.908  36.561  1.00  0.00     0.040 A 
ATOM     75  C   UNL A   1      43.488  25.508  34.629  1.00  0.00     0.040 A 
ATOM     76  F   UNL A   1      43.342  26.429  32.489  1.00  0.00    -0.206 F 
ATOM     77  C   UNL A   1      43.552  25.638  36.010  1.00  0.00     0.006 A 
ENDBRANCH  56  70
BRANCH  57  78
ATOM     78  C   UNL A   1      43.298  25.053  26.430  1.00  0.00     0.057 A 
ATOM     79  C   UNL A   1      42.802  23.836  26.926  1.00  0.00     0.134 A 
ATOM     80  C   UNL A   1      44.168  24.960  25.330  1.00  0.00     0.134 A 
ATOM     81  F   UNL A   1      42.022  23.804  28.016  1.00  0.00    -0.206 F 
ATOM     82  C   UNL A   1      43.168  22.600  26.382  1.00  0.00     0.040 A 
ATOM     83  C   UNL A   1      44.546  23.728  24.778  1.00  0.00     0.040 A 
ATOM     84  F   UNL A   1      44.728  26.060  24.808  1.00  0.00    -0.206 F 
ATOM     85  C   UNL A   1      44.056  22.542  25.314  1.00  0.00     0.006 A 
ENDBRANCH  57  78
BRANCH  69  86
ATOM     86  C   UNL A   1      45.315  30.598  28.428  1.00  0.00     0.057 A 
ATOM     87  C   UNL A   1      46.594  31.101  28.162  1.00  0.00     0.134 A 
ATOM     88  C   UNL A   1      44.262  31.093  27.643  1.00  0.00     0.134 A 
ATOM     89  F   UNL A   1      47.642  30.713  28.907  1.00  0.00    -0.206 F 
ATOM     90  C   UNL A   1      46.825  32.036  27.151  1.00  0.00     0.040 A 
ATOM     91  C   UNL A   1      44.486  32.001  26.602  1.00  0.00     0.040 A 
ATOM     92  F   UNL A   1      42.991  30.746  27.884  1.00  0.00    -0.206 F 
ATOM     93  C   UNL A   1      45.771  32.476  26.356  1.00  0.00     0.006 A 
ENDBRANCH  69  86
ENDBRANCH  43  44
ENDBRANCH  35  38
ENDBRANCH  33  34
ENDBRANCH  32  33
ENDBRANCH   1  32
TORSDOF 16
ENDMDL
MODEL 3
REMARK VINA RESULT:     -12.1      3.108      8.473
REMARK SMILES COc1ccc2c(c1)c(CC(=O)NCCCCNC(=O)c1ccc(-c3c4nc(c(-c5c(F)cccc5F)c5ccc([nH]5)c(-c5c(F)cccc5F)c5nc(c(-c6c(F)cccc6F)c6ccc3[nH]6)C=C5)C=C4)cc1)c(C(F)(F)F)n2C(=O)c1ccc(Cl)cc1
REMARK SMILES IDX 15 1 14 2 13 3 11 4 12 5 10 7 9 8 3 9 4 10 8 11 5 12 7 13
REMARK SMILES IDX 6 14 80 15 75 16 2 17 1 18 81 19 82 20 83 21 84 22 89 23
REMARK SMILES IDX 85 24 88 25 86 26 87 27 76 28 77 29 78 30 79 31 16 32 17 33
REMARK SMILES IDX 18 34 19 35 20 37 21 38 22 39 74 40 23 41 73 42 24 43 25 44
REMARK SMILES IDX 26 45 67 46 27 47 72 48 66 49 68 50 28 51 71 52 65 53 64 54
REMARK SMILES IDX 29 56 55 57 38 58 54 59 39 60 42 61 53 62 69 63 40 64 41 65
REMARK SMILES IDX 52 67 70 68 43 69 30 70 31 71 36 72 32 73 33 74 35 75 37 76
REMARK SMILES IDX 34 77 56 78 57 79 62 80 58 81 59 82 61 83 63 84 60 85 44 86
REMARK SMILES IDX 45 87 50 88 46 89 47 90 49 91 51 92 48 93
REMARK H PARENT 13 6 18 36 68 55 42 66
REMARK Flexibility Score: inf
ROOT
ATOM      1  C   UNL A   1      37.818  21.946  25.155  1.00  0.00     0.023 C 
ENDROOT
BRANCH   1   2
ATOM      2  C   UNL A   1      36.556  22.657  24.670  1.00  0.00     0.116 C 
BRANCH   2   3
ATOM      3  N   UNL A   1      35.559  22.770  25.716  1.00  0.00    -0.356 N 
ATOM      4  C   UNL A   1      34.517  23.651  25.811  1.00  0.00     0.224 C 
ATOM      5  O   UNL A   1      33.754  23.554  26.773  1.00  0.00    -0.275 OA
ATOM      6  H   UNL A   1      35.643  22.128  26.458  1.00  0.00     0.163 HD
BRANCH   4   7
ATOM      7  C   UNL A   1      34.292  24.687  24.718  1.00  0.00     0.138 C 
BRANCH   7   8
ATOM      8  C   UNL A   1      33.086  25.554  24.956  1.00  0.00     0.000 A 
ATOM      9  C   UNL A   1      33.728  28.673  27.068  1.00  0.00     0.119 A 
ATOM     10  C   UNL A   1      32.406  29.086  27.124  1.00  0.00     0.048 A 
ATOM     11  C   UNL A   1      34.059  27.518  26.356  1.00  0.00     0.057 A 
ATOM     12  C   UNL A   1      31.401  28.367  26.468  1.00  0.00     0.031 A 
ATOM     13  C   UNL A   1      33.062  26.776  25.684  1.00  0.00     0.008 A 
ATOM     14  C   UNL A   1      31.742  27.233  25.705  1.00  0.00     0.057 A 
ATOM     15  N   UNL A   1      31.005  26.421  24.831  1.00  0.00    -0.271 N 
ATOM     16  C   UNL A   1      31.772  25.284  24.578  1.00  0.00     0.135 A 
BRANCH   9  17
ATOM     17  O   UNL A   1      34.785  29.319  27.647  1.00  0.00    -0.497 OA
ATOM     18  C   UNL A   1      34.737  30.741  27.617  1.00  0.00     0.278 C 
ENDBRANCH   9  17
BRANCH  15  19
ATOM     19  C   UNL A   1      29.738  26.717  24.248  1.00  0.00     0.262 C 
ATOM     20  O   UNL A   1      28.814  25.953  24.454  1.00  0.00    -0.268 OA
BRANCH  19  21
ATOM     21  C   UNL A   1      29.477  27.863  23.355  1.00  0.00     0.040 A 
ATOM     22  C   UNL A   1      30.538  28.522  22.723  1.00  0.00     0.015 A 
ATOM     23  C   UNL A   1      28.161  28.309  23.203  1.00  0.00     0.015 A 
ATOM     24  C   UNL A   1      30.283  29.690  22.001  1.00  0.00     0.021 A 
ATOM     25  C   UNL A   1      27.912  29.472  22.470  1.00  0.00     0.021 A 
ATOM     26  C   UNL A   1      28.975  30.168  21.890  1.00  0.00     0.041 A 
ATOM     27  Cl  UNL A   1      28.674  31.641  21.056  1.00  0.00    -0.084 Cl
ENDBRANCH  19  21
ENDBRANCH  15  19
BRANCH  16  28
ATOM     28  C   UNL A   1      31.217  24.047  23.954  1.00  0.00     0.432 C 
ATOM     29  F   UNL A   1      30.637  24.299  22.757  1.00  0.00    -0.165 F 
ATOM     30  F   UNL A   1      32.223  23.160  23.703  1.00  0.00    -0.165 F 
ATOM     31  F   UNL A   1      30.340  23.373  24.733  1.00  0.00    -0.165 F 
ENDBRANCH  16  28
ENDBRANCH   7   8
ENDBRANCH   4   7
ENDBRANCH   2   3
ENDBRANCH   1   2
BRANCH   1  32
ATOM     32  C   UNL A   1      38.666  22.754  26.147  1.00  0.00     0.023 C 
BRANCH  32  33
ATOM     33  C   UNL A   1      39.943  22.058  26.626  1.00  0.00     0.116 C 
BRANCH  33  34
ATOM     34  N   UNL A   1      41.091  22.281  25.768  1.00  0.00    -0.352 N 
ATOM     35  C   UNL A   1      42.069  23.236  25.702  1.00  0.00     0.251 C 
ATOM     36  H   UNL A   1      41.189  21.588  25.076  1.00  0.00     0.163 HD
ATOM     37  O   UNL A   1      43.029  22.978  24.971  1.00  0.00    -0.269 OA
BRANCH  35  38
ATOM     38  C   UNL A   1      42.028  24.561  26.376  1.00  0.00     0.039 A 
ATOM     39  C   UNL A   1      42.696  24.887  27.553  1.00  0.00     0.014 A 
ATOM     40  C   UNL A   1      41.164  25.523  25.810  1.00  0.00     0.014 A 
ATOM     41  C   UNL A   1      42.438  26.092  28.194  1.00  0.00     0.010 A 
ATOM     42  C   UNL A   1      40.913  26.741  26.441  1.00  0.00     0.010 A 
ATOM     43  C   UNL A   1      41.520  27.007  27.660  1.00  0.00    -0.014 A 
BRANCH  43  44
ATOM     44  C   UNL A   1      41.358  28.275  28.368  1.00  0.00     0.031 A 
ATOM     45  C   UNL A   1      42.481  29.225  28.142  1.00  0.00     0.074 A 
ATOM     46  C   UNL A   1      40.306  28.624  29.138  1.00  0.00     0.049 A 
ATOM     47  N   UNL A   1      43.383  29.586  28.994  1.00  0.00    -0.248 NA
ATOM     48  C   UNL A   1      42.718  29.705  26.772  1.00  0.00     0.031 C 
ATOM     49  C   UNL A   1      39.020  27.940  29.282  1.00  0.00     0.029 A 
ATOM     50  N   UNL A   1      40.155  29.732  29.926  1.00  0.00    -0.354 N 
ATOM     51  C   UNL A   1      44.190  30.501  28.325  1.00  0.00     0.074 A 
ATOM     52  C   UNL A   1      43.832  30.421  26.933  1.00  0.00     0.031 C 
ATOM     53  C   UNL A   1      38.153  28.749  29.937  1.00  0.00     0.029 A 
ATOM     54  C   UNL A   1      38.859  29.939  30.385  1.00  0.00     0.049 A 
ATOM     55  H   UNL A   1      40.902  30.332  30.149  1.00  0.00     0.167 HD
ATOM     56  C   UNL A   1      44.904  31.430  29.015  1.00  0.00     0.037 A 
ATOM     57  C   UNL A   1      38.393  31.019  31.062  1.00  0.00     0.037 A 
ATOM     58  C   UNL A   1      45.092  31.039  30.389  1.00  0.00     0.049 A 
ATOM     59  C   UNL A   1      39.551  31.697  31.683  1.00  0.00     0.074 A 
ATOM     60  C   UNL A   1      45.680  29.972  31.041  1.00  0.00     0.029 A 
ATOM     61  N   UNL A   1      44.315  31.663  31.329  1.00  0.00    -0.354 N 
ATOM     62  N   UNL A   1      40.226  31.216  32.686  1.00  0.00    -0.248 NA
ATOM     63  C   UNL A   1      40.211  32.756  30.936  1.00  0.00     0.031 C 
ATOM     64  C   UNL A   1      44.867  29.744  32.193  1.00  0.00     0.029 A 
ATOM     65  C   UNL A   1      43.864  30.713  32.205  1.00  0.00     0.049 A 
ATOM     66  H   UNL A   1      44.116  32.627  31.369  1.00  0.00     0.167 HD
ATOM     67  C   UNL A   1      41.540  31.563  32.416  1.00  0.00     0.074 A 
ATOM     68  C   UNL A   1      41.453  32.613  31.406  1.00  0.00     0.031 C 
ATOM     69  C   UNL A   1      42.567  30.768  32.835  1.00  0.00     0.037 A 
BRANCH  56  70
ATOM     70  C   UNL A   1      45.015  32.874  28.575  1.00  0.00     0.057 A 
ATOM     71  C   UNL A   1      46.195  33.452  28.062  1.00  0.00     0.134 A 
ATOM     72  C   UNL A   1      43.837  33.603  28.325  1.00  0.00     0.134 A 
ATOM     73  F   UNL A   1      47.390  32.859  28.159  1.00  0.00    -0.206 F 
ATOM     74  C   UNL A   1      46.199  34.632  27.315  1.00  0.00     0.040 A 
ATOM     75  C   UNL A   1      43.824  34.759  27.536  1.00  0.00     0.040 A 
ATOM     76  F   UNL A   1      42.647  33.154  28.753  1.00  0.00    -0.206 F 
ATOM     77  C   UNL A   1      45.007  35.270  27.016  1.00  0.00     0.006 A 
ENDBRANCH  56  70
BRANCH  57  78
ATOM     78  C   UNL A   1      37.057  31.657  31.036  1.00  0.00     0.057 A 
ATOM     79  C   UNL A   1      36.687  32.523  29.995  1.00  0.00     0.134 A 
ATOM     80  C   UNL A   1      36.233  31.676  32.174  1.00  0.00     0.134 A 
ATOM     81  F   UNL A   1      37.442  32.637  28.893  1.00  0.00    -0.206 F 
ATOM     82  C   UNL A   1      35.584  33.379  30.088  1.00  0.00     0.040 A 
ATOM     83  C   UNL A   1      35.127  32.531  32.283  1.00  0.00     0.040 A 
ATOM     84  F   UNL A   1      36.522  30.916  33.240  1.00  0.00    -0.206 F 
ATOM     85  C   UNL A   1      34.809  33.397  31.241  1.00  0.00     0.006 A 
ENDBRANCH  57  78
BRANCH  69  86
ATOM     86  C   UNL A   1      42.256  29.726  33.872  1.00  0.00     0.057 A 
ATOM     87  C   UNL A   1      42.526  30.022  35.213  1.00  0.00     0.134 A 
ATOM     88  C   UNL A   1      41.787  28.433  33.589  1.00  0.00     0.134 A 
ATOM     89  F   UNL A   1      43.026  31.220  35.553  1.00  0.00    -0.206 F 
ATOM     90  C   UNL A   1      42.320  29.089  36.231  1.00  0.00     0.040 A 
ATOM     91  C   UNL A   1      41.541  27.503  34.604  1.00  0.00     0.040 A 
ATOM     92  F   UNL A   1      41.593  28.024  32.328  1.00  0.00    -0.206 F 
ATOM     93  C   UNL A   1      41.810  27.830  35.929  1.00  0.00     0.006 A 
ENDBRANCH  69  86
ENDBRANCH  43  44
ENDBRANCH  35  38
ENDBRANCH  33  34
ENDBRANCH  32  33
ENDBRANCH   1  32
TORSDOF 16
ENDMDL
