MODEL 1
REMARK VINA RESULT:     -11.7      0.000      0.000
REMARK SMILES O=C(Cc1ccccc1Nc1c(Cl)cccc1C(F)(F)F)NCCCCNC(=O)c1ccc(-c2c3nc(c(-c4c(F)cccc4F)c4ccc([nH]4)c(-c4c(F)cccc4F)c4nc(c(-c5c(F)cccc5F)c5ccc2[nH]5)C=C4)C=C3)cc1
REMARK SMILES IDX 23 1 22 2 1 3 2 4 3 6 4 7 5 8 9 9 6 10 8 11 7 12 10 13 11 15
REMARK SMILES IDX 12 16 17 17 13 18 14 19 16 20 15 21 18 22 19 23 20 24 21 25
REMARK SMILES IDX 24 26 25 27 26 28 27 29 28 30 29 32 30 33 31 34 83 35 32 36
REMARK SMILES IDX 82 37 33 38 34 39 35 40 76 41 36 42 81 43 75 44 77 45 37 46
REMARK SMILES IDX 80 47 74 48 73 49 38 51 64 52 47 53 63 54 48 55 51 56 62 57
REMARK SMILES IDX 78 58 49 59 50 60 61 62 79 63 52 64 39 65 40 66 45 67 41 68
REMARK SMILES IDX 42 69 44 70 46 71 43 72 65 73 66 74 71 75 67 76 68 77 70 78
REMARK SMILES IDX 72 79 69 80 53 81 54 82 59 83 55 84 56 85 58 86 60 87 57 88
REMARK H PARENT 22 5 10 14 27 31 77 50 51 61
REMARK Flexibility Score: inf
ROOT
ATOM      1  C   UNL A   1      32.761  26.374  25.718  1.00  0.00     0.116 C 
ENDROOT
BRANCH   1   2
ATOM      2  N   UNL A   1      33.024  25.017  26.150  1.00  0.00    -0.356 N 
ATOM      3  O   UNL A   1      34.890  24.781  24.835  1.00  0.00    -0.275 OA
ATOM      4  C   UNL A   1      34.153  24.352  25.720  1.00  0.00     0.224 C 
ATOM      5  H   UNL A   1      32.392  24.566  26.755  1.00  0.00     0.163 HD
BRANCH   4   6
ATOM      6  C   UNL A   1      34.509  23.111  26.505  1.00  0.00     0.137 C 
BRANCH   6   7
ATOM      7  C   UNL A   1      35.692  22.327  25.961  1.00  0.00    -0.015 A 
ATOM      8  C   UNL A   1      36.947  22.973  26.066  1.00  0.00     0.006 A 
ATOM      9  C   UNL A   1      35.632  21.009  25.439  1.00  0.00     0.042 A 
ATOM     10  C   UNL A   1      38.118  22.364  25.625  1.00  0.00     0.000 A 
ATOM     11  C   UNL A   1      36.830  20.440  24.965  1.00  0.00     0.026 A 
ATOM     12  C   UNL A   1      38.057  21.103  25.056  1.00  0.00     0.002 A 
BRANCH   9  13
ATOM     13  N   UNL A   1      34.451  20.232  25.459  1.00  0.00    -0.354 N 
ATOM     14  H   UNL A   1      34.005  20.187  26.334  1.00  0.00     0.167 HD
BRANCH  13  15
ATOM     15  C   UNL A   1      33.801  19.508  24.427  1.00  0.00     0.070 A 
ATOM     16  C   UNL A   1      34.134  18.148  24.210  1.00  0.00     0.065 A 
ATOM     17  C   UNL A   1      32.821  20.083  23.593  1.00  0.00     0.080 A 
ATOM     18  Cl  UNL A   1      35.352  17.346  25.131  1.00  0.00    -0.082 Cl
ATOM     19  C   UNL A   1      33.489  17.371  23.245  1.00  0.00     0.023 A 
ATOM     20  C   UNL A   1      32.166  19.272  22.636  1.00  0.00     0.015 A 
ATOM     21  C   UNL A   1      32.493  17.931  22.463  1.00  0.00     0.002 A 
BRANCH  17  22
ATOM     22  C   UNL A   1      32.441  21.546  23.626  1.00  0.00     0.418 C 
ATOM     23  F   UNL A   1      31.992  21.922  24.864  1.00  0.00    -0.166 F 
ATOM     24  F   UNL A   1      33.504  22.363  23.379  1.00  0.00    -0.166 F 
ATOM     25  F   UNL A   1      31.450  21.923  22.776  1.00  0.00    -0.166 F 
ENDBRANCH  17  22
ENDBRANCH  13  15
ENDBRANCH   9  13
ENDBRANCH   6   7
ENDBRANCH   4   6
ENDBRANCH   1   2
BRANCH   1  26
ATOM     26  C   UNL A   1      31.627  27.064  26.460  1.00  0.00     0.023 C 
BRANCH  26  27
ATOM     27  C   UNL A   1      32.080  28.050  27.536  1.00  0.00     0.023 C 
BRANCH  27  28
ATOM     28  C   UNL A   1      33.446  28.698  27.312  1.00  0.00     0.116 C 
BRANCH  28  29
ATOM     29  N   UNL A   1      33.490  30.100  27.703  1.00  0.00    -0.352 N 
ATOM     30  C   UNL A   1      34.516  30.814  28.274  1.00  0.00     0.251 C 
ATOM     31  H   UNL A   1      32.665  30.610  27.532  1.00  0.00     0.163 HD
ATOM     32  O   UNL A   1      34.327  31.964  28.665  1.00  0.00    -0.269 OA
BRANCH  30  33
ATOM     33  C   UNL A   1      35.846  30.191  28.452  1.00  0.00     0.039 A 
ATOM     34  C   UNL A   1      36.738  30.183  27.377  1.00  0.00     0.014 A 
ATOM     35  C   UNL A   1      36.218  29.627  29.675  1.00  0.00     0.014 A 
ATOM     36  C   UNL A   1      38.033  29.686  27.554  1.00  0.00     0.010 A 
ATOM     37  C   UNL A   1      37.532  29.204  29.872  1.00  0.00     0.010 A 
ATOM     38  C   UNL A   1      38.455  29.235  28.816  1.00  0.00    -0.014 A 
BRANCH  38  39
ATOM     39  C   UNL A   1      39.861  28.809  29.051  1.00  0.00     0.031 A 
ATOM     40  C   UNL A   1      40.849  29.756  29.674  1.00  0.00     0.074 A 
ATOM     41  C   UNL A   1      40.267  27.591  28.642  1.00  0.00     0.049 A 
ATOM     42  N   UNL A   1      42.128  29.587  29.900  1.00  0.00    -0.248 NA
ATOM     43  C   UNL A   1      40.340  31.077  30.076  1.00  0.00     0.031 C 
ATOM     44  C   UNL A   1      39.422  26.592  27.984  1.00  0.00     0.029 A 
ATOM     45  N   UNL A   1      41.498  26.986  28.713  1.00  0.00    -0.354 N 
ATOM     46  C   UNL A   1      42.577  30.779  30.455  1.00  0.00     0.074 A 
ATOM     47  C   UNL A   1      41.447  31.681  30.483  1.00  0.00     0.031 C 
ATOM     48  C   UNL A   1      40.150  25.493  27.735  1.00  0.00     0.029 A 
ATOM     49  C   UNL A   1      41.523  25.721  28.175  1.00  0.00     0.049 A 
ATOM     50  H   UNL A   1      42.288  27.417  29.110  1.00  0.00     0.167 HD
ATOM     51  C   UNL A   1      43.811  31.086  30.921  1.00  0.00     0.037 A 
ATOM     52  C   UNL A   1      42.540  24.847  28.041  1.00  0.00     0.037 A 
ATOM     53  C   UNL A   1      44.931  30.182  30.910  1.00  0.00     0.049 A 
ATOM     54  C   UNL A   1      43.906  25.222  28.545  1.00  0.00     0.074 A 
ATOM     55  C   UNL A   1      46.205  30.382  31.414  1.00  0.00     0.029 A 
ATOM     56  N   UNL A   1      44.915  28.908  30.360  1.00  0.00    -0.354 N 
ATOM     57  N   UNL A   1      44.296  26.326  29.133  1.00  0.00    -0.248 NA
ATOM     58  C   UNL A   1      44.973  24.226  28.368  1.00  0.00     0.031 C 
ATOM     59  C   UNL A   1      46.975  29.252  31.119  1.00  0.00     0.029 A 
ATOM     60  C   UNL A   1      46.165  28.322  30.487  1.00  0.00     0.049 A 
ATOM     61  H   UNL A   1      44.131  28.483  29.943  1.00  0.00     0.167 HD
ATOM     62  C   UNL A   1      45.642  26.145  29.427  1.00  0.00     0.074 A 
ATOM     63  C   UNL A   1      45.998  24.820  28.964  1.00  0.00     0.031 C 
ATOM     64  C   UNL A   1      46.506  27.000  30.029  1.00  0.00     0.037 A 
BRANCH  51  65
ATOM     65  C   UNL A   1      44.018  32.465  31.481  1.00  0.00     0.057 A 
ATOM     66  C   UNL A   1      43.820  32.751  32.839  1.00  0.00     0.134 A 
ATOM     67  C   UNL A   1      44.463  33.510  30.662  1.00  0.00     0.134 A 
ATOM     68  F   UNL A   1      43.385  31.799  33.678  1.00  0.00    -0.206 F 
ATOM     69  C   UNL A   1      44.027  34.031  33.355  1.00  0.00     0.040 A 
ATOM     70  C   UNL A   1      44.705  34.787  31.171  1.00  0.00     0.040 A 
ATOM     71  F   UNL A   1      44.683  33.305  29.354  1.00  0.00    -0.206 F 
ATOM     72  C   UNL A   1      44.479  35.053  32.520  1.00  0.00     0.006 A 
ENDBRANCH  51  65
BRANCH  52  73
ATOM     73  C   UNL A   1      42.304  23.518  27.416  1.00  0.00     0.057 A 
ATOM     74  C   UNL A   1      41.978  22.402  28.195  1.00  0.00     0.134 A 
ATOM     75  C   UNL A   1      42.418  23.327  26.034  1.00  0.00     0.134 A 
ATOM     76  F   UNL A   1      41.873  22.516  29.528  1.00  0.00    -0.206 F 
ATOM     77  C   UNL A   1      41.798  21.139  27.628  1.00  0.00     0.040 A 
ATOM     78  C   UNL A   1      42.214  22.076  25.449  1.00  0.00     0.040 A 
ATOM     79  F   UNL A   1      42.722  24.356  25.229  1.00  0.00    -0.206 F 
ATOM     80  C   UNL A   1      41.910  20.975  26.249  1.00  0.00     0.006 A 
ENDBRANCH  52  73
BRANCH  64  81
ATOM     81  C   UNL A   1      47.908  26.515  30.261  1.00  0.00     0.057 A 
ATOM     82  C   UNL A   1      48.932  26.726  29.330  1.00  0.00     0.134 A 
ATOM     83  C   UNL A   1      48.246  25.860  31.453  1.00  0.00     0.134 A 
ATOM     84  F   UNL A   1      48.674  27.336  28.162  1.00  0.00    -0.206 F 
ATOM     85  C   UNL A   1      50.234  26.281  29.563  1.00  0.00     0.040 A 
ATOM     86  C   UNL A   1      49.550  25.437  31.711  1.00  0.00     0.040 A 
ATOM     87  F   UNL A   1      47.316  25.633  32.394  1.00  0.00    -0.206 F 
ATOM     88  C   UNL A   1      50.548  25.642  30.762  1.00  0.00     0.006 A 
ENDBRANCH  64  81
ENDBRANCH  38  39
ENDBRANCH  30  33
ENDBRANCH  28  29
ENDBRANCH  27  28
ENDBRANCH  26  27
ENDBRANCH   1  26
TORSDOF 15
ENDMDL
MODEL 2
REMARK VINA RESULT:     -11.5      2.960      4.522
REMARK SMILES O=C(Cc1ccccc1Nc1c(Cl)cccc1C(F)(F)F)NCCCCNC(=O)c1ccc(-c2c3nc(c(-c4c(F)cccc4F)c4ccc([nH]4)c(-c4c(F)cccc4F)c4nc(c(-c5c(F)cccc5F)c5ccc2[nH]5)C=C4)C=C3)cc1
REMARK SMILES IDX 23 1 22 2 1 3 2 4 3 6 4 7 5 8 9 9 6 10 8 11 7 12 10 13 11 15
REMARK SMILES IDX 12 16 17 17 13 18 14 19 16 20 15 21 18 22 19 23 20 24 21 25
REMARK SMILES IDX 24 26 25 27 26 28 27 29 28 30 29 32 30 33 31 34 83 35 32 36
REMARK SMILES IDX 82 37 33 38 34 39 35 40 76 41 36 42 81 43 75 44 77 45 37 46
REMARK SMILES IDX 80 47 74 48 73 49 38 51 64 52 47 53 63 54 48 55 51 56 62 57
REMARK SMILES IDX 78 58 49 59 50 60 61 62 79 63 52 64 39 65 40 66 45 67 41 68
REMARK SMILES IDX 42 69 44 70 46 71 43 72 65 73 66 74 71 75 67 76 68 77 70 78
REMARK SMILES IDX 72 79 69 80 53 81 54 82 59 83 55 84 56 85 58 86 60 87 57 88
REMARK H PARENT 22 5 10 14 27 31 77 50 51 61
REMARK Flexibility Score: inf
ROOT
ATOM      1  C   UNL A   1      31.859  29.517  27.192  1.00  0.00     0.116 C 
ENDROOT
BRANCH   1   2
ATOM      2  N   UNL A   1      32.909  28.553  26.939  1.00  0.00    -0.356 N 
ATOM      3  O   UNL A   1      31.467  26.778  26.755  1.00  0.00    -0.275 OA
ATOM      4  C   UNL A   1      32.600  27.241  26.647  1.00  0.00     0.224 C 
ATOM      5  H   UNL A   1      33.851  28.836  26.976  1.00  0.00     0.163 HD
BRANCH   4   6
ATOM      6  C   UNL A   1      33.726  26.430  26.051  1.00  0.00     0.137 C 
BRANCH   6   7
ATOM      7  C   UNL A   1      33.495  25.966  24.623  1.00  0.00    -0.015 A 
ATOM      8  C   UNL A   1      33.508  26.987  23.643  1.00  0.00     0.006 A 
ATOM      9  C   UNL A   1      33.344  24.616  24.213  1.00  0.00     0.042 A 
ATOM     10  C   UNL A   1      33.327  26.704  22.293  1.00  0.00     0.000 A 
ATOM     11  C   UNL A   1      33.123  24.370  22.844  1.00  0.00     0.026 A 
ATOM     12  C   UNL A   1      33.116  25.395  21.894  1.00  0.00     0.002 A 
BRANCH   9  13
ATOM     13  N   UNL A   1      33.490  23.526  25.103  1.00  0.00    -0.354 N 
ATOM     14  H   UNL A   1      32.923  23.573  25.905  1.00  0.00     0.167 HD
BRANCH  13  15
ATOM     15  C   UNL A   1      34.317  22.376  25.031  1.00  0.00     0.070 A 
ATOM     16  C   UNL A   1      35.713  22.504  25.237  1.00  0.00     0.065 A 
ATOM     17  C   UNL A   1      33.811  21.089  24.762  1.00  0.00     0.080 A 
ATOM     18  Cl  UNL A   1      36.459  24.033  25.524  1.00  0.00    -0.082 Cl
ATOM     19  C   UNL A   1      36.569  21.400  25.232  1.00  0.00     0.023 A 
ATOM     20  C   UNL A   1      34.692  19.981  24.782  1.00  0.00     0.015 A 
ATOM     21  C   UNL A   1      36.055  20.132  25.016  1.00  0.00     0.002 A 
BRANCH  17  22
ATOM     22  C   UNL A   1      32.367  20.808  24.410  1.00  0.00     0.418 C 
ATOM     23  F   UNL A   1      31.511  21.338  25.338  1.00  0.00    -0.166 F 
ATOM     24  F   UNL A   1      32.002  21.384  23.230  1.00  0.00    -0.166 F 
ATOM     25  F   UNL A   1      32.017  19.497  24.333  1.00  0.00    -0.166 F 
ENDBRANCH  17  22
ENDBRANCH  13  15
ENDBRANCH   9  13
ENDBRANCH   6   7
ENDBRANCH   4   6
ENDBRANCH   1   2
BRANCH   1  26
ATOM     26  C   UNL A   1      31.643  30.524  26.073  1.00  0.00     0.023 C 
BRANCH  26  27
ATOM     27  C   UNL A   1      31.470  31.967  26.542  1.00  0.00     0.023 C 
BRANCH  27  28
ATOM     28  C   UNL A   1      32.671  32.583  27.258  1.00  0.00     0.116 C 
BRANCH  28  29
ATOM     29  N   UNL A   1      32.427  33.938  27.732  1.00  0.00    -0.352 N 
ATOM     30  C   UNL A   1      33.133  34.683  28.647  1.00  0.00     0.251 C 
ATOM     31  H   UNL A   1      31.642  34.386  27.341  1.00  0.00     0.163 HD
ATOM     32  O   UNL A   1      32.699  35.767  29.031  1.00  0.00    -0.269 OA
BRANCH  30  33
ATOM     33  C   UNL A   1      34.405  34.167  29.200  1.00  0.00     0.039 A 
ATOM     34  C   UNL A   1      34.381  33.457  30.403  1.00  0.00     0.014 A 
ATOM     35  C   UNL A   1      35.615  34.371  28.532  1.00  0.00     0.014 A 
ATOM     36  C   UNL A   1      35.556  32.880  30.892  1.00  0.00     0.010 A 
ATOM     37  C   UNL A   1      36.770  33.730  28.978  1.00  0.00     0.010 A 
ATOM     38  C   UNL A   1      36.752  32.972  30.160  1.00  0.00    -0.014 A 
BRANCH  38  39
ATOM     39  C   UNL A   1      37.985  32.269  30.606  1.00  0.00     0.031 A 
ATOM     40  C   UNL A   1      38.853  32.864  31.680  1.00  0.00     0.074 A 
ATOM     41  C   UNL A   1      38.359  31.127  29.998  1.00  0.00     0.049 A 
ATOM     42  N   UNL A   1      39.994  32.430  32.157  1.00  0.00    -0.248 NA
ATOM     43  C   UNL A   1      38.393  34.125  32.284  1.00  0.00     0.031 C 
ATOM     44  C   UNL A   1      37.631  30.466  28.913  1.00  0.00     0.029 A 
ATOM     45  N   UNL A   1      39.451  30.319  30.201  1.00  0.00    -0.354 N 
ATOM     46  C   UNL A   1      40.392  33.368  33.101  1.00  0.00     0.074 A 
ATOM     47  C   UNL A   1      39.399  34.420  33.094  1.00  0.00     0.031 C 
ATOM     48  C   UNL A   1      38.281  29.345  28.564  1.00  0.00     0.029 A 
ATOM     49  C   UNL A   1      39.493  29.227  29.368  1.00  0.00     0.049 A 
ATOM     50  H   UNL A   1      40.140  30.506  30.879  1.00  0.00     0.167 HD
ATOM     51  C   UNL A   1      41.473  33.343  33.917  1.00  0.00     0.037 A 
ATOM     52  C   UNL A   1      40.409  28.245  29.256  1.00  0.00     0.037 A 
ATOM     53  C   UNL A   1      42.451  32.287  33.937  1.00  0.00     0.049 A 
ATOM     54  C   UNL A   1      41.613  28.254  30.158  1.00  0.00     0.074 A 
ATOM     55  C   UNL A   1      43.547  32.144  34.770  1.00  0.00     0.029 A 
ATOM     56  N   UNL A   1      42.455  31.195  33.080  1.00  0.00    -0.354 N 
ATOM     57  N   UNL A   1      41.937  29.110  31.096  1.00  0.00    -0.248 NA
ATOM     58  C   UNL A   1      42.576  27.158  29.987  1.00  0.00     0.031 C 
ATOM     59  C   UNL A   1      44.247  30.997  34.380  1.00  0.00     0.029 A 
ATOM     60  C   UNL A   1      43.552  30.391  33.345  1.00  0.00     0.049 A 
ATOM     61  H   UNL A   1      41.778  31.019  32.387  1.00  0.00     0.167 HD
ATOM     62  C   UNL A   1      43.121  28.638  31.649  1.00  0.00     0.074 A 
ATOM     63  C   UNL A   1      43.451  27.414  30.950  1.00  0.00     0.031 C 
ATOM     64  C   UNL A   1      43.867  29.170  32.648  1.00  0.00     0.037 A 
BRANCH  51  65
ATOM     65  C   UNL A   1      41.659  34.500  34.858  1.00  0.00     0.057 A 
ATOM     66  C   UNL A   1      42.389  35.641  34.494  1.00  0.00     0.134 A 
ATOM     67  C   UNL A   1      41.065  34.493  36.126  1.00  0.00     0.134 A 
ATOM     68  F   UNL A   1      42.992  35.710  33.298  1.00  0.00    -0.206 F 
ATOM     69  C   UNL A   1      42.546  36.717  35.369  1.00  0.00     0.040 A 
ATOM     70  C   UNL A   1      41.188  35.577  36.998  1.00  0.00     0.040 A 
ATOM     71  F   UNL A   1      40.345  33.438  36.536  1.00  0.00    -0.206 F 
ATOM     72  C   UNL A   1      41.938  36.690  36.623  1.00  0.00     0.006 A 
ENDBRANCH  51  65
BRANCH  52  73
ATOM     73  C   UNL A   1      40.219  27.157  28.261  1.00  0.00     0.057 A 
ATOM     74  C   UNL A   1      39.475  26.014  28.576  1.00  0.00     0.134 A 
ATOM     75  C   UNL A   1      40.791  27.221  26.986  1.00  0.00     0.134 A 
ATOM     76  F   UNL A   1      38.918  25.883  29.790  1.00  0.00    -0.206 F 
ATOM     77  C   UNL A   1      39.325  24.963  27.669  1.00  0.00     0.040 A 
ATOM     78  C   UNL A   1      40.627  26.191  26.057  1.00  0.00     0.040 A 
ATOM     79  F   UNL A   1      41.511  28.291  26.618  1.00  0.00    -0.206 F 
ATOM     80  C   UNL A   1      39.899  25.053  26.402  1.00  0.00     0.006 A 
ENDBRANCH  52  73
BRANCH  64  81
ATOM     81  C   UNL A   1      45.091  28.412  33.075  1.00  0.00     0.057 A 
ATOM     82  C   UNL A   1      46.355  28.673  32.534  1.00  0.00     0.134 A 
ATOM     83  C   UNL A   1      45.007  27.430  34.072  1.00  0.00     0.134 A 
ATOM     84  F   UNL A   1      46.504  29.592  31.567  1.00  0.00    -0.206 F 
ATOM     85  C   UNL A   1      47.487  27.969  32.949  1.00  0.00     0.040 A 
ATOM     86  C   UNL A   1      46.136  26.741  34.517  1.00  0.00     0.040 A 
ATOM     87  F   UNL A   1      43.828  27.135  34.641  1.00  0.00    -0.206 F 
ATOM     88  C   UNL A   1      47.379  27.005  33.950  1.00  0.00     0.006 A 
ENDBRANCH  64  81
ENDBRANCH  38  39
ENDBRANCH  30  33
ENDBRANCH  28  29
ENDBRANCH  27  28
ENDBRANCH  26  27
ENDBRANCH   1  26
TORSDOF 15
ENDMDL
MODEL 3
REMARK VINA RESULT:     -11.5      3.819      7.936
REMARK SMILES O=C(Cc1ccccc1Nc1c(Cl)cccc1C(F)(F)F)NCCCCNC(=O)c1ccc(-c2c3nc(c(-c4c(F)cccc4F)c4ccc([nH]4)c(-c4c(F)cccc4F)c4nc(c(-c5c(F)cccc5F)c5ccc2[nH]5)C=C4)C=C3)cc1
REMARK SMILES IDX 23 1 22 2 1 3 2 4 3 6 4 7 5 8 9 9 6 10 8 11 7 12 10 13 11 15
REMARK SMILES IDX 12 16 17 17 13 18 14 19 16 20 15 21 18 22 19 23 20 24 21 25
REMARK SMILES IDX 24 26 25 27 26 28 27 29 28 30 29 32 30 33 31 34 83 35 32 36
REMARK SMILES IDX 82 37 33 38 34 39 35 40 76 41 36 42 81 43 75 44 77 45 37 46
REMARK SMILES IDX 80 47 74 48 73 49 38 51 64 52 47 53 63 54 48 55 51 56 62 57
REMARK SMILES IDX 78 58 49 59 50 60 61 62 79 63 52 64 39 65 40 66 45 67 41 68
REMARK SMILES IDX 42 69 44 70 46 71 43 72 65 73 66 74 71 75 67 76 68 77 70 78
REMARK SMILES IDX 72 79 69 80 53 81 54 82 59 83 55 84 56 85 58 86 60 87 57 88
REMARK H PARENT 22 5 10 14 27 31 77 50 51 61
REMARK Flexibility Score: inf
ROOT
ATOM      1  C   UNL A   1      31.858  29.651  27.227  1.00  0.00     0.116 C 
ENDROOT
BRANCH   1   2
ATOM      2  N   UNL A   1      32.927  28.699  27.012  1.00  0.00    -0.356 N 
ATOM      3  O   UNL A   1      31.511  26.912  26.750  1.00  0.00    -0.275 OA
ATOM      4  C   UNL A   1      32.644  27.387  26.696  1.00  0.00     0.224 C 
ATOM      5  H   UNL A   1      33.864  28.990  27.092  1.00  0.00     0.163 HD
BRANCH   4   6
ATOM      6  C   UNL A   1      33.803  26.591  26.143  1.00  0.00     0.137 C 
BRANCH   6   7
ATOM      7  C   UNL A   1      33.646  26.153  24.696  1.00  0.00    -0.015 A 
ATOM      8  C   UNL A   1      33.450  27.200  23.764  1.00  0.00     0.006 A 
ATOM      9  C   UNL A   1      33.753  24.819  24.227  1.00  0.00     0.042 A 
ATOM     10  C   UNL A   1      33.309  26.947  22.403  1.00  0.00     0.000 A 
ATOM     11  C   UNL A   1      33.566  24.594  22.848  1.00  0.00     0.026 A 
ATOM     12  C   UNL A   1      33.349  25.639  21.946  1.00  0.00     0.002 A 
BRANCH   9  13
ATOM     13  N   UNL A   1      34.119  23.740  25.065  1.00  0.00    -0.354 N 
ATOM     14  H   UNL A   1      34.721  23.982  25.804  1.00  0.00     0.167 HD
BRANCH  13  15
ATOM     15  C   UNL A   1      33.762  22.368  25.019  1.00  0.00     0.070 A 
ATOM     16  C   UNL A   1      34.741  21.401  24.681  1.00  0.00     0.065 A 
ATOM     17  C   UNL A   1      32.459  21.911  25.300  1.00  0.00     0.080 A 
ATOM     18  Cl  UNL A   1      36.357  21.841  24.269  1.00  0.00    -0.082 Cl
ATOM     19  C   UNL A   1      34.461  20.033  24.673  1.00  0.00     0.023 A 
ATOM     20  C   UNL A   1      32.202  20.518  25.306  1.00  0.00     0.015 A 
ATOM     21  C   UNL A   1      33.190  19.588  24.998  1.00  0.00     0.002 A 
BRANCH  17  22
ATOM     22  C   UNL A   1      31.283  22.824  25.564  1.00  0.00     0.418 C 
ATOM     23  F   UNL A   1      30.206  22.130  26.045  1.00  0.00    -0.166 F 
ATOM     24  F   UNL A   1      31.556  23.753  26.524  1.00  0.00    -0.166 F 
ATOM     25  F   UNL A   1      30.801  23.500  24.488  1.00  0.00    -0.166 F 
ENDBRANCH  17  22
ENDBRANCH  13  15
ENDBRANCH   9  13
ENDBRANCH   6   7
ENDBRANCH   4   6
ENDBRANCH   1   2
BRANCH   1  26
ATOM     26  C   UNL A   1      31.692  30.675  26.115  1.00  0.00     0.023 C 
BRANCH  26  27
ATOM     27  C   UNL A   1      31.407  32.096  26.597  1.00  0.00     0.023 C 
BRANCH  27  28
ATOM     28  C   UNL A   1      32.553  32.792  27.330  1.00  0.00     0.116 C 
BRANCH  28  29
ATOM     29  N   UNL A   1      32.283  34.193  27.624  1.00  0.00    -0.352 N 
ATOM     30  C   UNL A   1      32.905  35.032  28.517  1.00  0.00     0.251 C 
ATOM     31  H   UNL A   1      31.548  34.597  27.108  1.00  0.00     0.163 HD
ATOM     32  O   UNL A   1      32.451  36.154  28.733  1.00  0.00    -0.269 OA
BRANCH  30  33
ATOM     33  C   UNL A   1      34.107  34.577  29.250  1.00  0.00     0.039 A 
ATOM     34  C   UNL A   1      33.962  34.093  30.553  1.00  0.00     0.014 A 
ATOM     35  C   UNL A   1      35.370  34.614  28.654  1.00  0.00     0.014 A 
ATOM     36  C   UNL A   1      35.069  33.569  31.226  1.00  0.00     0.010 A 
ATOM     37  C   UNL A   1      36.457  34.020  29.295  1.00  0.00     0.010 A 
ATOM     38  C   UNL A   1      36.317  33.486  30.585  1.00  0.00    -0.014 A 
BRANCH  38  39
ATOM     39  C   UNL A   1      37.478  32.829  31.243  1.00  0.00     0.031 A 
ATOM     40  C   UNL A   1      38.125  31.623  30.618  1.00  0.00     0.074 A 
ATOM     41  C   UNL A   1      37.911  33.277  32.438  1.00  0.00     0.049 A 
ATOM     42  N   UNL A   1      39.104  30.880  31.072  1.00  0.00    -0.248 NA
ATOM     43  C   UNL A   1      37.586  31.177  29.324  1.00  0.00     0.031 C 
ATOM     44  C   UNL A   1      37.345  34.409  33.174  1.00  0.00     0.029 A 
ATOM     45  N   UNL A   1      38.924  32.830  33.250  1.00  0.00    -0.354 N 
ATOM     46  C   UNL A   1      39.288  29.876  30.130  1.00  0.00     0.074 A 
ATOM     47  C   UNL A   1      38.285  30.073  29.106  1.00  0.00     0.031 C 
ATOM     48  C   UNL A   1      38.032  34.583  34.313  1.00  0.00     0.029 A 
ATOM     49  C   UNL A   1      39.060  33.552  34.412  1.00  0.00     0.049 A 
ATOM     50  H   UNL A   1      39.499  32.064  33.022  1.00  0.00     0.167 HD
ATOM     51  C   UNL A   1      40.221  28.895  30.107  1.00  0.00     0.037 A 
ATOM     52  C   UNL A   1      39.909  33.395  35.446  1.00  0.00     0.037 A 
ATOM     53  C   UNL A   1      41.230  28.711  31.118  1.00  0.00     0.049 A 
ATOM     54  C   UNL A   1      40.920  32.282  35.407  1.00  0.00     0.074 A 
ATOM     55  C   UNL A   1      42.256  27.782  31.152  1.00  0.00     0.029 A 
ATOM     56  N   UNL A   1      41.336  29.466  32.277  1.00  0.00    -0.354 N 
ATOM     57  N   UNL A   1      41.128  31.385  34.474  1.00  0.00    -0.248 NA
ATOM     58  C   UNL A   1      41.818  32.162  36.566  1.00  0.00     0.031 C 
ATOM     59  C   UNL A   1      42.948  27.938  32.357  1.00  0.00     0.029 A 
ATOM     60  C   UNL A   1      42.393  29.004  33.046  1.00  0.00     0.049 A 
ATOM     61  H   UNL A   1      40.749  30.219  32.517  1.00  0.00     0.167 HD
ATOM     62  C   UNL A   1      42.199  30.618  34.916  1.00  0.00     0.074 A 
ATOM     63  C   UNL A   1      42.606  31.163  36.194  1.00  0.00     0.031 C 
ATOM     64  C   UNL A   1      42.794  29.558  34.314  1.00  0.00     0.037 A 
BRANCH  51  65
ATOM     65  C   UNL A   1      40.192  27.936  28.951  1.00  0.00     0.057 A 
ATOM     66  C   UNL A   1      40.896  28.186  27.763  1.00  0.00     0.134 A 
ATOM     67  C   UNL A   1      39.489  26.729  29.040  1.00  0.00     0.134 A 
ATOM     68  F   UNL A   1      41.582  29.328  27.607  1.00  0.00    -0.206 F 
ATOM     69  C   UNL A   1      40.875  27.285  26.698  1.00  0.00     0.040 A 
ATOM     70  C   UNL A   1      39.486  25.804  27.994  1.00  0.00     0.040 A 
ATOM     71  F   UNL A   1      38.802  26.420  30.150  1.00  0.00    -0.206 F 
ATOM     72  C   UNL A   1      40.175  26.085  26.815  1.00  0.00     0.006 A 
ENDBRANCH  51  65
BRANCH  52  73
ATOM     73  C   UNL A   1      39.855  34.325  36.604  1.00  0.00     0.057 A 
ATOM     74  C   UNL A   1      39.109  34.012  37.747  1.00  0.00     0.134 A 
ATOM     75  C   UNL A   1      40.525  35.554  36.590  1.00  0.00     0.134 A 
ATOM     76  F   UNL A   1      38.427  32.859  37.813  1.00  0.00    -0.206 F 
ATOM     77  C   UNL A   1      39.011  34.896  38.823  1.00  0.00     0.040 A 
ATOM     78  C   UNL A   1      40.460  36.435  37.671  1.00  0.00     0.040 A 
ATOM     79  F   UNL A   1      41.263  35.912  35.528  1.00  0.00    -0.206 F 
ATOM     80  C   UNL A   1      39.694  36.111  38.789  1.00  0.00     0.006 A 
ENDBRANCH  52  73
BRANCH  64  81
ATOM     81  C   UNL A   1      43.974  28.943  35.010  1.00  0.00     0.057 A 
ATOM     82  C   UNL A   1      45.280  29.405  34.809  1.00  0.00     0.134 A 
ATOM     83  C   UNL A   1      43.793  27.895  35.924  1.00  0.00     0.134 A 
ATOM     84  F   UNL A   1      45.525  30.395  33.938  1.00  0.00    -0.206 F 
ATOM     85  C   UNL A   1      46.367  28.832  35.472  1.00  0.00     0.040 A 
ATOM     86  C   UNL A   1      44.868  27.335  36.616  1.00  0.00     0.040 A 
ATOM     87  F   UNL A   1      42.567  27.410  36.172  1.00  0.00    -0.206 F 
ATOM     88  C   UNL A   1      46.160  27.799  36.385  1.00  0.00     0.006 A 
ENDBRANCH  64  81
ENDBRANCH  38  39
ENDBRANCH  30  33
ENDBRANCH  28  29
ENDBRANCH  27  28
ENDBRANCH  26  27
ENDBRANCH   1  26
TORSDOF 15
ENDMDL
