MODEL 1
REMARK VINA RESULT:     -12.8      0.000      0.000
REMARK SMILES Cc1cc(NC(=O)[C@H]2[C@@H](C(=O)NCCCCNC(=O)c3ccc(-c4c5nc(c(-c6c(F)cccc6F)c6ccc([nH]6)c(-c6c(F)cccc6F)c6nc(c(-c7c(F)cccc7F)c7ccc4[nH]7)C=C6)C=C5)cc3)C2(C)C)n(-c2ccc(F)cc2)n1
REMARK SMILES IDX 14 1 13 2 12 3 10 4 11 5 9 7 8 8 74 9 75 10 76 11 6 12 5 13
REMARK SMILES IDX 7 15 4 16 1 17 2 18 3 19 85 20 77 21 78 22 79 23 84 24 80 25
REMARK SMILES IDX 83 26 81 27 82 28 15 29 16 30 17 31 18 32 19 34 20 35 21 36
REMARK SMILES IDX 73 37 22 38 72 39 23 40 24 41 25 42 66 43 26 44 71 45 65 46
REMARK SMILES IDX 67 47 27 48 70 49 64 50 63 51 28 53 54 54 37 55 53 56 38 57
REMARK SMILES IDX 41 58 52 59 68 60 39 61 40 62 51 64 69 65 42 66 29 67 30 68
REMARK SMILES IDX 35 69 31 70 32 71 34 72 36 73 33 74 55 75 56 76 61 77 57 78
REMARK SMILES IDX 58 79 60 80 62 81 59 82 43 83 44 84 49 85 45 86 46 87 48 88
REMARK SMILES IDX 50 89 47 90
REMARK H PARENT 12 6 5 14 17 33 67 52 41 63
REMARK Flexibility Score: inf
ROOT
ATOM      1  C   UNL A   1      40.402  20.720  26.649  1.00  0.00     0.023 C 
ENDROOT
BRANCH   1   2
ATOM      2  C   UNL A   1      39.159  21.051  25.840  1.00  0.00     0.116 C 
BRANCH   2   3
ATOM      3  N   UNL A   1      38.926  22.454  25.735  1.00  0.00    -0.356 N 
ATOM      4  C   UNL A   1      37.790  23.180  25.846  1.00  0.00     0.224 C 
ATOM      5  O   UNL A   1      37.908  24.403  25.784  1.00  0.00    -0.275 OA
ATOM      6  H   UNL A   1      39.732  22.988  25.551  1.00  0.00     0.163 HD
BRANCH   4   7
ATOM      7  C   UNL A   1      36.422  22.652  25.984  1.00  0.00     0.098 C 
ATOM      8  C   UNL A   1      35.443  22.367  24.881  1.00  0.00     0.098 C 
ATOM      9  C   UNL A   1      35.012  23.169  26.160  1.00  0.00    -0.011 C 
ATOM     10  C   UNL A   1      34.418  24.538  25.938  1.00  0.00     0.013 C 
ATOM     11  C   UNL A   1      34.398  22.567  27.422  1.00  0.00     0.013 C 
BRANCH   8  12
ATOM     12  C   UNL A   1      35.551  22.985  23.532  1.00  0.00     0.230 C 
ATOM     13  N   UNL A   1      34.473  23.694  22.915  1.00  0.00    -0.310 N 
ATOM     14  H   UNL A   1      34.763  24.277  22.177  1.00  0.00     0.171 HD
ATOM     15  O   UNL A   1      36.588  23.018  22.921  1.00  0.00    -0.274 OA
BRANCH  13  16
ATOM     16  C   UNL A   1      33.101  23.733  23.140  1.00  0.00     0.136 A 
ATOM     17  C   UNL A   1      29.987  25.627  23.606  1.00  0.00     0.069 C 
ATOM     18  C   UNL A   1      31.089  24.661  23.366  1.00  0.00     0.062 A 
ATOM     19  C   UNL A   1      32.440  24.946  23.090  1.00  0.00     0.072 A 
ATOM     20  N   UNL A   1      30.871  23.346  23.430  1.00  0.00    -0.171 NA
ATOM     21  N   UNL A   1      32.096  22.780  23.319  1.00  0.00    -0.217 N 
BRANCH  21  22
ATOM     22  C   UNL A   1      32.202  21.393  23.502  1.00  0.00     0.067 A 
ATOM     23  C   UNL A   1      32.323  20.920  24.803  1.00  0.00     0.031 A 
ATOM     24  C   UNL A   1      32.118  20.503  22.430  1.00  0.00     0.031 A 
ATOM     25  C   UNL A   1      32.616  19.577  25.030  1.00  0.00     0.041 A 
ATOM     26  C   UNL A   1      32.359  19.145  22.666  1.00  0.00     0.041 A 
ATOM     27  C   UNL A   1      32.665  18.706  23.953  1.00  0.00     0.123 A 
ATOM     28  F   UNL A   1      33.012  17.430  24.160  1.00  0.00    -0.207 F 
ENDBRANCH  21  22
ENDBRANCH  13  16
ENDBRANCH   8  12
ENDBRANCH   4   7
ENDBRANCH   2   3
ENDBRANCH   1   2
BRANCH   1  29
ATOM     29  C   UNL A   1      41.283  19.605  26.084  1.00  0.00     0.023 C 
BRANCH  29  30
ATOM     30  C   UNL A   1      42.701  19.565  26.636  1.00  0.00     0.116 C 
BRANCH  30  31
ATOM     31  N   UNL A   1      43.715  19.313  25.610  1.00  0.00    -0.352 N 
ATOM     32  C   UNL A   1      44.291  20.231  24.748  1.00  0.00     0.251 C 
ATOM     33  H   UNL A   1      44.025  18.382  25.523  1.00  0.00     0.163 HD
ATOM     34  O   UNL A   1      44.882  19.884  23.735  1.00  0.00    -0.269 OA
BRANCH  32  35
ATOM     35  C   UNL A   1      44.216  21.651  25.121  1.00  0.00     0.039 A 
ATOM     36  C   UNL A   1      43.224  22.510  24.654  1.00  0.00     0.014 A 
ATOM     37  C   UNL A   1      45.138  22.067  26.071  1.00  0.00     0.014 A 
ATOM     38  C   UNL A   1      43.120  23.773  25.234  1.00  0.00     0.010 A 
ATOM     39  C   UNL A   1      44.899  23.205  26.784  1.00  0.00     0.010 A 
ATOM     40  C   UNL A   1      43.953  24.103  26.318  1.00  0.00    -0.014 A 
BRANCH  40  41
ATOM     41  C   UNL A   1      43.791  25.341  27.069  1.00  0.00     0.031 A 
ATOM     42  C   UNL A   1      44.796  26.387  26.743  1.00  0.00     0.074 A 
ATOM     43  C   UNL A   1      42.679  25.598  27.794  1.00  0.00     0.049 A 
ATOM     44  N   UNL A   1      45.742  26.839  27.498  1.00  0.00    -0.248 NA
ATOM     45  C   UNL A   1      44.864  26.877  25.355  1.00  0.00     0.031 C 
ATOM     46  C   UNL A   1      41.457  24.787  27.913  1.00  0.00     0.029 A 
ATOM     47  N   UNL A   1      42.354  26.712  28.501  1.00  0.00    -0.354 N 
ATOM     48  C   UNL A   1      46.367  27.843  26.763  1.00  0.00     0.074 A 
ATOM     49  C   UNL A   1      45.941  27.664  25.402  1.00  0.00     0.031 C 
ATOM     50  C   UNL A   1      40.457  25.533  28.432  1.00  0.00     0.029 A 
ATOM     51  C   UNL A   1      41.014  26.799  28.863  1.00  0.00     0.049 A 
ATOM     52  H   UNL A   1      43.015  27.402  28.739  1.00  0.00     0.167 HD
ATOM     53  C   UNL A   1      46.948  28.905  27.391  1.00  0.00     0.037 A 
ATOM     54  C   UNL A   1      40.403  27.846  29.469  1.00  0.00     0.037 A 
ATOM     55  C   UNL A   1      47.155  28.613  28.791  1.00  0.00     0.049 A 
ATOM     56  C   UNL A   1      41.467  28.682  30.073  1.00  0.00     0.074 A 
ATOM     57  C   UNL A   1      47.855  27.655  29.499  1.00  0.00     0.029 A 
ATOM     58  N   UNL A   1      46.261  29.154  29.683  1.00  0.00    -0.354 N 
ATOM     59  N   UNL A   1      42.215  28.292  31.067  1.00  0.00    -0.248 NA
ATOM     60  C   UNL A   1      42.013  29.758  29.263  1.00  0.00     0.031 C 
ATOM     61  C   UNL A   1      47.023  27.342  30.617  1.00  0.00     0.029 A 
ATOM     62  C   UNL A   1      45.905  28.177  30.573  1.00  0.00     0.049 A 
ATOM     63  H   UNL A   1      45.934  30.083  29.682  1.00  0.00     0.167 HD
ATOM     64  C   UNL A   1      43.486  28.752  30.754  1.00  0.00     0.074 A 
ATOM     65  C   UNL A   1      43.282  29.724  29.681  1.00  0.00     0.031 C 
ATOM     66  C   UNL A   1      44.598  28.087  31.187  1.00  0.00     0.037 A 
BRANCH  53  67
ATOM     67  C   UNL A   1      46.921  30.330  26.873  1.00  0.00     0.057 A 
ATOM     68  C   UNL A   1      48.110  31.086  26.920  1.00  0.00     0.134 A 
ATOM     69  C   UNL A   1      45.754  31.085  26.633  1.00  0.00     0.134 A 
ATOM     70  F   UNL A   1      49.296  30.492  27.127  1.00  0.00    -0.206 F 
ATOM     71  C   UNL A   1      48.120  32.484  26.855  1.00  0.00     0.040 A 
ATOM     72  C   UNL A   1      45.760  32.478  26.518  1.00  0.00     0.040 A 
ATOM     73  F   UNL A   1      44.532  30.545  26.591  1.00  0.00    -0.206 F 
ATOM     74  C   UNL A   1      46.939  33.188  26.670  1.00  0.00     0.006 A 
ENDBRANCH  53  67
BRANCH  54  75
ATOM     75  C   UNL A   1      39.013  28.328  29.301  1.00  0.00     0.057 A 
ATOM     76  C   UNL A   1      38.132  28.400  30.388  1.00  0.00     0.134 A 
ATOM     77  C   UNL A   1      38.609  28.992  28.130  1.00  0.00     0.134 A 
ATOM     78  F   UNL A   1      38.451  27.830  31.559  1.00  0.00    -0.206 F 
ATOM     79  C   UNL A   1      36.927  29.113  30.324  1.00  0.00     0.040 A 
ATOM     80  C   UNL A   1      37.408  29.707  28.052  1.00  0.00     0.040 A 
ATOM     81  F   UNL A   1      39.408  29.044  27.055  1.00  0.00    -0.206 F 
ATOM     82  C   UNL A   1      36.569  29.781  29.156  1.00  0.00     0.006 A 
ENDBRANCH  54  75
BRANCH  66  83
ATOM     83  C   UNL A   1      44.418  27.020  32.235  1.00  0.00     0.057 A 
ATOM     84  C   UNL A   1      44.281  25.651  31.961  1.00  0.00     0.134 A 
ATOM     85  C   UNL A   1      44.538  27.383  33.581  1.00  0.00     0.134 A 
ATOM     86  F   UNL A   1      44.252  25.191  30.704  1.00  0.00    -0.206 F 
ATOM     87  C   UNL A   1      44.228  24.694  32.981  1.00  0.00     0.040 A 
ATOM     88  C   UNL A   1      44.520  26.436  34.606  1.00  0.00     0.040 A 
ATOM     89  F   UNL A   1      44.725  28.668  33.918  1.00  0.00    -0.206 F 
ATOM     90  C   UNL A   1      44.355  25.085  34.309  1.00  0.00     0.006 A 
ENDBRANCH  66  83
ENDBRANCH  40  41
ENDBRANCH  32  35
ENDBRANCH  30  31
ENDBRANCH  29  30
ENDBRANCH   1  29
TORSDOF 14
ENDMDL
MODEL 2
REMARK VINA RESULT:     -12.3      1.394      2.386
REMARK SMILES Cc1cc(NC(=O)[C@H]2[C@@H](C(=O)NCCCCNC(=O)c3ccc(-c4c5nc(c(-c6c(F)cccc6F)c6ccc([nH]6)c(-c6c(F)cccc6F)c6nc(c(-c7c(F)cccc7F)c7ccc4[nH]7)C=C6)C=C5)cc3)C2(C)C)n(-c2ccc(F)cc2)n1
REMARK SMILES IDX 14 1 13 2 12 3 10 4 11 5 9 7 8 8 74 9 75 10 76 11 6 12 5 13
REMARK SMILES IDX 7 15 4 16 1 17 2 18 3 19 85 20 77 21 78 22 79 23 84 24 80 25
REMARK SMILES IDX 83 26 81 27 82 28 15 29 16 30 17 31 18 32 19 34 20 35 21 36
REMARK SMILES IDX 73 37 22 38 72 39 23 40 24 41 25 42 66 43 26 44 71 45 65 46
REMARK SMILES IDX 67 47 27 48 70 49 64 50 63 51 28 53 54 54 37 55 53 56 38 57
REMARK SMILES IDX 41 58 52 59 68 60 39 61 40 62 51 64 69 65 42 66 29 67 30 68
REMARK SMILES IDX 35 69 31 70 32 71 34 72 36 73 33 74 55 75 56 76 61 77 57 78
REMARK SMILES IDX 58 79 60 80 62 81 59 82 43 83 44 84 49 85 45 86 46 87 48 88
REMARK SMILES IDX 50 89 47 90
REMARK H PARENT 12 6 5 14 17 33 67 52 41 63
REMARK Flexibility Score: inf
ROOT
ATOM      1  C   UNL A   1      40.453  21.061  26.922  1.00  0.00     0.023 C 
ENDROOT
BRANCH   1   2
ATOM      2  C   UNL A   1      39.269  21.649  26.172  1.00  0.00     0.116 C 
BRANCH   2   3
ATOM      3  N   UNL A   1      38.845  22.901  26.705  1.00  0.00    -0.356 N 
ATOM      4  C   UNL A   1      37.842  23.731  26.340  1.00  0.00     0.224 C 
ATOM      5  O   UNL A   1      37.661  24.723  27.045  1.00  0.00    -0.275 OA
ATOM      6  H   UNL A   1      39.374  23.217  27.473  1.00  0.00     0.163 HD
BRANCH   4   7
ATOM      7  C   UNL A   1      36.975  23.592  25.157  1.00  0.00     0.098 C 
ATOM      8  C   UNL A   1      35.504  23.289  25.139  1.00  0.00     0.098 C 
ATOM      9  C   UNL A   1      36.503  22.513  24.209  1.00  0.00    -0.011 C 
ATOM     10  C   UNL A   1      36.514  21.008  24.327  1.00  0.00     0.013 C 
ATOM     11  C   UNL A   1      36.862  22.895  22.775  1.00  0.00     0.013 C 
BRANCH   8  12
ATOM     12  C   UNL A   1      34.801  22.654  26.287  1.00  0.00     0.230 C 
ATOM     13  N   UNL A   1      33.977  21.494  26.146  1.00  0.00    -0.310 N 
ATOM     14  H   UNL A   1      33.813  21.027  26.996  1.00  0.00     0.171 HD
ATOM     15  O   UNL A   1      34.970  23.015  27.423  1.00  0.00    -0.274 OA
BRANCH  13  16
ATOM     16  C   UNL A   1      33.357  20.888  25.058  1.00  0.00     0.136 A 
ATOM     17  C   UNL A   1      32.457  17.874  23.160  1.00  0.00     0.069 C 
ATOM     18  C   UNL A   1      32.630  19.206  23.792  1.00  0.00     0.062 A 
ATOM     19  C   UNL A   1      33.296  19.508  24.996  1.00  0.00     0.072 A 
ATOM     20  N   UNL A   1      32.158  20.308  23.206  1.00  0.00    -0.171 NA
ATOM     21  N   UNL A   1      32.620  21.333  23.958  1.00  0.00    -0.217 N 
BRANCH  21  22
ATOM     22  C   UNL A   1      32.406  22.641  23.498  1.00  0.00     0.067 A 
ATOM     23  C   UNL A   1      31.410  23.389  24.115  1.00  0.00     0.031 A 
ATOM     24  C   UNL A   1      33.205  23.210  22.505  1.00  0.00     0.031 A 
ATOM     25  C   UNL A   1      31.032  24.618  23.581  1.00  0.00     0.041 A 
ATOM     26  C   UNL A   1      32.857  24.469  22.004  1.00  0.00     0.041 A 
ATOM     27  C   UNL A   1      31.739  25.133  22.506  1.00  0.00     0.123 A 
ATOM     28  F   UNL A   1      31.335  26.280  21.948  1.00  0.00    -0.207 F 
ENDBRANCH  21  22
ENDBRANCH  13  16
ENDBRANCH   8  12
ENDBRANCH   4   7
ENDBRANCH   2   3
ENDBRANCH   1   2
BRANCH   1  29
ATOM     29  C   UNL A   1      41.419  20.224  26.083  1.00  0.00     0.023 C 
BRANCH  29  30
ATOM     30  C   UNL A   1      42.759  19.934  26.745  1.00  0.00     0.116 C 
BRANCH  30  31
ATOM     31  N   UNL A   1      43.831  19.653  25.787  1.00  0.00    -0.352 N 
ATOM     32  C   UNL A   1      44.469  20.551  24.947  1.00  0.00     0.251 C 
ATOM     33  H   UNL A   1      44.134  18.719  25.734  1.00  0.00     0.163 HD
ATOM     34  O   UNL A   1      45.115  20.181  23.977  1.00  0.00    -0.269 OA
BRANCH  32  35
ATOM     35  C   UNL A   1      44.388  21.978  25.293  1.00  0.00     0.039 A 
ATOM     36  C   UNL A   1      43.480  22.854  24.703  1.00  0.00     0.014 A 
ATOM     37  C   UNL A   1      45.203  22.385  26.339  1.00  0.00     0.014 A 
ATOM     38  C   UNL A   1      43.344  24.128  25.252  1.00  0.00     0.010 A 
ATOM     39  C   UNL A   1      44.914  23.539  27.006  1.00  0.00     0.010 A 
ATOM     40  C   UNL A   1      44.053  24.453  26.422  1.00  0.00    -0.014 A 
BRANCH  40  41
ATOM     41  C   UNL A   1      43.838  25.705  27.134  1.00  0.00     0.031 A 
ATOM     42  C   UNL A   1      44.810  26.776  26.792  1.00  0.00     0.074 A 
ATOM     43  C   UNL A   1      42.707  25.944  27.837  1.00  0.00     0.049 A 
ATOM     44  N   UNL A   1      45.729  27.282  27.547  1.00  0.00    -0.248 NA
ATOM     45  C   UNL A   1      44.881  27.228  25.391  1.00  0.00     0.031 C 
ATOM     46  C   UNL A   1      41.511  25.094  27.963  1.00  0.00     0.029 A 
ATOM     47  N   UNL A   1      42.333  27.065  28.507  1.00  0.00    -0.354 N 
ATOM     48  C   UNL A   1      46.330  28.286  26.792  1.00  0.00     0.074 A 
ATOM     49  C   UNL A   1      45.929  28.053  25.430  1.00  0.00     0.031 C 
ATOM     50  C   UNL A   1      40.479  25.820  28.446  1.00  0.00     0.029 A 
ATOM     51  C   UNL A   1      40.986  27.116  28.848  1.00  0.00     0.049 A 
ATOM     52  H   UNL A   1      42.966  27.784  28.734  1.00  0.00     0.167 HD
ATOM     53  C   UNL A   1      46.864  29.384  27.396  1.00  0.00     0.037 A 
ATOM     54  C   UNL A   1      40.330  28.158  29.415  1.00  0.00     0.037 A 
ATOM     55  C   UNL A   1      47.061  29.140  28.806  1.00  0.00     0.049 A 
ATOM     56  C   UNL A   1      41.356  29.047  30.009  1.00  0.00     0.074 A 
ATOM     57  C   UNL A   1      47.783  28.228  29.551  1.00  0.00     0.029 A 
ATOM     58  N   UNL A   1      46.137  29.675  29.670  1.00  0.00    -0.354 N 
ATOM     59  N   UNL A   1      42.102  28.712  31.024  1.00  0.00    -0.248 NA
ATOM     60  C   UNL A   1      41.877  30.118  29.176  1.00  0.00     0.031 C 
ATOM     61  C   UNL A   1      46.947  27.918  30.666  1.00  0.00     0.029 A 
ATOM     62  C   UNL A   1      45.801  28.711  30.583  1.00  0.00     0.049 A 
ATOM     63  H   UNL A   1      45.778  30.591  29.638  1.00  0.00     0.167 HD
ATOM     64  C   UNL A   1      43.362  29.207  30.715  1.00  0.00     0.074 A 
ATOM     65  C   UNL A   1      43.139  30.140  29.611  1.00  0.00     0.031 C 
ATOM     66  C   UNL A   1      44.490  28.594  31.182  1.00  0.00     0.037 A 
BRANCH  53  67
ATOM     67  C   UNL A   1      46.796  30.793  26.837  1.00  0.00     0.057 A 
ATOM     68  C   UNL A   1      47.965  31.579  26.850  1.00  0.00     0.134 A 
ATOM     69  C   UNL A   1      45.608  31.510  26.587  1.00  0.00     0.134 A 
ATOM     70  F   UNL A   1      49.168  31.022  27.063  1.00  0.00    -0.206 F 
ATOM     71  C   UNL A   1      47.938  32.975  26.744  1.00  0.00     0.040 A 
ATOM     72  C   UNL A   1      45.577  32.899  26.430  1.00  0.00     0.040 A 
ATOM     73  F   UNL A   1      44.400  30.938  26.572  1.00  0.00    -0.206 F 
ATOM     74  C   UNL A   1      46.738  33.643  26.550  1.00  0.00     0.006 A 
ENDBRANCH  53  67
BRANCH  54  75
ATOM     75  C   UNL A   1      38.928  28.586  29.215  1.00  0.00     0.057 A 
ATOM     76  C   UNL A   1      38.019  28.622  30.281  1.00  0.00     0.134 A 
ATOM     77  C   UNL A   1      38.526  29.236  28.035  1.00  0.00     0.134 A 
ATOM     78  F   UNL A   1      38.331  28.064  31.458  1.00  0.00    -0.206 F 
ATOM     79  C   UNL A   1      36.789  29.289  30.188  1.00  0.00     0.040 A 
ATOM     80  C   UNL A   1      37.300  29.904  27.928  1.00  0.00     0.040 A 
ATOM     81  F   UNL A   1      39.347  29.320  26.979  1.00  0.00    -0.206 F 
ATOM     82  C   UNL A   1      36.433  29.944  29.012  1.00  0.00     0.006 A 
ENDBRANCH  54  75
BRANCH  66  83
ATOM     83  C   UNL A   1      44.331  27.551  32.257  1.00  0.00     0.057 A 
ATOM     84  C   UNL A   1      44.231  26.172  32.020  1.00  0.00     0.134 A 
ATOM     85  C   UNL A   1      44.434  27.953  33.594  1.00  0.00     0.134 A 
ATOM     86  F   UNL A   1      44.221  25.678  30.777  1.00  0.00    -0.206 F 
ATOM     87  C   UNL A   1      44.197  25.242  33.066  1.00  0.00     0.040 A 
ATOM     88  C   UNL A   1      44.435  27.035  34.645  1.00  0.00     0.040 A 
ATOM     89  F   UNL A   1      44.586  29.252  33.897  1.00  0.00    -0.206 F 
ATOM     90  C   UNL A   1      44.306  25.673  34.383  1.00  0.00     0.006 A 
ENDBRANCH  66  83
ENDBRANCH  40  41
ENDBRANCH  32  35
ENDBRANCH  30  31
ENDBRANCH  29  30
ENDBRANCH   1  29
TORSDOF 14
ENDMDL
MODEL 3
REMARK VINA RESULT:     -12.3      2.672      6.282
REMARK SMILES Cc1cc(NC(=O)[C@H]2[C@@H](C(=O)NCCCCNC(=O)c3ccc(-c4c5nc(c(-c6c(F)cccc6F)c6ccc([nH]6)c(-c6c(F)cccc6F)c6nc(c(-c7c(F)cccc7F)c7ccc4[nH]7)C=C6)C=C5)cc3)C2(C)C)n(-c2ccc(F)cc2)n1
REMARK SMILES IDX 14 1 13 2 12 3 10 4 11 5 9 7 8 8 74 9 75 10 76 11 6 12 5 13
REMARK SMILES IDX 7 15 4 16 1 17 2 18 3 19 85 20 77 21 78 22 79 23 84 24 80 25
REMARK SMILES IDX 83 26 81 27 82 28 15 29 16 30 17 31 18 32 19 34 20 35 21 36
REMARK SMILES IDX 73 37 22 38 72 39 23 40 24 41 25 42 66 43 26 44 71 45 65 46
REMARK SMILES IDX 67 47 27 48 70 49 64 50 63 51 28 53 54 54 37 55 53 56 38 57
REMARK SMILES IDX 41 58 52 59 68 60 39 61 40 62 51 64 69 65 42 66 29 67 30 68
REMARK SMILES IDX 35 69 31 70 32 71 34 72 36 73 33 74 55 75 56 76 61 77 57 78
REMARK SMILES IDX 58 79 60 80 62 81 59 82 43 83 44 84 49 85 45 86 46 87 48 88
REMARK SMILES IDX 50 89 47 90
REMARK H PARENT 12 6 5 14 17 33 67 52 41 63
REMARK Flexibility Score: inf
ROOT
ATOM      1  C   UNL A   1      36.139  19.803  25.020  1.00  0.00     0.023 C 
ENDROOT
BRANCH   1   2
ATOM      2  C   UNL A   1      34.704  20.240  25.261  1.00  0.00     0.116 C 
BRANCH   2   3
ATOM      3  N   UNL A   1      34.531  20.899  26.513  1.00  0.00    -0.356 N 
ATOM      4  C   UNL A   1      34.360  22.206  26.817  1.00  0.00     0.224 C 
ATOM      5  O   UNL A   1      34.155  22.476  27.999  1.00  0.00    -0.275 OA
ATOM      6  H   UNL A   1      34.535  20.299  27.293  1.00  0.00     0.163 HD
BRANCH   4   7
ATOM      7  C   UNL A   1      34.443  23.341  25.882  1.00  0.00     0.098 C 
ATOM      8  C   UNL A   1      33.626  24.602  25.909  1.00  0.00     0.098 C 
ATOM      9  C   UNL A   1      33.825  23.793  24.578  1.00  0.00    -0.011 C 
ATOM     10  C   UNL A   1      32.575  23.346  23.860  1.00  0.00     0.013 C 
ATOM     11  C   UNL A   1      34.923  24.036  23.546  1.00  0.00     0.013 C 
BRANCH   8  12
ATOM     12  C   UNL A   1      32.321  24.697  26.617  1.00  0.00     0.230 C 
ATOM     13  N   UNL A   1      31.483  25.854  26.545  1.00  0.00    -0.310 N 
ATOM     14  H   UNL A   1      30.553  25.678  26.813  1.00  0.00     0.171 HD
ATOM     15  O   UNL A   1      31.839  23.764  27.206  1.00  0.00    -0.274 OA
BRANCH  13  16
ATOM     16  C   UNL A   1      31.708  27.176  26.176  1.00  0.00     0.136 A 
ATOM     17  C   UNL A   1      31.786  30.757  26.994  1.00  0.00     0.069 C 
ATOM     18  C   UNL A   1      31.904  29.376  26.461  1.00  0.00     0.062 A 
ATOM     19  C   UNL A   1      31.647  28.167  27.137  1.00  0.00     0.072 A 
ATOM     20  N   UNL A   1      32.260  29.160  25.194  1.00  0.00    -0.171 NA
ATOM     21  N   UNL A   1      32.117  27.827  25.010  1.00  0.00    -0.217 N 
BRANCH  21  22
ATOM     22  C   UNL A   1      32.280  27.317  23.713  1.00  0.00     0.067 A 
ATOM     23  C   UNL A   1      31.174  26.737  23.102  1.00  0.00     0.031 A 
ATOM     24  C   UNL A   1      33.485  27.445  23.020  1.00  0.00     0.031 A 
ATOM     25  C   UNL A   1      31.324  26.055  21.897  1.00  0.00     0.041 A 
ATOM     26  C   UNL A   1      33.618  26.804  21.783  1.00  0.00     0.041 A 
ATOM     27  C   UNL A   1      32.556  26.066  21.264  1.00  0.00     0.123 A 
ATOM     28  F   UNL A   1      32.721  25.355  20.142  1.00  0.00    -0.207 F 
ENDBRANCH  21  22
ENDBRANCH  13  16
ENDBRANCH   8  12
ENDBRANCH   4   7
ENDBRANCH   2   3
ENDBRANCH   1   2
BRANCH   1  29
ATOM     29  C   UNL A   1      37.100  20.904  24.568  1.00  0.00     0.023 C 
BRANCH  29  30
ATOM     30  C   UNL A   1      38.343  21.066  25.433  1.00  0.00     0.116 C 
BRANCH  30  31
ATOM     31  N   UNL A   1      39.108  19.827  25.588  1.00  0.00    -0.352 N 
ATOM     32  C   UNL A   1      40.458  19.697  25.867  1.00  0.00     0.251 C 
ATOM     33  H   UNL A   1      38.604  18.988  25.483  1.00  0.00     0.163 HD
ATOM     34  O   UNL A   1      41.061  18.652  25.668  1.00  0.00    -0.269 OA
BRANCH  32  35
ATOM     35  C   UNL A   1      41.140  20.853  26.467  1.00  0.00     0.039 A 
ATOM     36  C   UNL A   1      41.857  21.786  25.721  1.00  0.00     0.014 A 
ATOM     37  C   UNL A   1      40.931  21.029  27.827  1.00  0.00     0.014 A 
ATOM     38  C   UNL A   1      42.282  22.951  26.358  1.00  0.00     0.010 A 
ATOM     39  C   UNL A   1      41.149  22.252  28.387  1.00  0.00     0.010 A 
ATOM     40  C   UNL A   1      41.901  23.185  27.691  1.00  0.00    -0.014 A 
BRANCH  40  41
ATOM     41  C   UNL A   1      42.175  24.447  28.364  1.00  0.00     0.031 A 
ATOM     42  C   UNL A   1      41.123  25.479  28.175  1.00  0.00     0.074 A 
ATOM     43  C   UNL A   1      43.162  24.569  29.281  1.00  0.00     0.049 A 
ATOM     44  N   UNL A   1      41.208  26.585  27.513  1.00  0.00    -0.248 NA
ATOM     45  C   UNL A   1      39.758  25.174  28.641  1.00  0.00     0.031 C 
ATOM     46  C   UNL A   1      44.050  23.524  29.814  1.00  0.00     0.029 A 
ATOM     47  N   UNL A   1      43.510  25.650  30.028  1.00  0.00    -0.354 N 
ATOM     48  C   UNL A   1      39.984  27.227  27.685  1.00  0.00     0.074 A 
ATOM     49  C   UNL A   1      39.078  26.227  28.183  1.00  0.00     0.031 C 
ATOM     50  C   UNL A   1      44.648  23.960  30.945  1.00  0.00     0.029 A 
ATOM     51  C   UNL A   1      44.344  25.367  31.105  1.00  0.00     0.049 A 
ATOM     52  H   UNL A   1      43.197  26.561  29.822  1.00  0.00     0.167 HD
ATOM     53  C   UNL A   1      39.906  28.587  27.678  1.00  0.00     0.037 A 
ATOM     54  C   UNL A   1      44.749  26.232  32.067  1.00  0.00     0.037 A 
ATOM     55  C   UNL A   1      41.097  29.159  27.094  1.00  0.00     0.049 A 
ATOM     56  C   UNL A   1      44.526  27.600  31.545  1.00  0.00     0.074 A 
ATOM     57  C   UNL A   1      41.729  29.067  25.869  1.00  0.00     0.029 A 
ATOM     58  N   UNL A   1      42.035  29.671  27.957  1.00  0.00    -0.354 N 
ATOM     59  N   UNL A   1      45.185  28.107  30.539  1.00  0.00    -0.248 NA
ATOM     60  C   UNL A   1      43.248  28.228  31.835  1.00  0.00     0.031 C 
ATOM     61  C   UNL A   1      43.124  29.066  26.174  1.00  0.00     0.029 A 
ATOM     62  C   UNL A   1      43.268  29.236  27.552  1.00  0.00     0.049 A 
ATOM     63  H   UNL A   1      41.851  30.249  28.733  1.00  0.00     0.167 HD
ATOM     64  C   UNL A   1      44.232  28.805  29.810  1.00  0.00     0.074 A 
ATOM     65  C   UNL A   1      43.081  28.919  30.704  1.00  0.00     0.031 C 
ATOM     66  C   UNL A   1      44.361  28.960  28.458  1.00  0.00     0.037 A 
BRANCH  53  67
ATOM     67  C   UNL A   1      38.992  29.401  28.574  1.00  0.00     0.057 A 
ATOM     68  C   UNL A   1      39.131  29.274  29.971  1.00  0.00     0.134 A 
ATOM     69  C   UNL A   1      37.806  30.042  28.158  1.00  0.00     0.134 A 
ATOM     70  F   UNL A   1      40.219  28.696  30.505  1.00  0.00    -0.206 F 
ATOM     71  C   UNL A   1      38.121  29.642  30.868  1.00  0.00     0.040 A 
ATOM     72  C   UNL A   1      36.813  30.459  29.049  1.00  0.00     0.040 A 
ATOM     73  F   UNL A   1      37.487  30.220  26.872  1.00  0.00    -0.206 F 
ATOM     74  C   UNL A   1      36.948  30.223  30.407  1.00  0.00     0.006 A 
ENDBRANCH  53  67
BRANCH  54  75
ATOM     75  C   UNL A   1      45.023  25.961  33.496  1.00  0.00     0.057 A 
ATOM     76  C   UNL A   1      43.981  25.749  34.408  1.00  0.00     0.134 A 
ATOM     77  C   UNL A   1      46.314  25.625  33.939  1.00  0.00     0.134 A 
ATOM     78  F   UNL A   1      42.712  26.003  34.061  1.00  0.00    -0.206 F 
ATOM     79  C   UNL A   1      44.207  25.210  35.682  1.00  0.00     0.040 A 
ATOM     80  C   UNL A   1      46.554  25.087  35.209  1.00  0.00     0.040 A 
ATOM     81  F   UNL A   1      47.372  25.724  33.122  1.00  0.00    -0.206 F 
ATOM     82  C   UNL A   1      45.496  24.865  36.081  1.00  0.00     0.006 A 
ENDBRANCH  54  75
BRANCH  66  83
ATOM     83  C   UNL A   1      45.683  28.607  27.831  1.00  0.00     0.057 A 
ATOM     84  C   UNL A   1      46.003  27.347  27.302  1.00  0.00     0.134 A 
ATOM     85  C   UNL A   1      46.615  29.630  27.623  1.00  0.00     0.134 A 
ATOM     86  F   UNL A   1      45.140  26.326  27.366  1.00  0.00    -0.206 F 
ATOM     87  C   UNL A   1      47.208  27.109  26.632  1.00  0.00     0.040 A 
ATOM     88  C   UNL A   1      47.806  29.416  26.927  1.00  0.00     0.040 A 
ATOM     89  F   UNL A   1      46.356  30.874  28.052  1.00  0.00    -0.206 F 
ATOM     90  C   UNL A   1      48.111  28.148  26.436  1.00  0.00     0.006 A 
ENDBRANCH  66  83
ENDBRANCH  40  41
ENDBRANCH  32  35
ENDBRANCH  30  31
ENDBRANCH  29  30
ENDBRANCH   1  29
TORSDOF 14
ENDMDL
