MODEL 1
REMARK VINA RESULT:     -12.9      0.000      0.000
REMARK SMILES CC[C@H]1Sc2ccc(S(=O)(=O)N3CCC(C(=O)NCCCCNC(=O)c4ccc(-c5c6nc(c(-c7c(F)cccc7F)c7ccc([nH]7)c(-c7c(F)cccc7F)c7nc(c(-c8c(F)cccc8F)c8ccc5[nH]8)C=C7)C=C6)cc4)CC3)cc2NC1=O
REMARK SMILES IDX 20 1 19 2 18 3 16 4 17 5 15 7 12 8 13 9 81 10 14 11 80 12
REMARK SMILES IDX 9 13 10 14 11 15 8 16 3 17 4 18 85 19 5 20 84 21 86 22 6 23
REMARK SMILES IDX 83 24 7 26 82 27 2 28 1 29 21 30 22 31 23 32 24 33 25 35
REMARK SMILES IDX 26 36 27 37 79 38 28 39 78 40 29 41 30 42 31 43 72 44 32 45
REMARK SMILES IDX 77 46 71 47 73 48 33 49 76 50 70 51 69 52 34 54 60 55 43 56
REMARK SMILES IDX 59 57 44 58 47 59 58 60 74 61 45 62 46 63 57 65 75 66 48 67
REMARK SMILES IDX 35 68 36 69 41 70 37 71 38 72 40 73 42 74 39 75 61 76 62 77
REMARK SMILES IDX 67 78 63 79 64 80 66 81 68 82 65 83 49 84 50 85 55 86 51 87
REMARK SMILES IDX 52 88 54 89 56 90 53 91
REMARK H PARENT 18 6 84 25 23 34 73 53 47 64
REMARK Flexibility Score: inf
ROOT
ATOM      1  C   UNL A   1      31.544  30.415  26.559  1.00  0.00     0.023 C 
ENDROOT
BRANCH   1   2
ATOM      2  C   UNL A   1      32.256  29.784  25.368  1.00  0.00     0.116 C 
BRANCH   2   3
ATOM      3  N   UNL A   1      31.368  28.923  24.604  1.00  0.00    -0.356 N 
ATOM      4  C   UNL A   1      31.264  27.566  24.569  1.00  0.00     0.223 C 
ATOM      5  O   UNL A   1      30.425  27.063  23.820  1.00  0.00    -0.275 OA
ATOM      6  H   UNL A   1      30.738  29.398  24.017  1.00  0.00     0.163 HD
BRANCH   4   7
ATOM      7  C   UNL A   1      32.142  26.685  25.444  1.00  0.00     0.081 C 
ATOM      8  N   UNL A   1      33.538  24.194  25.900  1.00  0.00    -0.198 NA
ATOM      9  C   UNL A   1      32.297  24.483  26.655  1.00  0.00     0.103 C 
ATOM     10  C   UNL A   1      34.329  25.335  25.387  1.00  0.00     0.103 C 
ATOM     11  C   UNL A   1      31.398  25.429  25.891  1.00  0.00     0.030 C 
ATOM     12  C   UNL A   1      33.489  26.435  24.769  1.00  0.00     0.030 C 
BRANCH   8  13
ATOM     13  S   UNL A   1      34.461  22.861  26.464  1.00  0.00     0.243 S 
ATOM     14  O   UNL A   1      33.945  22.471  27.757  1.00  0.00    -0.207 OA
ATOM     15  O   UNL A   1      35.855  23.200  26.273  1.00  0.00    -0.207 OA
BRANCH  13  16
ATOM     16  C   UNL A   1      34.131  21.498  25.357  1.00  0.00     0.084 A 
ATOM     17  C   UNL A   1      33.229  16.553  24.207  1.00  0.00     0.141 C 
ATOM     18  S   UNL A   1      32.630  17.845  23.063  1.00  0.00    -0.111 SA
ATOM     19  C   UNL A   1      34.689  16.747  24.587  1.00  0.00     0.237 C 
ATOM     20  C   UNL A   1      33.275  19.274  23.892  1.00  0.00     0.032 A 
ATOM     21  N   UNL A   1      35.143  18.006  24.865  1.00  0.00    -0.324 N 
ATOM     22  O   UNL A   1      35.440  15.790  24.788  1.00  0.00    -0.273 OA
ATOM     23  C   UNL A   1      32.593  20.492  23.787  1.00  0.00     0.018 A 
ATOM     24  C   UNL A   1      34.428  19.197  24.679  1.00  0.00     0.056 A 
ATOM     25  H   UNL A   1      36.054  18.083  25.228  1.00  0.00     0.170 HD
ATOM     26  C   UNL A   1      33.005  21.596  24.537  1.00  0.00     0.023 A 
ATOM     27  C   UNL A   1      34.873  20.317  25.376  1.00  0.00     0.049 A 
BRANCH  17  28
ATOM     28  C   UNL A   1      32.331  16.341  25.442  1.00  0.00     0.021 C 
ATOM     29  C   UNL A   1      32.113  14.913  25.935  1.00  0.00     0.005 C 
ENDBRANCH  17  28
ENDBRANCH  13  16
ENDBRANCH   8  13
ENDBRANCH   4   7
ENDBRANCH   2   3
ENDBRANCH   1   2
BRANCH   1  30
ATOM     30  C   UNL A   1      31.500  31.940  26.526  1.00  0.00     0.023 C 
BRANCH  30  31
ATOM     31  C   UNL A   1      32.626  32.635  27.283  1.00  0.00     0.116 C 
BRANCH  31  32
ATOM     32  N   UNL A   1      32.318  34.010  27.642  1.00  0.00    -0.352 N 
ATOM     33  C   UNL A   1      32.967  34.840  28.522  1.00  0.00     0.251 C 
ATOM     34  H   UNL A   1      31.534  34.400  27.193  1.00  0.00     0.163 HD
ATOM     35  O   UNL A   1      32.507  35.947  28.783  1.00  0.00    -0.269 OA
BRANCH  33  36
ATOM     36  C   UNL A   1      34.200  34.375  29.187  1.00  0.00     0.039 A 
ATOM     37  C   UNL A   1      34.082  33.638  30.367  1.00  0.00     0.014 A 
ATOM     38  C   UNL A   1      35.458  34.632  28.633  1.00  0.00     0.014 A 
ATOM     39  C   UNL A   1      35.225  33.094  30.953  1.00  0.00     0.010 A 
ATOM     40  C   UNL A   1      36.586  34.027  29.179  1.00  0.00     0.010 A 
ATOM     41  C   UNL A   1      36.479  33.250  30.340  1.00  0.00    -0.014 A 
BRANCH  41  42
ATOM     42  C   UNL A   1      37.678  32.578  30.896  1.00  0.00     0.031 A 
ATOM     43  C   UNL A   1      38.314  33.073  32.162  1.00  0.00     0.074 A 
ATOM     44  C   UNL A   1      38.221  31.543  30.225  1.00  0.00     0.049 A 
ATOM     45  N   UNL A   1      39.360  32.607  32.796  1.00  0.00    -0.248 NA
ATOM     46  C   UNL A   1      37.715  34.263  32.785  1.00  0.00     0.031 C 
ATOM     47  C   UNL A   1      37.737  31.014  28.948  1.00  0.00     0.029 A 
ATOM     48  N   UNL A   1      39.299  30.751  30.525  1.00  0.00    -0.354 N 
ATOM     49  C   UNL A   1      39.548  33.448  33.885  1.00  0.00     0.074 A 
ATOM     50  C   UNL A   1      38.542  34.485  33.795  1.00  0.00     0.031 C 
ATOM     51  C   UNL A   1      38.494  29.965  28.592  1.00  0.00     0.029 A 
ATOM     52  C   UNL A   1      39.529  29.762  29.598  1.00  0.00     0.049 A 
ATOM     53  H   UNL A   1      39.856  30.878  31.327  1.00  0.00     0.167 HD
ATOM     54  C   UNL A   1      40.459  33.350  34.881  1.00  0.00     0.037 A 
ATOM     55  C   UNL A   1      40.465  28.795  29.572  1.00  0.00     0.037 A 
ATOM     56  C   UNL A   1      41.441  32.303  34.981  1.00  0.00     0.049 A 
ATOM     57  C   UNL A   1      41.448  28.693  30.703  1.00  0.00     0.074 A 
ATOM     58  C   UNL A   1      42.362  32.077  35.990  1.00  0.00     0.029 A 
ATOM     59  N   UNL A   1      41.632  31.308  34.034  1.00  0.00    -0.354 N 
ATOM     60  N   UNL A   1      41.560  29.446  31.770  1.00  0.00    -0.248 NA
ATOM     61  C   UNL A   1      42.428  27.600  30.630  1.00  0.00     0.031 C 
ATOM     62  C   UNL A   1      43.133  30.964  35.636  1.00  0.00     0.029 A 
ATOM     63  C   UNL A   1      42.669  30.476  34.425  1.00  0.00     0.049 A 
ATOM     64  H   UNL A   1      41.109  31.208  33.206  1.00  0.00     0.167 HD
ATOM     65  C   UNL A   1      42.609  28.910  32.503  1.00  0.00     0.074 A 
ATOM     66  C   UNL A   1      43.086  27.755  31.771  1.00  0.00     0.031 C 
ATOM     67  C   UNL A   1      43.133  29.336  33.679  1.00  0.00     0.037 A 
BRANCH  54  68
ATOM     68  C   UNL A   1      40.424  34.401  35.951  1.00  0.00     0.057 A 
ATOM     69  C   UNL A   1      41.184  35.574  35.856  1.00  0.00     0.134 A 
ATOM     70  C   UNL A   1      39.601  34.254  37.074  1.00  0.00     0.134 A 
ATOM     71  F   UNL A   1      42.003  35.769  34.811  1.00  0.00    -0.206 F 
ATOM     72  C   UNL A   1      41.146  36.553  36.850  1.00  0.00     0.040 A 
ATOM     73  C   UNL A   1      39.536  35.237  38.064  1.00  0.00     0.040 A 
ATOM     74  F   UNL A   1      38.844  33.157  37.227  1.00  0.00    -0.206 F 
ATOM     75  C   UNL A   1      40.314  36.387  37.956  1.00  0.00     0.006 A 
ENDBRANCH  54  68
BRANCH  55  76
ATOM     76  C   UNL A   1      40.490  27.820  28.454  1.00  0.00     0.057 A 
ATOM     77  C   UNL A   1      41.222  28.078  27.291  1.00  0.00     0.134 A 
ATOM     78  C   UNL A   1      39.787  26.612  28.522  1.00  0.00     0.134 A 
ATOM     79  F   UNL A   1      41.902  29.227  27.163  1.00  0.00    -0.206 F 
ATOM     80  C   UNL A   1      41.241  27.178  26.224  1.00  0.00     0.040 A 
ATOM     81  C   UNL A   1      39.814  25.693  27.472  1.00  0.00     0.040 A 
ATOM     82  F   UNL A   1      39.074  26.303  29.615  1.00  0.00    -0.206 F 
ATOM     83  C   UNL A   1      40.537  25.979  26.316  1.00  0.00     0.006 A 
ENDBRANCH  55  76
BRANCH  67  84
ATOM     84  C   UNL A   1      44.272  28.539  34.242  1.00  0.00     0.057 A 
ATOM     85  C   UNL A   1      45.605  28.856  33.953  1.00  0.00     0.134 A 
ATOM     86  C   UNL A   1      44.032  27.456  35.097  1.00  0.00     0.134 A 
ATOM     87  F   UNL A   1      45.899  29.873  33.129  1.00  0.00    -0.206 F 
ATOM     88  C   UNL A   1      46.661  28.106  34.473  1.00  0.00     0.040 A 
ATOM     89  C   UNL A   1      45.081  26.713  35.643  1.00  0.00     0.040 A 
ATOM     90  F   UNL A   1      42.778  27.106  35.419  1.00  0.00    -0.206 F 
ATOM     91  C   UNL A   1      46.399  27.034  35.325  1.00  0.00     0.006 A 
ENDBRANCH  67  84
ENDBRANCH  41  42
ENDBRANCH  33  36
ENDBRANCH  31  32
ENDBRANCH  30  31
ENDBRANCH   1  30
TORSDOF 14
ENDMDL
MODEL 2
REMARK VINA RESULT:     -12.9      4.046     10.053
REMARK SMILES CC[C@H]1Sc2ccc(S(=O)(=O)N3CCC(C(=O)NCCCCNC(=O)c4ccc(-c5c6nc(c(-c7c(F)cccc7F)c7ccc([nH]7)c(-c7c(F)cccc7F)c7nc(c(-c8c(F)cccc8F)c8ccc5[nH]8)C=C7)C=C6)cc4)CC3)cc2NC1=O
REMARK SMILES IDX 20 1 19 2 18 3 16 4 17 5 15 7 12 8 13 9 81 10 14 11 80 12
REMARK SMILES IDX 9 13 10 14 11 15 8 16 3 17 4 18 85 19 5 20 84 21 86 22 6 23
REMARK SMILES IDX 83 24 7 26 82 27 2 28 1 29 21 30 22 31 23 32 24 33 25 35
REMARK SMILES IDX 26 36 27 37 79 38 28 39 78 40 29 41 30 42 31 43 72 44 32 45
REMARK SMILES IDX 77 46 71 47 73 48 33 49 76 50 70 51 69 52 34 54 60 55 43 56
REMARK SMILES IDX 59 57 44 58 47 59 58 60 74 61 45 62 46 63 57 65 75 66 48 67
REMARK SMILES IDX 35 68 36 69 41 70 37 71 38 72 40 73 42 74 39 75 61 76 62 77
REMARK SMILES IDX 67 78 63 79 64 80 66 81 68 82 65 83 49 84 50 85 55 86 51 87
REMARK SMILES IDX 52 88 54 89 56 90 53 91
REMARK H PARENT 18 6 84 25 23 34 73 53 47 64
REMARK Flexibility Score: inf
ROOT
ATOM      1  C   UNL A   1      36.358  19.538  24.999  1.00  0.00     0.023 C 
ENDROOT
BRANCH   1   2
ATOM      2  C   UNL A   1      34.933  19.941  24.635  1.00  0.00     0.116 C 
BRANCH   2   3
ATOM      3  N   UNL A   1      34.211  20.460  25.785  1.00  0.00    -0.356 N 
ATOM      4  C   UNL A   1      33.859  21.735  26.107  1.00  0.00     0.223 C 
ATOM      5  O   UNL A   1      33.247  21.924  27.160  1.00  0.00    -0.275 OA
ATOM      6  H   UNL A   1      33.928  19.779  26.436  1.00  0.00     0.163 HD
BRANCH   4   7
ATOM      7  C   UNL A   1      34.189  22.901  25.189  1.00  0.00     0.081 C 
ATOM      8  N   UNL A   1      33.496  25.455  24.024  1.00  0.00    -0.198 NA
ATOM      9  C   UNL A   1      33.429  24.233  23.192  1.00  0.00     0.103 C 
ATOM     10  C   UNL A   1      34.409  25.462  25.189  1.00  0.00     0.103 C 
ATOM     11  C   UNL A   1      33.190  23.003  24.040  1.00  0.00     0.030 C 
ATOM     12  C   UNL A   1      34.380  24.182  25.999  1.00  0.00     0.030 C 
BRANCH   8  13
ATOM     13  S   UNL A   1      33.385  26.943  23.175  1.00  0.00     0.243 S 
ATOM     14  O   UNL A   1      33.521  26.666  21.762  1.00  0.00    -0.207 OA
ATOM     15  O   UNL A   1      34.252  27.883  23.852  1.00  0.00    -0.207 OA
BRANCH  13  16
ATOM     16  C   UNL A   1      31.722  27.551  23.412  1.00  0.00     0.084 A 
ATOM     17  C   UNL A   1      27.755  30.720  22.512  1.00  0.00     0.141 C 
ATOM     18  S   UNL A   1      27.414  29.046  23.158  1.00  0.00    -0.111 SA
ATOM     19  C   UNL A   1      28.834  31.439  23.307  1.00  0.00     0.237 C 
ATOM     20  C   UNL A   1      29.081  28.472  23.345  1.00  0.00     0.032 A 
ATOM     21  N   UNL A   1      29.943  30.746  23.703  1.00  0.00    -0.324 N 
ATOM     22  O   UNL A   1      28.803  32.660  23.487  1.00  0.00    -0.273 OA
ATOM     23  C   UNL A   1      29.355  27.107  23.204  1.00  0.00     0.018 A 
ATOM     24  C   UNL A   1      30.131  29.362  23.590  1.00  0.00     0.056 A 
ATOM     25  H   UNL A   1      30.676  31.266  24.104  1.00  0.00     0.170 HD
ATOM     26  C   UNL A   1      30.675  26.648  23.213  1.00  0.00     0.023 A 
ATOM     27  C   UNL A   1      31.440  28.894  23.661  1.00  0.00     0.049 A 
BRANCH  17  28
ATOM     28  C   UNL A   1      28.026  30.766  20.994  1.00  0.00     0.021 C 
ATOM     29  C   UNL A   1      28.010  32.126  20.303  1.00  0.00     0.005 C 
ENDBRANCH  17  28
ENDBRANCH  13  16
ENDBRANCH   8  13
ENDBRANCH   4   7
ENDBRANCH   2   3
ENDBRANCH   1   2
BRANCH   1  30
ATOM     30  C   UNL A   1      37.412  20.588  24.656  1.00  0.00     0.023 C 
BRANCH  30  31
ATOM     31  C   UNL A   1      38.517  20.754  25.694  1.00  0.00     0.116 C 
BRANCH  31  32
ATOM     32  N   UNL A   1      39.525  19.706  25.637  1.00  0.00    -0.352 N 
ATOM     33  C   UNL A   1      40.849  19.760  25.995  1.00  0.00     0.251 C 
ATOM     34  H   UNL A   1      39.214  18.838  25.293  1.00  0.00     0.163 HD
ATOM     35  O   UNL A   1      41.586  18.803  25.784  1.00  0.00    -0.269 OA
BRANCH  33  36
ATOM     36  C   UNL A   1      41.391  20.994  26.596  1.00  0.00     0.039 A 
ATOM     37  C   UNL A   1      41.928  21.965  25.749  1.00  0.00     0.014 A 
ATOM     38  C   UNL A   1      41.336  21.207  27.977  1.00  0.00     0.014 A 
ATOM     39  C   UNL A   1      42.345  23.185  26.283  1.00  0.00     0.010 A 
ATOM     40  C   UNL A   1      41.684  22.451  28.495  1.00  0.00     0.010 A 
ATOM     41  C   UNL A   1      42.187  23.451  27.653  1.00  0.00    -0.014 A 
BRANCH  41  42
ATOM     42  C   UNL A   1      42.521  24.786  28.205  1.00  0.00     0.031 A 
ATOM     43  C   UNL A   1      43.931  25.121  28.597  1.00  0.00     0.074 A 
ATOM     44  C   UNL A   1      41.534  25.684  28.394  1.00  0.00     0.049 A 
ATOM     45  N   UNL A   1      44.408  26.236  29.089  1.00  0.00    -0.248 NA
ATOM     46  C   UNL A   1      44.933  24.055  28.443  1.00  0.00     0.031 C 
ATOM     47  C   UNL A   1      40.114  25.454  28.118  1.00  0.00     0.029 A 
ATOM     48  N   UNL A   1      41.576  26.972  28.864  1.00  0.00    -0.354 N 
ATOM     49  C   UNL A   1      45.759  26.005  29.309  1.00  0.00     0.074 A 
ATOM     50  C   UNL A   1      46.016  24.627  28.949  1.00  0.00     0.031 C 
ATOM     51  C   UNL A   1      39.426  26.573  28.392  1.00  0.00     0.029 A 
ATOM     52  C   UNL A   1      40.349  27.589  28.884  1.00  0.00     0.049 A 
ATOM     53  H   UNL A   1      42.406  27.412  29.160  1.00  0.00     0.167 HD
ATOM     54  C   UNL A   1      46.703  26.871  29.746  1.00  0.00     0.037 A 
ATOM     55  C   UNL A   1      40.009  28.839  29.250  1.00  0.00     0.037 A 
ATOM     56  C   UNL A   1      46.450  28.247  30.079  1.00  0.00     0.049 A 
ATOM     57  C   UNL A   1      41.081  29.787  29.708  1.00  0.00     0.074 A 
ATOM     58  C   UNL A   1      47.354  29.223  30.464  1.00  0.00     0.029 A 
ATOM     59  N   UNL A   1      45.197  28.843  30.069  1.00  0.00    -0.354 N 
ATOM     60  N   UNL A   1      42.369  29.580  29.830  1.00  0.00    -0.248 NA
ATOM     61  C   UNL A   1      40.651  31.146  30.068  1.00  0.00     0.031 C 
ATOM     62  C   UNL A   1      46.642  30.401  30.721  1.00  0.00     0.029 A 
ATOM     63  C   UNL A   1      45.301  30.168  30.460  1.00  0.00     0.049 A 
ATOM     64  H   UNL A   1      44.359  28.391  29.822  1.00  0.00     0.167 HD
ATOM     65  C   UNL A   1      42.907  30.783  30.264  1.00  0.00     0.074 A 
ATOM     66  C   UNL A   1      41.808  31.722  30.363  1.00  0.00     0.031 C 
ATOM     67  C   UNL A   1      44.195  31.085  30.558  1.00  0.00     0.037 A 
BRANCH  54  68
ATOM     68  C   UNL A   1      48.104  26.351  29.877  1.00  0.00     0.057 A 
ATOM     69  C   UNL A   1      49.020  26.427  28.819  1.00  0.00     0.134 A 
ATOM     70  C   UNL A   1      48.554  25.794  31.081  1.00  0.00     0.134 A 
ATOM     71  F   UNL A   1      48.648  26.937  27.635  1.00  0.00    -0.206 F 
ATOM     72  C   UNL A   1      50.325  25.947  28.945  1.00  0.00     0.040 A 
ATOM     73  C   UNL A   1      49.863  25.332  31.227  1.00  0.00     0.040 A 
ATOM     74  F   UNL A   1      47.730  25.694  32.135  1.00  0.00    -0.206 F 
ATOM     75  C   UNL A   1      50.750  25.402  30.156  1.00  0.00     0.006 A 
ENDBRANCH  54  68
BRANCH  55  76
ATOM     76  C   UNL A   1      38.595  29.279  29.158  1.00  0.00     0.057 A 
ATOM     77  C   UNL A   1      38.051  29.699  27.940  1.00  0.00     0.134 A 
ATOM     78  C   UNL A   1      37.758  29.290  30.279  1.00  0.00     0.134 A 
ATOM     79  F   UNL A   1      38.810  29.726  26.834  1.00  0.00    -0.206 F 
ATOM     80  C   UNL A   1      36.727  30.132  27.842  1.00  0.00     0.040 A 
ATOM     81  C   UNL A   1      36.427  29.700  30.192  1.00  0.00     0.040 A 
ATOM     82  F   UNL A   1      38.220  28.890  31.473  1.00  0.00    -0.206 F 
ATOM     83  C   UNL A   1      35.911  30.130  28.971  1.00  0.00     0.006 A 
ENDBRANCH  55  76
BRANCH  67  84
ATOM     84  C   UNL A   1      44.479  32.489  31.001  1.00  0.00     0.057 A 
ATOM     85  C   UNL A   1      44.761  33.507  30.081  1.00  0.00     0.134 A 
ATOM     86  C   UNL A   1      44.451  32.831  32.359  1.00  0.00     0.134 A 
ATOM     87  F   UNL A   1      44.817  33.240  28.768  1.00  0.00    -0.206 F 
ATOM     88  C   UNL A   1      45.033  34.811  30.499  1.00  0.00     0.040 A 
ATOM     89  C   UNL A   1      44.698  34.136  32.787  1.00  0.00     0.040 A 
ATOM     90  F   UNL A   1      44.180  31.903  33.290  1.00  0.00    -0.206 F 
ATOM     91  C   UNL A   1      44.996  35.128  31.855  1.00  0.00     0.006 A 
ENDBRANCH  67  84
ENDBRANCH  41  42
ENDBRANCH  33  36
ENDBRANCH  31  32
ENDBRANCH  30  31
ENDBRANCH   1  30
TORSDOF 14
ENDMDL
MODEL 3
REMARK VINA RESULT:     -12.7      4.081      9.827
REMARK SMILES CC[C@H]1Sc2ccc(S(=O)(=O)N3CCC(C(=O)NCCCCNC(=O)c4ccc(-c5c6nc(c(-c7c(F)cccc7F)c7ccc([nH]7)c(-c7c(F)cccc7F)c7nc(c(-c8c(F)cccc8F)c8ccc5[nH]8)C=C7)C=C6)cc4)CC3)cc2NC1=O
REMARK SMILES IDX 20 1 19 2 18 3 16 4 17 5 15 7 12 8 13 9 81 10 14 11 80 12
REMARK SMILES IDX 9 13 10 14 11 15 8 16 3 17 4 18 85 19 5 20 84 21 86 22 6 23
REMARK SMILES IDX 83 24 7 26 82 27 2 28 1 29 21 30 22 31 23 32 24 33 25 35
REMARK SMILES IDX 26 36 27 37 79 38 28 39 78 40 29 41 30 42 31 43 72 44 32 45
REMARK SMILES IDX 77 46 71 47 73 48 33 49 76 50 70 51 69 52 34 54 60 55 43 56
REMARK SMILES IDX 59 57 44 58 47 59 58 60 74 61 45 62 46 63 57 65 75 66 48 67
REMARK SMILES IDX 35 68 36 69 41 70 37 71 38 72 40 73 42 74 39 75 61 76 62 77
REMARK SMILES IDX 67 78 63 79 64 80 66 81 68 82 65 83 49 84 50 85 55 86 51 87
REMARK SMILES IDX 52 88 54 89 56 90 53 91
REMARK H PARENT 18 6 84 25 23 34 73 53 47 64
REMARK Flexibility Score: inf
ROOT
ATOM      1  C   UNL A   1      36.435  19.603  25.001  1.00  0.00     0.023 C 
ENDROOT
BRANCH   1   2
ATOM      2  C   UNL A   1      34.991  19.919  24.626  1.00  0.00     0.116 C 
BRANCH   2   3
ATOM      3  N   UNL A   1      34.239  20.429  25.760  1.00  0.00    -0.356 N 
ATOM      4  C   UNL A   1      33.862  21.698  26.074  1.00  0.00     0.223 C 
ATOM      5  O   UNL A   1      33.227  21.880  27.114  1.00  0.00    -0.275 OA
ATOM      6  H   UNL A   1      33.955  19.744  26.408  1.00  0.00     0.163 HD
BRANCH   4   7
ATOM      7  C   UNL A   1      34.191  22.868  25.160  1.00  0.00     0.081 C 
ATOM      8  N   UNL A   1      33.492  25.422  23.999  1.00  0.00    -0.198 NA
ATOM      9  C   UNL A   1      33.433  24.202  23.163  1.00  0.00     0.103 C 
ATOM     10  C   UNL A   1      34.401  25.430  25.168  1.00  0.00     0.103 C 
ATOM     11  C   UNL A   1      33.195  22.970  24.007  1.00  0.00     0.030 C 
ATOM     12  C   UNL A   1      34.374  24.147  25.974  1.00  0.00     0.030 C 
BRANCH   8  13
ATOM     13  S   UNL A   1      33.379  26.912  23.154  1.00  0.00     0.243 S 
ATOM     14  O   UNL A   1      33.522  26.639  21.741  1.00  0.00    -0.207 OA
ATOM     15  O   UNL A   1      34.240  27.854  23.837  1.00  0.00    -0.207 OA
BRANCH  13  16
ATOM     16  C   UNL A   1      31.713  27.513  23.386  1.00  0.00     0.084 A 
ATOM     17  C   UNL A   1      27.745  30.683  22.495  1.00  0.00     0.141 C 
ATOM     18  S   UNL A   1      27.403  29.001  23.118  1.00  0.00    -0.111 SA
ATOM     19  C   UNL A   1      28.816  31.396  23.307  1.00  0.00     0.237 C 
ATOM     20  C   UNL A   1      29.071  28.429  23.310  1.00  0.00     0.032 A 
ATOM     21  N   UNL A   1      29.924  30.701  23.702  1.00  0.00    -0.324 N 
ATOM     22  O   UNL A   1      28.781  32.614  23.501  1.00  0.00    -0.273 OA
ATOM     23  C   UNL A   1      29.348  27.066  23.155  1.00  0.00     0.018 A 
ATOM     24  C   UNL A   1      30.117  29.319  23.574  1.00  0.00     0.056 A 
ATOM     25  H   UNL A   1      30.653  31.218  24.115  1.00  0.00     0.170 HD
ATOM     26  C   UNL A   1      30.669  26.611  23.168  1.00  0.00     0.023 A 
ATOM     27  C   UNL A   1      31.426  28.853  23.649  1.00  0.00     0.049 A 
BRANCH  17  28
ATOM     28  C   UNL A   1      28.026  30.748  20.980  1.00  0.00     0.021 C 
ATOM     29  C   UNL A   1      28.019  32.118  20.307  1.00  0.00     0.005 C 
ENDBRANCH  17  28
ENDBRANCH  13  16
ENDBRANCH   8  13
ENDBRANCH   4   7
ENDBRANCH   2   3
ENDBRANCH   1   2
BRANCH   1  30
ATOM     30  C   UNL A   1      37.423  20.724  24.688  1.00  0.00     0.023 C 
BRANCH  30  31
ATOM     31  C   UNL A   1      38.539  20.904  25.711  1.00  0.00     0.116 C 
BRANCH  31  32
ATOM     32  N   UNL A   1      39.501  19.812  25.714  1.00  0.00    -0.352 N 
ATOM     33  C   UNL A   1      40.823  19.827  26.081  1.00  0.00     0.251 C 
ATOM     34  H   UNL A   1      39.155  18.942  25.410  1.00  0.00     0.163 HD
ATOM     35  O   UNL A   1      41.520  18.830  25.923  1.00  0.00    -0.269 OA
BRANCH  33  36
ATOM     36  C   UNL A   1      41.415  21.065  26.625  1.00  0.00     0.039 A 
ATOM     37  C   UNL A   1      41.902  22.019  25.729  1.00  0.00     0.014 A 
ATOM     38  C   UNL A   1      41.454  21.298  28.002  1.00  0.00     0.014 A 
ATOM     39  C   UNL A   1      42.363  23.242  26.215  1.00  0.00     0.010 A 
ATOM     40  C   UNL A   1      41.846  22.547  28.478  1.00  0.00     0.010 A 
ATOM     41  C   UNL A   1      42.300  23.530  27.588  1.00  0.00    -0.014 A 
BRANCH  41  42
ATOM     42  C   UNL A   1      42.680  24.870  28.096  1.00  0.00     0.031 A 
ATOM     43  C   UNL A   1      41.639  25.928  28.316  1.00  0.00     0.074 A 
ATOM     44  C   UNL A   1      43.981  25.144  28.316  1.00  0.00     0.049 A 
ATOM     45  N   UNL A   1      41.786  27.151  28.759  1.00  0.00    -0.248 NA
ATOM     46  C   UNL A   1      40.253  25.578  27.967  1.00  0.00     0.031 C 
ATOM     47  C   UNL A   1      45.094  24.223  28.073  1.00  0.00     0.029 A 
ATOM     48  N   UNL A   1      44.588  26.278  28.792  1.00  0.00    -0.354 N 
ATOM     49  C   UNL A   1      40.519  27.717  28.736  1.00  0.00     0.074 A 
ATOM     50  C   UNL A   1      39.623  26.723  28.183  1.00  0.00     0.031 C 
ATOM     51  C   UNL A   1      46.242  24.816  28.434  1.00  0.00     0.029 A 
ATOM     52  C   UNL A   1      45.952  26.164  28.909  1.00  0.00     0.049 A 
ATOM     53  H   UNL A   1      44.093  27.096  29.028  1.00  0.00     0.167 HD
ATOM     54  C   UNL A   1      40.133  28.943  29.161  1.00  0.00     0.037 A 
ATOM     55  C   UNL A   1      46.864  27.046  29.359  1.00  0.00     0.037 A 
ATOM     56  C   UNL A   1      41.022  29.919  29.733  1.00  0.00     0.049 A 
ATOM     57  C   UNL A   1      46.405  28.391  29.847  1.00  0.00     0.074 A 
ATOM     58  C   UNL A   1      40.715  31.162  30.259  1.00  0.00     0.029 A 
ATOM     59  N   UNL A   1      42.394  29.762  29.853  1.00  0.00    -0.354 N 
ATOM     60  N   UNL A   1      45.192  28.881  29.898  1.00  0.00    -0.248 NA
ATOM     61  C   UNL A   1      47.445  29.300  30.351  1.00  0.00     0.031 C 
ATOM     62  C   UNL A   1      41.908  31.772  30.664  1.00  0.00     0.029 A 
ATOM     63  C   UNL A   1      42.952  30.893  30.426  1.00  0.00     0.049 A 
ATOM     64  H   UNL A   1      42.898  28.964  29.572  1.00  0.00     0.167 HD
ATOM     65  C   UNL A   1      45.317  30.147  30.453  1.00  0.00     0.074 A 
ATOM     66  C   UNL A   1      46.723  30.340  30.743  1.00  0.00     0.031 C 
ATOM     67  C   UNL A   1      44.354  31.069  30.700  1.00  0.00     0.037 A 
BRANCH  54  68
ATOM     68  C   UNL A   1      38.679  29.290  29.031  1.00  0.00     0.057 A 
ATOM     69  C   UNL A   1      37.818  29.278  30.136  1.00  0.00     0.134 A 
ATOM     70  C   UNL A   1      38.139  29.667  27.795  1.00  0.00     0.134 A 
ATOM     71  F   UNL A   1      38.270  28.912  31.345  1.00  0.00    -0.206 F 
ATOM     72  C   UNL A   1      36.467  29.606  30.013  1.00  0.00     0.040 A 
ATOM     73  C   UNL A   1      36.795  30.020  27.664  1.00  0.00     0.040 A 
ATOM     74  F   UNL A   1      38.910  29.703  26.697  1.00  0.00    -0.206 F 
ATOM     75  C   UNL A   1      35.954  29.985  28.773  1.00  0.00     0.006 A 
ENDBRANCH  54  68
BRANCH  55  76
ATOM     76  C   UNL A   1      48.298  26.669  29.406  1.00  0.00     0.057 A 
ATOM     77  C   UNL A   1      48.823  25.977  30.502  1.00  0.00     0.134 A 
ATOM     78  C   UNL A   1      49.173  26.991  28.363  1.00  0.00     0.134 A 
ATOM     79  F   UNL A   1      48.035  25.656  31.539  1.00  0.00    -0.206 F 
ATOM     80  C   UNL A   1      50.174  25.630  30.568  1.00  0.00     0.040 A 
ATOM     81  C   UNL A   1      50.521  26.633  28.406  1.00  0.00     0.040 A 
ATOM     82  F   UNL A   1      48.727  27.647  27.282  1.00  0.00    -0.206 F 
ATOM     83  C   UNL A   1      51.026  25.956  29.515  1.00  0.00     0.006 A 
ENDBRANCH  55  76
BRANCH  67  84
ATOM     84  C   UNL A   1      44.796  32.360  31.323  1.00  0.00     0.057 A 
ATOM     85  C   UNL A   1      45.148  33.470  30.544  1.00  0.00     0.134 A 
ATOM     86  C   UNL A   1      44.850  32.500  32.715  1.00  0.00     0.134 A 
ATOM     87  F   UNL A   1      45.130  33.393  29.205  1.00  0.00    -0.206 F 
ATOM     88  C   UNL A   1      45.566  34.666  31.128  1.00  0.00     0.040 A 
ATOM     89  C   UNL A   1      45.244  33.699  33.311  1.00  0.00     0.040 A 
ATOM     90  F   UNL A   1      44.519  31.477  33.517  1.00  0.00    -0.206 F 
ATOM     91  C   UNL A   1      45.609  34.784  32.517  1.00  0.00     0.006 A 
ENDBRANCH  67  84
ENDBRANCH  41  42
ENDBRANCH  33  36
ENDBRANCH  31  32
ENDBRANCH  30  31
ENDBRANCH   1  30
TORSDOF 14
ENDMDL
