MODEL 1
REMARK VINA RESULT:     -12.4      0.000      0.000
REMARK SMILES O=C(NCCCCNC(=O)[C@H]1CCCN(C(=O)C2CC[NH+](Cc3ccco3)CC2)C1)c1ccc(-c2c3nc(c(-c4c(F)cccc4F)c4ccc([nH]4)c(-c4c(F)cccc4F)c4nc(c(-c5c(F)cccc5F)c5ccc2[nH]5)C=C4)C=C3)cc1
REMARK SMILES IDX 6 1 5 2 4 3 3 4 1 5 2 6 31 8 32 9 84 10 33 11 83 12 34 13
REMARK SMILES IDX 35 14 36 15 77 16 37 17 82 18 76 19 78 20 38 21 81 22 75 23
REMARK SMILES IDX 74 24 39 26 65 27 48 28 64 29 49 30 52 31 63 32 79 33 50 34
REMARK SMILES IDX 51 35 62 37 80 38 53 39 40 40 41 41 46 42 42 43 43 44 45 45
REMARK SMILES IDX 47 46 44 47 66 48 67 49 72 50 68 51 69 52 71 53 73 54 70 55
REMARK SMILES IDX 54 56 55 57 60 58 56 59 57 60 59 61 61 62 58 63 7 64 8 65
REMARK SMILES IDX 9 66 10 68 11 69 12 70 30 71 13 72 15 73 14 74 16 75 17 76
REMARK SMILES IDX 18 77 19 78 29 79 20 80 28 81 21 82 22 84 23 85 24 86 27 87
REMARK SMILES IDX 25 88 26 89
REMARK H PARENT 3 7 78 25 52 36 8 67 21 83
REMARK Flexibility Score: inf
ROOT
ATOM      1  C   UNL A   1      31.970  30.175  26.585  1.00  0.00     0.023 C 
ENDROOT
BRANCH   1   2
ATOM      2  C   UNL A   1      31.737  31.685  26.628  1.00  0.00     0.023 C 
BRANCH   2   3
ATOM      3  C   UNL A   1      32.858  32.493  27.273  1.00  0.00     0.116 C 
BRANCH   3   4
ATOM      4  N   UNL A   1      32.479  33.858  27.605  1.00  0.00    -0.352 N 
ATOM      5  O   UNL A   1      32.594  35.794  28.772  1.00  0.00    -0.269 OA
ATOM      6  C   UNL A   1      33.059  34.695  28.535  1.00  0.00     0.251 C 
ATOM      7  H   UNL A   1      31.716  34.229  27.105  1.00  0.00     0.163 HD
BRANCH   6   8
ATOM      8  C   UNL A   1      34.238  34.198  29.273  1.00  0.00     0.039 A 
ATOM      9  C   UNL A   1      35.525  34.491  28.817  1.00  0.00     0.014 A 
ATOM     10  C   UNL A   1      34.041  33.365  30.376  1.00  0.00     0.014 A 
ATOM     11  C   UNL A   1      36.612  33.831  29.376  1.00  0.00     0.010 A 
ATOM     12  C   UNL A   1      35.144  32.763  30.985  1.00  0.00     0.010 A 
ATOM     13  C   UNL A   1      36.432  32.958  30.462  1.00  0.00    -0.014 A 
BRANCH  13  14
ATOM     14  C   UNL A   1      37.611  32.281  31.050  1.00  0.00     0.031 A 
ATOM     15  C   UNL A   1      38.082  32.611  32.438  1.00  0.00     0.074 A 
ATOM     16  C   UNL A   1      38.236  31.333  30.329  1.00  0.00     0.049 A 
ATOM     17  N   UNL A   1      39.081  32.099  33.112  1.00  0.00    -0.248 NA
ATOM     18  C   UNL A   1      37.345  33.657  33.163  1.00  0.00     0.031 C 
ATOM     19  C   UNL A   1      37.867  30.931  28.969  1.00  0.00     0.029 A 
ATOM     20  N   UNL A   1      39.294  30.520  30.641  1.00  0.00    -0.354 N 
ATOM     21  C   UNL A   1      39.111  32.776  34.325  1.00  0.00     0.074 A 
ATOM     22  C   UNL A   1      38.040  33.749  34.289  1.00  0.00     0.031 C 
ATOM     23  C   UNL A   1      38.650  29.913  28.586  1.00  0.00     0.029 A 
ATOM     24  C   UNL A   1      39.610  29.630  29.647  1.00  0.00     0.049 A 
ATOM     25  H   UNL A   1      39.780  30.571  31.496  1.00  0.00     0.167 HD
ATOM     26  C   UNL A   1      39.954  32.598  35.371  1.00  0.00     0.037 A 
ATOM     27  C   UNL A   1      40.571  28.691  29.592  1.00  0.00     0.037 A 
ATOM     28  C   UNL A   1      41.000  31.610  35.411  1.00  0.00     0.049 A 
ATOM     29  C   UNL A   1      41.491  28.518  30.762  1.00  0.00     0.074 A 
ATOM     30  C   UNL A   1      41.880  31.323  36.441  1.00  0.00     0.029 A 
ATOM     31  N   UNL A   1      41.309  30.745  34.371  1.00  0.00    -0.354 N 
ATOM     32  N   UNL A   1      41.494  29.150  31.909  1.00  0.00    -0.248 NA
ATOM     33  C   UNL A   1      42.546  27.505  30.627  1.00  0.00     0.031 C 
ATOM     34  C   UNL A   1      42.744  30.309  36.011  1.00  0.00     0.029 A 
ATOM     35  C   UNL A   1      42.378  29.937  34.728  1.00  0.00     0.049 A 
ATOM     36  H   UNL A   1      40.840  30.709  33.507  1.00  0.00     0.167 HD
ATOM     37  C   UNL A   1      42.536  28.602  32.642  1.00  0.00     0.074 A 
ATOM     38  C   UNL A   1      43.135  27.575  31.813  1.00  0.00     0.031 C 
ATOM     39  C   UNL A   1      42.960  28.921  33.890  1.00  0.00     0.037 A 
BRANCH  26  40
ATOM     40  C   UNL A   1      39.791  33.510  36.552  1.00  0.00     0.057 A 
ATOM     41  C   UNL A   1      40.470  34.731  36.649  1.00  0.00     0.134 A 
ATOM     42  C   UNL A   1      38.919  33.172  37.596  1.00  0.00     0.134 A 
ATOM     43  F   UNL A   1      41.328  35.109  35.690  1.00  0.00    -0.206 F 
ATOM     44  C   UNL A   1      40.304  35.573  37.751  1.00  0.00     0.040 A 
ATOM     45  C   UNL A   1      38.729  34.015  38.692  1.00  0.00     0.040 A 
ATOM     46  F   UNL A   1      38.235  32.018  37.564  1.00  0.00    -0.206 F 
ATOM     47  C   UNL A   1      39.427  35.218  38.775  1.00  0.00     0.006 A 
ENDBRANCH  26  40
BRANCH  27  48
ATOM     48  C   UNL A   1      40.688  27.837  28.387  1.00  0.00     0.057 A 
ATOM     49  C   UNL A   1      40.022  26.609  28.308  1.00  0.00     0.134 A 
ATOM     50  C   UNL A   1      41.434  28.242  27.275  1.00  0.00     0.134 A 
ATOM     51  F   UNL A   1      39.303  26.164  29.349  1.00  0.00    -0.206 F 
ATOM     52  C   UNL A   1      40.098  25.811  27.167  1.00  0.00     0.040 A 
ATOM     53  C   UNL A   1      41.501  27.465  26.118  1.00  0.00     0.040 A 
ATOM     54  F   UNL A   1      42.086  29.414  27.287  1.00  0.00    -0.206 F 
ATOM     55  C   UNL A   1      40.832  26.243  26.064  1.00  0.00     0.006 A 
ENDBRANCH  27  48
BRANCH  39  56
ATOM     56  C   UNL A   1      44.108  28.128  34.437  1.00  0.00     0.057 A 
ATOM     57  C   UNL A   1      45.432  28.565  34.311  1.00  0.00     0.134 A 
ATOM     58  C   UNL A   1      43.883  26.920  35.108  1.00  0.00     0.134 A 
ATOM     59  F   UNL A   1      45.713  29.705  33.663  1.00  0.00    -0.206 F 
ATOM     60  C   UNL A   1      46.495  27.816  34.816  1.00  0.00     0.040 A 
ATOM     61  C   UNL A   1      44.936  26.174  35.637  1.00  0.00     0.040 A 
ATOM     62  F   UNL A   1      42.636  26.450  35.265  1.00  0.00    -0.206 F 
ATOM     63  C   UNL A   1      46.247  26.619  35.486  1.00  0.00     0.006 A 
ENDBRANCH  39  56
ENDBRANCH  13  14
ENDBRANCH   6   8
ENDBRANCH   3   4
ENDBRANCH   2   3
ENDBRANCH   1   2
BRANCH   1  64
ATOM     64  C   UNL A   1      31.534  29.523  25.279  1.00  0.00     0.116 C 
BRANCH  64  65
ATOM     65  N   UNL A   1      32.554  29.612  24.245  1.00  0.00    -0.356 N 
ATOM     66  C   UNL A   1      33.420  28.735  23.671  1.00  0.00     0.224 C 
ATOM     67  H   UNL A   1      32.636  30.520  23.874  1.00  0.00     0.163 HD
ATOM     68  O   UNL A   1      34.186  29.229  22.836  1.00  0.00    -0.275 OA
BRANCH  66  69
ATOM     69  C   UNL A   1      33.527  27.247  24.043  1.00  0.00     0.098 C 
ATOM     70  C   UNL A   1      33.641  27.009  25.554  1.00  0.00     0.017 C 
ATOM     71  C   UNL A   1      32.330  26.495  23.360  1.00  0.00     0.133 C 
ATOM     72  C   UNL A   1      33.160  25.662  26.030  1.00  0.00     0.022 C 
ATOM     73  N   UNL A   1      31.874  25.292  24.077  1.00  0.00    -0.342 N 
ATOM     74  C   UNL A   1      31.765  25.500  25.489  1.00  0.00     0.119 C 
BRANCH  73  75
ATOM     75  C   UNL A   1      31.558  24.123  23.414  1.00  0.00     0.226 C 
ATOM     76  O   UNL A   1      30.369  23.810  23.258  1.00  0.00    -0.275 OA
BRANCH  75  77
ATOM     77  C   UNL A   1      32.635  23.147  22.851  1.00  0.00     0.090 C 
ATOM     78  C   UNL A   1      32.132  21.775  22.410  1.00  0.00     0.075 C 
ATOM     79  C   UNL A   1      34.001  23.055  23.534  1.00  0.00     0.075 C 
ATOM     80  C   UNL A   1      32.249  20.686  23.470  1.00  0.00     0.263 C 
ATOM     81  C   UNL A   1      34.246  21.849  24.454  1.00  0.00     0.263 C 
ATOM     82  N   UNL A   1      33.550  20.603  24.132  1.00  0.00    -0.329 N 
ATOM     83  H   UNL A   1      34.125  20.233  23.375  1.00  0.00     0.348 HD
BRANCH  82  84
ATOM     84  C   UNL A   1      33.569  19.639  25.261  1.00  0.00     0.338 C 
BRANCH  84  85
ATOM     85  C   UNL A   1      33.582  18.179  24.898  1.00  0.00     0.157 A 
ATOM     86  C   UNL A   1      34.184  17.456  23.883  1.00  0.00     0.052 A 
ATOM     87  O   UNL A   1      32.894  17.322  25.714  1.00  0.00    -0.463 OA
ATOM     88  C   UNL A   1      33.820  16.100  24.071  1.00  0.00     0.042 A 
ATOM     89  C   UNL A   1      33.053  16.069  25.210  1.00  0.00     0.195 A 
ENDBRANCH  84  85
ENDBRANCH  82  84
ENDBRANCH  75  77
ENDBRANCH  73  75
ENDBRANCH  66  69
ENDBRANCH  64  65
ENDBRANCH   1  64
TORSDOF 15
ENDMDL
MODEL 2
REMARK VINA RESULT:     -12.4      0.925      1.712
REMARK SMILES O=C(NCCCCNC(=O)[C@H]1CCCN(C(=O)C2CC[NH+](Cc3ccco3)CC2)C1)c1ccc(-c2c3nc(c(-c4c(F)cccc4F)c4ccc([nH]4)c(-c4c(F)cccc4F)c4nc(c(-c5c(F)cccc5F)c5ccc2[nH]5)C=C4)C=C3)cc1
REMARK SMILES IDX 6 1 5 2 4 3 3 4 1 5 2 6 31 8 32 9 84 10 33 11 83 12 34 13
REMARK SMILES IDX 35 14 36 15 77 16 37 17 82 18 76 19 78 20 38 21 81 22 75 23
REMARK SMILES IDX 74 24 39 26 65 27 48 28 64 29 49 30 52 31 63 32 79 33 50 34
REMARK SMILES IDX 51 35 62 37 80 38 53 39 40 40 41 41 46 42 42 43 43 44 45 45
REMARK SMILES IDX 47 46 44 47 66 48 67 49 72 50 68 51 69 52 71 53 73 54 70 55
REMARK SMILES IDX 54 56 55 57 60 58 56 59 57 60 59 61 61 62 58 63 7 64 8 65
REMARK SMILES IDX 9 66 10 68 11 69 12 70 30 71 13 72 15 73 14 74 16 75 17 76
REMARK SMILES IDX 18 77 19 78 29 79 20 80 28 81 21 82 22 84 23 85 24 86 27 87
REMARK SMILES IDX 25 88 26 89
REMARK H PARENT 3 7 78 25 52 36 8 67 21 83
REMARK Flexibility Score: inf
ROOT
ATOM      1  C   UNL A   1      31.787  30.353  26.731  1.00  0.00     0.023 C 
ENDROOT
BRANCH   1   2
ATOM      2  C   UNL A   1      31.619  31.870  26.652  1.00  0.00     0.023 C 
BRANCH   2   3
ATOM      3  C   UNL A   1      32.723  32.678  27.324  1.00  0.00     0.116 C 
BRANCH   3   4
ATOM      4  N   UNL A   1      32.344  34.050  27.626  1.00  0.00    -0.352 N 
ATOM      5  O   UNL A   1      32.483  36.024  28.724  1.00  0.00    -0.269 OA
ATOM      6  C   UNL A   1      32.949  34.922  28.506  1.00  0.00     0.251 C 
ATOM      7  H   UNL A   1      31.559  34.398  27.143  1.00  0.00     0.163 HD
BRANCH   6   8
ATOM      8  C   UNL A   1      34.160  34.460  29.215  1.00  0.00     0.039 A 
ATOM      9  C   UNL A   1      35.413  34.574  28.609  1.00  0.00     0.014 A 
ATOM     10  C   UNL A   1      34.017  33.834  30.454  1.00  0.00     0.014 A 
ATOM     11  C   UNL A   1      36.505  33.930  29.177  1.00  0.00     0.010 A 
ATOM     12  C   UNL A   1      35.133  33.253  31.060  1.00  0.00     0.010 A 
ATOM     13  C   UNL A   1      36.374  33.260  30.405  1.00  0.00    -0.014 A 
BRANCH  13  14
ATOM     14  C   UNL A   1      37.560  32.597  30.998  1.00  0.00     0.031 A 
ATOM     15  C   UNL A   1      38.124  33.048  32.315  1.00  0.00     0.074 A 
ATOM     16  C   UNL A   1      38.105  31.553  30.347  1.00  0.00     0.049 A 
ATOM     17  N   UNL A   1      39.140  32.565  32.984  1.00  0.00    -0.248 NA
ATOM     18  C   UNL A   1      37.470  34.195  32.963  1.00  0.00     0.031 C 
ATOM     19  C   UNL A   1      37.642  31.028  29.060  1.00  0.00     0.029 A 
ATOM     20  N   UNL A   1      39.147  30.731  30.687  1.00  0.00    -0.354 N 
ATOM     21  C   UNL A   1      39.266  33.362  34.114  1.00  0.00     0.074 A 
ATOM     22  C   UNL A   1      38.233  34.372  34.034  1.00  0.00     0.031 C 
ATOM     23  C   UNL A   1      38.362  29.942  28.745  1.00  0.00     0.029 A 
ATOM     24  C   UNL A   1      39.370  29.728  29.777  1.00  0.00     0.049 A 
ATOM     25  H   UNL A   1      39.685  30.848  31.504  1.00  0.00     0.167 HD
ATOM     26  C   UNL A   1      40.161  33.257  35.126  1.00  0.00     0.037 A 
ATOM     27  C   UNL A   1      40.290  28.748  29.770  1.00  0.00     0.037 A 
ATOM     28  C   UNL A   1      41.170  32.233  35.214  1.00  0.00     0.049 A 
ATOM     29  C   UNL A   1      41.270  28.657  30.900  1.00  0.00     0.074 A 
ATOM     30  C   UNL A   1      42.097  32.016  36.220  1.00  0.00     0.029 A 
ATOM     31  N   UNL A   1      41.385  31.252  34.257  1.00  0.00    -0.354 N 
ATOM     32  N   UNL A   1      41.364  29.404  31.972  1.00  0.00    -0.248 NA
ATOM     33  C   UNL A   1      42.276  27.590  30.816  1.00  0.00     0.031 C 
ATOM     34  C   UNL A   1      42.896  30.926  35.854  1.00  0.00     0.029 A 
ATOM     35  C   UNL A   1      42.441  30.440  34.639  1.00  0.00     0.049 A 
ATOM     36  H   UNL A   1      40.864  31.147  33.429  1.00  0.00     0.167 HD
ATOM     37  C   UNL A   1      42.426  28.889  32.701  1.00  0.00     0.074 A 
ATOM     38  C   UNL A   1      42.936  27.756  31.954  1.00  0.00     0.031 C 
ATOM     39  C   UNL A   1      42.934  29.317  33.883  1.00  0.00     0.037 A 
BRANCH  26  40
ATOM     40  C   UNL A   1      40.103  34.293  36.211  1.00  0.00     0.057 A 
ATOM     41  C   UNL A   1      39.356  34.105  37.381  1.00  0.00     0.134 A 
ATOM     42  C   UNL A   1      40.831  35.484  36.095  1.00  0.00     0.134 A 
ATOM     43  F   UNL A   1      38.627  32.991  37.550  1.00  0.00    -0.206 F 
ATOM     44  C   UNL A   1      39.316  35.074  38.385  1.00  0.00     0.040 A 
ATOM     45  C   UNL A   1      40.816  36.452  37.102  1.00  0.00     0.040 A 
ATOM     46  F   UNL A   1      41.571  35.727  35.002  1.00  0.00    -0.206 F 
ATOM     47  C   UNL A   1      40.052  36.251  38.249  1.00  0.00     0.006 A 
ENDBRANCH  26  40
BRANCH  27  48
ATOM     48  C   UNL A   1      40.304  27.769  28.658  1.00  0.00     0.057 A 
ATOM     49  C   UNL A   1      41.039  28.014  27.493  1.00  0.00     0.134 A 
ATOM     50  C   UNL A   1      39.618  26.552  28.747  1.00  0.00     0.134 A 
ATOM     51  F   UNL A   1      41.705  29.169  27.346  1.00  0.00    -0.206 F 
ATOM     52  C   UNL A   1      41.087  27.086  26.453  1.00  0.00     0.040 A 
ATOM     53  C   UNL A   1      39.676  25.605  27.725  1.00  0.00     0.040 A 
ATOM     54  F   UNL A   1      38.905  26.256  29.844  1.00  0.00    -0.206 F 
ATOM     55  C   UNL A   1      40.411  25.873  26.571  1.00  0.00     0.006 A 
ENDBRANCH  27  48
BRANCH  39  56
ATOM     56  C   UNL A   1      44.081  28.535  34.448  1.00  0.00     0.057 A 
ATOM     57  C   UNL A   1      45.411  28.890  34.193  1.00  0.00     0.134 A 
ATOM     58  C   UNL A   1      43.850  27.424  35.267  1.00  0.00     0.134 A 
ATOM     59  F   UNL A   1      45.697  29.934  33.402  1.00  0.00    -0.206 F 
ATOM     60  C   UNL A   1      46.473  28.151  34.716  1.00  0.00     0.040 A 
ATOM     61  C   UNL A   1      44.903  26.691  35.814  1.00  0.00     0.040 A 
ATOM     62  F   UNL A   1      42.597  27.036  35.552  1.00  0.00    -0.206 F 
ATOM     63  C   UNL A   1      46.219  27.051  35.534  1.00  0.00     0.006 A 
ENDBRANCH  39  56
ENDBRANCH  13  14
ENDBRANCH   6   8
ENDBRANCH   3   4
ENDBRANCH   2   3
ENDBRANCH   1   2
BRANCH   1  64
ATOM     64  C   UNL A   1      33.226  29.885  26.565  1.00  0.00     0.116 C 
BRANCH  64  65
ATOM     65  N   UNL A   1      33.630  29.812  25.168  1.00  0.00    -0.356 N 
ATOM     66  C   UNL A   1      33.431  28.927  24.156  1.00  0.00     0.224 C 
ATOM     67  H   UNL A   1      34.175  30.583  24.893  1.00  0.00     0.163 HD
ATOM     68  O   UNL A   1      34.003  29.210  23.097  1.00  0.00    -0.275 OA
BRANCH  66  69
ATOM     69  C   UNL A   1      32.623  27.625  24.282  1.00  0.00     0.098 C 
ATOM     70  C   UNL A   1      31.122  27.820  24.033  1.00  0.00     0.017 C 
ATOM     71  C   UNL A   1      33.298  26.551  23.356  1.00  0.00     0.133 C 
ATOM     72  C   UNL A   1      30.387  26.594  23.555  1.00  0.00     0.022 C 
ATOM     73  N   UNL A   1      32.375  25.531  22.831  1.00  0.00    -0.342 N 
ATOM     74  C   UNL A   1      31.146  26.091  22.356  1.00  0.00     0.119 C 
BRANCH  73  75
ATOM     75  C   UNL A   1      32.716  24.194  22.782  1.00  0.00     0.226 C 
ATOM     76  O   UNL A   1      33.860  23.866  22.440  1.00  0.00    -0.275 OA
BRANCH  75  77
ATOM     77  C   UNL A   1      31.716  23.049  23.128  1.00  0.00     0.090 C 
ATOM     78  C   UNL A   1      31.307  22.934  24.594  1.00  0.00     0.075 C 
ATOM     79  C   UNL A   1      31.890  21.673  22.481  1.00  0.00     0.075 C 
ATOM     80  C   UNL A   1      32.132  21.943  25.406  1.00  0.00     0.263 C 
ATOM     81  C   UNL A   1      32.528  20.569  23.340  1.00  0.00     0.263 C 
ATOM     82  N   UNL A   1      32.310  20.631  24.785  1.00  0.00    -0.329 N 
ATOM     83  H   UNL A   1      31.367  20.251  24.871  1.00  0.00     0.348 HD
BRANCH  82  84
ATOM     84  C   UNL A   1      33.246  19.755  25.533  1.00  0.00     0.338 C 
BRANCH  84  85
ATOM     85  C   UNL A   1      33.456  18.369  24.984  1.00  0.00     0.157 A 
ATOM     86  C   UNL A   1      34.472  17.779  24.252  1.00  0.00     0.052 A 
ATOM     87  O   UNL A   1      32.489  17.436  25.245  1.00  0.00    -0.463 OA
ATOM     88  C   UNL A   1      34.092  16.434  24.030  1.00  0.00     0.042 A 
ATOM     89  C   UNL A   1      32.889  16.270  24.672  1.00  0.00     0.195 A 
ENDBRANCH  84  85
ENDBRANCH  82  84
ENDBRANCH  75  77
ENDBRANCH  73  75
ENDBRANCH  66  69
ENDBRANCH  64  65
ENDBRANCH   1  64
TORSDOF 15
ENDMDL
MODEL 3
REMARK VINA RESULT:     -12.4      4.902     10.555
REMARK SMILES O=C(NCCCCNC(=O)[C@H]1CCCN(C(=O)C2CC[NH+](Cc3ccco3)CC2)C1)c1ccc(-c2c3nc(c(-c4c(F)cccc4F)c4ccc([nH]4)c(-c4c(F)cccc4F)c4nc(c(-c5c(F)cccc5F)c5ccc2[nH]5)C=C4)C=C3)cc1
REMARK SMILES IDX 6 1 5 2 4 3 3 4 1 5 2 6 31 8 32 9 84 10 33 11 83 12 34 13
REMARK SMILES IDX 35 14 36 15 77 16 37 17 82 18 76 19 78 20 38 21 81 22 75 23
REMARK SMILES IDX 74 24 39 26 65 27 48 28 64 29 49 30 52 31 63 32 79 33 50 34
REMARK SMILES IDX 51 35 62 37 80 38 53 39 40 40 41 41 46 42 42 43 43 44 45 45
REMARK SMILES IDX 47 46 44 47 66 48 67 49 72 50 68 51 69 52 71 53 73 54 70 55
REMARK SMILES IDX 54 56 55 57 60 58 56 59 57 60 59 61 61 62 58 63 7 64 8 65
REMARK SMILES IDX 9 66 10 68 11 69 12 70 30 71 13 72 15 73 14 74 16 75 17 76
REMARK SMILES IDX 18 77 19 78 29 79 20 80 28 81 21 82 22 84 23 85 24 86 27 87
REMARK SMILES IDX 25 88 26 89
REMARK H PARENT 3 7 78 25 52 36 8 67 21 83
REMARK Flexibility Score: inf
ROOT
ATOM      1  C   UNL A   1      37.056  21.235  24.753  1.00  0.00     0.023 C 
ENDROOT
BRANCH   1   2
ATOM      2  C   UNL A   1      37.935  20.010  25.003  1.00  0.00     0.023 C 
BRANCH   2   3
ATOM      3  C   UNL A   1      39.233  20.289  25.754  1.00  0.00     0.116 C 
BRANCH   3   4
ATOM      4  N   UNL A   1      40.158  19.167  25.760  1.00  0.00    -0.352 N 
ATOM      5  O   UNL A   1      42.191  18.183  25.918  1.00  0.00    -0.269 OA
ATOM      6  C   UNL A   1      41.512  19.188  26.023  1.00  0.00     0.251 C 
ATOM      7  H   UNL A   1      39.772  18.286  25.551  1.00  0.00     0.163 HD
BRANCH   6   8
ATOM      8  C   UNL A   1      42.126  20.480  26.390  1.00  0.00     0.039 A 
ATOM      9  C   UNL A   1      42.270  20.831  27.734  1.00  0.00     0.014 A 
ATOM     10  C   UNL A   1      42.478  21.372  25.375  1.00  0.00     0.014 A 
ATOM     11  C   UNL A   1      42.627  22.131  28.064  1.00  0.00     0.010 A 
ATOM     12  C   UNL A   1      42.911  22.655  25.712  1.00  0.00     0.010 A 
ATOM     13  C   UNL A   1      42.947  23.057  27.056  1.00  0.00    -0.014 A 
BRANCH  13  14
ATOM     14  C   UNL A   1      43.344  24.433  27.436  1.00  0.00     0.031 A 
ATOM     15  C   UNL A   1      44.771  24.888  27.325  1.00  0.00     0.074 A 
ATOM     16  C   UNL A   1      42.390  25.286  27.853  1.00  0.00     0.049 A 
ATOM     17  N   UNL A   1      45.284  26.062  27.594  1.00  0.00    -0.248 NA
ATOM     18  C   UNL A   1      45.753  23.897  26.861  1.00  0.00     0.031 C 
ATOM     19  C   UNL A   1      40.971  24.954  28.001  1.00  0.00     0.029 A 
ATOM     20  N   UNL A   1      42.461  26.609  28.203  1.00  0.00    -0.354 N 
ATOM     21  C   UNL A   1      46.648  25.945  27.360  1.00  0.00     0.074 A 
ATOM     22  C   UNL A   1      46.888  24.580  26.943  1.00  0.00     0.031 C 
ATOM     23  C   UNL A   1      40.298  26.056  28.361  1.00  0.00     0.029 A 
ATOM     24  C   UNL A   1      41.243  27.155  28.522  1.00  0.00     0.049 A 
ATOM     25  H   UNL A   1      43.304  27.118  28.225  1.00  0.00     0.167 HD
ATOM     26  C   UNL A   1      47.610  26.893  27.481  1.00  0.00     0.037 A 
ATOM     27  C   UNL A   1      40.922  28.402  28.908  1.00  0.00     0.037 A 
ATOM     28  C   UNL A   1      47.362  28.256  27.871  1.00  0.00     0.049 A 
ATOM     29  C   UNL A   1      42.007  29.429  29.036  1.00  0.00     0.074 A 
ATOM     30  C   UNL A   1      48.263  29.302  27.982  1.00  0.00     0.029 A 
ATOM     31  N   UNL A   1      46.118  28.765  28.216  1.00  0.00    -0.354 N 
ATOM     32  N   UNL A   1      43.288  29.310  28.791  1.00  0.00    -0.248 NA
ATOM     33  C   UNL A   1      41.601  30.761  29.501  1.00  0.00     0.031 C 
ATOM     34  C   UNL A   1      47.570  30.434  28.428  1.00  0.00     0.029 A 
ATOM     35  C   UNL A   1      46.231  30.103  28.557  1.00  0.00     0.049 A 
ATOM     36  H   UNL A   1      45.278  28.251  28.217  1.00  0.00     0.167 HD
ATOM     37  C   UNL A   1      43.841  30.554  29.053  1.00  0.00     0.074 A 
ATOM     38  C   UNL A   1      42.752  31.418  29.464  1.00  0.00     0.031 C 
ATOM     39  C   UNL A   1      45.136  30.947  28.962  1.00  0.00     0.037 A 
BRANCH  26  40
ATOM     40  C   UNL A   1      49.027  26.478  27.208  1.00  0.00     0.057 A 
ATOM     41  C   UNL A   1      49.601  26.579  25.935  1.00  0.00     0.134 A 
ATOM     42  C   UNL A   1      49.838  25.996  28.244  1.00  0.00     0.134 A 
ATOM     43  F   UNL A   1      48.875  27.022  24.897  1.00  0.00    -0.206 F 
ATOM     44  C   UNL A   1      50.922  26.196  25.697  1.00  0.00     0.040 A 
ATOM     45  C   UNL A   1      51.167  25.629  28.024  1.00  0.00     0.040 A 
ATOM     46  F   UNL A   1      49.352  25.877  29.490  1.00  0.00    -0.206 F 
ATOM     47  C   UNL A   1      51.711  25.724  26.745  1.00  0.00     0.006 A 
ENDBRANCH  26  40
BRANCH  27  48
ATOM     48  C   UNL A   1      39.505  28.740  29.180  1.00  0.00     0.057 A 
ATOM     49  C   UNL A   1      38.968  28.605  30.465  1.00  0.00     0.134 A 
ATOM     50  C   UNL A   1      38.669  29.240  28.176  1.00  0.00     0.134 A 
ATOM     51  F   UNL A   1      39.720  28.118  31.463  1.00  0.00    -0.206 F 
ATOM     52  C   UNL A   1      37.645  28.951  30.741  1.00  0.00     0.040 A 
ATOM     53  C   UNL A   1      37.351  29.612  28.443  1.00  0.00     0.040 A 
ATOM     54  F   UNL A   1      39.131  29.402  26.928  1.00  0.00    -0.206 F 
ATOM     55  C   UNL A   1      36.835  29.465  29.729  1.00  0.00     0.006 A 
ENDBRANCH  27  48
BRANCH  39  56
ATOM     56  C   UNL A   1      45.432  32.379  29.288  1.00  0.00     0.057 A 
ATOM     57  C   UNL A   1      45.362  33.386  28.317  1.00  0.00     0.134 A 
ATOM     58  C   UNL A   1      45.777  32.756  30.591  1.00  0.00     0.134 A 
ATOM     59  F   UNL A   1      45.053  33.085  27.047  1.00  0.00    -0.206 F 
ATOM     60  C   UNL A   1      45.647  34.715  28.627  1.00  0.00     0.040 A 
ATOM     61  C   UNL A   1      46.043  34.086  30.918  1.00  0.00     0.040 A 
ATOM     62  F   UNL A   1      45.857  31.838  31.567  1.00  0.00    -0.206 F 
ATOM     63  C   UNL A   1      45.984  35.069  29.933  1.00  0.00     0.006 A 
ENDBRANCH  39  56
ENDBRANCH  13  14
ENDBRANCH   6   8
ENDBRANCH   3   4
ENDBRANCH   2   3
ENDBRANCH   1   2
BRANCH   1  64
ATOM     64  C   UNL A   1      35.571  20.914  24.644  1.00  0.00     0.116 C 
BRANCH  64  65
ATOM     65  N   UNL A   1      34.888  20.999  25.926  1.00  0.00    -0.356 N 
ATOM     66  C   UNL A   1      33.900  21.780  26.438  1.00  0.00     0.224 C 
ATOM     67  H   UNL A   1      35.218  20.335  26.573  1.00  0.00     0.163 HD
ATOM     68  O   UNL A   1      33.628  21.565  27.625  1.00  0.00    -0.275 OA
BRANCH  66  69
ATOM     69  C   UNL A   1      33.191  22.904  25.667  1.00  0.00     0.098 C 
ATOM     70  C   UNL A   1      31.668  22.898  25.854  1.00  0.00     0.017 C 
ATOM     71  C   UNL A   1      33.882  24.261  26.053  1.00  0.00     0.133 C 
ATOM     72  C   UNL A   1      30.992  24.230  25.659  1.00  0.00     0.022 C 
ATOM     73  N   UNL A   1      33.002  25.439  25.978  1.00  0.00    -0.342 N 
ATOM     74  C   UNL A   1      31.714  25.202  26.554  1.00  0.00     0.119 C 
BRANCH  73  75
ATOM     75  C   UNL A   1      33.429  26.636  25.439  1.00  0.00     0.226 C 
ATOM     76  O   UNL A   1      34.037  27.446  26.153  1.00  0.00    -0.275 OA
BRANCH  75  77
ATOM     77  C   UNL A   1      33.172  27.041  23.956  1.00  0.00     0.090 C 
ATOM     78  C   UNL A   1      32.867  28.515  23.705  1.00  0.00     0.075 C 
ATOM     79  C   UNL A   1      32.331  26.129  23.060  1.00  0.00     0.075 C 
ATOM     80  C   UNL A   1      31.382  28.855  23.657  1.00  0.00     0.263 C 
ATOM     81  C   UNL A   1      30.874  26.548  22.804  1.00  0.00     0.263 C 
ATOM     82  N   UNL A   1      30.573  27.979  22.810  1.00  0.00    -0.329 N 
ATOM     83  H   UNL A   1      30.892  28.264  21.884  1.00  0.00     0.348 HD
BRANCH  82  84
ATOM     84  C   UNL A   1      29.117  28.249  22.917  1.00  0.00     0.338 C 
BRANCH  84  85
ATOM     85  C   UNL A   1      28.658  29.628  22.525  1.00  0.00     0.157 A 
ATOM     86  C   UNL A   1      27.953  30.620  23.185  1.00  0.00     0.052 A 
ATOM     87  O   UNL A   1      28.991  30.069  21.273  1.00  0.00    -0.463 OA
ATOM     88  C   UNL A   1      27.825  31.704  22.283  1.00  0.00     0.042 A 
ATOM     89  C   UNL A   1      28.491  31.328  21.142  1.00  0.00     0.195 A 
ENDBRANCH  84  85
ENDBRANCH  82  84
ENDBRANCH  75  77
ENDBRANCH  73  75
ENDBRANCH  66  69
ENDBRANCH  64  65
ENDBRANCH   1  64
TORSDOF 15
ENDMDL
