MODEL 1
REMARK VINA RESULT:     -12.7      0.000      0.000
REMARK SMILES CC(C)CC(=O)Nc1ccc(NC(=O)[C@@H]2CCCC[C@@H]2C(=O)NCCCCNC(=O)c2ccc(-c3c4nc(c(-c5c(F)cccc5F)c5ccc([nH]5)c(-c5c(F)cccc5F)c5nc(c(-c6c(F)cccc6F)c6ccc3[nH]6)C=C5)C=C4)cc2)cc1
REMARK SMILES IDX 24 1 23 2 21 3 22 4 20 6 15 7 16 8 17 9 19 10 18 11 13 12
REMARK SMILES IDX 12 13 14 15 11 16 8 17 9 18 86 19 10 20 85 21 7 22 5 23 6 24
REMARK SMILES IDX 4 26 2 27 1 28 3 29 25 30 26 31 27 32 28 33 29 34 30 36
REMARK SMILES IDX 31 37 32 38 84 39 33 40 83 41 34 42 35 43 36 44 77 45 37 46
REMARK SMILES IDX 82 47 76 48 78 49 38 50 81 51 75 52 74 53 39 55 65 56 48 57
REMARK SMILES IDX 64 58 49 59 52 60 63 61 79 62 50 63 51 64 62 66 80 67 53 68
REMARK SMILES IDX 40 69 41 70 46 71 42 72 43 73 45 74 47 75 44 76 66 77 67 78
REMARK SMILES IDX 72 79 68 80 69 81 71 82 73 83 70 84 54 85 55 86 60 87 56 88
REMARK SMILES IDX 57 89 59 90 61 91 58 92
REMARK H PARENT 23 5 12 14 7 25 28 35 78 54 52 65
REMARK Flexibility Score: inf
ROOT
ATOM      1  C   UNL A   1      36.852  23.049  25.732  1.00  0.00     0.116 C 
ENDROOT
BRANCH   1   2
ATOM      2  N   UNL A   1      35.902  22.296  26.513  1.00  0.00    -0.356 N 
ATOM      3  C   UNL A   1      34.547  22.339  26.551  1.00  0.00     0.223 C 
ATOM      4  O   UNL A   1      34.032  21.686  27.461  1.00  0.00    -0.275 OA
ATOM      5  H   UNL A   1      36.306  21.637  27.123  1.00  0.00     0.163 HD
BRANCH   3   6
ATOM      6  C   UNL A   1      33.707  23.075  25.479  1.00  0.00     0.091 C 
ATOM      7  C   UNL A   1      32.173  22.915  25.523  1.00  0.00     0.091 C 
ATOM      8  C   UNL A   1      31.785  21.436  25.499  1.00  0.00     0.014 C 
ATOM      9  C   UNL A   1      32.162  20.868  24.134  1.00  0.00     0.001 C 
ATOM     10  C   UNL A   1      34.145  22.531  24.089  1.00  0.00     0.014 C 
ATOM     11  C   UNL A   1      33.629  21.110  23.778  1.00  0.00     0.001 C 
BRANCH   7  12
ATOM     12  C   UNL A   1      31.417  23.691  26.570  1.00  0.00     0.228 C 
ATOM     13  N   UNL A   1      30.972  24.960  26.395  1.00  0.00    -0.326 N 
ATOM     14  H   UNL A   1      30.816  25.419  27.252  1.00  0.00     0.169 HD
ATOM     15  O   UNL A   1      31.103  23.170  27.644  1.00  0.00    -0.274 OA
BRANCH  13  16
ATOM     16  C   UNL A   1      30.678  25.780  25.295  1.00  0.00     0.041 A 
ATOM     17  C   UNL A   1      30.411  27.657  23.208  1.00  0.00     0.041 A 
ATOM     18  C   UNL A   1      29.288  27.017  23.712  1.00  0.00     0.028 A 
ATOM     19  C   UNL A   1      31.642  27.425  23.803  1.00  0.00     0.028 A 
ATOM     20  C   UNL A   1      29.427  26.059  24.737  1.00  0.00     0.028 A 
ATOM     21  C   UNL A   1      31.786  26.473  24.802  1.00  0.00     0.028 A 
BRANCH  17  22
ATOM     22  N   UNL A   1      30.324  28.559  22.141  1.00  0.00    -0.326 N 
ATOM     23  C   UNL A   1      29.703  29.792  22.181  1.00  0.00     0.224 C 
ATOM     24  O   UNL A   1      29.265  30.302  21.151  1.00  0.00    -0.275 OA
ATOM     25  H   UNL A   1      30.740  28.292  21.290  1.00  0.00     0.169 HD
BRANCH  23  26
ATOM     26  C   UNL A   1      29.811  30.582  23.491  1.00  0.00     0.103 C 
BRANCH  26  27
ATOM     27  C   UNL A   1      28.702  31.604  23.796  1.00  0.00    -0.008 C 
ATOM     28  C   UNL A   1      28.783  32.864  22.929  1.00  0.00     0.008 C 
ATOM     29  C   UNL A   1      27.341  30.945  23.543  1.00  0.00     0.008 C 
ENDBRANCH  26  27
ENDBRANCH  23  26
ENDBRANCH  17  22
ENDBRANCH  13  16
ENDBRANCH   7  12
ENDBRANCH   3   6
ENDBRANCH   1   2
BRANCH   1  30
ATOM     30  C   UNL A   1      37.425  22.168  24.626  1.00  0.00     0.023 C 
BRANCH  30  31
ATOM     31  C   UNL A   1      37.930  20.796  25.040  1.00  0.00     0.023 C 
BRANCH  31  32
ATOM     32  C   UNL A   1      39.118  20.802  25.975  1.00  0.00     0.116 C 
BRANCH  32  33
ATOM     33  N   UNL A   1      39.923  19.589  25.911  1.00  0.00    -0.352 N 
ATOM     34  C   UNL A   1      41.277  19.463  26.125  1.00  0.00     0.251 C 
ATOM     35  H   UNL A   1      39.441  18.761  25.689  1.00  0.00     0.163 HD
ATOM     36  O   UNL A   1      41.849  18.391  25.963  1.00  0.00    -0.269 OA
BRANCH  34  37
ATOM     37  C   UNL A   1      42.035  20.669  26.509  1.00  0.00     0.039 A 
ATOM     38  C   UNL A   1      42.486  21.538  25.513  1.00  0.00     0.014 A 
ATOM     39  C   UNL A   1      42.172  20.997  27.859  1.00  0.00     0.014 A 
ATOM     40  C   UNL A   1      43.002  22.784  25.875  1.00  0.00     0.010 A 
ATOM     41  C   UNL A   1      42.580  22.275  28.208  1.00  0.00     0.010 A 
ATOM     42  C   UNL A   1      43.008  23.179  27.222  1.00  0.00    -0.014 A 
BRANCH  42  43
ATOM     43  C   UNL A   1      43.491  24.515  27.651  1.00  0.00     0.031 A 
ATOM     44  C   UNL A   1      42.486  25.556  28.063  1.00  0.00     0.074 A 
ATOM     45  C   UNL A   1      44.799  24.826  27.575  1.00  0.00     0.049 A 
ATOM     46  N   UNL A   1      42.661  26.828  28.307  1.00  0.00    -0.248 NA
ATOM     47  C   UNL A   1      41.085  25.112  28.162  1.00  0.00     0.031 C 
ATOM     48  C   UNL A   1      45.868  23.925  27.141  1.00  0.00     0.029 A 
ATOM     49  N   UNL A   1      45.451  26.004  27.846  1.00  0.00    -0.354 N 
ATOM     50  C   UNL A   1      41.392  27.340  28.548  1.00  0.00     0.074 A 
ATOM     51  C   UNL A   1      40.453  26.258  28.361  1.00  0.00     0.031 C 
ATOM     52  C   UNL A   1      47.043  24.574  27.199  1.00  0.00     0.029 A 
ATOM     53  C   UNL A   1      46.807  25.947  27.633  1.00  0.00     0.049 A 
ATOM     54  H   UNL A   1      44.989  26.814  28.163  1.00  0.00     0.167 HD
ATOM     55  C   UNL A   1      41.041  28.593  28.920  1.00  0.00     0.037 A 
ATOM     56  C   UNL A   1      47.748  26.900  27.765  1.00  0.00     0.037 A 
ATOM     57  C   UNL A   1      41.984  29.649  29.163  1.00  0.00     0.049 A 
ATOM     58  C   UNL A   1      47.339  28.278  28.214  1.00  0.00     0.074 A 
ATOM     59  C   UNL A   1      41.741  30.935  29.613  1.00  0.00     0.029 A 
ATOM     60  N   UNL A   1      43.355  29.535  28.990  1.00  0.00    -0.354 N 
ATOM     61  N   UNL A   1      46.143  28.736  28.489  1.00  0.00    -0.248 NA
ATOM     62  C   UNL A   1      48.413  29.268  28.376  1.00  0.00     0.031 C 
ATOM     63  C   UNL A   1      42.965  31.609  29.685  1.00  0.00     0.029 A 
ATOM     64  C   UNL A   1      43.972  30.730  29.318  1.00  0.00     0.049 A 
ATOM     65  H   UNL A   1      43.821  28.725  28.680  1.00  0.00     0.167 HD
ATOM     66  C   UNL A   1      46.322  30.054  28.888  1.00  0.00     0.074 A 
ATOM     67  C   UNL A   1      47.744  30.320  28.826  1.00  0.00     0.031 C 
ATOM     68  C   UNL A   1      45.392  30.963  29.271  1.00  0.00     0.037 A 
BRANCH  55  69
ATOM     69  C   UNL A   1      39.578  28.873  29.099  1.00  0.00     0.057 A 
ATOM     70  C   UNL A   1      38.938  28.700  30.332  1.00  0.00     0.134 A 
ATOM     71  C   UNL A   1      38.802  29.327  28.026  1.00  0.00     0.134 A 
ATOM     72  F   UNL A   1      39.622  28.250  31.397  1.00  0.00    -0.206 F 
ATOM     73  C   UNL A   1      37.571  28.935  30.486  1.00  0.00     0.040 A 
ATOM     74  C   UNL A   1      37.439  29.595  28.174  1.00  0.00     0.040 A 
ATOM     75  F   UNL A   1      39.352  29.518  26.817  1.00  0.00    -0.206 F 
ATOM     76  C   UNL A   1      36.818  29.391  29.404  1.00  0.00     0.006 A 
ENDBRANCH  55  69
BRANCH  56  77
ATOM     77  C   UNL A   1      49.175  26.583  27.502  1.00  0.00     0.057 A 
ATOM     78  C   UNL A   1      49.716  26.721  26.218  1.00  0.00     0.134 A 
ATOM     79  C   UNL A   1      50.028  26.126  28.514  1.00  0.00     0.134 A 
ATOM     80  F   UNL A   1      48.944  27.137  25.203  1.00  0.00    -0.206 F 
ATOM     81  C   UNL A   1      51.045  26.398  25.944  1.00  0.00     0.040 A 
ATOM     82  C   UNL A   1      51.365  25.820  28.259  1.00  0.00     0.040 A 
ATOM     83  F   UNL A   1      49.572  25.978  29.766  1.00  0.00    -0.206 F 
ATOM     84  C   UNL A   1      51.875  25.948  26.968  1.00  0.00     0.006 A 
ENDBRANCH  56  77
BRANCH  68  85
ATOM     85  C   UNL A   1      45.886  32.311  29.703  1.00  0.00     0.057 A 
ATOM     86  C   UNL A   1      46.265  32.571  31.025  1.00  0.00     0.134 A 
ATOM     87  C   UNL A   1      46.038  33.343  28.768  1.00  0.00     0.134 A 
ATOM     88  F   UNL A   1      46.133  31.627  31.969  1.00  0.00    -0.206 F 
ATOM     89  C   UNL A   1      46.762  33.818  31.407  1.00  0.00     0.040 A 
ATOM     90  C   UNL A   1      46.557  34.586  29.132  1.00  0.00     0.040 A 
ATOM     91  F   UNL A   1      45.703  33.153  27.483  1.00  0.00    -0.206 F 
ATOM     92  C   UNL A   1      46.917  34.827  30.456  1.00  0.00     0.006 A 
ENDBRANCH  68  85
ENDBRANCH  42  43
ENDBRANCH  34  37
ENDBRANCH  32  33
ENDBRANCH  31  32
ENDBRANCH  30  31
ENDBRANCH   1  30
TORSDOF 16
ENDMDL
MODEL 2
REMARK VINA RESULT:     -12.7      0.705      6.018
REMARK SMILES CC(C)CC(=O)Nc1ccc(NC(=O)[C@@H]2CCCC[C@@H]2C(=O)NCCCCNC(=O)c2ccc(-c3c4nc(c(-c5c(F)cccc5F)c5ccc([nH]5)c(-c5c(F)cccc5F)c5nc(c(-c6c(F)cccc6F)c6ccc3[nH]6)C=C5)C=C4)cc2)cc1
REMARK SMILES IDX 24 1 23 2 21 3 22 4 20 6 15 7 16 8 17 9 19 10 18 11 13 12
REMARK SMILES IDX 12 13 14 15 11 16 8 17 9 18 86 19 10 20 85 21 7 22 5 23 6 24
REMARK SMILES IDX 4 26 2 27 1 28 3 29 25 30 26 31 27 32 28 33 29 34 30 36
REMARK SMILES IDX 31 37 32 38 84 39 33 40 83 41 34 42 35 43 36 44 77 45 37 46
REMARK SMILES IDX 82 47 76 48 78 49 38 50 81 51 75 52 74 53 39 55 65 56 48 57
REMARK SMILES IDX 64 58 49 59 52 60 63 61 79 62 50 63 51 64 62 66 80 67 53 68
REMARK SMILES IDX 40 69 41 70 46 71 42 72 43 73 45 74 47 75 44 76 66 77 67 78
REMARK SMILES IDX 72 79 68 80 69 81 71 82 73 83 70 84 54 85 55 86 60 87 56 88
REMARK SMILES IDX 57 89 59 90 61 91 58 92
REMARK H PARENT 23 5 12 14 7 25 28 35 78 54 52 65
REMARK Flexibility Score: inf
ROOT
ATOM      1  C   UNL A   1      36.984  22.342  25.654  1.00  0.00     0.116 C 
ENDROOT
BRANCH   1   2
ATOM      2  N   UNL A   1      35.942  21.779  26.476  1.00  0.00    -0.356 N 
ATOM      3  C   UNL A   1      34.621  22.072  26.565  1.00  0.00     0.223 C 
ATOM      4  O   UNL A   1      34.030  21.527  27.500  1.00  0.00    -0.275 OA
ATOM      5  H   UNL A   1      36.241  21.057  27.076  1.00  0.00     0.163 HD
BRANCH   3   6
ATOM      6  C   UNL A   1      33.890  22.949  25.520  1.00  0.00     0.091 C 
ATOM      7  C   UNL A   1      32.350  23.017  25.579  1.00  0.00     0.091 C 
ATOM      8  C   UNL A   1      31.746  21.613  25.527  1.00  0.00     0.014 C 
ATOM      9  C   UNL A   1      32.023  21.028  24.146  1.00  0.00     0.001 C 
ATOM     10  C   UNL A   1      34.231  22.379  24.114  1.00  0.00     0.014 C 
ATOM     11  C   UNL A   1      33.507  21.057  23.778  1.00  0.00     0.001 C 
BRANCH   7  12
ATOM     12  C   UNL A   1      31.726  23.872  26.651  1.00  0.00     0.228 C 
ATOM     13  N   UNL A   1      31.313  25.148  26.455  1.00  0.00    -0.326 N 
ATOM     14  H   UNL A   1      31.257  25.653  27.298  1.00  0.00     0.169 HD
ATOM     15  O   UNL A   1      31.498  23.416  27.776  1.00  0.00    -0.274 OA
BRANCH  13  16
ATOM     16  C   UNL A   1      30.944  25.927  25.348  1.00  0.00     0.041 A 
ATOM     17  C   UNL A   1      30.523  27.738  23.228  1.00  0.00     0.041 A 
ATOM     18  C   UNL A   1      29.446  27.064  23.787  1.00  0.00     0.028 A 
ATOM     19  C   UNL A   1      31.783  27.572  23.781  1.00  0.00     0.028 A 
ATOM     20  C   UNL A   1      29.664  26.138  24.830  1.00  0.00     0.028 A 
ATOM     21  C   UNL A   1      32.003  26.654  24.798  1.00  0.00     0.028 A 
BRANCH  17  22
ATOM     22  N   UNL A   1      30.358  28.607  22.143  1.00  0.00    -0.326 N 
ATOM     23  C   UNL A   1      29.675  29.807  22.173  1.00  0.00     0.224 C 
ATOM     24  O   UNL A   1      29.182  30.269  21.145  1.00  0.00    -0.275 OA
ATOM     25  H   UNL A   1      30.763  28.341  21.286  1.00  0.00     0.169 HD
BRANCH  23  26
ATOM     26  C   UNL A   1      29.779  30.633  23.460  1.00  0.00     0.103 C 
BRANCH  26  27
ATOM     27  C   UNL A   1      28.698  31.700  23.708  1.00  0.00    -0.008 C 
ATOM     28  C   UNL A   1      28.733  32.847  22.693  1.00  0.00     0.008 C 
ATOM     29  C   UNL A   1      27.320  31.035  23.617  1.00  0.00     0.008 C 
ENDBRANCH  26  27
ENDBRANCH  23  26
ENDBRANCH  17  22
ENDBRANCH  13  16
ENDBRANCH   7  12
ENDBRANCH   3   6
ENDBRANCH   1   2
BRANCH   1  30
ATOM     30  C   UNL A   1      37.380  21.346  24.569  1.00  0.00     0.023 C 
BRANCH  30  31
ATOM     31  C   UNL A   1      38.100  20.088  25.027  1.00  0.00     0.023 C 
BRANCH  31  32
ATOM     32  C   UNL A   1      39.295  20.321  25.922  1.00  0.00     0.116 C 
BRANCH  32  33
ATOM     33  N   UNL A   1      40.272  19.240  25.893  1.00  0.00    -0.352 N 
ATOM     34  C   UNL A   1      41.625  19.318  26.131  1.00  0.00     0.251 C 
ATOM     35  H   UNL A   1      39.920  18.346  25.678  1.00  0.00     0.163 HD
ATOM     36  O   UNL A   1      42.351  18.340  25.997  1.00  0.00    -0.269 OA
BRANCH  34  37
ATOM     37  C   UNL A   1      42.190  20.629  26.504  1.00  0.00     0.039 A 
ATOM     38  C   UNL A   1      42.617  21.500  25.499  1.00  0.00     0.014 A 
ATOM     39  C   UNL A   1      42.164  21.036  27.839  1.00  0.00     0.014 A 
ATOM     40  C   UNL A   1      42.939  22.818  25.829  1.00  0.00     0.010 A 
ATOM     41  C   UNL A   1      42.378  22.371  28.145  1.00  0.00     0.010 A 
ATOM     42  C   UNL A   1      42.776  23.274  27.147  1.00  0.00    -0.014 A 
BRANCH  42  43
ATOM     43  C   UNL A   1      43.049  24.681  27.534  1.00  0.00     0.031 A 
ATOM     44  C   UNL A   1      44.476  25.127  27.699  1.00  0.00     0.074 A 
ATOM     45  C   UNL A   1      42.037  25.516  27.834  1.00  0.00     0.049 A 
ATOM     46  N   UNL A   1      44.945  26.244  28.191  1.00  0.00    -0.248 NA
ATOM     47  C   UNL A   1      45.516  24.162  27.303  1.00  0.00     0.031 C 
ATOM     48  C   UNL A   1      40.611  25.190  27.766  1.00  0.00     0.029 A 
ATOM     49  N   UNL A   1      42.057  26.816  28.278  1.00  0.00    -0.354 N 
ATOM     50  C   UNL A   1      46.327  26.096  28.201  1.00  0.00     0.074 A 
ATOM     51  C   UNL A   1      46.617  24.763  27.724  1.00  0.00     0.031 C 
ATOM     52  C   UNL A   1      39.895  26.268  28.130  1.00  0.00     0.029 A 
ATOM     53  C   UNL A   1      40.808  27.345  28.496  1.00  0.00     0.049 A 
ATOM     54  H   UNL A   1      42.890  27.321  28.425  1.00  0.00     0.167 HD
ATOM     55  C   UNL A   1      47.272  27.000  28.547  1.00  0.00     0.037 A 
ATOM     56  C   UNL A   1      40.446  28.560  28.949  1.00  0.00     0.037 A 
ATOM     57  C   UNL A   1      46.980  28.345  28.963  1.00  0.00     0.049 A 
ATOM     58  C   UNL A   1      41.515  29.562  29.296  1.00  0.00     0.074 A 
ATOM     59  C   UNL A   1      47.864  29.364  29.268  1.00  0.00     0.029 A 
ATOM     60  N   UNL A   1      45.702  28.860  29.118  1.00  0.00    -0.354 N 
ATOM     61  N   UNL A   1      42.818  29.429  29.251  1.00  0.00    -0.248 NA
ATOM     62  C   UNL A   1      41.061  30.884  29.751  1.00  0.00     0.031 C 
ATOM     63  C   UNL A   1      47.120  30.490  29.636  1.00  0.00     0.029 A 
ATOM     64  C   UNL A   1      45.773  30.182  29.520  1.00  0.00     0.049 A 
ATOM     65  H   UNL A   1      44.868  28.360  28.964  1.00  0.00     0.167 HD
ATOM     66  C   UNL A   1      43.339  30.656  29.638  1.00  0.00     0.074 A 
ATOM     67  C   UNL A   1      42.211  31.523  29.908  1.00  0.00     0.031 C 
ATOM     68  C   UNL A   1      44.636  31.033  29.760  1.00  0.00     0.037 A 
BRANCH  55  69
ATOM     69  C   UNL A   1      48.704  26.561  28.473  1.00  0.00     0.057 A 
ATOM     70  C   UNL A   1      49.364  26.004  29.576  1.00  0.00     0.134 A 
ATOM     71  C   UNL A   1      49.430  26.689  27.283  1.00  0.00     0.134 A 
ATOM     72  F   UNL A   1      48.730  25.869  30.751  1.00  0.00    -0.206 F 
ATOM     73  C   UNL A   1      50.705  25.623  29.509  1.00  0.00     0.040 A 
ATOM     74  C   UNL A   1      50.764  26.284  27.195  1.00  0.00     0.040 A 
ATOM     75  F   UNL A   1      48.858  27.211  26.187  1.00  0.00    -0.206 F 
ATOM     76  C   UNL A   1      51.407  25.758  28.312  1.00  0.00     0.006 A 
ENDBRANCH  55  69
BRANCH  56  77
ATOM     77  C   UNL A   1      39.009  28.914  29.072  1.00  0.00     0.057 A 
ATOM     78  C   UNL A   1      38.310  29.462  27.990  1.00  0.00     0.134 A 
ATOM     79  C   UNL A   1      38.304  28.729  30.267  1.00  0.00     0.134 A 
ATOM     80  F   UNL A   1      38.936  29.681  26.824  1.00  0.00    -0.206 F 
ATOM     81  C   UNL A   1      36.968  29.830  28.095  1.00  0.00     0.040 A 
ATOM     82  C   UNL A   1      36.955  29.072  30.380  1.00  0.00     0.040 A 
ATOM     83  F   UNL A   1      38.914  28.203  31.338  1.00  0.00    -0.206 F 
ATOM     84  C   UNL A   1      36.286  29.632  29.293  1.00  0.00     0.006 A 
ENDBRANCH  56  77
BRANCH  68  85
ATOM     85  C   UNL A   1      44.906  32.454  30.152  1.00  0.00     0.057 A 
ATOM     86  C   UNL A   1      45.011  33.476  29.201  1.00  0.00     0.134 A 
ATOM     87  C   UNL A   1      45.003  32.810  31.503  1.00  0.00     0.134 A 
ATOM     88  F   UNL A   1      44.937  33.197  27.891  1.00  0.00    -0.206 F 
ATOM     89  C   UNL A   1      45.222  34.802  29.580  1.00  0.00     0.040 A 
ATOM     90  C   UNL A   1      45.189  34.136  31.895  1.00  0.00     0.040 A 
ATOM     91  F   UNL A   1      44.901  31.878  32.462  1.00  0.00    -0.206 F 
ATOM     92  C   UNL A   1      45.302  35.136  30.932  1.00  0.00     0.006 A 
ENDBRANCH  68  85
ENDBRANCH  42  43
ENDBRANCH  34  37
ENDBRANCH  32  33
ENDBRANCH  31  32
ENDBRANCH  30  31
ENDBRANCH   1  30
TORSDOF 16
ENDMDL
MODEL 3
REMARK VINA RESULT:     -12.4      1.550      6.296
REMARK SMILES CC(C)CC(=O)Nc1ccc(NC(=O)[C@@H]2CCCC[C@@H]2C(=O)NCCCCNC(=O)c2ccc(-c3c4nc(c(-c5c(F)cccc5F)c5ccc([nH]5)c(-c5c(F)cccc5F)c5nc(c(-c6c(F)cccc6F)c6ccc3[nH]6)C=C5)C=C4)cc2)cc1
REMARK SMILES IDX 24 1 23 2 21 3 22 4 20 6 15 7 16 8 17 9 19 10 18 11 13 12
REMARK SMILES IDX 12 13 14 15 11 16 8 17 9 18 86 19 10 20 85 21 7 22 5 23 6 24
REMARK SMILES IDX 4 26 2 27 1 28 3 29 25 30 26 31 27 32 28 33 29 34 30 36
REMARK SMILES IDX 31 37 32 38 84 39 33 40 83 41 34 42 35 43 36 44 77 45 37 46
REMARK SMILES IDX 82 47 76 48 78 49 38 50 81 51 75 52 74 53 39 55 65 56 48 57
REMARK SMILES IDX 64 58 49 59 52 60 63 61 79 62 50 63 51 64 62 66 80 67 53 68
REMARK SMILES IDX 40 69 41 70 46 71 42 72 43 73 45 74 47 75 44 76 66 77 67 78
REMARK SMILES IDX 72 79 68 80 69 81 71 82 73 83 70 84 54 85 55 86 60 87 56 88
REMARK SMILES IDX 57 89 59 90 61 91 58 92
REMARK H PARENT 23 5 12 14 7 25 28 35 78 54 52 65
REMARK Flexibility Score: inf
ROOT
ATOM      1  C   UNL A   1      37.128  23.435  26.015  1.00  0.00     0.116 C 
ENDROOT
BRANCH   1   2
ATOM      2  N   UNL A   1      36.226  22.393  26.436  1.00  0.00    -0.356 N 
ATOM      3  C   UNL A   1      34.878  22.284  26.331  1.00  0.00     0.223 C 
ATOM      4  O   UNL A   1      34.383  21.343  26.955  1.00  0.00    -0.275 OA
ATOM      5  H   UNL A   1      36.664  21.628  26.876  1.00  0.00     0.163 HD
BRANCH   3   6
ATOM      6  C   UNL A   1      34.036  23.214  25.424  1.00  0.00     0.091 C 
ATOM      7  C   UNL A   1      32.501  23.180  25.576  1.00  0.00     0.091 C 
ATOM      8  C   UNL A   1      31.975  21.753  25.413  1.00  0.00     0.014 C 
ATOM      9  C   UNL A   1      32.199  21.326  23.966  1.00  0.00     0.001 C 
ATOM     10  C   UNL A   1      34.321  22.809  23.950  1.00  0.00     0.014 C 
ATOM     11  C   UNL A   1      33.653  21.484  23.521  1.00  0.00     0.001 C 
BRANCH   7  12
ATOM     12  C   UNL A   1      31.898  23.883  26.763  1.00  0.00     0.228 C 
ATOM     13  N   UNL A   1      31.759  25.228  26.854  1.00  0.00    -0.326 N 
ATOM     14  H   UNL A   1      31.676  25.530  27.788  1.00  0.00     0.169 HD
ATOM     15  O   UNL A   1      31.430  23.244  27.711  1.00  0.00    -0.274 OA
BRANCH  13  16
ATOM     16  C   UNL A   1      31.704  26.298  25.947  1.00  0.00     0.041 A 
ATOM     17  C   UNL A   1      31.604  28.156  23.829  1.00  0.00     0.041 A 
ATOM     18  C   UNL A   1      32.209  28.504  25.028  1.00  0.00     0.028 A 
ATOM     19  C   UNL A   1      31.132  26.862  23.663  1.00  0.00     0.028 A 
ATOM     20  C   UNL A   1      32.234  27.582  26.095  1.00  0.00     0.028 A 
ATOM     21  C   UNL A   1      31.143  25.957  24.714  1.00  0.00     0.028 A 
BRANCH  17  22
ATOM     22  N   UNL A   1      31.493  29.067  22.772  1.00  0.00    -0.326 N 
ATOM     23  C   UNL A   1      30.321  29.659  22.343  1.00  0.00     0.224 C 
ATOM     24  O   UNL A   1      30.212  30.054  21.183  1.00  0.00    -0.275 OA
ATOM     25  H   UNL A   1      32.320  29.307  22.295  1.00  0.00     0.169 HD
BRANCH  23  26
ATOM     26  C   UNL A   1      29.290  30.018  23.419  1.00  0.00     0.103 C 
BRANCH  26  27
ATOM     27  C   UNL A   1      27.826  30.180  22.971  1.00  0.00    -0.008 C 
ATOM     28  C   UNL A   1      26.973  28.932  23.222  1.00  0.00     0.008 C 
ATOM     29  C   UNL A   1      27.198  31.342  23.748  1.00  0.00     0.008 C 
ENDBRANCH  26  27
ENDBRANCH  23  26
ENDBRANCH  17  22
ENDBRANCH  13  16
ENDBRANCH   7  12
ENDBRANCH   3   6
ENDBRANCH   1   2
BRANCH   1  30
ATOM     30  C   UNL A   1      38.521  22.854  25.792  1.00  0.00     0.023 C 
BRANCH  30  31
ATOM     31  C   UNL A   1      38.593  21.391  25.389  1.00  0.00     0.023 C 
BRANCH  31  32
ATOM     32  C   UNL A   1      39.172  20.464  26.434  1.00  0.00     0.116 C 
BRANCH  32  33
ATOM     33  N   UNL A   1      40.203  19.571  25.921  1.00  0.00    -0.352 N 
ATOM     34  C   UNL A   1      41.559  19.794  25.860  1.00  0.00     0.251 C 
ATOM     35  H   UNL A   1      39.891  18.702  25.578  1.00  0.00     0.163 HD
ATOM     36  O   UNL A   1      42.313  18.985  25.331  1.00  0.00    -0.269 OA
BRANCH  34  37
ATOM     37  C   UNL A   1      42.079  21.062  26.407  1.00  0.00     0.039 A 
ATOM     38  C   UNL A   1      42.440  22.087  25.531  1.00  0.00     0.014 A 
ATOM     39  C   UNL A   1      42.075  21.269  27.787  1.00  0.00     0.014 A 
ATOM     40  C   UNL A   1      42.716  23.357  26.042  1.00  0.00     0.010 A 
ATOM     41  C   UNL A   1      42.241  22.555  28.280  1.00  0.00     0.010 A 
ATOM     42  C   UNL A   1      42.572  23.610  27.415  1.00  0.00    -0.014 A 
BRANCH  42  43
ATOM     43  C   UNL A   1      42.797  24.957  27.997  1.00  0.00     0.031 A 
ATOM     44  C   UNL A   1      44.171  25.315  28.494  1.00  0.00     0.074 A 
ATOM     45  C   UNL A   1      41.767  25.806  28.174  1.00  0.00     0.049 A 
ATOM     46  N   UNL A   1      44.558  26.355  29.186  1.00  0.00    -0.248 NA
ATOM     47  C   UNL A   1      45.244  24.345  28.215  1.00  0.00     0.031 C 
ATOM     48  C   UNL A   1      40.378  25.558  27.785  1.00  0.00     0.029 A 
ATOM     49  N   UNL A   1      41.731  27.054  28.748  1.00  0.00    -0.354 N 
ATOM     50  C   UNL A   1      45.904  26.141  29.459  1.00  0.00     0.074 A 
ATOM     51  C   UNL A   1      46.250  24.849  28.911  1.00  0.00     0.031 C 
ATOM     52  C   UNL A   1      39.632  26.627  28.109  1.00  0.00     0.029 A 
ATOM     53  C   UNL A   1      40.478  27.618  28.764  1.00  0.00     0.049 A 
ATOM     54  H   UNL A   1      42.529  27.501  29.113  1.00  0.00     0.167 HD
ATOM     55  C   UNL A   1      46.781  26.960  30.083  1.00  0.00     0.037 A 
ATOM     56  C   UNL A   1      40.064  28.798  29.261  1.00  0.00     0.037 A 
ATOM     57  C   UNL A   1      46.447  28.269  30.572  1.00  0.00     0.049 A 
ATOM     58  C   UNL A   1      41.064  29.708  29.921  1.00  0.00     0.074 A 
ATOM     59  C   UNL A   1      47.276  29.210  31.156  1.00  0.00     0.029 A 
ATOM     60  N   UNL A   1      45.179  28.827  30.519  1.00  0.00    -0.354 N 
ATOM     61  N   UNL A   1      42.345  29.519  30.126  1.00  0.00    -0.248 NA
ATOM     62  C   UNL A   1      40.562  30.999  30.413  1.00  0.00     0.031 C 
ATOM     63  C   UNL A   1      46.502  30.328  31.483  1.00  0.00     0.029 A 
ATOM     64  C   UNL A   1      45.201  30.098  31.066  1.00  0.00     0.049 A 
ATOM     65  H   UNL A   1      44.381  28.385  30.148  1.00  0.00     0.167 HD
ATOM     66  C   UNL A   1      42.808  30.675  30.739  1.00  0.00     0.074 A 
ATOM     67  C   UNL A   1      41.673  31.565  30.866  1.00  0.00     0.031 C 
ATOM     68  C   UNL A   1      44.062  30.975  31.160  1.00  0.00     0.037 A 
BRANCH  55  69
ATOM     69  C   UNL A   1      48.186  26.462  30.253  1.00  0.00     0.057 A 
ATOM     70  C   UNL A   1      49.168  26.671  29.276  1.00  0.00     0.134 A 
ATOM     71  C   UNL A   1      48.564  25.770  31.410  1.00  0.00     0.134 A 
ATOM     72  F   UNL A   1      48.867  27.311  28.135  1.00  0.00    -0.206 F 
ATOM     73  C   UNL A   1      50.466  26.180  29.427  1.00  0.00     0.040 A 
ATOM     74  C   UNL A   1      49.867  25.301  31.587  1.00  0.00     0.040 A 
ATOM     75  F   UNL A   1      47.675  25.539  32.388  1.00  0.00    -0.206 F 
ATOM     76  C   UNL A   1      50.820  25.497  30.590  1.00  0.00     0.006 A 
ENDBRANCH  55  69
BRANCH  56  77
ATOM     77  C   UNL A   1      38.642  29.207  29.129  1.00  0.00     0.057 A 
ATOM     78  C   UNL A   1      37.769  29.133  30.222  1.00  0.00     0.134 A 
ATOM     79  C   UNL A   1      38.117  29.666  27.915  1.00  0.00     0.134 A 
ATOM     80  F   UNL A   1      38.210  28.683  31.406  1.00  0.00    -0.206 F 
ATOM     81  C   UNL A   1      36.423  29.482  30.109  1.00  0.00     0.040 A 
ATOM     82  C   UNL A   1      36.777  30.039  27.794  1.00  0.00     0.040 A 
ATOM     83  F   UNL A   1      38.902  29.766  26.833  1.00  0.00    -0.206 F 
ATOM     84  C   UNL A   1      35.924  29.940  28.892  1.00  0.00     0.006 A 
ENDBRANCH  56  77
BRANCH  68  85
ATOM     85  C   UNL A   1      44.283  32.337  31.747  1.00  0.00     0.057 A 
ATOM     86  C   UNL A   1      44.610  33.441  30.951  1.00  0.00     0.134 A 
ATOM     87  C   UNL A   1      44.108  32.553  33.120  1.00  0.00     0.134 A 
ATOM     88  F   UNL A   1      44.801  33.295  29.631  1.00  0.00    -0.206 F 
ATOM     89  C   UNL A   1      44.774  34.711  31.504  1.00  0.00     0.040 A 
ATOM     90  C   UNL A   1      44.245  33.823  33.680  1.00  0.00     0.040 A 
ATOM     91  F   UNL A   1      43.785  31.537  33.934  1.00  0.00    -0.206 F 
ATOM     92  C   UNL A   1      44.582  34.906  32.871  1.00  0.00     0.006 A 
ENDBRANCH  68  85
ENDBRANCH  42  43
ENDBRANCH  34  37
ENDBRANCH  32  33
ENDBRANCH  31  32
ENDBRANCH  30  31
ENDBRANCH   1  30
TORSDOF 16
ENDMDL
