MODEL 1
REMARK VINA RESULT:     -12.2      0.000      0.000
REMARK SMILES O=C(CCCN1C(=O)c2ccc3c4c(ccc(c24)C1=O)C(=O)NC3=O)NCCCCNC(=O)c1ccc(-c2c3nc(c(-c4c(F)cccc4F)c4ccc([nH]4)c(-c4c(F)cccc4F)c4nc(c(-c5c(F)cccc5F)c5ccc2[nH]5)C=C4)C=C3)cc1
REMARK SMILES IDX 28 1 27 2 26 3 1 4 2 5 3 7 4 8 5 9 6 10 19 11 7 12 20 13
REMARK SMILES IDX 17 14 9 15 8 16 16 17 18 18 10 19 15 20 13 21 11 22 14 23
REMARK SMILES IDX 12 24 21 25 24 26 23 27 22 28 25 29 29 31 30 32 31 33 32 34
REMARK SMILES IDX 33 36 34 37 35 38 87 39 36 40 86 41 37 42 38 43 39 44 80 45
REMARK SMILES IDX 40 46 85 47 79 48 81 49 41 50 84 51 78 52 77 53 42 55 68 56
REMARK SMILES IDX 51 57 67 58 52 59 55 60 66 61 82 62 53 63 54 64 65 66 83 67
REMARK SMILES IDX 56 68 43 69 44 70 49 71 45 72 46 73 48 74 50 75 47 76 69 77
REMARK SMILES IDX 70 78 75 79 71 80 72 81 74 82 76 83 73 84 57 85 58 86 63 87
REMARK SMILES IDX 59 88 60 89 62 90 64 91 61 92
REMARK H PARENT 26 6 23 30 31 35 81 54 55 65
REMARK Flexibility Score: inf
ROOT
ATOM      1  C   UNL A   1      38.785  21.832  25.997  1.00  0.00     0.023 C 
ENDROOT
BRANCH   1   2
ATOM      2  C   UNL A   1      37.564  22.529  25.403  1.00  0.00     0.116 C 
BRANCH   2   3
ATOM      3  N   UNL A   1      36.388  22.354  26.226  1.00  0.00    -0.356 N 
ATOM      4  O   UNL A   1      35.519  20.624  24.990  1.00  0.00    -0.275 OA
ATOM      5  C   UNL A   1      35.432  21.413  25.924  1.00  0.00     0.220 C 
ATOM      6  H   UNL A   1      36.269  22.923  27.021  1.00  0.00     0.163 HD
BRANCH   5   7
ATOM      7  C   UNL A   1      34.239  21.451  26.848  1.00  0.00     0.102 C 
BRANCH   7   8
ATOM      8  C   UNL A   1      32.939  21.841  26.144  1.00  0.00     0.032 C 
BRANCH   8   9
ATOM      9  C   UNL A   1      33.055  22.703  24.878  1.00  0.00     0.130 C 
BRANCH   9  10
ATOM     10  N   UNL A   1      32.688  24.127  24.894  1.00  0.00    -0.274 N 
ATOM     11  C   UNL A   1      33.517  25.100  25.437  1.00  0.00     0.261 C 
ATOM     12  C   UNL A   1      31.538  24.450  24.155  1.00  0.00     0.261 C 
ATOM     13  O   UNL A   1      34.691  24.949  25.752  1.00  0.00    -0.269 OA
ATOM     14  C   UNL A   1      32.940  26.449  25.604  1.00  0.00     0.049 A 
ATOM     15  C   UNL A   1      31.193  25.888  24.016  1.00  0.00     0.049 A 
ATOM     16  O   UNL A   1      30.805  23.612  23.636  1.00  0.00    -0.269 OA
ATOM     17  C   UNL A   1      33.537  27.357  26.488  1.00  0.00     0.015 A 
ATOM     18  C   UNL A   1      31.854  26.824  24.814  1.00  0.00     0.009 A 
ATOM     19  C   UNL A   1      30.170  26.296  23.149  1.00  0.00     0.015 A 
ATOM     20  C   UNL A   1      33.074  28.669  26.552  1.00  0.00     0.015 A 
ATOM     21  C   UNL A   1      31.434  28.176  24.814  1.00  0.00     0.009 A 
ATOM     22  C   UNL A   1      29.800  27.641  23.087  1.00  0.00     0.015 A 
ATOM     23  C   UNL A   1      32.049  29.081  25.694  1.00  0.00     0.048 A 
ATOM     24  C   UNL A   1      30.421  28.573  23.928  1.00  0.00     0.048 A 
ATOM     25  C   UNL A   1      31.608  30.494  25.703  1.00  0.00     0.258 C 
ATOM     26  C   UNL A   1      30.024  30.000  23.882  1.00  0.00     0.258 C 
ATOM     27  N   UNL A   1      30.652  30.835  24.777  1.00  0.00    -0.288 N 
ATOM     28  O   UNL A   1      32.077  31.305  26.489  1.00  0.00    -0.269 OA
ATOM     29  O   UNL A   1      29.184  30.413  23.092  1.00  0.00    -0.269 OA
ATOM     30  H   UNL A   1      30.386  31.782  24.753  1.00  0.00     0.173 HD
ENDBRANCH   9  10
ENDBRANCH   8   9
ENDBRANCH   7   8
ENDBRANCH   5   7
ENDBRANCH   2   3
ENDBRANCH   1   2
BRANCH   1  31
ATOM     31  C   UNL A   1      39.244  20.576  25.249  1.00  0.00     0.023 C 
BRANCH  31  32
ATOM     32  C   UNL A   1      39.673  19.409  26.134  1.00  0.00     0.116 C 
BRANCH  32  33
ATOM     33  N   UNL A   1      40.991  18.903  25.791  1.00  0.00    -0.352 N 
ATOM     34  C   UNL A   1      42.203  19.549  25.759  1.00  0.00     0.251 C 
ATOM     35  H   UNL A   1      41.021  17.951  25.542  1.00  0.00     0.163 HD
ATOM     36  O   UNL A   1      43.186  18.979  25.293  1.00  0.00    -0.269 OA
BRANCH  34  37
ATOM     37  C   UNL A   1      42.327  20.939  26.252  1.00  0.00     0.039 A 
ATOM     38  C   UNL A   1      42.196  21.178  27.624  1.00  0.00     0.014 A 
ATOM     39  C   UNL A   1      42.551  22.006  25.378  1.00  0.00     0.014 A 
ATOM     40  C   UNL A   1      42.360  22.471  28.125  1.00  0.00     0.010 A 
ATOM     41  C   UNL A   1      42.782  23.284  25.885  1.00  0.00     0.010 A 
ATOM     42  C   UNL A   1      42.691  23.528  27.264  1.00  0.00    -0.014 A 
BRANCH  42  43
ATOM     43  C   UNL A   1      42.961  24.891  27.788  1.00  0.00     0.031 A 
ATOM     44  C   UNL A   1      44.360  25.306  28.148  1.00  0.00     0.074 A 
ATOM     45  C   UNL A   1      41.934  25.735  28.004  1.00  0.00     0.049 A 
ATOM     46  N   UNL A   1      44.777  26.423  28.690  1.00  0.00    -0.248 NA
ATOM     47  C   UNL A   1      45.428  24.328  27.889  1.00  0.00     0.031 C 
ATOM     48  C   UNL A   1      40.525  25.442  27.736  1.00  0.00     0.029 A 
ATOM     49  N   UNL A   1      41.916  27.012  28.510  1.00  0.00    -0.354 N 
ATOM     50  C   UNL A   1      46.150  26.276  28.852  1.00  0.00     0.074 A 
ATOM     51  C   UNL A   1      46.487  24.945  28.392  1.00  0.00     0.031 C 
ATOM     52  C   UNL A   1      39.783  26.512  28.062  1.00  0.00     0.029 A 
ATOM     53  C   UNL A   1      40.657  27.552  28.595  1.00  0.00     0.049 A 
ATOM     54  H   UNL A   1      42.729  27.492  28.786  1.00  0.00     0.167 HD
ATOM     55  C   UNL A   1      47.048  27.174  29.322  1.00  0.00     0.037 A 
ATOM     56  C   UNL A   1      40.249  28.749  29.060  1.00  0.00     0.037 A 
ATOM     57  C   UNL A   1      46.717  28.506  29.753  1.00  0.00     0.049 A 
ATOM     58  C   UNL A   1      41.265  29.725  29.581  1.00  0.00     0.074 A 
ATOM     59  C   UNL A   1      47.569  29.509  30.185  1.00  0.00     0.029 A 
ATOM     60  N   UNL A   1      45.431  29.022  29.808  1.00  0.00    -0.354 N 
ATOM     61  N   UNL A   1      42.567  29.595  29.667  1.00  0.00    -0.248 NA
ATOM     62  C   UNL A   1      40.757  31.016  30.066  1.00  0.00     0.031 C 
ATOM     63  C   UNL A   1      46.794  30.618  30.540  1.00  0.00     0.029 A 
ATOM     64  C   UNL A   1      45.465  30.321  30.288  1.00  0.00     0.049 A 
ATOM     65  H   UNL A   1      44.616  28.537  29.547  1.00  0.00     0.167 HD
ATOM     66  C   UNL A   1      43.034  30.795  30.189  1.00  0.00     0.074 A 
ATOM     67  C   UNL A   1      41.878  31.644  30.388  1.00  0.00     0.031 C 
ATOM     68  C   UNL A   1      44.308  31.159  30.475  1.00  0.00     0.037 A 
BRANCH  55  69
ATOM     69  C   UNL A   1      48.484  26.741  29.393  1.00  0.00     0.057 A 
ATOM     70  C   UNL A   1      49.386  27.008  28.355  1.00  0.00     0.134 A 
ATOM     71  C   UNL A   1      48.977  26.084  30.526  1.00  0.00     0.134 A 
ATOM     72  F   UNL A   1      48.975  27.625  27.237  1.00  0.00    -0.206 F 
ATOM     73  C   UNL A   1      50.724  26.614  28.432  1.00  0.00     0.040 A 
ATOM     74  C   UNL A   1      50.318  25.708  30.625  1.00  0.00     0.040 A 
ATOM     75  F   UNL A   1      48.168  25.804  31.559  1.00  0.00    -0.206 F 
ATOM     76  C   UNL A   1      51.194  25.968  29.573  1.00  0.00     0.006 A 
ENDBRANCH  55  69
BRANCH  56  77
ATOM     77  C   UNL A   1      38.807  29.100  29.039  1.00  0.00     0.057 A 
ATOM     78  C   UNL A   1      38.194  29.561  27.869  1.00  0.00     0.134 A 
ATOM     79  C   UNL A   1      38.014  28.993  30.187  1.00  0.00     0.134 A 
ATOM     80  F   UNL A   1      38.910  29.701  26.743  1.00  0.00    -0.206 F 
ATOM     81  C   UNL A   1      36.847  29.920  27.844  1.00  0.00     0.040 A 
ATOM     82  C   UNL A   1      36.660  29.328  30.171  1.00  0.00     0.040 A 
ATOM     83  F   UNL A   1      38.543  28.545  31.335  1.00  0.00    -0.206 F 
ATOM     84  C   UNL A   1      36.074  29.801  28.997  1.00  0.00     0.006 A 
ENDBRANCH  56  77
BRANCH  68  85
ATOM     85  C   UNL A   1      44.523  32.547  31.001  1.00  0.00     0.057 A 
ATOM     86  C   UNL A   1      44.550  32.822  32.373  1.00  0.00     0.134 A 
ATOM     87  C   UNL A   1      44.741  33.616  30.122  1.00  0.00     0.134 A 
ATOM     88  F   UNL A   1      44.335  31.845  33.267  1.00  0.00    -0.206 F 
ATOM     89  C   UNL A   1      44.767  34.115  32.854  1.00  0.00     0.040 A 
ATOM     90  C   UNL A   1      44.983  34.908  30.590  1.00  0.00     0.040 A 
ATOM     91  F   UNL A   1      44.735  33.420  28.795  1.00  0.00    -0.206 F 
ATOM     92  C   UNL A   1      44.991  35.161  31.960  1.00  0.00     0.006 A 
ENDBRANCH  68  85
ENDBRANCH  42  43
ENDBRANCH  34  37
ENDBRANCH  32  33
ENDBRANCH  31  32
ENDBRANCH   1  31
TORSDOF 14
ENDMDL
MODEL 2
REMARK VINA RESULT:     -12.1      4.260     10.302
REMARK SMILES O=C(CCCN1C(=O)c2ccc3c4c(ccc(c24)C1=O)C(=O)NC3=O)NCCCCNC(=O)c1ccc(-c2c3nc(c(-c4c(F)cccc4F)c4ccc([nH]4)c(-c4c(F)cccc4F)c4nc(c(-c5c(F)cccc5F)c5ccc2[nH]5)C=C4)C=C3)cc1
REMARK SMILES IDX 28 1 27 2 26 3 1 4 2 5 3 7 4 8 5 9 6 10 19 11 7 12 20 13
REMARK SMILES IDX 17 14 9 15 8 16 16 17 18 18 10 19 15 20 13 21 11 22 14 23
REMARK SMILES IDX 12 24 21 25 24 26 23 27 22 28 25 29 29 31 30 32 31 33 32 34
REMARK SMILES IDX 33 36 34 37 35 38 87 39 36 40 86 41 37 42 38 43 39 44 80 45
REMARK SMILES IDX 40 46 85 47 79 48 81 49 41 50 84 51 78 52 77 53 42 55 68 56
REMARK SMILES IDX 51 57 67 58 52 59 55 60 66 61 82 62 53 63 54 64 65 66 83 67
REMARK SMILES IDX 56 68 43 69 44 70 49 71 45 72 46 73 48 74 50 75 47 76 69 77
REMARK SMILES IDX 70 78 75 79 71 80 72 81 74 82 76 83 73 84 57 85 58 86 63 87
REMARK SMILES IDX 59 88 60 89 62 90 64 91 61 92
REMARK H PARENT 26 6 23 30 31 35 81 54 55 65
REMARK Flexibility Score: inf
ROOT
ATOM      1  C   UNL A   1      41.955  19.386  27.305  1.00  0.00     0.023 C 
ENDROOT
BRANCH   1   2
ATOM      2  C   UNL A   1      43.030  18.664  26.497  1.00  0.00     0.116 C 
BRANCH   2   3
ATOM      3  N   UNL A   1      43.870  19.588  25.770  1.00  0.00    -0.356 N 
ATOM      4  O   UNL A   1      45.553  18.076  25.373  1.00  0.00    -0.275 OA
ATOM      5  C   UNL A   1      45.101  19.211  25.285  1.00  0.00     0.220 C 
ATOM      6  H   UNL A   1      43.555  20.509  25.620  1.00  0.00     0.163 HD
BRANCH   5   7
ATOM      7  C   UNL A   1      45.864  20.342  24.639  1.00  0.00     0.102 C 
BRANCH   7   8
ATOM      8  C   UNL A   1      45.036  21.134  23.628  1.00  0.00     0.032 C 
BRANCH   8   9
ATOM      9  C   UNL A   1      44.876  22.642  23.875  1.00  0.00     0.130 C 
BRANCH   9  10
ATOM     10  N   UNL A   1      45.179  23.230  25.189  1.00  0.00    -0.274 N 
ATOM     11  C   UNL A   1      46.262  24.075  25.392  1.00  0.00     0.261 C 
ATOM     12  C   UNL A   1      44.190  23.032  26.168  1.00  0.00     0.261 C 
ATOM     13  O   UNL A   1      46.941  24.595  24.516  1.00  0.00    -0.269 OA
ATOM     14  C   UNL A   1      46.593  24.409  26.792  1.00  0.00     0.049 A 
ATOM     15  C   UNL A   1      44.368  23.718  27.473  1.00  0.00     0.049 A 
ATOM     16  O   UNL A   1      43.204  22.317  26.004  1.00  0.00    -0.269 OA
ATOM     17  C   UNL A   1      47.866  24.899  27.109  1.00  0.00     0.015 A 
ATOM     18  C   UNL A   1      45.600  24.307  27.766  1.00  0.00     0.009 A 
ATOM     19  C   UNL A   1      43.342  23.714  28.428  1.00  0.00     0.015 A 
ATOM     20  C   UNL A   1      48.140  25.336  28.403  1.00  0.00     0.015 A 
ATOM     21  C   UNL A   1      45.845  24.827  29.060  1.00  0.00     0.009 A 
ATOM     22  C   UNL A   1      43.551  24.292  29.682  1.00  0.00     0.015 A 
ATOM     23  C   UNL A   1      47.122  25.329  29.362  1.00  0.00     0.048 A 
ATOM     24  C   UNL A   1      44.803  24.832  29.999  1.00  0.00     0.048 A 
ATOM     25  C   UNL A   1      47.385  25.866  30.715  1.00  0.00     0.258 C 
ATOM     26  C   UNL A   1      45.040  25.433  31.333  1.00  0.00     0.258 C 
ATOM     27  N   UNL A   1      46.313  25.895  31.575  1.00  0.00    -0.288 N 
ATOM     28  O   UNL A   1      48.495  26.263  31.041  1.00  0.00    -0.269 OA
ATOM     29  O   UNL A   1      44.153  25.513  32.174  1.00  0.00    -0.269 OA
ATOM     30  H   UNL A   1      46.475  26.288  32.462  1.00  0.00     0.173 HD
ENDBRANCH   9  10
ENDBRANCH   8   9
ENDBRANCH   7   8
ENDBRANCH   5   7
ENDBRANCH   2   3
ENDBRANCH   1   2
BRANCH   1  31
ATOM     31  C   UNL A   1      40.776  19.921  26.485  1.00  0.00     0.023 C 
BRANCH  31  32
ATOM     32  C   UNL A   1      40.352  21.352  26.806  1.00  0.00     0.116 C 
BRANCH  32  33
ATOM     33  N   UNL A   1      39.106  21.724  26.159  1.00  0.00    -0.352 N 
ATOM     34  C   UNL A   1      38.456  22.935  26.127  1.00  0.00     0.251 C 
ATOM     35  H   UNL A   1      38.657  20.999  25.668  1.00  0.00     0.163 HD
ATOM     36  O   UNL A   1      37.328  23.008  25.648  1.00  0.00    -0.269 OA
BRANCH  34  37
ATOM     37  C   UNL A   1      39.091  24.145  26.694  1.00  0.00     0.039 A 
ATOM     38  C   UNL A   1      39.835  24.971  25.846  1.00  0.00     0.014 A 
ATOM     39  C   UNL A   1      38.977  24.462  28.050  1.00  0.00     0.014 A 
ATOM     40  C   UNL A   1      40.404  26.147  26.342  1.00  0.00     0.010 A 
ATOM     41  C   UNL A   1      39.485  25.668  28.528  1.00  0.00     0.010 A 
ATOM     42  C   UNL A   1      40.201  26.524  27.678  1.00  0.00    -0.014 A 
BRANCH  42  43
ATOM     43  C   UNL A   1      40.718  27.815  28.199  1.00  0.00     0.031 A 
ATOM     44  C   UNL A   1      39.771  28.858  28.725  1.00  0.00     0.074 A 
ATOM     45  C   UNL A   1      42.037  28.077  28.137  1.00  0.00     0.049 A 
ATOM     46  N   UNL A   1      40.029  30.070  29.148  1.00  0.00    -0.248 NA
ATOM     47  C   UNL A   1      38.344  28.501  28.756  1.00  0.00     0.031 C 
ATOM     48  C   UNL A   1      43.058  27.168  27.612  1.00  0.00     0.029 A 
ATOM     49  N   UNL A   1      42.747  29.192  28.509  1.00  0.00    -0.354 N 
ATOM     50  C   UNL A   1      38.798  30.625  29.479  1.00  0.00     0.074 A 
ATOM     51  C   UNL A   1      37.791  29.634  29.166  1.00  0.00     0.031 C 
ATOM     52  C   UNL A   1      44.262  27.754  27.713  1.00  0.00     0.029 A 
ATOM     53  C   UNL A   1      44.096  29.090  28.274  1.00  0.00     0.049 A 
ATOM     54  H   UNL A   1      42.327  29.989  28.906  1.00  0.00     0.167 HD
ATOM     55  C   UNL A   1      38.534  31.841  30.013  1.00  0.00     0.037 A 
ATOM     56  C   UNL A   1      45.088  29.977  28.479  1.00  0.00     0.037 A 
ATOM     57  C   UNL A   1      39.537  32.817  30.350  1.00  0.00     0.049 A 
ATOM     58  C   UNL A   1      44.767  31.322  29.067  1.00  0.00     0.074 A 
ATOM     59  C   UNL A   1      39.370  34.052  30.954  1.00  0.00     0.029 A 
ATOM     60  N   UNL A   1      40.895  32.669  30.112  1.00  0.00    -0.354 N 
ATOM     61  N   UNL A   1      43.607  31.808  29.435  1.00  0.00    -0.248 NA
ATOM     62  C   UNL A   1      45.895  32.242  29.273  1.00  0.00     0.031 C 
ATOM     63  C   UNL A   1      40.622  34.668  31.044  1.00  0.00     0.029 A 
ATOM     64  C   UNL A   1      41.574  33.799  30.536  1.00  0.00     0.049 A 
ATOM     65  H   UNL A   1      41.314  31.879  29.701  1.00  0.00     0.167 HD
ATOM     66  C   UNL A   1      43.868  33.075  29.941  1.00  0.00     0.074 A 
ATOM     67  C   UNL A   1      45.298  33.279  29.843  1.00  0.00     0.031 C 
ATOM     68  C   UNL A   1      42.999  33.987  30.441  1.00  0.00     0.037 A 
BRANCH  55  69
ATOM     69  C   UNL A   1      37.095  32.186  30.267  1.00  0.00     0.057 A 
ATOM     70  C   UNL A   1      36.488  31.945  31.507  1.00  0.00     0.134 A 
ATOM     71  C   UNL A   1      36.321  32.799  29.275  1.00  0.00     0.134 A 
ATOM     72  F   UNL A   1      37.172  31.351  32.496  1.00  0.00    -0.206 F 
ATOM     73  C   UNL A   1      35.152  32.279  31.741  1.00  0.00     0.040 A 
ATOM     74  C   UNL A   1      34.992  33.160  29.506  1.00  0.00     0.040 A 
ATOM     75  F   UNL A   1      36.843  33.064  28.068  1.00  0.00    -0.206 F 
ATOM     76  C   UNL A   1      34.403  32.894  30.741  1.00  0.00     0.006 A 
ENDBRANCH  55  69
BRANCH  56  77
ATOM     77  C   UNL A   1      46.487  29.617  28.139  1.00  0.00     0.057 A 
ATOM     78  C   UNL A   1      47.381  29.187  29.126  1.00  0.00     0.134 A 
ATOM     79  C   UNL A   1      46.964  29.702  26.826  1.00  0.00     0.134 A 
ATOM     80  F   UNL A   1      46.984  29.104  30.404  1.00  0.00    -0.206 F 
ATOM     81  C   UNL A   1      48.705  28.872  28.823  1.00  0.00     0.040 A 
ATOM     82  C   UNL A   1      48.280  29.370  26.505  1.00  0.00     0.040 A 
ATOM     83  F   UNL A   1      46.149  30.096  25.836  1.00  0.00    -0.206 F 
ATOM     84  C   UNL A   1      49.158  28.960  27.508  1.00  0.00     0.006 A 
ENDBRANCH  56  77
BRANCH  68  85
ATOM     85  C   UNL A   1      43.575  35.273  30.955  1.00  0.00     0.057 A 
ATOM     86  C   UNL A   1      44.042  35.402  32.268  1.00  0.00     0.134 A 
ATOM     87  C   UNL A   1      43.698  36.384  30.111  1.00  0.00     0.134 A 
ATOM     88  F   UNL A   1      43.941  34.379  33.129  1.00  0.00    -0.206 F 
ATOM     89  C   UNL A   1      44.592  36.599  32.732  1.00  0.00     0.040 A 
ATOM     90  C   UNL A   1      44.268  37.578  30.555  1.00  0.00     0.040 A 
ATOM     91  F   UNL A   1      43.277  36.325  28.839  1.00  0.00    -0.206 F 
ATOM     92  C   UNL A   1      44.712  37.689  31.872  1.00  0.00     0.006 A 
ENDBRANCH  68  85
ENDBRANCH  42  43
ENDBRANCH  34  37
ENDBRANCH  32  33
ENDBRANCH  31  32
ENDBRANCH   1  31
TORSDOF 14
ENDMDL
MODEL 3
REMARK VINA RESULT:     -12.1      2.914      9.037
REMARK SMILES O=C(CCCN1C(=O)c2ccc3c4c(ccc(c24)C1=O)C(=O)NC3=O)NCCCCNC(=O)c1ccc(-c2c3nc(c(-c4c(F)cccc4F)c4ccc([nH]4)c(-c4c(F)cccc4F)c4nc(c(-c5c(F)cccc5F)c5ccc2[nH]5)C=C4)C=C3)cc1
REMARK SMILES IDX 28 1 27 2 26 3 1 4 2 5 3 7 4 8 5 9 6 10 19 11 7 12 20 13
REMARK SMILES IDX 17 14 9 15 8 16 16 17 18 18 10 19 15 20 13 21 11 22 14 23
REMARK SMILES IDX 12 24 21 25 24 26 23 27 22 28 25 29 29 31 30 32 31 33 32 34
REMARK SMILES IDX 33 36 34 37 35 38 87 39 36 40 86 41 37 42 38 43 39 44 80 45
REMARK SMILES IDX 40 46 85 47 79 48 81 49 41 50 84 51 78 52 77 53 42 55 68 56
REMARK SMILES IDX 51 57 67 58 52 59 55 60 66 61 82 62 53 63 54 64 65 66 83 67
REMARK SMILES IDX 56 68 43 69 44 70 49 71 45 72 46 73 48 74 50 75 47 76 69 77
REMARK SMILES IDX 70 78 75 79 71 80 72 81 74 82 76 83 73 84 57 85 58 86 63 87
REMARK SMILES IDX 59 88 60 89 62 90 64 91 61 92
REMARK H PARENT 26 6 23 30 31 35 81 54 55 65
REMARK Flexibility Score: inf
ROOT
ATOM      1  C   UNL A   1      30.477  31.938  25.370  1.00  0.00     0.023 C 
ENDROOT
BRANCH   1   2
ATOM      2  C   UNL A   1      29.723  31.308  24.203  1.00  0.00     0.116 C 
BRANCH   2   3
ATOM      3  N   UNL A   1      30.311  30.052  23.795  1.00  0.00    -0.356 N 
ATOM      4  O   UNL A   1      29.234  29.961  21.769  1.00  0.00    -0.275 OA
ATOM      5  C   UNL A   1      29.985  29.460  22.597  1.00  0.00     0.220 C 
ATOM      6  H   UNL A   1      30.959  29.609  24.390  1.00  0.00     0.163 HD
BRANCH   5   7
ATOM      7  C   UNL A   1      30.631  28.110  22.398  1.00  0.00     0.102 C 
BRANCH   7   8
ATOM      8  C   UNL A   1      31.696  27.787  23.446  1.00  0.00     0.032 C 
BRANCH   8   9
ATOM      9  C   UNL A   1      31.375  26.673  24.454  1.00  0.00     0.130 C 
BRANCH   9  10
ATOM     10  N   UNL A   1      32.238  25.488  24.574  1.00  0.00    -0.274 N 
ATOM     11  C   UNL A   1      33.465  25.526  25.224  1.00  0.00     0.261 C 
ATOM     12  C   UNL A   1      31.648  24.282  24.157  1.00  0.00     0.261 C 
ATOM     13  O   UNL A   1      33.871  26.434  25.937  1.00  0.00    -0.269 OA
ATOM     14  C   UNL A   1      34.335  24.342  25.073  1.00  0.00     0.049 A 
ATOM     15  C   UNL A   1      32.414  23.029  24.382  1.00  0.00     0.049 A 
ATOM     16  O   UNL A   1      30.550  24.216  23.610  1.00  0.00    -0.269 OA
ATOM     17  C   UNL A   1      35.706  24.448  25.337  1.00  0.00     0.015 A 
ATOM     18  C   UNL A   1      33.758  23.114  24.750  1.00  0.00     0.009 A 
ATOM     19  C   UNL A   1      31.819  21.780  24.159  1.00  0.00     0.015 A 
ATOM     20  C   UNL A   1      36.506  23.307  25.322  1.00  0.00     0.015 A 
ATOM     21  C   UNL A   1      34.548  21.941  24.815  1.00  0.00     0.009 A 
ATOM     22  C   UNL A   1      32.573  20.612  24.295  1.00  0.00     0.015 A 
ATOM     23  C   UNL A   1      35.920  22.058  25.095  1.00  0.00     0.048 A 
ATOM     24  C   UNL A   1      33.935  20.696  24.608  1.00  0.00     0.048 A 
ATOM     25  C   UNL A   1      36.751  20.835  25.157  1.00  0.00     0.258 C 
ATOM     26  C   UNL A   1      34.748  19.464  24.738  1.00  0.00     0.258 C 
ATOM     27  N   UNL A   1      36.087  19.643  24.999  1.00  0.00    -0.288 N 
ATOM     28  O   UNL A   1      37.959  20.892  25.343  1.00  0.00    -0.269 OA
ATOM     29  O   UNL A   1      34.256  18.348  24.620  1.00  0.00    -0.269 OA
ATOM     30  H   UNL A   1      36.630  18.826  25.080  1.00  0.00     0.173 HD
ENDBRANCH   9  10
ENDBRANCH   8   9
ENDBRANCH   7   8
ENDBRANCH   5   7
ENDBRANCH   2   3
ENDBRANCH   1   2
BRANCH   1  31
ATOM     31  C   UNL A   1      31.367  30.976  26.164  1.00  0.00     0.023 C 
BRANCH  31  32
ATOM     32  C   UNL A   1      32.535  31.624  26.902  1.00  0.00     0.116 C 
BRANCH  32  33
ATOM     33  N   UNL A   1      32.249  32.987  27.314  1.00  0.00    -0.352 N 
ATOM     34  C   UNL A   1      32.959  33.827  28.137  1.00  0.00     0.251 C 
ATOM     35  H   UNL A   1      31.419  33.368  26.948  1.00  0.00     0.163 HD
ATOM     36  O   UNL A   1      32.469  34.898  28.486  1.00  0.00    -0.269 OA
BRANCH  34  37
ATOM     37  C   UNL A   1      34.298  33.438  28.635  1.00  0.00     0.039 A 
ATOM     38  C   UNL A   1      34.386  32.727  29.836  1.00  0.00     0.014 A 
ATOM     39  C   UNL A   1      35.462  33.783  27.943  1.00  0.00     0.014 A 
ATOM     40  C   UNL A   1      35.631  32.302  30.304  1.00  0.00     0.010 A 
ATOM     41  C   UNL A   1      36.696  33.300  28.374  1.00  0.00     0.010 A 
ATOM     42  C   UNL A   1      36.792  32.552  29.558  1.00  0.00    -0.014 A 
BRANCH  42  43
ATOM     43  C   UNL A   1      38.113  32.028  29.991  1.00  0.00     0.031 A 
ATOM     44  C   UNL A   1      38.618  30.712  29.469  1.00  0.00     0.074 A 
ATOM     45  C   UNL A   1      38.828  32.706  30.909  1.00  0.00     0.049 A 
ATOM     46  N   UNL A   1      39.707  30.059  29.791  1.00  0.00    -0.248 NA
ATOM     47  C   UNL A   1      37.779  30.028  28.474  1.00  0.00     0.031 C 
ATOM     48  C   UNL A   1      38.432  33.973  31.526  1.00  0.00     0.029 A 
ATOM     49  N   UNL A   1      40.037  32.417  31.492  1.00  0.00    -0.354 N 
ATOM     50  C   UNL A   1      39.675  28.883  29.051  1.00  0.00     0.074 A 
ATOM     51  C   UNL A   1      38.438  28.892  28.299  1.00  0.00     0.031 C 
ATOM     52  C   UNL A   1      39.387  34.361  32.386  1.00  0.00     0.029 A 
ATOM     53  C   UNL A   1      40.443  33.355  32.409  1.00  0.00     0.049 A 
ATOM     54  H   UNL A   1      40.561  31.613  31.275  1.00  0.00     0.167 HD
ATOM     55  C   UNL A   1      40.600  27.896  28.990  1.00  0.00     0.037 A 
ATOM     56  C   UNL A   1      41.541  33.397  33.189  1.00  0.00     0.037 A 
ATOM     57  C   UNL A   1      41.843  27.899  29.716  1.00  0.00     0.049 A 
ATOM     58  C   UNL A   1      42.549  32.286  33.106  1.00  0.00     0.074 A 
ATOM     59  C   UNL A   1      42.871  26.973  29.669  1.00  0.00     0.029 A 
ATOM     60  N   UNL A   1      42.226  28.876  30.622  1.00  0.00    -0.354 N 
ATOM     61  N   UNL A   1      42.536  31.212  32.354  1.00  0.00    -0.248 NA
ATOM     62  C   UNL A   1      43.728  32.395  33.977  1.00  0.00     0.031 C 
ATOM     63  C   UNL A   1      43.859  27.370  30.577  1.00  0.00     0.029 A 
ATOM     64  C   UNL A   1      43.465  28.564  31.157  1.00  0.00     0.049 A 
ATOM     65  H   UNL A   1      41.695  29.673  30.852  1.00  0.00     0.167 HD
ATOM     66  C   UNL A   1      43.714  30.533  32.641  1.00  0.00     0.074 A 
ATOM     67  C   UNL A   1      44.423  31.322  33.626  1.00  0.00     0.031 C 
ATOM     68  C   UNL A   1      44.165  29.361  32.131  1.00  0.00     0.037 A 
BRANCH  55  69
ATOM     69  C   UNL A   1      40.301  26.723  28.102  1.00  0.00     0.057 A 
ATOM     70  C   UNL A   1      40.871  26.599  26.828  1.00  0.00     0.134 A 
ATOM     71  C   UNL A   1      39.464  25.690  28.540  1.00  0.00     0.134 A 
ATOM     72  F   UNL A   1      41.673  27.560  26.344  1.00  0.00    -0.206 F 
ATOM     73  C   UNL A   1      40.598  25.500  26.010  1.00  0.00     0.040 A 
ATOM     74  C   UNL A   1      39.205  24.574  27.741  1.00  0.00     0.040 A 
ATOM     75  F   UNL A   1      38.892  25.742  29.752  1.00  0.00    -0.206 F 
ATOM     76  C   UNL A   1      39.768  24.481  26.471  1.00  0.00     0.006 A 
ENDBRANCH  55  69
BRANCH  56  77
ATOM     77  C   UNL A   1      41.754  34.542  34.109  1.00  0.00     0.057 A 
ATOM     78  C   UNL A   1      41.331  34.483  35.442  1.00  0.00     0.134 A 
ATOM     79  C   UNL A   1      42.375  35.719  33.677  1.00  0.00     0.134 A 
ATOM     80  F   UNL A   1      40.714  33.387  35.906  1.00  0.00    -0.206 F 
ATOM     81  C   UNL A   1      41.501  35.563  36.309  1.00  0.00     0.040 A 
ATOM     82  C   UNL A   1      42.571  36.798  34.539  1.00  0.00     0.040 A 
ATOM     83  F   UNL A   1      42.812  35.828  32.414  1.00  0.00    -0.206 F 
ATOM     84  C   UNL A   1      42.126  36.724  35.859  1.00  0.00     0.006 A 
ENDBRANCH  56  77
BRANCH  68  85
ATOM     85  C   UNL A   1      45.505  28.880  32.603  1.00  0.00     0.057 A 
ATOM     86  C   UNL A   1      46.693  29.260  31.968  1.00  0.00     0.134 A 
ATOM     87  C   UNL A   1      45.607  28.055  33.730  1.00  0.00     0.134 A 
ATOM     88  F   UNL A   1      46.662  30.038  30.876  1.00  0.00    -0.206 F 
ATOM     89  C   UNL A   1      47.937  28.819  32.425  1.00  0.00     0.040 A 
ATOM     90  C   UNL A   1      46.846  27.627  34.211  1.00  0.00     0.040 A 
ATOM     91  F   UNL A   1      44.508  27.660  34.389  1.00  0.00    -0.206 F 
ATOM     92  C   UNL A   1      48.015  28.006  33.555  1.00  0.00     0.006 A 
ENDBRANCH  68  85
ENDBRANCH  42  43
ENDBRANCH  34  37
ENDBRANCH  32  33
ENDBRANCH  31  32
ENDBRANCH   1  31
TORSDOF 14
ENDMDL
