MODEL 1
REMARK VINA RESULT:     -11.0      0.000      0.000
REMARK SMILES N#CCSc1nnnn1-c1ccc(C(=O)NCCCCNC(=O)c2ccc(-c3c4nc(c(-c5c(F)cccc5F)c5ccc([nH]5)c(-c5c(F)cccc5F)c5nc(c(-c6c(F)cccc6F)c6ccc3[nH]6)C=C5)C=C4)cc2)cc1
REMARK SMILES IDX 17 1 16 2 14 3 15 4 13 6 10 7 11 8 79 9 12 10 78 11 9 12
REMARK SMILES IDX 5 13 6 14 7 15 8 16 4 17 3 18 2 19 1 20 18 21 19 22 20 23
REMARK SMILES IDX 21 24 22 25 23 27 24 28 25 29 77 30 26 31 76 32 27 33 28 34
REMARK SMILES IDX 29 35 70 36 30 37 75 38 69 39 71 40 31 41 74 42 68 43 67 44
REMARK SMILES IDX 32 46 58 47 41 48 57 49 42 50 45 51 56 52 72 53 43 54 44 55
REMARK SMILES IDX 55 57 73 58 46 59 33 60 34 61 39 62 35 63 36 64 38 65 40 66
REMARK SMILES IDX 37 67 59 68 60 69 65 70 61 71 62 72 64 73 66 74 63 75 47 76
REMARK SMILES IDX 48 77 53 78 49 79 50 80 52 81 54 82 51 83
REMARK H PARENT 16 5 21 26 71 45 45 56
REMARK Flexibility Score: inf
ROOT
ATOM      1  C   UNL A   1      39.479  21.983  26.280  1.00  0.00     0.116 C 
ENDROOT
BRANCH   1   2
ATOM      2  N   UNL A   1      38.726  20.906  25.664  1.00  0.00    -0.352 N 
ATOM      3  C   UNL A   1      37.476  20.823  25.105  1.00  0.00     0.251 C 
ATOM      4  O   UNL A   1      37.149  19.732  24.636  1.00  0.00    -0.269 OA
ATOM      5  H   UNL A   1      39.218  20.054  25.642  1.00  0.00     0.163 HD
BRANCH   3   6
ATOM      6  C   UNL A   1      36.532  21.975  24.976  1.00  0.00     0.039 A 
ATOM      7  C   UNL A   1      34.547  23.962  24.879  1.00  0.00     0.069 A 
ATOM      8  C   UNL A   1      34.942  23.450  26.115  1.00  0.00     0.029 A 
ATOM      9  C   UNL A   1      35.210  23.574  23.712  1.00  0.00     0.029 A 
ATOM     10  C   UNL A   1      35.905  22.434  26.152  1.00  0.00     0.016 A 
ATOM     11  C   UNL A   1      36.233  22.625  23.778  1.00  0.00     0.016 A 
BRANCH   7  12
ATOM     12  N   UNL A   1      33.477  24.874  24.800  1.00  0.00    -0.187 N 
ATOM     13  C   UNL A   1      32.202  24.705  24.290  1.00  0.00     0.215 A 
ATOM     14  N   UNL A   1      31.588  25.865  24.282  1.00  0.00    -0.101 NA
ATOM     15  N   UNL A   1      32.466  26.753  24.857  1.00  0.00    -0.022 NA
ATOM     16  N   UNL A   1      33.580  26.145  25.247  1.00  0.00    -0.039 NA
BRANCH  13  17
ATOM     17  S   UNL A   1      31.461  23.162  23.994  1.00  0.00    -0.069 SA
BRANCH  17  18
ATOM     18  C   UNL A   1      31.498  22.423  25.662  1.00  0.00     0.198 C 
BRANCH  18  19
ATOM     19  C   UNL A   1      30.438  22.976  26.600  1.00  0.00     0.074 C 
ATOM     20  N   UNL A   1      29.558  23.436  27.377  1.00  0.00    -0.197 NA
ENDBRANCH  18  19
ENDBRANCH  17  18
ENDBRANCH  13  17
ENDBRANCH   7  12
ENDBRANCH   3   6
ENDBRANCH   1   2
BRANCH   1  21
ATOM     21  C   UNL A   1      40.846  21.497  26.774  1.00  0.00     0.023 C 
BRANCH  21  22
ATOM     22  C   UNL A   1      41.342  20.195  26.122  1.00  0.00     0.023 C 
BRANCH  22  23
ATOM     23  C   UNL A   1      42.654  19.653  26.683  1.00  0.00     0.116 C 
BRANCH  23  24
ATOM     24  N   UNL A   1      43.689  19.508  25.661  1.00  0.00    -0.352 N 
ATOM     25  C   UNL A   1      44.246  20.488  24.870  1.00  0.00     0.251 C 
ATOM     26  H   UNL A   1      44.031  18.596  25.521  1.00  0.00     0.163 HD
ATOM     27  O   UNL A   1      44.774  20.198  23.793  1.00  0.00    -0.269 OA
BRANCH  25  28
ATOM     28  C   UNL A   1      44.225  21.887  25.322  1.00  0.00     0.039 A 
ATOM     29  C   UNL A   1      43.397  22.829  24.708  1.00  0.00     0.014 A 
ATOM     30  C   UNL A   1      45.053  22.255  26.384  1.00  0.00     0.014 A 
ATOM     31  C   UNL A   1      43.345  24.120  25.227  1.00  0.00     0.010 A 
ATOM     32  C   UNL A   1      44.918  23.492  26.969  1.00  0.00     0.010 A 
ATOM     33  C   UNL A   1      44.089  24.439  26.378  1.00  0.00    -0.014 A 
BRANCH  33  34
ATOM     34  C   UNL A   1      43.838  25.695  27.084  1.00  0.00     0.031 A 
ATOM     35  C   UNL A   1      44.804  26.763  26.714  1.00  0.00     0.074 A 
ATOM     36  C   UNL A   1      42.733  25.947  27.820  1.00  0.00     0.049 A 
ATOM     37  N   UNL A   1      45.757  27.240  27.443  1.00  0.00    -0.248 NA
ATOM     38  C   UNL A   1      44.847  27.222  25.313  1.00  0.00     0.031 C 
ATOM     39  C   UNL A   1      41.563  25.080  27.995  1.00  0.00     0.029 A 
ATOM     40  N   UNL A   1      42.363  27.080  28.490  1.00  0.00    -0.354 N 
ATOM     41  C   UNL A   1      46.338  28.252  26.683  1.00  0.00     0.074 A 
ATOM     42  C   UNL A   1      45.908  28.032  25.330  1.00  0.00     0.031 C 
ATOM     43  C   UNL A   1      40.538  25.793  28.513  1.00  0.00     0.029 A 
ATOM     44  C   UNL A   1      41.018  27.118  28.857  1.00  0.00     0.049 A 
ATOM     45  H   UNL A   1      42.994  27.807  28.697  1.00  0.00     0.167 HD
ATOM     46  C   UNL A   1      46.818  29.368  27.300  1.00  0.00     0.037 A 
ATOM     47  C   UNL A   1      40.341  28.167  29.393  1.00  0.00     0.037 A 
ATOM     48  C   UNL A   1      46.979  29.125  28.717  1.00  0.00     0.049 A 
ATOM     49  C   UNL A   1      41.346  29.082  29.973  1.00  0.00     0.074 A 
ATOM     50  C   UNL A   1      47.704  28.262  29.512  1.00  0.00     0.029 A 
ATOM     51  N   UNL A   1      45.968  29.618  29.499  1.00  0.00    -0.354 N 
ATOM     52  N   UNL A   1      42.056  28.805  31.030  1.00  0.00    -0.248 NA
ATOM     53  C   UNL A   1      41.843  30.176  29.155  1.00  0.00     0.031 C 
ATOM     54  C   UNL A   1      46.880  28.008  30.652  1.00  0.00     0.029 A 
ATOM     55  C   UNL A   1      45.720  28.777  30.542  1.00  0.00     0.049 A 
ATOM     56  H   UNL A   1      45.487  30.460  29.329  1.00  0.00     0.167 HD
ATOM     57  C   UNL A   1      43.301  29.340  30.752  1.00  0.00     0.074 A 
ATOM     58  C   UNL A   1      43.061  30.309  29.686  1.00  0.00     0.031 C 
ATOM     59  C   UNL A   1      44.430  28.709  31.193  1.00  0.00     0.037 A 
BRANCH  46  60
ATOM     60  C   UNL A   1      46.606  30.786  26.779  1.00  0.00     0.057 A 
ATOM     61  C   UNL A   1      47.691  31.685  26.833  1.00  0.00     0.134 A 
ATOM     62  C   UNL A   1      45.350  31.396  26.575  1.00  0.00     0.134 A 
ATOM     63  F   UNL A   1      48.943  31.241  27.021  1.00  0.00    -0.206 F 
ATOM     64  C   UNL A   1      47.524  33.076  26.811  1.00  0.00     0.040 A 
ATOM     65  C   UNL A   1      45.179  32.783  26.503  1.00  0.00     0.040 A 
ATOM     66  F   UNL A   1      44.204  30.712  26.530  1.00  0.00    -0.206 F 
ATOM     67  C   UNL A   1      46.261  33.630  26.662  1.00  0.00     0.006 A 
ENDBRANCH  46  60
BRANCH  47  68
ATOM     68  C   UNL A   1      38.918  28.568  29.270  1.00  0.00     0.057 A 
ATOM     69  C   UNL A   1      38.070  28.586  30.391  1.00  0.00     0.134 A 
ATOM     70  C   UNL A   1      38.439  29.229  28.129  1.00  0.00     0.134 A 
ATOM     71  F   UNL A   1      38.446  28.009  31.542  1.00  0.00    -0.206 F 
ATOM     72  C   UNL A   1      36.843  29.263  30.392  1.00  0.00     0.040 A 
ATOM     73  C   UNL A   1      37.212  29.905  28.114  1.00  0.00     0.040 A 
ATOM     74  F   UNL A   1      39.187  29.326  27.020  1.00  0.00    -0.206 F 
ATOM     75  C   UNL A   1      36.417  29.941  29.254  1.00  0.00     0.006 A 
ENDBRANCH  47  68
BRANCH  59  76
ATOM     76  C   UNL A   1      44.281  27.743  32.335  1.00  0.00     0.057 A 
ATOM     77  C   UNL A   1      44.161  28.098  33.686  1.00  0.00     0.134 A 
ATOM     78  C   UNL A   1      44.176  26.381  32.026  1.00  0.00     0.134 A 
ATOM     79  F   UNL A   1      44.157  29.380  34.075  1.00  0.00    -0.206 F 
ATOM     80  C   UNL A   1      43.998  27.133  34.686  1.00  0.00     0.040 A 
ATOM     81  C   UNL A   1      43.974  25.414  33.010  1.00  0.00     0.040 A 
ATOM     82  F   UNL A   1      44.237  25.971  30.749  1.00  0.00    -0.206 F 
ATOM     83  C   UNL A   1      43.900  25.787  34.348  1.00  0.00     0.006 A 
ENDBRANCH  59  76
ENDBRANCH  33  34
ENDBRANCH  25  28
ENDBRANCH  23  24
ENDBRANCH  22  23
ENDBRANCH  21  22
ENDBRANCH   1  21
TORSDOF 15
ENDMDL
MODEL 2
REMARK VINA RESULT:     -10.8      5.144     10.151
REMARK SMILES N#CCSc1nnnn1-c1ccc(C(=O)NCCCCNC(=O)c2ccc(-c3c4nc(c(-c5c(F)cccc5F)c5ccc([nH]5)c(-c5c(F)cccc5F)c5nc(c(-c6c(F)cccc6F)c6ccc3[nH]6)C=C5)C=C4)cc2)cc1
REMARK SMILES IDX 17 1 16 2 14 3 15 4 13 6 10 7 11 8 79 9 12 10 78 11 9 12
REMARK SMILES IDX 5 13 6 14 7 15 8 16 4 17 3 18 2 19 1 20 18 21 19 22 20 23
REMARK SMILES IDX 21 24 22 25 23 27 24 28 25 29 77 30 26 31 76 32 27 33 28 34
REMARK SMILES IDX 29 35 70 36 30 37 75 38 69 39 71 40 31 41 74 42 68 43 67 44
REMARK SMILES IDX 32 46 58 47 41 48 57 49 42 50 45 51 56 52 72 53 43 54 44 55
REMARK SMILES IDX 55 57 73 58 46 59 33 60 34 61 39 62 35 63 36 64 38 65 40 66
REMARK SMILES IDX 37 67 59 68 60 69 65 70 61 71 62 72 64 73 66 74 63 75 47 76
REMARK SMILES IDX 48 77 53 78 49 79 50 80 52 81 54 82 51 83
REMARK H PARENT 16 5 21 26 71 45 45 56
REMARK Flexibility Score: inf
ROOT
ATOM      1  C   UNL A   1      33.793  33.009  27.950  1.00  0.00     0.116 C 
ENDROOT
BRANCH   1   2
ATOM      2  N   UNL A   1      34.601  31.852  28.289  1.00  0.00    -0.352 N 
ATOM      3  C   UNL A   1      34.583  30.536  27.900  1.00  0.00     0.251 C 
ATOM      4  O   UNL A   1      35.455  29.806  28.374  1.00  0.00    -0.269 OA
ATOM      5  H   UNL A   1      35.315  32.056  28.936  1.00  0.00     0.163 HD
BRANCH   3   6
ATOM      6  C   UNL A   1      33.628  29.966  26.903  1.00  0.00     0.039 A 
ATOM      7  C   UNL A   1      32.026  28.994  24.808  1.00  0.00     0.069 A 
ATOM      8  C   UNL A   1      33.346  28.557  24.918  1.00  0.00     0.029 A 
ATOM      9  C   UNL A   1      31.472  29.817  25.792  1.00  0.00     0.029 A 
ATOM     10  C   UNL A   1      34.148  29.074  25.943  1.00  0.00     0.016 A 
ATOM     11  C   UNL A   1      32.262  30.250  26.859  1.00  0.00     0.016 A 
BRANCH   7  12
ATOM     12  N   UNL A   1      31.243  28.609  23.702  1.00  0.00    -0.187 N 
ATOM     13  C   UNL A   1      30.847  27.350  23.290  1.00  0.00     0.215 A 
ATOM     14  N   UNL A   1      30.256  27.449  22.122  1.00  0.00    -0.101 NA
ATOM     15  N   UNL A   1      30.223  28.793  21.837  1.00  0.00    -0.022 NA
ATOM     16  N   UNL A   1      30.746  29.508  22.825  1.00  0.00    -0.039 NA
BRANCH  13  17
ATOM     17  S   UNL A   1      30.875  25.934  24.297  1.00  0.00    -0.069 SA
BRANCH  17  18
ATOM     18  C   UNL A   1      32.255  24.997  23.556  1.00  0.00     0.198 C 
BRANCH  18  19
ATOM     19  C   UNL A   1      33.045  25.785  22.525  1.00  0.00     0.074 C 
ATOM     20  N   UNL A   1      33.700  26.439  21.668  1.00  0.00    -0.197 NA
ENDBRANCH  18  19
ENDBRANCH  17  18
ENDBRANCH  13  17
ENDBRANCH   7  12
ENDBRANCH   3   6
ENDBRANCH   1   2
BRANCH   1  21
ATOM     21  C   UNL A   1      34.223  34.244  28.748  1.00  0.00     0.023 C 
BRANCH  21  22
ATOM     22  C   UNL A   1      33.143  35.329  28.890  1.00  0.00     0.023 C 
BRANCH  22  23
ATOM     23  C   UNL A   1      33.430  36.389  29.950  1.00  0.00     0.116 C 
BRANCH  23  24
ATOM     24  N   UNL A   1      32.608  36.228  31.148  1.00  0.00    -0.352 N 
ATOM     25  C   UNL A   1      32.722  35.277  32.137  1.00  0.00     0.251 C 
ATOM     26  H   UNL A   1      31.882  36.883  31.263  1.00  0.00     0.163 HD
ATOM     27  O   UNL A   1      31.752  34.988  32.842  1.00  0.00    -0.269 OA
BRANCH  25  28
ATOM     28  C   UNL A   1      34.015  34.614  32.363  1.00  0.00     0.039 A 
ATOM     29  C   UNL A   1      34.153  33.233  32.205  1.00  0.00     0.014 A 
ATOM     30  C   UNL A   1      35.107  35.399  32.737  1.00  0.00     0.014 A 
ATOM     31  C   UNL A   1      35.415  32.663  32.343  1.00  0.00     0.010 A 
ATOM     32  C   UNL A   1      36.372  34.857  32.759  1.00  0.00     0.010 A 
ATOM     33  C   UNL A   1      36.529  33.486  32.593  1.00  0.00    -0.014 A 
BRANCH  33  34
ATOM     34  C   UNL A   1      37.881  32.941  32.471  1.00  0.00     0.031 A 
ATOM     35  C   UNL A   1      38.620  32.950  33.762  1.00  0.00     0.074 A 
ATOM     36  C   UNL A   1      38.346  32.295  31.379  1.00  0.00     0.049 A 
ATOM     37  N   UNL A   1      39.606  33.717  34.090  1.00  0.00    -0.248 NA
ATOM     38  C   UNL A   1      38.089  32.157  34.886  1.00  0.00     0.031 C 
ATOM     39  C   UNL A   1      37.600  31.948  30.165  1.00  0.00     0.029 A 
ATOM     40  N   UNL A   1      39.562  31.711  31.156  1.00  0.00    -0.354 N 
ATOM     41  C   UNL A   1      39.991  33.305  35.364  1.00  0.00     0.074 A 
ATOM     42  C   UNL A   1      38.894  32.534  35.881  1.00  0.00     0.031 C 
ATOM     43  C   UNL A   1      38.289  31.030  29.451  1.00  0.00     0.029 A 
ATOM     44  C   UNL A   1      39.591  30.842  30.065  1.00  0.00     0.049 A 
ATOM     45  H   UNL A   1      40.350  31.889  31.718  1.00  0.00     0.167 HD
ATOM     46  C   UNL A   1      41.305  33.340  35.717  1.00  0.00     0.037 A 
ATOM     47  C   UNL A   1      40.604  30.017  29.696  1.00  0.00     0.037 A 
ATOM     48  C   UNL A   1      42.046  34.179  34.799  1.00  0.00     0.049 A 
ATOM     49  C   UNL A   1      41.836  30.533  30.331  1.00  0.00     0.074 A 
ATOM     50  C   UNL A   1      42.022  35.500  34.404  1.00  0.00     0.029 A 
ATOM     51  N   UNL A   1      42.738  33.497  33.834  1.00  0.00    -0.354 N 
ATOM     52  N   UNL A   1      42.417  31.647  29.989  1.00  0.00    -0.248 NA
ATOM     53  C   UNL A   1      42.231  29.991  31.621  1.00  0.00     0.031 C 
ATOM     54  C   UNL A   1      42.408  35.496  33.028  1.00  0.00     0.029 A 
ATOM     55  C   UNL A   1      42.720  34.187  32.658  1.00  0.00     0.049 A 
ATOM     56  H   UNL A   1      43.184  32.630  33.970  1.00  0.00     0.167 HD
ATOM     57  C   UNL A   1      42.861  32.179  31.186  1.00  0.00     0.074 A 
ATOM     58  C   UNL A   1      42.877  31.051  32.113  1.00  0.00     0.031 C 
ATOM     59  C   UNL A   1      42.858  33.533  31.375  1.00  0.00     0.037 A 
BRANCH  46  60
ATOM     60  C   UNL A   1      42.011  32.227  36.485  1.00  0.00     0.057 A 
ATOM     61  C   UNL A   1      42.917  32.590  37.502  1.00  0.00     0.134 A 
ATOM     62  C   UNL A   1      42.120  30.887  36.055  1.00  0.00     0.134 A 
ATOM     63  F   UNL A   1      42.924  33.834  38.005  1.00  0.00    -0.206 F 
ATOM     64  C   UNL A   1      43.925  31.731  37.960  1.00  0.00     0.040 A 
ATOM     65  C   UNL A   1      43.092  30.007  36.542  1.00  0.00     0.040 A 
ATOM     66  F   UNL A   1      41.370  30.370  35.078  1.00  0.00    -0.206 F 
ATOM     67  C   UNL A   1      44.025  30.438  37.468  1.00  0.00     0.006 A 
ENDBRANCH  46  60
BRANCH  47  68
ATOM     68  C   UNL A   1      40.584  28.698  29.019  1.00  0.00     0.057 A 
ATOM     69  C   UNL A   1      39.825  27.631  29.530  1.00  0.00     0.134 A 
ATOM     70  C   UNL A   1      41.054  28.541  27.705  1.00  0.00     0.134 A 
ATOM     71  F   UNL A   1      39.303  27.693  30.764  1.00  0.00    -0.206 F 
ATOM     72  C   UNL A   1      39.510  26.500  28.764  1.00  0.00     0.040 A 
ATOM     73  C   UNL A   1      40.753  27.413  26.931  1.00  0.00     0.040 A 
ATOM     74  F   UNL A   1      41.740  29.518  27.095  1.00  0.00    -0.206 F 
ATOM     75  C   UNL A   1      39.962  26.396  27.452  1.00  0.00     0.006 A 
ENDBRANCH  47  68
BRANCH  59  76
ATOM     76  C   UNL A   1      42.824  34.402  30.149  1.00  0.00     0.057 A 
ATOM     77  C   UNL A   1      41.661  34.822  29.487  1.00  0.00     0.134 A 
ATOM     78  C   UNL A   1      44.041  34.900  29.668  1.00  0.00     0.134 A 
ATOM     79  F   UNL A   1      40.443  34.476  29.924  1.00  0.00    -0.206 F 
ATOM     80  C   UNL A   1      41.716  35.655  28.364  1.00  0.00     0.040 A 
ATOM     81  C   UNL A   1      44.107  35.762  28.574  1.00  0.00     0.040 A 
ATOM     82  F   UNL A   1      45.192  34.576  30.279  1.00  0.00    -0.206 F 
ATOM     83  C   UNL A   1      42.942  36.130  27.908  1.00  0.00     0.006 A 
ENDBRANCH  59  76
ENDBRANCH  33  34
ENDBRANCH  25  28
ENDBRANCH  23  24
ENDBRANCH  22  23
ENDBRANCH  21  22
ENDBRANCH   1  21
TORSDOF 15
ENDMDL
MODEL 3
REMARK VINA RESULT:     -10.8      4.876     10.005
REMARK SMILES N#CCSc1nnnn1-c1ccc(C(=O)NCCCCNC(=O)c2ccc(-c3c4nc(c(-c5c(F)cccc5F)c5ccc([nH]5)c(-c5c(F)cccc5F)c5nc(c(-c6c(F)cccc6F)c6ccc3[nH]6)C=C5)C=C4)cc2)cc1
REMARK SMILES IDX 17 1 16 2 14 3 15 4 13 6 10 7 11 8 79 9 12 10 78 11 9 12
REMARK SMILES IDX 5 13 6 14 7 15 8 16 4 17 3 18 2 19 1 20 18 21 19 22 20 23
REMARK SMILES IDX 21 24 22 25 23 27 24 28 25 29 77 30 26 31 76 32 27 33 28 34
REMARK SMILES IDX 29 35 70 36 30 37 75 38 69 39 71 40 31 41 74 42 68 43 67 44
REMARK SMILES IDX 32 46 58 47 41 48 57 49 42 50 45 51 56 52 72 53 43 54 44 55
REMARK SMILES IDX 55 57 73 58 46 59 33 60 34 61 39 62 35 63 36 64 38 65 40 66
REMARK SMILES IDX 37 67 59 68 60 69 65 70 61 71 62 72 64 73 66 74 63 75 47 76
REMARK SMILES IDX 48 77 53 78 49 79 50 80 52 81 54 82 51 83
REMARK H PARENT 16 5 21 26 71 45 45 56
REMARK Flexibility Score: inf
ROOT
ATOM      1  C   UNL A   1      33.672  32.445  28.025  1.00  0.00     0.116 C 
ENDROOT
BRANCH   1   2
ATOM      2  N   UNL A   1      32.439  32.514  27.262  1.00  0.00    -0.352 N 
ATOM      3  C   UNL A   1      31.734  31.604  26.516  1.00  0.00     0.251 C 
ATOM      4  O   UNL A   1      30.683  31.997  26.009  1.00  0.00    -0.269 OA
ATOM      5  H   UNL A   1      32.020  33.404  27.286  1.00  0.00     0.163 HD
BRANCH   3   6
ATOM      6  C   UNL A   1      32.127  30.173  26.341  1.00  0.00     0.039 A 
ATOM      7  C   UNL A   1      32.737  27.498  25.728  1.00  0.00     0.069 A 
ATOM      8  C   UNL A   1      33.221  28.516  24.905  1.00  0.00     0.029 A 
ATOM      9  C   UNL A   1      32.054  27.811  26.905  1.00  0.00     0.029 A 
ATOM     10  C   UNL A   1      32.881  29.843  25.196  1.00  0.00     0.016 A 
ATOM     11  C   UNL A   1      31.803  29.147  27.229  1.00  0.00     0.016 A 
BRANCH   7  12
ATOM     12  N   UNL A   1      32.935  26.150  25.376  1.00  0.00    -0.187 N 
ATOM     13  C   UNL A   1      32.072  25.254  24.770  1.00  0.00     0.215 A 
ATOM     14  N   UNL A   1      32.622  24.062  24.773  1.00  0.00    -0.101 NA
ATOM     15  N   UNL A   1      33.869  24.231  25.325  1.00  0.00    -0.022 NA
ATOM     16  N   UNL A   1      34.097  25.506  25.619  1.00  0.00    -0.039 NA
BRANCH  13  17
ATOM     17  S   UNL A   1      30.640  25.709  23.898  1.00  0.00    -0.069 SA
BRANCH  17  18
ATOM     18  C   UNL A   1      31.351  26.688  22.532  1.00  0.00     0.198 C 
BRANCH  18  19
ATOM     19  C   UNL A   1      32.393  25.937  21.719  1.00  0.00     0.074 C 
ATOM     20  N   UNL A   1      33.257  25.314  21.044  1.00  0.00    -0.197 NA
ENDBRANCH  18  19
ENDBRANCH  17  18
ENDBRANCH  13  17
ENDBRANCH   7  12
ENDBRANCH   3   6
ENDBRANCH   1   2
BRANCH   1  21
ATOM     21  C   UNL A   1      34.110  33.833  28.505  1.00  0.00     0.023 C 
BRANCH  21  22
ATOM     22  C   UNL A   1      32.958  34.813  28.782  1.00  0.00     0.023 C 
BRANCH  22  23
ATOM     23  C   UNL A   1      33.352  36.070  29.553  1.00  0.00     0.116 C 
BRANCH  23  24
ATOM     24  N   UNL A   1      32.690  36.168  30.852  1.00  0.00    -0.352 N 
ATOM     25  C   UNL A   1      32.839  35.345  31.947  1.00  0.00     0.251 C 
ATOM     26  H   UNL A   1      32.060  36.916  30.958  1.00  0.00     0.163 HD
ATOM     27  O   UNL A   1      31.949  35.272  32.799  1.00  0.00    -0.269 OA
BRANCH  25  28
ATOM     28  C   UNL A   1      34.073  34.563  32.107  1.00  0.00     0.039 A 
ATOM     29  C   UNL A   1      34.079  33.181  31.909  1.00  0.00     0.014 A 
ATOM     30  C   UNL A   1      35.244  35.235  32.461  1.00  0.00     0.014 A 
ATOM     31  C   UNL A   1      35.289  32.496  31.984  1.00  0.00     0.010 A 
ATOM     32  C   UNL A   1      36.454  34.582  32.422  1.00  0.00     0.010 A 
ATOM     33  C   UNL A   1      36.481  33.208  32.215  1.00  0.00    -0.014 A 
BRANCH  33  34
ATOM     34  C   UNL A   1      37.773  32.548  32.029  1.00  0.00     0.031 A 
ATOM     35  C   UNL A   1      38.504  32.349  33.309  1.00  0.00     0.074 A 
ATOM     36  C   UNL A   1      38.176  31.976  30.873  1.00  0.00     0.049 A 
ATOM     37  N   UNL A   1      39.559  32.977  33.709  1.00  0.00    -0.248 NA
ATOM     38  C   UNL A   1      37.892  31.501  34.348  1.00  0.00     0.031 C 
ATOM     39  C   UNL A   1      37.405  31.832  29.634  1.00  0.00     0.029 A 
ATOM     40  N   UNL A   1      39.330  31.301  30.583  1.00  0.00    -0.354 N 
ATOM     41  C   UNL A   1      39.896  32.400  34.931  1.00  0.00     0.074 A 
ATOM     42  C   UNL A   1      38.727  31.691  35.372  1.00  0.00     0.031 C 
ATOM     43  C   UNL A   1      38.003  30.930  28.825  1.00  0.00     0.029 A 
ATOM     44  C   UNL A   1      39.277  30.552  29.407  1.00  0.00     0.049 A 
ATOM     45  H   UNL A   1      40.129  31.342  31.155  1.00  0.00     0.167 HD
ATOM     46  C   UNL A   1      41.206  32.268  35.278  1.00  0.00     0.037 A 
ATOM     47  C   UNL A   1      40.206  29.674  28.949  1.00  0.00     0.037 A 
ATOM     48  C   UNL A   1      42.030  33.121  34.447  1.00  0.00     0.049 A 
ATOM     49  C   UNL A   1      41.480  29.997  29.626  1.00  0.00     0.074 A 
ATOM     50  C   UNL A   1      42.138  34.472  34.192  1.00  0.00     0.029 A 
ATOM     51  N   UNL A   1      42.655  32.477  33.412  1.00  0.00    -0.354 N 
ATOM     52  N   UNL A   1      42.169  31.078  29.398  1.00  0.00    -0.248 NA
ATOM     53  C   UNL A   1      41.814  29.288  30.851  1.00  0.00     0.031 C 
ATOM     54  C   UNL A   1      42.528  34.572  32.820  1.00  0.00     0.029 A 
ATOM     55  C   UNL A   1      42.710  33.284  32.315  1.00  0.00     0.049 A 
ATOM     56  H   UNL A   1      43.013  31.561  33.455  1.00  0.00     0.167 HD
ATOM     57  C   UNL A   1      42.659  31.436  30.642  1.00  0.00     0.074 A 
ATOM     58  C   UNL A   1      42.559  30.221  31.447  1.00  0.00     0.031 C 
ATOM     59  C   UNL A   1      42.789  32.757  30.970  1.00  0.00     0.037 A 
BRANCH  46  60
ATOM     60  C   UNL A   1      41.795  31.017  35.921  1.00  0.00     0.057 A 
ATOM     61  C   UNL A   1      42.741  31.181  36.954  1.00  0.00     0.134 A 
ATOM     62  C   UNL A   1      41.759  29.722  35.362  1.00  0.00     0.134 A 
ATOM     63  F   UNL A   1      42.882  32.362  37.576  1.00  0.00    -0.206 F 
ATOM     64  C   UNL A   1      43.655  30.181  37.310  1.00  0.00     0.040 A 
ATOM     65  C   UNL A   1      42.636  28.702  35.745  1.00  0.00     0.040 A 
ATOM     66  F   UNL A   1      40.953  29.385  34.351  1.00  0.00    -0.206 F 
ATOM     67  C   UNL A   1      43.615  28.939  36.692  1.00  0.00     0.006 A 
ENDBRANCH  46  60
BRANCH  47  68
ATOM     68  C   UNL A   1      40.059  28.440  28.139  1.00  0.00     0.057 A 
ATOM     69  C   UNL A   1      40.769  28.272  26.938  1.00  0.00     0.134 A 
ATOM     70  C   UNL A   1      39.465  27.283  28.667  1.00  0.00     0.134 A 
ATOM     71  F   UNL A   1      41.399  29.308  26.365  1.00  0.00    -0.206 F 
ATOM     72  C   UNL A   1      40.922  27.020  26.326  1.00  0.00     0.040 A 
ATOM     73  C   UNL A   1      39.604  26.027  28.063  1.00  0.00     0.040 A 
ATOM     74  F   UNL A   1      38.811  27.313  29.837  1.00  0.00    -0.206 F 
ATOM     75  C   UNL A   1      40.351  25.887  26.898  1.00  0.00     0.006 A 
ENDBRANCH  47  68
BRANCH  59  76
ATOM     76  C   UNL A   1      42.845  33.747  29.841  1.00  0.00     0.057 A 
ATOM     77  C   UNL A   1      43.964  33.988  29.030  1.00  0.00     0.134 A 
ATOM     78  C   UNL A   1      41.669  34.435  29.517  1.00  0.00     0.134 A 
ATOM     79  F   UNL A   1      45.109  33.313  29.200  1.00  0.00    -0.206 F 
ATOM     80  C   UNL A   1      43.924  34.911  27.980  1.00  0.00     0.040 A 
ATOM     81  C   UNL A   1      41.606  35.328  28.449  1.00  0.00     0.040 A 
ATOM     82  F   UNL A   1      40.547  34.222  30.222  1.00  0.00    -0.206 F 
ATOM     83  C   UNL A   1      42.741  35.581  27.684  1.00  0.00     0.006 A 
ENDBRANCH  59  76
ENDBRANCH  33  34
ENDBRANCH  25  28
ENDBRANCH  23  24
ENDBRANCH  22  23
ENDBRANCH  21  22
ENDBRANCH   1  21
TORSDOF 15
ENDMDL
