MODEL 1
REMARK VINA RESULT:      -9.2      0.000      0.000
REMARK SMILES [NH3+][C@H](CC(=O)NCCCCNC(=O)c1ccc(-c2c3nc(c(-c4c(F)cccc4F)c4ccc([nH]4)c(-c4c(F)cccc4F)c4nc(c(-c5c(F)cccc5F)c5ccc2[nH]5)C=C4)C=C3)cc1)c1ccccc1Br
REMARK SMILES IDX 8 1 7 2 6 3 4 4 5 5 3 7 2 8 1 9 68 13 69 14 73 15 70 16
REMARK SMILES IDX 72 17 74 18 71 19 9 20 10 21 11 22 12 23 13 25 14 26 15 27
REMARK SMILES IDX 67 28 16 29 66 30 17 31 18 32 19 33 60 34 20 35 65 36 59 37
REMARK SMILES IDX 61 38 21 39 64 40 58 41 57 42 22 44 48 45 31 46 47 47 32 48
REMARK SMILES IDX 35 49 46 50 62 51 33 52 34 53 45 55 63 56 36 57 23 58 24 59
REMARK SMILES IDX 29 60 25 61 26 62 28 63 30 64 27 65 49 66 50 67 55 68 51 69
REMARK SMILES IDX 52 70 54 71 56 72 53 73 37 74 38 75 43 76 39 77 40 78 42 79
REMARK SMILES IDX 44 80 41 81
REMARK H PARENT 6 6 1 10 1 11 1 12 11 24 61 43 35 54
REMARK Flexibility Score: inf
ROOT
ATOM      1  C   UNL A   1      45.763  21.358  24.218  1.00  0.00     0.023 C 
ENDROOT
BRANCH   1   2
ATOM      2  C   UNL A   1      45.441  22.345  25.334  1.00  0.00     0.116 C 
BRANCH   2   3
ATOM      3  N   UNL A   1      46.570  23.231  25.557  1.00  0.00    -0.356 N 
ATOM      4  C   UNL A   1      46.633  24.586  25.410  1.00  0.00     0.226 C 
ATOM      5  O   UNL A   1      47.745  25.121  25.399  1.00  0.00    -0.275 OA
ATOM      6  H   UNL A   1      47.401  22.796  25.855  1.00  0.00     0.163 HD
BRANCH   4   7
ATOM      7  C   UNL A   1      45.366  25.419  25.326  1.00  0.00     0.170 C 
BRANCH   7   8
ATOM      8  C   UNL A   1      45.575  26.948  25.396  1.00  0.00     0.222 C 
BRANCH   8   9
ATOM      9  N   UNL A   1      46.316  27.460  24.230  1.00  0.00    -0.351 N 
ATOM     10  H   UNL A   1      45.944  28.372  23.964  1.00  0.00     0.345 HD
ATOM     11  H   UNL A   1      46.214  26.811  23.451  1.00  0.00     0.345 HD
ATOM     12  H   UNL A   1      47.303  27.552  24.469  1.00  0.00     0.345 HD
ENDBRANCH   8   9
BRANCH   8  13
ATOM     13  C   UNL A   1      44.298  27.733  25.691  1.00  0.00     0.024 A 
ATOM     14  C   UNL A   1      43.042  27.244  25.269  1.00  0.00     0.011 A 
ATOM     15  C   UNL A   1      44.305  28.945  26.416  1.00  0.00     0.027 A 
ATOM     16  C   UNL A   1      41.852  27.910  25.584  1.00  0.00     0.001 A 
ATOM     17  C   UNL A   1      43.109  29.608  26.733  1.00  0.00     0.016 A 
ATOM     18  Br  UNL A   1      45.901  29.769  27.046  1.00  0.00    -0.050 Br
ATOM     19  C   UNL A   1      41.884  29.086  26.325  1.00  0.00     0.001 A 
ENDBRANCH   8  13
ENDBRANCH   7   8
ENDBRANCH   4   7
ENDBRANCH   2   3
ENDBRANCH   1   2
BRANCH   1  20
ATOM     20  C   UNL A   1      44.915  20.094  24.216  1.00  0.00     0.023 C 
BRANCH  20  21
ATOM     21  C   UNL A   1      44.218  19.829  25.540  1.00  0.00     0.116 C 
BRANCH  21  22
ATOM     22  N   UNL A   1      42.891  19.239  25.383  1.00  0.00    -0.352 N 
ATOM     23  C   UNL A   1      41.667  19.705  25.802  1.00  0.00     0.251 C 
ATOM     24  H   UNL A   1      42.869  18.378  24.907  1.00  0.00     0.163 HD
ATOM     25  O   UNL A   1      40.660  19.015  25.677  1.00  0.00    -0.269 OA
BRANCH  23  26
ATOM     26  C   UNL A   1      41.583  21.026  26.458  1.00  0.00     0.039 A 
ATOM     27  C   UNL A   1      41.404  21.086  27.842  1.00  0.00     0.014 A 
ATOM     28  C   UNL A   1      41.785  22.193  25.720  1.00  0.00     0.014 A 
ATOM     29  C   UNL A   1      41.561  22.306  28.501  1.00  0.00     0.010 A 
ATOM     30  C   UNL A   1      42.046  23.381  26.387  1.00  0.00     0.010 A 
ATOM     31  C   UNL A   1      41.960  23.445  27.787  1.00  0.00    -0.014 A 
BRANCH  31  32
ATOM     32  C   UNL A   1      42.346  24.707  28.468  1.00  0.00     0.031 A 
ATOM     33  C   UNL A   1      41.328  25.793  28.667  1.00  0.00     0.074 A 
ATOM     34  C   UNL A   1      43.639  24.925  28.783  1.00  0.00     0.049 A 
ATOM     35  N   UNL A   1      41.502  27.027  29.065  1.00  0.00    -0.248 NA
ATOM     36  C   UNL A   1      39.935  25.461  28.329  1.00  0.00     0.031 C 
ATOM     37  C   UNL A   1      44.739  23.980  28.575  1.00  0.00     0.029 A 
ATOM     38  N   UNL A   1      44.253  26.027  29.326  1.00  0.00    -0.354 N 
ATOM     39  C   UNL A   1      40.253  27.627  28.985  1.00  0.00     0.074 A 
ATOM     40  C   UNL A   1      39.338  26.637  28.459  1.00  0.00     0.031 C 
ATOM     41  C   UNL A   1      45.884  24.531  29.007  1.00  0.00     0.029 A 
ATOM     42  C   UNL A   1      45.611  25.884  29.477  1.00  0.00     0.049 A 
ATOM     43  H   UNL A   1      43.765  26.842  29.583  1.00  0.00     0.167 HD
ATOM     44  C   UNL A   1      39.895  28.884  29.337  1.00  0.00     0.037 A 
ATOM     45  C   UNL A   1      46.537  26.751  29.928  1.00  0.00     0.037 A 
ATOM     46  C   UNL A   1      40.793  29.846  29.918  1.00  0.00     0.049 A 
ATOM     47  C   UNL A   1      46.108  28.128  30.346  1.00  0.00     0.074 A 
ATOM     48  C   UNL A   1      40.505  31.106  30.408  1.00  0.00     0.029 A 
ATOM     49  N   UNL A   1      42.154  29.646  30.093  1.00  0.00    -0.354 N 
ATOM     50  N   UNL A   1      44.911  28.660  30.327  1.00  0.00    -0.248 NA
ATOM     51  C   UNL A   1      47.160  29.028  30.842  1.00  0.00     0.031 C 
ATOM     52  C   UNL A   1      41.700  31.684  30.853  1.00  0.00     0.029 A 
ATOM     53  C   UNL A   1      42.724  30.770  30.666  1.00  0.00     0.049 A 
ATOM     54  H   UNL A   1      42.642  28.828  29.845  1.00  0.00     0.167 HD
ATOM     55  C   UNL A   1      45.060  29.951  30.817  1.00  0.00     0.074 A 
ATOM     56  C   UNL A   1      46.462  30.115  31.142  1.00  0.00     0.031 C 
ATOM     57  C   UNL A   1      44.122  30.913  30.978  1.00  0.00     0.037 A 
BRANCH  44  58
ATOM     58  C   UNL A   1      38.466  29.282  29.118  1.00  0.00     0.057 A 
ATOM     59  C   UNL A   1      37.995  29.679  27.860  1.00  0.00     0.134 A 
ATOM     60  C   UNL A   1      37.547  29.250  30.173  1.00  0.00     0.134 A 
ATOM     61  F   UNL A   1      38.831  29.746  26.811  1.00  0.00    -0.206 F 
ATOM     62  C   UNL A   1      36.666  30.055  27.664  1.00  0.00     0.040 A 
ATOM     63  C   UNL A   1      36.209  29.600  29.984  1.00  0.00     0.040 A 
ATOM     64  F   UNL A   1      37.932  28.877  31.403  1.00  0.00    -0.206 F 
ATOM     65  C   UNL A   1      35.767  30.011  28.728  1.00  0.00     0.006 A 
ENDBRANCH  44  58
BRANCH  45  66
ATOM     66  C   UNL A   1      47.959  26.340  30.018  1.00  0.00     0.057 A 
ATOM     67  C   UNL A   1      48.824  26.510  28.930  1.00  0.00     0.134 A 
ATOM     68  C   UNL A   1      48.488  25.772  31.183  1.00  0.00     0.134 A 
ATOM     69  F   UNL A   1      48.369  27.032  27.782  1.00  0.00    -0.206 F 
ATOM     70  C   UNL A   1      50.161  26.116  28.992  1.00  0.00     0.040 A 
ATOM     71  C   UNL A   1      49.828  25.392  31.265  1.00  0.00     0.040 A 
ATOM     72  F   UNL A   1      47.711  25.590  32.261  1.00  0.00    -0.206 F 
ATOM     73  C   UNL A   1      50.668  25.560  30.164  1.00  0.00     0.006 A 
ENDBRANCH  45  66
BRANCH  57  74
ATOM     74  C   UNL A   1      44.580  32.225  31.538  1.00  0.00     0.057 A 
ATOM     75  C   UNL A   1      45.004  33.267  30.704  1.00  0.00     0.134 A 
ATOM     76  C   UNL A   1      44.555  32.463  32.917  1.00  0.00     0.134 A 
ATOM     77  F   UNL A   1      45.063  33.093  29.376  1.00  0.00    -0.206 F 
ATOM     78  C   UNL A   1      45.397  34.501  31.225  1.00  0.00     0.040 A 
ATOM     79  C   UNL A   1      44.927  33.698  33.448  1.00  0.00     0.040 A 
ATOM     80  F   UNL A   1      44.155  31.505  33.767  1.00  0.00    -0.206 F 
ATOM     81  C   UNL A   1      45.352  34.720  32.601  1.00  0.00     0.006 A 
ENDBRANCH  57  74
ENDBRANCH  31  32
ENDBRANCH  23  26
ENDBRANCH  21  22
ENDBRANCH  20  21
ENDBRANCH   1  20
TORSDOF 14
ENDMDL
MODEL 2
REMARK VINA RESULT:      -8.9      0.512      6.538
REMARK SMILES [NH3+][C@H](CC(=O)NCCCCNC(=O)c1ccc(-c2c3nc(c(-c4c(F)cccc4F)c4ccc([nH]4)c(-c4c(F)cccc4F)c4nc(c(-c5c(F)cccc5F)c5ccc2[nH]5)C=C4)C=C3)cc1)c1ccccc1Br
REMARK SMILES IDX 8 1 7 2 6 3 4 4 5 5 3 7 2 8 1 9 68 13 69 14 73 15 70 16
REMARK SMILES IDX 72 17 74 18 71 19 9 20 10 21 11 22 12 23 13 25 14 26 15 27
REMARK SMILES IDX 67 28 16 29 66 30 17 31 18 32 19 33 60 34 20 35 65 36 59 37
REMARK SMILES IDX 61 38 21 39 64 40 58 41 57 42 22 44 48 45 31 46 47 47 32 48
REMARK SMILES IDX 35 49 46 50 62 51 33 52 34 53 45 55 63 56 36 57 23 58 24 59
REMARK SMILES IDX 29 60 25 61 26 62 28 63 30 64 27 65 49 66 50 67 55 68 51 69
REMARK SMILES IDX 52 70 54 71 56 72 53 73 37 74 38 75 43 76 39 77 40 78 42 79
REMARK SMILES IDX 44 80 41 81
REMARK H PARENT 6 6 1 10 1 11 1 12 11 24 61 43 35 54
REMARK Flexibility Score: inf
ROOT
ATOM      1  C   UNL A   1      45.430  22.156  23.934  1.00  0.00     0.023 C 
ENDROOT
BRANCH   1   2
ATOM      2  C   UNL A   1      45.686  22.671  25.345  1.00  0.00     0.116 C 
BRANCH   2   3
ATOM      3  N   UNL A   1      46.776  23.631  25.335  1.00  0.00    -0.356 N 
ATOM      4  C   UNL A   1      46.722  24.982  25.149  1.00  0.00     0.226 C 
ATOM      5  O   UNL A   1      47.775  25.582  24.921  1.00  0.00    -0.275 OA
ATOM      6  H   UNL A   1      47.674  23.257  25.484  1.00  0.00     0.163 HD
BRANCH   4   7
ATOM      7  C   UNL A   1      45.409  25.733  25.284  1.00  0.00     0.170 C 
BRANCH   7   8
ATOM      8  C   UNL A   1      45.532  27.272  25.343  1.00  0.00     0.222 C 
BRANCH   8   9
ATOM      9  N   UNL A   1      46.187  27.822  24.143  1.00  0.00    -0.351 N 
ATOM     10  H   UNL A   1      47.192  27.660  24.200  1.00  0.00     0.345 HD
ATOM     11  H   UNL A   1      46.007  28.824  24.087  1.00  0.00     0.345 HD
ATOM     12  H   UNL A   1      45.815  27.363  23.312  1.00  0.00     0.345 HD
ENDBRANCH   8   9
BRANCH   8  13
ATOM     13  C   UNL A   1      44.227  27.983  25.696  1.00  0.00     0.024 A 
ATOM     14  C   UNL A   1      42.999  27.536  25.161  1.00  0.00     0.011 A 
ATOM     15  C   UNL A   1      44.179  29.079  26.586  1.00  0.00     0.027 A 
ATOM     16  C   UNL A   1      41.783  28.128  25.520  1.00  0.00     0.001 A 
ATOM     17  C   UNL A   1      42.956  29.667  26.947  1.00  0.00     0.016 A 
ATOM     18  Br  UNL A   1      45.731  29.833  27.390  1.00  0.00    -0.050 Br
ATOM     19  C   UNL A   1      41.760  29.186  26.422  1.00  0.00     0.001 A 
ENDBRANCH   8  13
ENDBRANCH   7   8
ENDBRANCH   4   7
ENDBRANCH   2   3
ENDBRANCH   1   2
BRANCH   1  20
ATOM     20  C   UNL A   1      44.891  20.735  23.859  1.00  0.00     0.023 C 
BRANCH  20  21
ATOM     21  C   UNL A   1      44.613  20.118  25.219  1.00  0.00     0.116 C 
BRANCH  21  22
ATOM     22  N   UNL A   1      43.362  19.365  25.266  1.00  0.00    -0.352 N 
ATOM     23  C   UNL A   1      42.153  19.703  25.829  1.00  0.00     0.251 C 
ATOM     24  H   UNL A   1      43.388  18.483  24.830  1.00  0.00     0.163 HD
ATOM     25  O   UNL A   1      41.235  18.891  25.867  1.00  0.00    -0.269 OA
BRANCH  23  26
ATOM     26  C   UNL A   1      41.990  21.038  26.440  1.00  0.00     0.039 A 
ATOM     27  C   UNL A   1      41.995  21.151  27.832  1.00  0.00     0.014 A 
ATOM     28  C   UNL A   1      41.935  22.178  25.637  1.00  0.00     0.014 A 
ATOM     29  C   UNL A   1      42.081  22.416  28.416  1.00  0.00     0.010 A 
ATOM     30  C   UNL A   1      42.129  23.424  26.214  1.00  0.00     0.010 A 
ATOM     31  C   UNL A   1      42.227  23.555  27.609  1.00  0.00    -0.014 A 
BRANCH  31  32
ATOM     32  C   UNL A   1      42.535  24.890  28.180  1.00  0.00     0.031 A 
ATOM     33  C   UNL A   1      43.923  25.195  28.668  1.00  0.00     0.074 A 
ATOM     34  C   UNL A   1      41.537  25.775  28.382  1.00  0.00     0.049 A 
ATOM     35  N   UNL A   1      44.350  26.220  29.360  1.00  0.00    -0.248 NA
ATOM     36  C   UNL A   1      44.959  24.191  28.377  1.00  0.00     0.031 C 
ATOM     37  C   UNL A   1      40.132  25.572  28.021  1.00  0.00     0.029 A 
ATOM     38  N   UNL A   1      41.549  27.018  28.966  1.00  0.00    -0.354 N 
ATOM     39  C   UNL A   1      45.688  25.962  29.622  1.00  0.00     0.074 A 
ATOM     40  C   UNL A   1      45.993  24.668  29.054  1.00  0.00     0.031 C 
ATOM     41  C   UNL A   1      39.425  26.660  28.367  1.00  0.00     0.029 A 
ATOM     42  C   UNL A   1      40.313  27.615  29.018  1.00  0.00     0.049 A 
ATOM     43  H   UNL A   1      42.367  27.441  29.314  1.00  0.00     0.167 HD
ATOM     44  C   UNL A   1      46.589  26.745  30.262  1.00  0.00     0.037 A 
ATOM     45  C   UNL A   1      39.933  28.794  29.545  1.00  0.00     0.037 A 
ATOM     46  C   UNL A   1      46.299  28.059  30.771  1.00  0.00     0.049 A 
ATOM     47  C   UNL A   1      40.959  29.660  30.218  1.00  0.00     0.074 A 
ATOM     48  C   UNL A   1      47.168  28.974  31.337  1.00  0.00     0.029 A 
ATOM     49  N   UNL A   1      45.043  28.645  30.766  1.00  0.00    -0.354 N 
ATOM     50  N   UNL A   1      42.237  29.433  30.401  1.00  0.00    -0.248 NA
ATOM     51  C   UNL A   1      40.490  30.941  30.765  1.00  0.00     0.031 C 
ATOM     52  C   UNL A   1      46.430  30.105  31.705  1.00  0.00     0.029 A 
ATOM     53  C   UNL A   1      45.109  29.904  31.339  1.00  0.00     0.049 A 
ATOM     54  H   UNL A   1      44.225  28.228  30.409  1.00  0.00     0.167 HD
ATOM     55  C   UNL A   1      42.728  30.546  31.071  1.00  0.00     0.074 A 
ATOM     56  C   UNL A   1      41.614  31.454  31.248  1.00  0.00     0.031 C 
ATOM     57  C   UNL A   1      43.987  30.790  31.507  1.00  0.00     0.037 A 
BRANCH  44  58
ATOM     58  C   UNL A   1      47.977  26.204  30.430  1.00  0.00     0.057 A 
ATOM     59  C   UNL A   1      48.404  25.629  31.634  1.00  0.00     0.134 A 
ATOM     60  C   UNL A   1      48.891  26.242  29.370  1.00  0.00     0.134 A 
ATOM     61  F   UNL A   1      47.581  25.578  32.693  1.00  0.00    -0.206 F 
ATOM     62  C   UNL A   1      49.700  25.134  31.787  1.00  0.00     0.040 A 
ATOM     63  C   UNL A   1      50.181  25.727  29.503  1.00  0.00     0.040 A 
ATOM     64  F   UNL A   1      48.545  26.776  28.190  1.00  0.00    -0.206 F 
ATOM     65  C   UNL A   1      50.592  25.177  30.716  1.00  0.00     0.006 A 
ENDBRANCH  44  58
BRANCH  45  66
ATOM     66  C   UNL A   1      38.519  29.231  29.449  1.00  0.00     0.057 A 
ATOM     67  C   UNL A   1      37.667  29.145  30.556  1.00  0.00     0.134 A 
ATOM     68  C   UNL A   1      37.986  29.741  28.260  1.00  0.00     0.134 A 
ATOM     69  F   UNL A   1      38.117  28.647  31.717  1.00  0.00    -0.206 F 
ATOM     70  C   UNL A   1      36.329  29.538  30.481  1.00  0.00     0.040 A 
ATOM     71  C   UNL A   1      36.656  30.156  28.176  1.00  0.00     0.040 A 
ATOM     72  F   UNL A   1      38.755  29.854  27.167  1.00  0.00    -0.206 F 
ATOM     73  C   UNL A   1      35.822  30.050  29.288  1.00  0.00     0.006 A 
ENDBRANCH  45  66
BRANCH  57  74
ATOM     74  C   UNL A   1      44.226  32.093  32.207  1.00  0.00     0.057 A 
ATOM     75  C   UNL A   1      44.571  33.250  31.498  1.00  0.00     0.134 A 
ATOM     76  C   UNL A   1      44.065  32.200  33.593  1.00  0.00     0.134 A 
ATOM     77  F   UNL A   1      44.753  33.204  30.170  1.00  0.00    -0.206 F 
ATOM     78  C   UNL A   1      44.759  34.471  32.148  1.00  0.00     0.040 A 
ATOM     79  C   UNL A   1      44.230  33.419  34.251  1.00  0.00     0.040 A 
ATOM     80  F   UNL A   1      43.731  31.128  34.326  1.00  0.00    -0.206 F 
ATOM     81  C   UNL A   1      44.581  34.558  33.528  1.00  0.00     0.006 A 
ENDBRANCH  57  74
ENDBRANCH  31  32
ENDBRANCH  23  26
ENDBRANCH  21  22
ENDBRANCH  20  21
ENDBRANCH   1  20
TORSDOF 14
ENDMDL
MODEL 3
REMARK VINA RESULT:      -8.3      5.925     11.104
REMARK SMILES [NH3+][C@H](CC(=O)NCCCCNC(=O)c1ccc(-c2c3nc(c(-c4c(F)cccc4F)c4ccc([nH]4)c(-c4c(F)cccc4F)c4nc(c(-c5c(F)cccc5F)c5ccc2[nH]5)C=C4)C=C3)cc1)c1ccccc1Br
REMARK SMILES IDX 8 1 7 2 6 3 4 4 5 5 3 7 2 8 1 9 68 13 69 14 73 15 70 16
REMARK SMILES IDX 72 17 74 18 71 19 9 20 10 21 11 22 12 23 13 25 14 26 15 27
REMARK SMILES IDX 67 28 16 29 66 30 17 31 18 32 19 33 60 34 20 35 65 36 59 37
REMARK SMILES IDX 61 38 21 39 64 40 58 41 57 42 22 44 48 45 31 46 47 47 32 48
REMARK SMILES IDX 35 49 46 50 62 51 33 52 34 53 45 55 63 56 36 57 23 58 24 59
REMARK SMILES IDX 29 60 25 61 26 62 28 63 30 64 27 65 49 66 50 67 55 68 51 69
REMARK SMILES IDX 52 70 54 71 56 72 53 73 37 74 38 75 43 76 39 77 40 78 42 79
REMARK SMILES IDX 44 80 41 81
REMARK H PARENT 6 6 1 10 1 11 1 12 11 24 61 43 35 54
REMARK Flexibility Score: inf
ROOT
ATOM      1  C   UNL A   1      31.437  30.205  26.204  1.00  0.00     0.023 C 
ENDROOT
BRANCH   1   2
ATOM      2  C   UNL A   1      32.162  29.366  27.250  1.00  0.00     0.116 C 
BRANCH   2   3
ATOM      3  N   UNL A   1      31.465  28.108  27.451  1.00  0.00    -0.356 N 
ATOM      4  C   UNL A   1      31.494  26.983  26.679  1.00  0.00     0.226 C 
ATOM      5  O   UNL A   1      30.639  26.117  26.877  1.00  0.00    -0.275 OA
ATOM      6  H   UNL A   1      30.895  28.060  28.253  1.00  0.00     0.163 HD
BRANCH   4   7
ATOM      7  C   UNL A   1      32.589  26.778  25.647  1.00  0.00     0.170 C 
BRANCH   7   8
ATOM      8  C   UNL A   1      32.102  26.353  24.244  1.00  0.00     0.222 C 
BRANCH   8   9
ATOM      9  N   UNL A   1      31.595  24.969  24.228  1.00  0.00    -0.351 N 
ATOM     10  H   UNL A   1      31.024  24.825  23.397  1.00  0.00     0.345 HD
ATOM     11  H   UNL A   1      31.031  24.805  25.062  1.00  0.00     0.345 HD
ATOM     12  H   UNL A   1      32.382  24.319  24.217  1.00  0.00     0.345 HD
ENDBRANCH   8   9
BRANCH   8  13
ATOM     13  C   UNL A   1      31.146  27.352  23.593  1.00  0.00     0.024 A 
ATOM     14  C   UNL A   1      29.750  27.150  23.651  1.00  0.00     0.011 A 
ATOM     15  C   UNL A   1      31.600  28.522  22.945  1.00  0.00     0.027 A 
ATOM     16  C   UNL A   1      28.852  28.083  23.122  1.00  0.00     0.001 A 
ATOM     17  C   UNL A   1      30.695  29.457  22.419  1.00  0.00     0.016 A 
ATOM     18  Br  UNL A   1      33.445  28.952  22.750  1.00  0.00    -0.050 Br
ATOM     19  C   UNL A   1      29.323  29.242  22.516  1.00  0.00     0.001 A 
ENDBRANCH   8  13
ENDBRANCH   7   8
ENDBRANCH   4   7
ENDBRANCH   2   3
ENDBRANCH   1   2
BRANCH   1  20
ATOM     20  C   UNL A   1      31.106  31.625  26.639  1.00  0.00     0.023 C 
BRANCH  20  21
ATOM     21  C   UNL A   1      32.272  32.590  26.500  1.00  0.00     0.116 C 
BRANCH  21  22
ATOM     22  N   UNL A   1      32.154  33.762  27.364  1.00  0.00    -0.352 N 
ATOM     23  C   UNL A   1      32.987  34.201  28.367  1.00  0.00     0.251 C 
ATOM     24  H   UNL A   1      31.361  34.322  27.205  1.00  0.00     0.163 HD
ATOM     25  O   UNL A   1      32.668  35.157  29.068  1.00  0.00    -0.269 OA
BRANCH  23  26
ATOM     26  C   UNL A   1      34.244  33.474  28.632  1.00  0.00     0.039 A 
ATOM     27  C   UNL A   1      35.457  34.161  28.543  1.00  0.00     0.014 A 
ATOM     28  C   UNL A   1      34.213  32.148  29.064  1.00  0.00     0.014 A 
ATOM     29  C   UNL A   1      36.623  33.558  29.017  1.00  0.00     0.010 A 
ATOM     30  C   UNL A   1      35.350  31.592  29.633  1.00  0.00     0.010 A 
ATOM     31  C   UNL A   1      36.562  32.300  29.636  1.00  0.00    -0.014 A 
BRANCH  31  32
ATOM     32  C   UNL A   1      37.729  31.713  30.344  1.00  0.00     0.031 A 
ATOM     33  C   UNL A   1      38.584  30.688  29.656  1.00  0.00     0.074 A 
ATOM     34  C   UNL A   1      37.934  32.004  31.645  1.00  0.00     0.049 A 
ATOM     35  N   UNL A   1      39.524  29.926  30.154  1.00  0.00    -0.248 NA
ATOM     36  C   UNL A   1      38.315  30.455  28.228  1.00  0.00     0.031 C 
ATOM     37  C   UNL A   1      37.131  32.929  32.449  1.00  0.00     0.029 A 
ATOM     38  N   UNL A   1      38.872  31.530  32.529  1.00  0.00    -0.354 N 
ATOM     39  C   UNL A   1      39.926  29.099  29.115  1.00  0.00     0.074 A 
ATOM     40  C   UNL A   1      39.100  29.419  27.971  1.00  0.00     0.031 C 
ATOM     41  C   UNL A   1      37.624  32.973  33.696  1.00  0.00     0.029 A 
ATOM     42  C   UNL A   1      38.746  32.046  33.796  1.00  0.00     0.049 A 
ATOM     43  H   UNL A   1      39.568  30.881  32.278  1.00  0.00     0.167 HD
ATOM     44  C   UNL A   1      40.909  28.168  29.108  1.00  0.00     0.037 A 
ATOM     45  C   UNL A   1      39.444  31.789  34.918  1.00  0.00     0.037 A 
ATOM     46  C   UNL A   1      41.770  27.896  30.228  1.00  0.00     0.049 A 
ATOM     47  C   UNL A   1      40.554  30.779  34.875  1.00  0.00     0.074 A 
ATOM     48  C   UNL A   1      42.864  27.051  30.288  1.00  0.00     0.029 A 
ATOM     49  N   UNL A   1      41.636  28.471  31.483  1.00  0.00    -0.354 N 
ATOM     50  N   UNL A   1      40.967  30.051  33.866  1.00  0.00    -0.248 NA
ATOM     51  C   UNL A   1      41.290  30.548  36.126  1.00  0.00     0.031 C 
ATOM     52  C   UNL A   1      43.375  27.092  31.591  1.00  0.00     0.029 A 
ATOM     53  C   UNL A   1      42.615  27.984  32.331  1.00  0.00     0.049 A 
ATOM     54  H   UNL A   1      40.945  29.127  31.733  1.00  0.00     0.167 HD
ATOM     55  C   UNL A   1      42.017  29.285  34.356  1.00  0.00     0.074 A 
ATOM     56  C   UNL A   1      42.189  29.650  35.747  1.00  0.00     0.031 C 
ATOM     57  C   UNL A   1      42.767  28.360  33.712  1.00  0.00     0.037 A 
BRANCH  44  58
ATOM     58  C   UNL A   1      41.116  27.391  27.843  1.00  0.00     0.057 A 
ATOM     59  C   UNL A   1      41.939  27.864  26.813  1.00  0.00     0.134 A 
ATOM     60  C   UNL A   1      40.500  26.147  27.661  1.00  0.00     0.134 A 
ATOM     61  F   UNL A   1      42.545  29.057  26.920  1.00  0.00    -0.206 F 
ATOM     62  C   UNL A   1      42.122  27.139  25.634  1.00  0.00     0.040 A 
ATOM     63  C   UNL A   1      40.695  25.402  26.498  1.00  0.00     0.040 A 
ATOM     64  F   UNL A   1      39.702  25.636  28.610  1.00  0.00    -0.206 F 
ATOM     65  C   UNL A   1      41.502  25.901  25.477  1.00  0.00     0.006 A 
ENDBRANCH  44  58
BRANCH  45  66
ATOM     66  C   UNL A   1      39.122  32.508  36.175  1.00  0.00     0.057 A 
ATOM     67  C   UNL A   1      39.661  33.774  36.433  1.00  0.00     0.134 A 
ATOM     68  C   UNL A   1      38.276  31.955  37.143  1.00  0.00     0.134 A 
ATOM     69  F   UNL A   1      40.493  34.346  35.551  1.00  0.00    -0.206 F 
ATOM     70  C   UNL A   1      39.381  34.460  37.616  1.00  0.00     0.040 A 
ATOM     71  C   UNL A   1      37.972  32.638  38.321  1.00  0.00     0.040 A 
ATOM     72  F   UNL A   1      37.724  30.748  36.950  1.00  0.00    -0.206 F 
ATOM     73  C   UNL A   1      38.530  33.893  38.562  1.00  0.00     0.006 A 
ENDBRANCH  45  66
BRANCH  57  74
ATOM     74  C   UNL A   1      43.845  27.685  34.504  1.00  0.00     0.057 A 
ATOM     75  C   UNL A   1      43.624  26.460  35.144  1.00  0.00     0.134 A 
ATOM     76  C   UNL A   1      45.126  28.243  34.588  1.00  0.00     0.134 A 
ATOM     77  F   UNL A   1      42.413  25.884  35.109  1.00  0.00    -0.206 F 
ATOM     78  C   UNL A   1      44.640  25.816  35.851  1.00  0.00     0.040 A 
ATOM     79  C   UNL A   1      46.155  27.600  35.276  1.00  0.00     0.040 A 
ATOM     80  F   UNL A   1      45.400  29.413  33.993  1.00  0.00    -0.206 F 
ATOM     81  C   UNL A   1      45.912  26.383  35.912  1.00  0.00     0.006 A 
ENDBRANCH  57  74
ENDBRANCH  31  32
ENDBRANCH  23  26
ENDBRANCH  21  22
ENDBRANCH  20  21
ENDBRANCH   1  20
TORSDOF 14
ENDMDL
