MODEL 1
REMARK VINA RESULT:     -10.3      0.000      0.000
REMARK SMILES C[NH+](C)CCCNC(=O)[C@@H]1[C@@H](C(=O)NCCCCNC(=O)c2ccc(-c3c4nc(c(-c5c(F)cccc5F)c5ccc([nH]5)c(-c5c(F)cccc5F)c5nc(c(-c6c(F)cccc6F)c6ccc3[nH]6)C=C5)C=C4)cc2)C1(C)C
REMARK SMILES IDX 15 1 14 2 12 3 13 4 11 6 10 7 76 8 77 9 78 10 8 11 7 12 9 14
REMARK SMILES IDX 6 15 5 16 4 17 2 18 1 19 3 20 16 22 17 23 18 24 19 25 20 26
REMARK SMILES IDX 21 28 22 29 23 30 75 31 24 32 74 33 25 34 26 35 27 36 68 37
REMARK SMILES IDX 28 38 73 39 67 40 69 41 29 42 72 43 66 44 65 45 30 47 56 48
REMARK SMILES IDX 39 49 55 50 40 51 43 52 54 53 70 54 41 55 42 56 53 58 71 59
REMARK SMILES IDX 44 60 31 61 32 62 37 63 33 64 34 65 36 66 38 67 35 68 57 69
REMARK SMILES IDX 58 70 63 71 59 72 60 73 62 74 64 75 61 76 45 77 46 78 51 79
REMARK SMILES IDX 47 80 48 81 50 82 52 83 49 84
REMARK H PARENT 14 5 7 13 2 21 19 27 69 46 43 57
REMARK Flexibility Score: inf
ROOT
ATOM      1  C   UNL A   1      35.232  20.467  24.957  1.00  0.00     0.116 C 
ENDROOT
BRANCH   1   2
ATOM      2  N   UNL A   1      34.785  20.857  26.273  1.00  0.00    -0.356 N 
ATOM      3  C   UNL A   1      34.103  21.927  26.769  1.00  0.00     0.224 C 
ATOM      4  O   UNL A   1      34.077  22.028  27.996  1.00  0.00    -0.275 OA
ATOM      5  H   UNL A   1      35.028  20.203  26.968  1.00  0.00     0.163 HD
BRANCH   3   6
ATOM      6  C   UNL A   1      33.369  22.950  25.991  1.00  0.00     0.098 C 
ATOM      7  C   UNL A   1      33.256  23.207  24.515  1.00  0.00     0.098 C 
ATOM      8  C   UNL A   1      34.025  24.193  25.403  1.00  0.00    -0.011 C 
ATOM      9  C   UNL A   1      35.511  24.284  25.165  1.00  0.00     0.013 C 
ATOM     10  C   UNL A   1      33.434  25.488  25.904  1.00  0.00     0.013 C 
BRANCH   7  11
ATOM     11  C   UNL A   1      31.919  23.491  23.937  1.00  0.00     0.224 C 
ATOM     12  N   UNL A   1      31.852  23.983  22.663  1.00  0.00    -0.356 N 
ATOM     13  H   UNL A   1      30.959  24.004  22.248  1.00  0.00     0.163 HD
ATOM     14  O   UNL A   1      30.901  23.222  24.563  1.00  0.00    -0.275 OA
BRANCH  12  15
ATOM     15  C   UNL A   1      32.948  24.475  21.857  1.00  0.00     0.121 C 
BRANCH  15  16
ATOM     16  C   UNL A   1      32.833  25.940  21.466  1.00  0.00     0.083 C 
BRANCH  16  17
ATOM     17  C   UNL A   1      33.006  26.977  22.585  1.00  0.00     0.263 C 
BRANCH  17  18
ATOM     18  N   UNL A   1      31.836  27.515  23.279  1.00  0.00    -0.340 N 
ATOM     19  C   UNL A   1      32.103  28.668  24.128  1.00  0.00     0.332 C 
ATOM     20  C   UNL A   1      30.668  27.716  22.433  1.00  0.00     0.332 C 
ATOM     21  H   UNL A   1      31.591  26.756  23.917  1.00  0.00     0.347 HD
ENDBRANCH  17  18
ENDBRANCH  16  17
ENDBRANCH  15  16
ENDBRANCH  12  15
ENDBRANCH   7  11
ENDBRANCH   3   6
ENDBRANCH   1   2
BRANCH   1  22
ATOM     22  C   UNL A   1      36.665  20.936  24.706  1.00  0.00     0.023 C 
BRANCH  22  23
ATOM     23  C   UNL A   1      37.734  19.861  24.895  1.00  0.00     0.023 C 
BRANCH  23  24
ATOM     24  C   UNL A   1      38.904  20.269  25.779  1.00  0.00     0.116 C 
BRANCH  24  25
ATOM     25  N   UNL A   1      40.010  19.323  25.734  1.00  0.00    -0.352 N 
ATOM     26  C   UNL A   1      41.332  19.526  26.041  1.00  0.00     0.251 C 
ATOM     27  H   UNL A   1      39.776  18.412  25.444  1.00  0.00     0.163 HD
ATOM     28  O   UNL A   1      42.155  18.640  25.831  1.00  0.00    -0.269 OA
BRANCH  26  29
ATOM     29  C   UNL A   1      41.762  20.827  26.588  1.00  0.00     0.039 A 
ATOM     30  C   UNL A   1      42.211  21.811  25.705  1.00  0.00     0.014 A 
ATOM     31  C   UNL A   1      41.702  21.083  27.960  1.00  0.00     0.014 A 
ATOM     32  C   UNL A   1      42.541  23.076  26.194  1.00  0.00     0.010 A 
ATOM     33  C   UNL A   1      41.950  22.367  28.434  1.00  0.00     0.010 A 
ATOM     34  C   UNL A   1      42.382  23.373  27.558  1.00  0.00    -0.014 A 
BRANCH  34  35
ATOM     35  C   UNL A   1      42.676  24.729  28.082  1.00  0.00     0.031 A 
ATOM     36  C   UNL A   1      44.081  25.100  28.471  1.00  0.00     0.074 A 
ATOM     37  C   UNL A   1      41.667  25.604  28.264  1.00  0.00     0.049 A 
ATOM     38  N   UNL A   1      44.529  26.222  28.973  1.00  0.00    -0.248 NA
ATOM     39  C   UNL A   1      45.115  24.064  28.306  1.00  0.00     0.031 C 
ATOM     40  C   UNL A   1      40.251  25.335  28.001  1.00  0.00     0.029 A 
ATOM     41  N   UNL A   1      41.679  26.897  28.720  1.00  0.00    -0.354 N 
ATOM     42  C   UNL A   1      45.883  26.016  29.209  1.00  0.00     0.074 A 
ATOM     43  C   UNL A   1      46.176  24.650  28.838  1.00  0.00     0.031 C 
ATOM     44  C   UNL A   1      39.535  26.436  28.278  1.00  0.00     0.029 A 
ATOM     45  C   UNL A   1      40.435  27.480  28.758  1.00  0.00     0.049 A 
ATOM     46  H   UNL A   1      42.501  27.364  28.995  1.00  0.00     0.167 HD
ATOM     47  C   UNL A   1      46.803  26.896  29.669  1.00  0.00     0.037 A 
ATOM     48  C   UNL A   1      40.066  28.719  29.131  1.00  0.00     0.037 A 
ATOM     49  C   UNL A   1      46.520  28.271  29.981  1.00  0.00     0.049 A 
ATOM     50  C   UNL A   1      41.124  29.696  29.566  1.00  0.00     0.074 A 
ATOM     51  C   UNL A   1      47.402  29.266  30.365  1.00  0.00     0.029 A 
ATOM     52  N   UNL A   1      45.259  28.844  29.940  1.00  0.00    -0.354 N 
ATOM     53  N   UNL A   1      42.415  29.517  29.688  1.00  0.00    -0.248 NA
ATOM     54  C   UNL A   1      40.672  31.057  29.895  1.00  0.00     0.031 C 
ATOM     55  C   UNL A   1      46.668  30.438  30.585  1.00  0.00     0.029 A 
ATOM     56  C   UNL A   1      45.337  30.178  30.301  1.00  0.00     0.049 A 
ATOM     57  H   UNL A   1      44.432  28.373  29.690  1.00  0.00     0.167 HD
ATOM     58  C   UNL A   1      42.935  30.745  30.077  1.00  0.00     0.074 A 
ATOM     59  C   UNL A   1      41.820  31.666  30.151  1.00  0.00     0.031 C 
ATOM     60  C   UNL A   1      44.218  31.082  30.351  1.00  0.00     0.037 A 
BRANCH  47  61
ATOM     61  C   UNL A   1      48.210  26.406  29.846  1.00  0.00     0.057 A 
ATOM     62  C   UNL A   1      49.172  26.541  28.836  1.00  0.00     0.134 A 
ATOM     63  C   UNL A   1      48.622  25.845  31.060  1.00  0.00     0.134 A 
ATOM     64  F   UNL A   1      48.838  27.058  27.644  1.00  0.00    -0.206 F 
ATOM     65  C   UNL A   1      50.490  26.123  29.024  1.00  0.00     0.040 A 
ATOM     66  C   UNL A   1      49.944  25.444  31.268  1.00  0.00     0.040 A 
ATOM     67  F   UNL A   1      47.752  25.689  32.069  1.00  0.00    -0.206 F 
ATOM     68  C   UNL A   1      50.880  25.581  30.246  1.00  0.00     0.006 A 
ENDBRANCH  47  61
BRANCH  48  69
ATOM     69  C   UNL A   1      38.640  29.128  29.079  1.00  0.00     0.057 A 
ATOM     70  C   UNL A   1      38.076  29.641  27.905  1.00  0.00     0.134 A 
ATOM     71  C   UNL A   1      37.818  29.050  30.209  1.00  0.00     0.134 A 
ATOM     72  F   UNL A   1      38.820  29.755  26.794  1.00  0.00    -0.206 F 
ATOM     73  C   UNL A   1      36.758  30.094  27.863  1.00  0.00     0.040 A 
ATOM     74  C   UNL A   1      36.488  29.476  30.175  1.00  0.00     0.040 A 
ATOM     75  F   UNL A   1      38.294  28.557  31.361  1.00  0.00    -0.206 F 
ATOM     76  C   UNL A   1      35.959  30.011  29.002  1.00  0.00     0.006 A 
ENDBRANCH  48  69
BRANCH  60  77
ATOM     77  C   UNL A   1      44.485  32.513  30.710  1.00  0.00     0.057 A 
ATOM     78  C   UNL A   1      44.479  32.956  32.038  1.00  0.00     0.134 A 
ATOM     79  C   UNL A   1      44.765  33.456  29.712  1.00  0.00     0.134 A 
ATOM     80  F   UNL A   1      44.206  32.104  33.038  1.00  0.00    -0.206 F 
ATOM     81  C   UNL A   1      44.712  34.294  32.360  1.00  0.00     0.040 A 
ATOM     82  C   UNL A   1      45.026  34.790  30.024  1.00  0.00     0.040 A 
ATOM     83  F   UNL A   1      44.796  33.093  28.421  1.00  0.00    -0.206 F 
ATOM     84  C   UNL A   1      44.990  35.214  31.350  1.00  0.00     0.006 A 
ENDBRANCH  60  77
ENDBRANCH  34  35
ENDBRANCH  26  29
ENDBRANCH  24  25
ENDBRANCH  23  24
ENDBRANCH  22  23
ENDBRANCH   1  22
TORSDOF 16
ENDMDL
MODEL 2
REMARK VINA RESULT:     -10.2      4.297      9.322
REMARK SMILES C[NH+](C)CCCNC(=O)[C@@H]1[C@@H](C(=O)NCCCCNC(=O)c2ccc(-c3c4nc(c(-c5c(F)cccc5F)c5ccc([nH]5)c(-c5c(F)cccc5F)c5nc(c(-c6c(F)cccc6F)c6ccc3[nH]6)C=C5)C=C4)cc2)C1(C)C
REMARK SMILES IDX 15 1 14 2 12 3 13 4 11 6 10 7 76 8 77 9 78 10 8 11 7 12 9 14
REMARK SMILES IDX 6 15 5 16 4 17 2 18 1 19 3 20 16 22 17 23 18 24 19 25 20 26
REMARK SMILES IDX 21 28 22 29 23 30 75 31 24 32 74 33 25 34 26 35 27 36 68 37
REMARK SMILES IDX 28 38 73 39 67 40 69 41 29 42 72 43 66 44 65 45 30 47 56 48
REMARK SMILES IDX 39 49 55 50 40 51 43 52 54 53 70 54 41 55 42 56 53 58 71 59
REMARK SMILES IDX 44 60 31 61 32 62 37 63 33 64 34 65 36 66 38 67 35 68 57 69
REMARK SMILES IDX 58 70 63 71 59 72 60 73 62 74 64 75 61 76 45 77 46 78 51 79
REMARK SMILES IDX 47 80 48 81 50 82 52 83 49 84
REMARK H PARENT 14 5 7 13 2 21 19 27 69 46 43 57
REMARK Flexibility Score: inf
ROOT
ATOM      1  C   UNL A   1      32.849  29.744  26.033  1.00  0.00     0.116 C 
ENDROOT
BRANCH   1   2
ATOM      2  N   UNL A   1      33.271  29.690  24.653  1.00  0.00    -0.356 N 
ATOM      3  C   UNL A   1      33.117  28.787  23.645  1.00  0.00     0.224 C 
ATOM      4  O   UNL A   1      33.799  28.980  22.638  1.00  0.00    -0.275 OA
ATOM      5  H   UNL A   1      33.786  30.483  24.380  1.00  0.00     0.163 HD
BRANCH   3   6
ATOM      6  C   UNL A   1      32.195  27.629  23.624  1.00  0.00     0.098 C 
ATOM      7  C   UNL A   1      31.627  26.772  24.719  1.00  0.00     0.098 C 
ATOM      8  C   UNL A   1      32.658  26.182  23.748  1.00  0.00    -0.011 C 
ATOM      9  C   UNL A   1      33.993  25.811  24.339  1.00  0.00     0.013 C 
ATOM     10  C   UNL A   1      32.282  25.320  22.568  1.00  0.00     0.013 C 
BRANCH   7  11
ATOM     11  C   UNL A   1      30.182  26.435  24.689  1.00  0.00     0.224 C 
ATOM     12  N   UNL A   1      29.725  25.450  25.519  1.00  0.00    -0.356 N 
ATOM     13  H   UNL A   1      28.747  25.363  25.600  1.00  0.00     0.163 HD
ATOM     14  O   UNL A   1      29.409  27.076  23.987  1.00  0.00    -0.275 OA
BRANCH  12  15
ATOM     15  C   UNL A   1      30.520  24.521  26.294  1.00  0.00     0.121 C 
BRANCH  15  16
ATOM     16  C   UNL A   1      30.757  23.180  25.618  1.00  0.00     0.083 C 
BRANCH  16  17
ATOM     17  C   UNL A   1      32.208  22.682  25.548  1.00  0.00     0.263 C 
BRANCH  17  18
ATOM     18  N   UNL A   1      32.697  21.696  26.513  1.00  0.00    -0.340 N 
ATOM     19  C   UNL A   1      33.605  20.699  25.965  1.00  0.00     0.332 C 
ATOM     20  C   UNL A   1      33.194  22.263  27.759  1.00  0.00     0.332 C 
ATOM     21  H   UNL A   1      31.846  21.187  26.757  1.00  0.00     0.347 HD
ENDBRANCH  17  18
ENDBRANCH  16  17
ENDBRANCH  15  16
ENDBRANCH  12  15
ENDBRANCH   7  11
ENDBRANCH   3   6
ENDBRANCH   1   2
BRANCH   1  22
ATOM     22  C   UNL A   1      31.442  30.329  26.150  1.00  0.00     0.023 C 
BRANCH  22  23
ATOM     23  C   UNL A   1      31.392  31.838  26.388  1.00  0.00     0.023 C 
BRANCH  23  24
ATOM     24  C   UNL A   1      32.620  32.418  27.075  1.00  0.00     0.116 C 
BRANCH  24  25
ATOM     25  N   UNL A   1      32.428  33.790  27.523  1.00  0.00    -0.352 N 
ATOM     26  C   UNL A   1      33.128  34.496  28.469  1.00  0.00     0.251 C 
ATOM     27  H   UNL A   1      31.694  34.279  27.086  1.00  0.00     0.163 HD
ATOM     28  O   UNL A   1      32.752  35.613  28.807  1.00  0.00    -0.269 OA
BRANCH  26  29
ATOM     29  C   UNL A   1      34.314  33.886  29.103  1.00  0.00     0.039 A 
ATOM     30  C   UNL A   1      34.123  32.932  30.105  1.00  0.00     0.014 A 
ATOM     31  C   UNL A   1      35.603  34.236  28.696  1.00  0.00     0.014 A 
ATOM     32  C   UNL A   1      35.229  32.284  30.656  1.00  0.00     0.010 A 
ATOM     33  C   UNL A   1      36.697  33.530  29.186  1.00  0.00     0.010 A 
ATOM     34  C   UNL A   1      36.522  32.555  30.178  1.00  0.00    -0.014 A 
BRANCH  34  35
ATOM     35  C   UNL A   1      37.700  31.832  30.715  1.00  0.00     0.031 A 
ATOM     36  C   UNL A   1      38.213  32.146  32.095  1.00  0.00     0.074 A 
ATOM     37  C   UNL A   1      38.343  30.938  29.939  1.00  0.00     0.049 A 
ATOM     38  N   UNL A   1      39.243  31.643  32.726  1.00  0.00    -0.248 NA
ATOM     39  C   UNL A   1      37.496  33.185  32.853  1.00  0.00     0.031 C 
ATOM     40  C   UNL A   1      37.991  30.606  28.556  1.00  0.00     0.029 A 
ATOM     41  N   UNL A   1      39.433  30.148  30.201  1.00  0.00    -0.354 N 
ATOM     42  C   UNL A   1      39.313  32.322  33.937  1.00  0.00     0.074 A 
ATOM     43  C   UNL A   1      38.250  33.303  33.935  1.00  0.00     0.031 C 
ATOM     44  C   UNL A   1      38.835  29.665  28.100  1.00  0.00     0.029 A 
ATOM     45  C   UNL A   1      39.798  29.344  29.149  1.00  0.00     0.049 A 
ATOM     46  H   UNL A   1      39.910  30.157  31.062  1.00  0.00     0.167 HD
ATOM     47  C   UNL A   1      40.170  32.128  34.966  1.00  0.00     0.037 A 
ATOM     48  C   UNL A   1      40.793  28.444  29.046  1.00  0.00     0.037 A 
ATOM     49  C   UNL A   1      41.188  31.112  34.988  1.00  0.00     0.049 A 
ATOM     50  C   UNL A   1      41.681  28.198  30.235  1.00  0.00     0.074 A 
ATOM     51  C   UNL A   1      42.044  30.773  36.020  1.00  0.00     0.029 A 
ATOM     52  N   UNL A   1      41.481  30.268  33.928  1.00  0.00    -0.354 N 
ATOM     53  N   UNL A   1      41.671  28.778  31.409  1.00  0.00    -0.248 NA
ATOM     54  C   UNL A   1      42.707  27.154  30.089  1.00  0.00     0.031 C 
ATOM     55  C   UNL A   1      42.879  29.742  35.575  1.00  0.00     0.029 A 
ATOM     56  C   UNL A   1      42.513  29.415  34.278  1.00  0.00     0.049 A 
ATOM     57  H   UNL A   1      41.023  30.275  33.057  1.00  0.00     0.167 HD
ATOM     58  C   UNL A   1      42.663  28.152  32.151  1.00  0.00     0.074 A 
ATOM     59  C   UNL A   1      43.242  27.134  31.300  1.00  0.00     0.031 C 
ATOM     60  C   UNL A   1      43.063  28.397  33.422  1.00  0.00     0.037 A 
BRANCH  47  61
ATOM     61  C   UNL A   1      40.034  33.018  36.166  1.00  0.00     0.057 A 
ATOM     62  C   UNL A   1      39.183  32.697  37.231  1.00  0.00     0.134 A 
ATOM     63  C   UNL A   1      40.805  34.180  36.281  1.00  0.00     0.134 A 
ATOM     64  F   UNL A   1      38.407  31.604  37.176  1.00  0.00    -0.206 F 
ATOM     65  C   UNL A   1      39.094  33.508  38.364  1.00  0.00     0.040 A 
ATOM     66  C   UNL A   1      40.742  34.988  37.419  1.00  0.00     0.040 A 
ATOM     67  F   UNL A   1      41.642  34.544  35.298  1.00  0.00    -0.206 F 
ATOM     68  C   UNL A   1      39.883  34.651  38.463  1.00  0.00     0.006 A 
ENDBRANCH  47  61
BRANCH  48  69
ATOM     69  C   UNL A   1      40.990  27.679  27.789  1.00  0.00     0.057 A 
ATOM     70  C   UNL A   1      40.418  26.414  27.615  1.00  0.00     0.134 A 
ATOM     71  C   UNL A   1      41.781  28.178  26.748  1.00  0.00     0.134 A 
ATOM     72  F   UNL A   1      39.663  25.876  28.585  1.00  0.00    -0.206 F 
ATOM     73  C   UNL A   1      40.654  25.654  26.468  1.00  0.00     0.040 A 
ATOM     74  C   UNL A   1      42.005  27.440  25.583  1.00  0.00     0.040 A 
ATOM     75  F   UNL A   1      42.348  29.389  26.847  1.00  0.00    -0.206 F 
ATOM     76  C   UNL A   1      41.449  26.170  25.447  1.00  0.00     0.006 A 
ENDBRANCH  48  69
BRANCH  60  77
ATOM     77  C   UNL A   1      44.145  27.520  33.977  1.00  0.00     0.057 A 
ATOM     78  C   UNL A   1      43.861  26.295  34.594  1.00  0.00     0.134 A 
ATOM     79  C   UNL A   1      45.490  27.900  33.880  1.00  0.00     0.134 A 
ATOM     80  F   UNL A   1      42.592  25.880  34.729  1.00  0.00    -0.206 F 
ATOM     81  C   UNL A   1      44.873  25.493  35.122  1.00  0.00     0.040 A 
ATOM     82  C   UNL A   1      46.512  27.095  34.380  1.00  0.00     0.040 A 
ATOM     83  F   UNL A   1      45.829  29.057  33.291  1.00  0.00    -0.206 F 
ATOM     84  C   UNL A   1      46.205  25.892  35.012  1.00  0.00     0.006 A 
ENDBRANCH  60  77
ENDBRANCH  34  35
ENDBRANCH  26  29
ENDBRANCH  24  25
ENDBRANCH  23  24
ENDBRANCH  22  23
ENDBRANCH   1  22
TORSDOF 16
ENDMDL
MODEL 3
REMARK VINA RESULT:     -10.2      4.532      9.313
REMARK SMILES C[NH+](C)CCCNC(=O)[C@@H]1[C@@H](C(=O)NCCCCNC(=O)c2ccc(-c3c4nc(c(-c5c(F)cccc5F)c5ccc([nH]5)c(-c5c(F)cccc5F)c5nc(c(-c6c(F)cccc6F)c6ccc3[nH]6)C=C5)C=C4)cc2)C1(C)C
REMARK SMILES IDX 15 1 14 2 12 3 13 4 11 6 10 7 76 8 77 9 78 10 8 11 7 12 9 14
REMARK SMILES IDX 6 15 5 16 4 17 2 18 1 19 3 20 16 22 17 23 18 24 19 25 20 26
REMARK SMILES IDX 21 28 22 29 23 30 75 31 24 32 74 33 25 34 26 35 27 36 68 37
REMARK SMILES IDX 28 38 73 39 67 40 69 41 29 42 72 43 66 44 65 45 30 47 56 48
REMARK SMILES IDX 39 49 55 50 40 51 43 52 54 53 70 54 41 55 42 56 53 58 71 59
REMARK SMILES IDX 44 60 31 61 32 62 37 63 33 64 34 65 36 66 38 67 35 68 57 69
REMARK SMILES IDX 58 70 63 71 59 72 60 73 62 74 64 75 61 76 45 77 46 78 51 79
REMARK SMILES IDX 47 80 48 81 50 82 52 83 49 84
REMARK H PARENT 14 5 7 13 2 21 19 27 69 46 43 57
REMARK Flexibility Score: inf
ROOT
ATOM      1  C   UNL A   1      32.933  29.924  26.008  1.00  0.00     0.116 C 
ENDROOT
BRANCH   1   2
ATOM      2  N   UNL A   1      33.468  29.759  24.677  1.00  0.00    -0.356 N 
ATOM      3  C   UNL A   1      33.403  28.770  23.742  1.00  0.00     0.224 C 
ATOM      4  O   UNL A   1      34.165  28.886  22.781  1.00  0.00    -0.275 OA
ATOM      5  H   UNL A   1      33.999  30.532  24.379  1.00  0.00     0.163 HD
BRANCH   3   6
ATOM      6  C   UNL A   1      32.495  27.602  23.747  1.00  0.00     0.098 C 
ATOM      7  C   UNL A   1      31.501  27.100  24.754  1.00  0.00     0.098 C 
ATOM      8  C   UNL A   1      32.789  26.309  24.496  1.00  0.00    -0.011 C 
ATOM      9  C   UNL A   1      33.771  26.245  25.637  1.00  0.00     0.013 C 
ATOM     10  C   UNL A   1      32.845  25.089  23.608  1.00  0.00     0.013 C 
BRANCH   7  11
ATOM     11  C   UNL A   1      30.161  26.667  24.287  1.00  0.00     0.224 C 
ATOM     12  N   UNL A   1      29.493  27.461  23.397  1.00  0.00    -0.356 N 
ATOM     13  H   UNL A   1      28.689  27.072  22.980  1.00  0.00     0.163 HD
ATOM     14  O   UNL A   1      29.699  25.587  24.638  1.00  0.00    -0.275 OA
BRANCH  12  15
ATOM     15  C   UNL A   1      29.836  28.809  22.999  1.00  0.00     0.121 C 
BRANCH  15  16
ATOM     16  C   UNL A   1      28.695  29.588  22.365  1.00  0.00     0.083 C 
BRANCH  16  17
ATOM     17  C   UNL A   1      28.193  30.828  23.119  1.00  0.00     0.263 C 
BRANCH  17  18
ATOM     18  N   UNL A   1      28.070  32.112  22.427  1.00  0.00    -0.340 N 
ATOM     19  C   UNL A   1      28.877  33.189  22.985  1.00  0.00     0.332 C 
ATOM     20  C   UNL A   1      28.189  32.033  20.978  1.00  0.00     0.332 C 
ATOM     21  H   UNL A   1      27.101  32.370  22.615  1.00  0.00     0.347 HD
ENDBRANCH  17  18
ENDBRANCH  16  17
ENDBRANCH  15  16
ENDBRANCH  12  15
ENDBRANCH   7  11
ENDBRANCH   3   6
ENDBRANCH   1   2
BRANCH   1  22
ATOM     22  C   UNL A   1      31.504  30.464  25.958  1.00  0.00     0.023 C 
BRANCH  22  23
ATOM     23  C   UNL A   1      31.338  31.889  26.483  1.00  0.00     0.023 C 
BRANCH  23  24
ATOM     24  C   UNL A   1      32.587  32.490  27.113  1.00  0.00     0.116 C 
BRANCH  24  25
ATOM     25  N   UNL A   1      32.400  33.866  27.550  1.00  0.00    -0.352 N 
ATOM     26  C   UNL A   1      33.102  34.575  28.491  1.00  0.00     0.251 C 
ATOM     27  H   UNL A   1      31.669  34.354  27.108  1.00  0.00     0.163 HD
ATOM     28  O   UNL A   1      32.730  35.697  28.821  1.00  0.00    -0.269 OA
BRANCH  26  29
ATOM     29  C   UNL A   1      34.284  33.966  29.132  1.00  0.00     0.039 A 
ATOM     30  C   UNL A   1      34.088  32.991  30.113  1.00  0.00     0.014 A 
ATOM     31  C   UNL A   1      35.576  34.335  28.751  1.00  0.00     0.014 A 
ATOM     32  C   UNL A   1      35.191  32.343  30.669  1.00  0.00     0.010 A 
ATOM     33  C   UNL A   1      36.669  33.631  29.244  1.00  0.00     0.010 A 
ATOM     34  C   UNL A   1      36.489  32.635  30.216  1.00  0.00    -0.014 A 
BRANCH  34  35
ATOM     35  C   UNL A   1      37.665  31.914  30.757  1.00  0.00     0.031 A 
ATOM     36  C   UNL A   1      38.177  32.233  32.136  1.00  0.00     0.074 A 
ATOM     37  C   UNL A   1      38.309  31.016  29.985  1.00  0.00     0.049 A 
ATOM     38  N   UNL A   1      39.206  31.732  32.770  1.00  0.00    -0.248 NA
ATOM     39  C   UNL A   1      37.460  33.275  32.890  1.00  0.00     0.031 C 
ATOM     40  C   UNL A   1      37.959  30.680  28.603  1.00  0.00     0.029 A 
ATOM     41  N   UNL A   1      39.398  30.227  30.252  1.00  0.00    -0.354 N 
ATOM     42  C   UNL A   1      39.275  32.416  33.979  1.00  0.00     0.074 A 
ATOM     43  C   UNL A   1      38.213  33.397  33.972  1.00  0.00     0.031 C 
ATOM     44  C   UNL A   1      38.803  29.737  28.152  1.00  0.00     0.029 A 
ATOM     45  C   UNL A   1      39.764  29.418  29.203  1.00  0.00     0.049 A 
ATOM     46  H   UNL A   1      39.874  30.239  31.114  1.00  0.00     0.167 HD
ATOM     47  C   UNL A   1      40.130  32.225  35.010  1.00  0.00     0.037 A 
ATOM     48  C   UNL A   1      40.759  28.518  29.105  1.00  0.00     0.037 A 
ATOM     49  C   UNL A   1      41.147  31.209  35.037  1.00  0.00     0.049 A 
ATOM     50  C   UNL A   1      41.645  28.275  30.296  1.00  0.00     0.074 A 
ATOM     51  C   UNL A   1      42.002  30.872  36.072  1.00  0.00     0.029 A 
ATOM     52  N   UNL A   1      41.442  30.361  33.981  1.00  0.00    -0.354 N 
ATOM     53  N   UNL A   1      41.634  28.860  31.468  1.00  0.00    -0.248 NA
ATOM     54  C   UNL A   1      42.670  27.230  30.155  1.00  0.00     0.031 C 
ATOM     55  C   UNL A   1      42.837  29.839  35.631  1.00  0.00     0.029 A 
ATOM     56  C   UNL A   1      42.473  29.508  34.336  1.00  0.00     0.049 A 
ATOM     57  H   UNL A   1      40.985  30.364  33.109  1.00  0.00     0.167 HD
ATOM     58  C   UNL A   1      42.624  28.236  32.214  1.00  0.00     0.074 A 
ATOM     59  C   UNL A   1      43.204  27.215  31.368  1.00  0.00     0.031 C 
ATOM     60  C   UNL A   1      43.023  28.486  33.485  1.00  0.00     0.037 A 
BRANCH  47  61
ATOM     61  C   UNL A   1      39.993  33.119  36.206  1.00  0.00     0.057 A 
ATOM     62  C   UNL A   1      40.723  34.309  36.327  1.00  0.00     0.134 A 
ATOM     63  C   UNL A   1      39.079  32.815  37.222  1.00  0.00     0.134 A 
ATOM     64  F   UNL A   1      41.624  34.651  35.394  1.00  0.00    -0.206 F 
ATOM     65  C   UNL A   1      40.558  35.158  37.422  1.00  0.00     0.040 A 
ATOM     66  C   UNL A   1      38.889  33.667  38.312  1.00  0.00     0.040 A 
ATOM     67  F   UNL A   1      38.347  31.692  37.167  1.00  0.00    -0.206 F 
ATOM     68  C   UNL A   1      39.632  34.841  38.413  1.00  0.00     0.006 A 
ENDBRANCH  47  61
BRANCH  48  69
ATOM     69  C   UNL A   1      40.957  27.748  27.851  1.00  0.00     0.057 A 
ATOM     70  C   UNL A   1      40.403  26.473  27.690  1.00  0.00     0.134 A 
ATOM     71  C   UNL A   1      41.733  28.251  26.801  1.00  0.00     0.134 A 
ATOM     72  F   UNL A   1      39.663  25.930  28.669  1.00  0.00    -0.206 F 
ATOM     73  C   UNL A   1      40.640  25.710  26.546  1.00  0.00     0.040 A 
ATOM     74  C   UNL A   1      41.958  27.510  25.639  1.00  0.00     0.040 A 
ATOM     75  F   UNL A   1      42.282  29.471  26.888  1.00  0.00    -0.206 F 
ATOM     76  C   UNL A   1      41.420  26.231  25.515  1.00  0.00     0.006 A 
ENDBRANCH  48  69
BRANCH  60  77
ATOM     77  C   UNL A   1      44.103  27.610  34.044  1.00  0.00     0.057 A 
ATOM     78  C   UNL A   1      45.457  27.959  33.959  1.00  0.00     0.134 A 
ATOM     79  C   UNL A   1      43.782  26.410  34.691  1.00  0.00     0.134 A 
ATOM     80  F   UNL A   1      45.830  29.090  33.342  1.00  0.00    -0.206 F 
ATOM     81  C   UNL A   1      46.456  27.128  34.469  1.00  0.00     0.040 A 
ATOM     82  C   UNL A   1      44.770  25.584  35.227  1.00  0.00     0.040 A 
ATOM     83  F   UNL A   1      42.503  26.024  34.815  1.00  0.00    -0.206 F 
ATOM     84  C   UNL A   1      46.112  25.938  35.109  1.00  0.00     0.006 A 
ENDBRANCH  60  77
ENDBRANCH  34  35
ENDBRANCH  26  29
ENDBRANCH  24  25
ENDBRANCH  23  24
ENDBRANCH  22  23
ENDBRANCH   1  22
TORSDOF 16
ENDMDL
