MODEL 1
REMARK VINA RESULT:     -11.3      0.000      0.000
REMARK SMILES O=C(NCCCCNC(=O)c1cncnc1N1CC[C@H]2[NH2+]CCC[C@]2(CO)C1)c1ccc(-c2c3nc(c(-c4c(F)cccc4F)c4ccc([nH]4)c(-c4c(F)cccc4F)c4nc(c(-c5c(F)cccc5F)c5ccc2[nH]5)C=C4)C=C3)cc1
REMARK SMILES IDX 6 1 5 2 4 3 3 4 1 5 2 6 29 8 30 9 82 10 31 11 81 12 32 13
REMARK SMILES IDX 33 14 34 15 75 16 35 17 80 18 74 19 76 20 36 21 79 22 73 23
REMARK SMILES IDX 72 24 37 26 63 27 46 28 62 29 47 30 50 31 61 32 77 33 48 34
REMARK SMILES IDX 49 35 60 37 78 38 51 39 38 40 39 41 44 42 40 43 41 44 43 45
REMARK SMILES IDX 45 46 42 47 64 48 65 49 70 50 66 51 67 52 69 53 71 54 68 55
REMARK SMILES IDX 52 56 53 57 58 58 54 59 55 60 57 61 59 62 56 63 7 64 8 65
REMARK SMILES IDX 9 66 10 68 11 69 12 70 16 71 13 72 15 73 14 74 17 75 18 76
REMARK SMILES IDX 28 77 19 78 25 79 20 80 24 81 21 82 23 83 22 84 26 87 27 88
REMARK H PARENT 3 7 76 25 50 36 8 67 21 85 21 86 27 89
REMARK Flexibility Score: inf
ROOT
ATOM      1  C   UNL A   1      38.595  22.679  26.126  1.00  0.00     0.023 C 
ENDROOT
BRANCH   1   2
ATOM      2  C   UNL A   1      38.755  21.371  25.357  1.00  0.00     0.023 C 
BRANCH   2   3
ATOM      3  C   UNL A   1      38.967  20.128  26.209  1.00  0.00     0.116 C 
BRANCH   3   4
ATOM      4  N   UNL A   1      40.120  19.335  25.806  1.00  0.00    -0.352 N 
ATOM      5  O   UNL A   1      42.294  18.909  25.376  1.00  0.00    -0.269 OA
ATOM      6  C   UNL A   1      41.459  19.659  25.854  1.00  0.00     0.251 C 
ATOM      7  H   UNL A   1      39.914  18.442  25.450  1.00  0.00     0.163 HD
BRANCH   6   8
ATOM      8  C   UNL A   1      41.878  20.946  26.459  1.00  0.00     0.039 A 
ATOM      9  C   UNL A   1      41.830  21.128  27.842  1.00  0.00     0.014 A 
ATOM     10  C   UNL A   1      42.302  21.988  25.629  1.00  0.00     0.014 A 
ATOM     11  C   UNL A   1      42.038  22.394  28.375  1.00  0.00     0.010 A 
ATOM     12  C   UNL A   1      42.607  23.238  26.180  1.00  0.00     0.010 A 
ATOM     13  C   UNL A   1      42.441  23.462  27.554  1.00  0.00    -0.014 A 
BRANCH  13  14
ATOM     14  C   UNL A   1      42.736  24.772  28.189  1.00  0.00     0.031 A 
ATOM     15  C   UNL A   1      44.139  25.179  28.546  1.00  0.00     0.074 A 
ATOM     16  C   UNL A   1      41.717  25.634  28.373  1.00  0.00     0.049 A 
ATOM     17  N   UNL A   1      44.566  26.322  29.023  1.00  0.00    -0.248 NA
ATOM     18  C   UNL A   1      45.201  24.180  28.353  1.00  0.00     0.031 C 
ATOM     19  C   UNL A   1      40.309  25.340  28.087  1.00  0.00     0.029 A 
ATOM     20  N   UNL A   1      41.703  26.935  28.802  1.00  0.00    -0.354 N 
ATOM     21  C   UNL A   1      45.936  26.178  29.197  1.00  0.00     0.074 A 
ATOM     22  C   UNL A   1      46.270  24.828  28.800  1.00  0.00     0.031 C 
ATOM     23  C   UNL A   1      39.580  26.449  28.283  1.00  0.00     0.029 A 
ATOM     24  C   UNL A   1      40.456  27.510  28.763  1.00  0.00     0.049 A 
ATOM     25  H   UNL A   1      42.509  27.411  29.108  1.00  0.00     0.167 HD
ATOM     26  C   UNL A   1      46.833  27.093  29.639  1.00  0.00     0.037 A 
ATOM     27  C   UNL A   1      40.056  28.754  29.083  1.00  0.00     0.037 A 
ATOM     28  C   UNL A   1      46.500  28.442  30.023  1.00  0.00     0.049 A 
ATOM     29  C   UNL A   1      41.075  29.746  29.557  1.00  0.00     0.074 A 
ATOM     30  C   UNL A   1      47.342  29.445  30.475  1.00  0.00     0.029 A 
ATOM     31  N   UNL A   1      45.221  28.980  29.996  1.00  0.00    -0.354 N 
ATOM     32  N   UNL A   1      42.369  29.596  29.700  1.00  0.00    -0.248 NA
ATOM     33  C   UNL A   1      40.577  31.080  29.918  1.00  0.00     0.031 C 
ATOM     34  C   UNL A   1      46.569  30.579  30.750  1.00  0.00     0.029 A 
ATOM     35  C   UNL A   1      45.251  30.295  30.432  1.00  0.00     0.049 A 
ATOM     36  H   UNL A   1      44.413  28.498  29.708  1.00  0.00     0.167 HD
ATOM     37  C   UNL A   1      42.840  30.812  30.170  1.00  0.00     0.074 A 
ATOM     38  C   UNL A   1      41.699  31.702  30.251  1.00  0.00     0.031 C 
ATOM     39  C   UNL A   1      44.103  31.159  30.518  1.00  0.00     0.037 A 
BRANCH  26  40
ATOM     40  C   UNL A   1      48.270  26.672  29.739  1.00  0.00     0.057 A 
ATOM     41  C   UNL A   1      48.760  25.988  30.858  1.00  0.00     0.134 A 
ATOM     42  C   UNL A   1      49.156  26.890  28.676  1.00  0.00     0.134 A 
ATOM     43  F   UNL A   1      47.966  25.757  31.915  1.00  0.00    -0.206 F 
ATOM     44  C   UNL A   1      50.083  25.543  30.920  1.00  0.00     0.040 A 
ATOM     45  C   UNL A   1      50.475  26.433  28.718  1.00  0.00     0.040 A 
ATOM     46  F   UNL A   1      48.749  27.533  27.571  1.00  0.00    -0.206 F 
ATOM     47  C   UNL A   1      50.941  25.758  29.845  1.00  0.00     0.006 A 
ENDBRANCH  26  40
BRANCH  27  48
ATOM     48  C   UNL A   1      38.624  29.119  28.971  1.00  0.00     0.057 A 
ATOM     49  C   UNL A   1      37.761  29.026  30.068  1.00  0.00     0.134 A 
ATOM     50  C   UNL A   1      38.088  29.582  27.763  1.00  0.00     0.134 A 
ATOM     51  F   UNL A   1      38.213  28.575  31.246  1.00  0.00    -0.206 F 
ATOM     52  C   UNL A   1      36.411  29.365  29.964  1.00  0.00     0.040 A 
ATOM     53  C   UNL A   1      36.747  29.950  27.652  1.00  0.00     0.040 A 
ATOM     54  F   UNL A   1      38.868  29.703  26.679  1.00  0.00    -0.206 F 
ATOM     55  C   UNL A   1      35.903  29.835  28.754  1.00  0.00     0.006 A 
ENDBRANCH  27  48
BRANCH  39  56
ATOM     56  C   UNL A   1      44.301  32.559  31.015  1.00  0.00     0.057 A 
ATOM     57  C   UNL A   1      44.576  33.615  30.138  1.00  0.00     0.134 A 
ATOM     58  C   UNL A   1      44.220  32.853  32.381  1.00  0.00     0.134 A 
ATOM     59  F   UNL A   1      44.681  33.392  28.818  1.00  0.00    -0.206 F 
ATOM     60  C   UNL A   1      44.793  34.912  30.604  1.00  0.00     0.040 A 
ATOM     61  C   UNL A   1      44.413  34.150  32.858  1.00  0.00     0.040 A 
ATOM     62  F   UNL A   1      43.956  31.886  33.273  1.00  0.00    -0.206 F 
ATOM     63  C   UNL A   1      44.709  35.182  31.969  1.00  0.00     0.006 A 
ENDBRANCH  39  56
ENDBRANCH  13  14
ENDBRANCH   6   8
ENDBRANCH   3   4
ENDBRANCH   2   3
ENDBRANCH   1   2
BRANCH   1  64
ATOM     64  C   UNL A   1      37.324  23.467  25.824  1.00  0.00     0.116 C 
BRANCH  64  65
ATOM     65  N   UNL A   1      37.032  23.561  24.399  1.00  0.00    -0.352 N 
ATOM     66  C   UNL A   1      35.931  23.115  23.706  1.00  0.00     0.256 C 
ATOM     67  H   UNL A   1      37.721  24.009  23.856  1.00  0.00     0.163 HD
ATOM     68  O   UNL A   1      35.842  23.318  22.500  1.00  0.00    -0.269 OA
BRANCH  66  69
ATOM     69  C   UNL A   1      34.856  22.433  24.430  1.00  0.00     0.100 A 
ATOM     70  C   UNL A   1      35.030  21.089  24.714  1.00  0.00     0.130 A 
ATOM     71  C   UNL A   1      33.715  23.040  24.936  1.00  0.00     0.144 A 
ATOM     72  N   UNL A   1      34.125  20.327  25.351  1.00  0.00    -0.244 NA
ATOM     73  N   UNL A   1      32.791  22.291  25.585  1.00  0.00    -0.219 NA
ATOM     74  C   UNL A   1      33.029  20.981  25.750  1.00  0.00     0.224 A 
BRANCH  71  75
ATOM     75  N   UNL A   1      33.433  24.399  24.913  1.00  0.00    -0.355 N 
ATOM     76  C   UNL A   1      33.589  25.241  26.093  1.00  0.00     0.124 C 
ATOM     77  C   UNL A   1      32.331  24.712  23.988  1.00  0.00     0.133 C 
ATOM     78  C   UNL A   1      33.651  26.718  25.690  1.00  0.00     0.087 C 
ATOM     79  C   UNL A   1      32.359  26.191  23.555  1.00  0.00     0.063 C 
ATOM     80  C   UNL A   1      32.434  27.073  24.828  1.00  0.00     0.194 C 
ATOM     81  C   UNL A   1      31.031  26.531  22.829  1.00  0.00     0.023 C 
ATOM     82  N   UNL A   1      32.415  28.507  24.487  1.00  0.00    -0.343 N 
ATOM     83  C   UNL A   1      30.912  28.029  22.551  1.00  0.00     0.062 C 
ATOM     84  C   UNL A   1      31.162  28.863  23.808  1.00  0.00     0.260 C 
ATOM     85  H   UNL A   1      33.201  28.716  23.872  1.00  0.00     0.346 HD
ATOM     86  H   UNL A   1      32.488  29.050  25.348  1.00  0.00     0.346 HD
BRANCH  79  87
ATOM     87  C   UNL A   1      33.569  26.419  22.611  1.00  0.00     0.171 C 
BRANCH  87  88
ATOM     88  O   UNL A   1      33.653  25.388  21.626  1.00  0.00    -0.395 OA
ATOM     89  H   UNL A   1      34.486  25.477  21.136  1.00  0.00     0.210 HD
ENDBRANCH  87  88
ENDBRANCH  79  87
ENDBRANCH  71  75
ENDBRANCH  66  69
ENDBRANCH  64  65
ENDBRANCH   1  64
TORSDOF 14
ENDMDL
MODEL 2
REMARK VINA RESULT:     -11.2      0.489      6.149
REMARK SMILES O=C(NCCCCNC(=O)c1cncnc1N1CC[C@H]2[NH2+]CCC[C@]2(CO)C1)c1ccc(-c2c3nc(c(-c4c(F)cccc4F)c4ccc([nH]4)c(-c4c(F)cccc4F)c4nc(c(-c5c(F)cccc5F)c5ccc2[nH]5)C=C4)C=C3)cc1
REMARK SMILES IDX 6 1 5 2 4 3 3 4 1 5 2 6 29 8 30 9 82 10 31 11 81 12 32 13
REMARK SMILES IDX 33 14 34 15 75 16 35 17 80 18 74 19 76 20 36 21 79 22 73 23
REMARK SMILES IDX 72 24 37 26 63 27 46 28 62 29 47 30 50 31 61 32 77 33 48 34
REMARK SMILES IDX 49 35 60 37 78 38 51 39 38 40 39 41 44 42 40 43 41 44 43 45
REMARK SMILES IDX 45 46 42 47 64 48 65 49 70 50 66 51 67 52 69 53 71 54 68 55
REMARK SMILES IDX 52 56 53 57 58 58 54 59 55 60 57 61 59 62 56 63 7 64 8 65
REMARK SMILES IDX 9 66 10 68 11 69 12 70 16 71 13 72 15 73 14 74 17 75 18 76
REMARK SMILES IDX 28 77 19 78 25 79 20 80 24 81 21 82 23 83 22 84 26 87 27 88
REMARK H PARENT 3 7 76 25 50 36 8 67 21 85 21 86 27 89
REMARK Flexibility Score: inf
ROOT
ATOM      1  C   UNL A   1      38.802  22.554  26.108  1.00  0.00     0.023 C 
ENDROOT
BRANCH   1   2
ATOM      2  C   UNL A   1      38.928  21.185  25.447  1.00  0.00     0.023 C 
BRANCH   2   3
ATOM      3  C   UNL A   1      39.268  20.032  26.380  1.00  0.00     0.116 C 
BRANCH   3   4
ATOM      4  N   UNL A   1      40.428  19.260  25.956  1.00  0.00    -0.352 N 
ATOM      5  O   UNL A   1      42.592  18.887  25.440  1.00  0.00    -0.269 OA
ATOM      6  C   UNL A   1      41.755  19.629  25.926  1.00  0.00     0.251 C 
ATOM      7  H   UNL A   1      40.236  18.346  25.648  1.00  0.00     0.163 HD
BRANCH   6   8
ATOM      8  C   UNL A   1      42.157  20.954  26.457  1.00  0.00     0.039 A 
ATOM      9  C   UNL A   1      42.148  21.200  27.830  1.00  0.00     0.014 A 
ATOM     10  C   UNL A   1      42.526  21.966  25.566  1.00  0.00     0.014 A 
ATOM     11  C   UNL A   1      42.338  22.495  28.297  1.00  0.00     0.010 A 
ATOM     12  C   UNL A   1      42.813  23.249  26.048  1.00  0.00     0.010 A 
ATOM     13  C   UNL A   1      42.684  23.533  27.415  1.00  0.00    -0.014 A 
BRANCH  13  14
ATOM     14  C   UNL A   1      42.963  24.879  27.978  1.00  0.00     0.031 A 
ATOM     15  C   UNL A   1      41.865  25.873  28.231  1.00  0.00     0.074 A 
ATOM     16  C   UNL A   1      44.230  25.168  28.334  1.00  0.00     0.049 A 
ATOM     17  N   UNL A   1      41.939  27.052  28.798  1.00  0.00    -0.248 NA
ATOM     18  C   UNL A   1      40.510  25.509  27.788  1.00  0.00     0.031 C 
ATOM     19  C   UNL A   1      45.384  24.291  28.114  1.00  0.00     0.029 A 
ATOM     20  N   UNL A   1      44.758  26.252  28.986  1.00  0.00    -0.354 N 
ATOM     21  C   UNL A   1      40.652  27.573  28.771  1.00  0.00     0.074 A 
ATOM     22  C   UNL A   1      39.817  26.596  28.108  1.00  0.00     0.031 C 
ATOM     23  C   UNL A   1      46.468  24.840  28.683  1.00  0.00     0.029 A 
ATOM     24  C   UNL A   1      46.100  26.130  29.252  1.00  0.00     0.049 A 
ATOM     25  H   UNL A   1      44.225  27.042  29.239  1.00  0.00     0.167 HD
ATOM     26  C   UNL A   1      40.208  28.756  29.263  1.00  0.00     0.037 A 
ATOM     27  C   UNL A   1      46.946  26.965  29.880  1.00  0.00     0.037 A 
ATOM     28  C   UNL A   1      41.040  29.723  29.934  1.00  0.00     0.049 A 
ATOM     29  C   UNL A   1      46.422  28.259  30.425  1.00  0.00     0.074 A 
ATOM     30  C   UNL A   1      40.678  30.946  30.475  1.00  0.00     0.029 A 
ATOM     31  N   UNL A   1      42.400  29.576  30.161  1.00  0.00    -0.354 N 
ATOM     32  N   UNL A   1      45.198  28.728  30.402  1.00  0.00    -0.248 NA
ATOM     33  C   UNL A   1      47.396  29.143  31.077  1.00  0.00     0.031 C 
ATOM     34  C   UNL A   1      41.825  31.551  31.002  1.00  0.00     0.029 A 
ATOM     35  C   UNL A   1      42.894  30.689  30.824  1.00  0.00     0.049 A 
ATOM     36  H   UNL A   1      42.936  28.795  29.891  1.00  0.00     0.167 HD
ATOM     37  C   UNL A   1      45.255  29.961  31.034  1.00  0.00     0.074 A 
ATOM     38  C   UNL A   1      46.626  30.151  31.462  1.00  0.00     0.031 C 
ATOM     39  C   UNL A   1      44.263  30.864  31.230  1.00  0.00     0.037 A 
BRANCH  26  40
ATOM     40  C   UNL A   1      38.753  29.081  29.094  1.00  0.00     0.057 A 
ATOM     41  C   UNL A   1      37.852  28.999  30.164  1.00  0.00     0.134 A 
ATOM     42  C   UNL A   1      38.260  29.548  27.869  1.00  0.00     0.134 A 
ATOM     43  F   UNL A   1      38.257  28.550  31.361  1.00  0.00    -0.206 F 
ATOM     44  C   UNL A   1      36.511  29.362  30.017  1.00  0.00     0.040 A 
ATOM     45  C   UNL A   1      36.927  29.932  27.715  1.00  0.00     0.040 A 
ATOM     46  F   UNL A   1      39.072  29.657  26.806  1.00  0.00    -0.206 F 
ATOM     47  C   UNL A   1      36.048  29.838  28.793  1.00  0.00     0.006 A 
ENDBRANCH  26  40
BRANCH  27  48
ATOM     48  C   UNL A   1      48.376  26.599  30.018  1.00  0.00     0.057 A 
ATOM     49  C   UNL A   1      48.832  25.836  31.097  1.00  0.00     0.134 A 
ATOM     50  C   UNL A   1      49.320  26.997  29.062  1.00  0.00     0.134 A 
ATOM     51  F   UNL A   1      47.978  25.439  32.052  1.00  0.00    -0.206 F 
ATOM     52  C   UNL A   1      50.178  25.493  31.232  1.00  0.00     0.040 A 
ATOM     53  C   UNL A   1      50.664  26.639  29.170  1.00  0.00     0.040 A 
ATOM     54  F   UNL A   1      48.943  27.721  27.999  1.00  0.00    -0.206 F 
ATOM     55  C   UNL A   1      51.097  25.890  30.262  1.00  0.00     0.006 A 
ENDBRANCH  27  48
BRANCH  39  56
ATOM     56  C   UNL A   1      44.640  32.130  31.936  1.00  0.00     0.057 A 
ATOM     57  C   UNL A   1      44.570  32.239  33.331  1.00  0.00     0.134 A 
ATOM     58  C   UNL A   1      45.073  33.251  31.219  1.00  0.00     0.134 A 
ATOM     59  F   UNL A   1      44.146  31.203  34.073  1.00  0.00    -0.206 F 
ATOM     60  C   UNL A   1      44.888  33.428  33.987  1.00  0.00     0.040 A 
ATOM     61  C   UNL A   1      45.416  34.440  31.864  1.00  0.00     0.040 A 
ATOM     62  F   UNL A   1      45.166  33.211  29.881  1.00  0.00    -0.206 F 
ATOM     63  C   UNL A   1      45.316  34.533  33.252  1.00  0.00     0.006 A 
ENDBRANCH  39  56
ENDBRANCH  13  14
ENDBRANCH   6   8
ENDBRANCH   3   4
ENDBRANCH   2   3
ENDBRANCH   1   2
BRANCH   1  64
ATOM     64  C   UNL A   1      37.497  23.296  25.838  1.00  0.00     0.116 C 
BRANCH  64  65
ATOM     65  N   UNL A   1      37.195  23.428  24.419  1.00  0.00    -0.352 N 
ATOM     66  C   UNL A   1      36.086  23.005  23.722  1.00  0.00     0.256 C 
ATOM     67  H   UNL A   1      37.883  23.885  23.881  1.00  0.00     0.163 HD
ATOM     68  O   UNL A   1      35.990  23.239  22.523  1.00  0.00    -0.269 OA
BRANCH  66  69
ATOM     69  C   UNL A   1      35.013  22.311  24.437  1.00  0.00     0.100 A 
ATOM     70  C   UNL A   1      35.211  20.975  24.745  1.00  0.00     0.130 A 
ATOM     71  C   UNL A   1      33.850  22.901  24.912  1.00  0.00     0.144 A 
ATOM     72  N   UNL A   1      34.310  20.204  25.377  1.00  0.00    -0.244 NA
ATOM     73  N   UNL A   1      32.930  22.141  25.557  1.00  0.00    -0.219 NA
ATOM     74  C   UNL A   1      33.193  20.840  25.746  1.00  0.00     0.224 A 
BRANCH  71  75
ATOM     75  N   UNL A   1      33.539  24.252  24.863  1.00  0.00    -0.355 N 
ATOM     76  C   UNL A   1      33.692  25.123  26.023  1.00  0.00     0.124 C 
ATOM     77  C   UNL A   1      32.420  24.522  23.945  1.00  0.00     0.133 C 
ATOM     78  C   UNL A   1      33.718  26.592  25.587  1.00  0.00     0.087 C 
ATOM     79  C   UNL A   1      32.412  25.992  23.480  1.00  0.00     0.063 C 
ATOM     80  C   UNL A   1      32.483  26.903  24.733  1.00  0.00     0.194 C 
ATOM     81  C   UNL A   1      31.069  26.288  22.763  1.00  0.00     0.023 C 
ATOM     82  N   UNL A   1      32.431  28.328  24.361  1.00  0.00    -0.343 N 
ATOM     83  C   UNL A   1      30.916  27.777  22.454  1.00  0.00     0.062 C 
ATOM     84  C   UNL A   1      31.163  28.644  23.690  1.00  0.00     0.260 C 
ATOM     85  H   UNL A   1      33.205  28.540  23.731  1.00  0.00     0.346 HD
ATOM     86  H   UNL A   1      32.502  28.891  25.208  1.00  0.00     0.346 HD
BRANCH  79  87
ATOM     87  C   UNL A   1      33.606  26.224  22.517  1.00  0.00     0.171 C 
BRANCH  87  88
ATOM     88  O   UNL A   1      33.692  25.181  21.545  1.00  0.00    -0.395 OA
ATOM     89  H   UNL A   1      34.519  24.689  21.670  1.00  0.00     0.210 HD
ENDBRANCH  87  88
ENDBRANCH  79  87
ENDBRANCH  71  75
ENDBRANCH  66  69
ENDBRANCH  64  65
ENDBRANCH   1  64
TORSDOF 14
ENDMDL
MODEL 3
REMARK VINA RESULT:     -11.0      3.362      8.725
REMARK SMILES O=C(NCCCCNC(=O)c1cncnc1N1CC[C@H]2[NH2+]CCC[C@]2(CO)C1)c1ccc(-c2c3nc(c(-c4c(F)cccc4F)c4ccc([nH]4)c(-c4c(F)cccc4F)c4nc(c(-c5c(F)cccc5F)c5ccc2[nH]5)C=C4)C=C3)cc1
REMARK SMILES IDX 6 1 5 2 4 3 3 4 1 5 2 6 29 8 30 9 82 10 31 11 81 12 32 13
REMARK SMILES IDX 33 14 34 15 75 16 35 17 80 18 74 19 76 20 36 21 79 22 73 23
REMARK SMILES IDX 72 24 37 26 63 27 46 28 62 29 47 30 50 31 61 32 77 33 48 34
REMARK SMILES IDX 49 35 60 37 78 38 51 39 38 40 39 41 44 42 40 43 41 44 43 45
REMARK SMILES IDX 45 46 42 47 64 48 65 49 70 50 66 51 67 52 69 53 71 54 68 55
REMARK SMILES IDX 52 56 53 57 58 58 54 59 55 60 57 61 59 62 56 63 7 64 8 65
REMARK SMILES IDX 9 66 10 68 11 69 12 70 16 71 13 72 15 73 14 74 17 75 18 76
REMARK SMILES IDX 28 77 19 78 25 79 20 80 24 81 21 82 23 83 22 84 26 87 27 88
REMARK H PARENT 3 7 76 25 50 36 8 67 21 85 21 86 27 89
REMARK Flexibility Score: inf
ROOT
ATOM      1  C   UNL A   1      34.310  30.689  27.546  1.00  0.00     0.023 C 
ENDROOT
BRANCH   1   2
ATOM      2  C   UNL A   1      33.036  31.512  27.712  1.00  0.00     0.023 C 
BRANCH   2   3
ATOM      3  C   UNL A   1      33.021  32.854  26.993  1.00  0.00     0.116 C 
BRANCH   3   4
ATOM      4  N   UNL A   1      32.577  33.959  27.831  1.00  0.00    -0.352 N 
ATOM      5  O   UNL A   1      32.614  35.371  29.590  1.00  0.00    -0.269 OA
ATOM      6  C   UNL A   1      33.181  34.507  28.942  1.00  0.00     0.251 C 
ATOM      7  H   UNL A   1      31.725  34.373  27.565  1.00  0.00     0.163 HD
BRANCH   6   8
ATOM      8  C   UNL A   1      34.513  34.013  29.367  1.00  0.00     0.039 A 
ATOM      9  C   UNL A   1      35.662  34.385  28.670  1.00  0.00     0.014 A 
ATOM     10  C   UNL A   1      34.606  33.152  30.464  1.00  0.00     0.014 A 
ATOM     11  C   UNL A   1      36.871  33.764  28.958  1.00  0.00     0.010 A 
ATOM     12  C   UNL A   1      35.844  32.603  30.816  1.00  0.00     0.010 A 
ATOM     13  C   UNL A   1      36.981  32.875  30.041  1.00  0.00    -0.014 A 
BRANCH  13  14
ATOM     14  C   UNL A   1      38.317  32.308  30.361  1.00  0.00     0.031 A 
ATOM     15  C   UNL A   1      39.220  32.940  31.384  1.00  0.00     0.074 A 
ATOM     16  C   UNL A   1      38.678  31.156  29.763  1.00  0.00     0.049 A 
ATOM     17  N   UNL A   1      40.373  32.515  31.835  1.00  0.00    -0.248 NA
ATOM     18  C   UNL A   1      38.782  34.215  31.974  1.00  0.00     0.031 C 
ATOM     19  C   UNL A   1      37.895  30.463  28.735  1.00  0.00     0.029 A 
ATOM     20  N   UNL A   1      39.765  30.345  29.953  1.00  0.00    -0.354 N 
ATOM     21  C   UNL A   1      40.804  33.468  32.748  1.00  0.00     0.074 A 
ATOM     22  C   UNL A   1      39.801  34.511  32.771  1.00  0.00     0.031 C 
ATOM     23  C   UNL A   1      38.492  29.300  28.437  1.00  0.00     0.029 A 
ATOM     24  C   UNL A   1      39.726  29.194  29.205  1.00  0.00     0.049 A 
ATOM     25  H   UNL A   1      40.504  30.566  30.567  1.00  0.00     0.167 HD
ATOM     26  C   UNL A   1      41.929  33.467  33.504  1.00  0.00     0.037 A 
ATOM     27  C   UNL A   1      40.589  28.164  29.137  1.00  0.00     0.037 A 
ATOM     28  C   UNL A   1      42.922  32.421  33.488  1.00  0.00     0.049 A 
ATOM     29  C   UNL A   1      41.817  28.187  29.996  1.00  0.00     0.074 A 
ATOM     30  C   UNL A   1      44.090  32.329  34.226  1.00  0.00     0.029 A 
ATOM     31  N   UNL A   1      42.860  31.284  32.697  1.00  0.00    -0.354 N 
ATOM     32  N   UNL A   1      42.199  29.091  30.865  1.00  0.00    -0.248 NA
ATOM     33  C   UNL A   1      42.737  27.050  29.861  1.00  0.00     0.031 C 
ATOM     34  C   UNL A   1      44.750  31.150  33.859  1.00  0.00     0.029 A 
ATOM     35  C   UNL A   1      43.973  30.489  32.921  1.00  0.00     0.049 A 
ATOM     36  H   UNL A   1      42.131  31.072  32.070  1.00  0.00     0.167 HD
ATOM     37  C   UNL A   1      43.404  28.634  31.379  1.00  0.00     0.074 A 
ATOM     38  C   UNL A   1      43.670  27.355  30.752  1.00  0.00     0.031 C 
ATOM     39  C   UNL A   1      44.226  29.227  32.278  1.00  0.00     0.037 A 
BRANCH  26  40
ATOM     40  C   UNL A   1      42.159  34.636  34.417  1.00  0.00     0.057 A 
ATOM     41  C   UNL A   1      41.786  34.601  35.766  1.00  0.00     0.134 A 
ATOM     42  C   UNL A   1      42.823  35.782  33.961  1.00  0.00     0.134 A 
ATOM     43  F   UNL A   1      41.137  33.537  36.264  1.00  0.00    -0.206 F 
ATOM     44  C   UNL A   1      42.057  35.667  36.627  1.00  0.00     0.040 A 
ATOM     45  C   UNL A   1      43.118  36.846  34.816  1.00  0.00     0.040 A 
ATOM     46  F   UNL A   1      43.215  35.878  32.681  1.00  0.00    -0.206 F 
ATOM     47  C   UNL A   1      42.733  36.790  36.154  1.00  0.00     0.006 A 
ENDBRANCH  26  40
BRANCH  27  48
ATOM     48  C   UNL A   1      40.318  27.035  28.216  1.00  0.00     0.057 A 
ATOM     49  C   UNL A   1      40.883  26.986  26.938  1.00  0.00     0.134 A 
ATOM     50  C   UNL A   1      39.494  25.969  28.601  1.00  0.00     0.134 A 
ATOM     51  F   UNL A   1      41.668  27.985  26.508  1.00  0.00    -0.206 F 
ATOM     52  C   UNL A   1      40.627  25.926  26.067  1.00  0.00     0.040 A 
ATOM     53  C   UNL A   1      39.251  24.890  27.751  1.00  0.00     0.040 A 
ATOM     54  F   UNL A   1      38.932  25.954  29.818  1.00  0.00    -0.206 F 
ATOM     55  C   UNL A   1      39.813  24.871  26.476  1.00  0.00     0.006 A 
ENDBRANCH  27  48
BRANCH  39  56
ATOM     56  C   UNL A   1      45.482  28.489  32.627  1.00  0.00     0.057 A 
ATOM     57  C   UNL A   1      45.516  27.554  33.669  1.00  0.00     0.134 A 
ATOM     58  C   UNL A   1      46.668  28.716  31.920  1.00  0.00     0.134 A 
ATOM     59  F   UNL A   1      44.414  27.305  34.395  1.00  0.00    -0.206 F 
ATOM     60  C   UNL A   1      46.694  26.891  34.016  1.00  0.00     0.040 A 
ATOM     61  C   UNL A   1      47.847  28.044  32.241  1.00  0.00     0.040 A 
ATOM     62  F   UNL A   1      46.700  29.596  30.907  1.00  0.00    -0.206 F 
ATOM     63  C   UNL A   1      47.864  27.134  33.298  1.00  0.00     0.006 A 
ENDBRANCH  39  56
ENDBRANCH  13  14
ENDBRANCH   6   8
ENDBRANCH   3   4
ENDBRANCH   2   3
ENDBRANCH   1   2
BRANCH   1  64
ATOM     64  C   UNL A   1      34.116  29.287  26.976  1.00  0.00     0.116 C 
BRANCH  64  65
ATOM     65  N   UNL A   1      33.008  28.567  27.588  1.00  0.00    -0.352 N 
ATOM     66  C   UNL A   1      31.893  28.019  26.995  1.00  0.00     0.256 C 
ATOM     67  H   UNL A   1      33.065  28.455  28.565  1.00  0.00     0.163 HD
ATOM     68  O   UNL A   1      31.074  27.411  27.675  1.00  0.00    -0.269 OA
BRANCH  66  69
ATOM     69  C   UNL A   1      31.721  28.139  25.546  1.00  0.00     0.100 A 
ATOM     70  C   UNL A   1      31.239  29.344  25.058  1.00  0.00     0.130 A 
ATOM     71  C   UNL A   1      32.082  27.181  24.609  1.00  0.00     0.144 A 
ATOM     72  N   UNL A   1      31.009  29.594  23.758  1.00  0.00    -0.244 NA
ATOM     73  N   UNL A   1      31.863  27.416  23.293  1.00  0.00    -0.219 NA
ATOM     74  C   UNL A   1      31.330  28.593  22.932  1.00  0.00     0.224 A 
BRANCH  71  75
ATOM     75  N   UNL A   1      32.736  25.986  24.874  1.00  0.00    -0.355 N 
ATOM     76  C   UNL A   1      34.168  25.824  24.656  1.00  0.00     0.124 C 
ATOM     77  C   UNL A   1      31.868  24.822  24.625  1.00  0.00     0.133 C 
ATOM     78  C   UNL A   1      34.692  24.609  25.430  1.00  0.00     0.087 C 
ATOM     79  C   UNL A   1      32.360  23.577  25.389  1.00  0.00     0.063 C 
ATOM     80  C   UNL A   1      33.864  23.369  25.072  1.00  0.00     0.194 C 
ATOM     81  C   UNL A   1      31.597  22.331  24.869  1.00  0.00     0.023 C 
ATOM     82  N   UNL A   1      34.388  22.162  25.736  1.00  0.00    -0.343 N 
ATOM     83  C   UNL A   1      32.177  21.039  25.444  1.00  0.00     0.062 C 
ATOM     84  C   UNL A   1      33.693  20.961  25.254  1.00  0.00     0.260 C 
ATOM     85  H   UNL A   1      34.252  22.247  26.743  1.00  0.00     0.346 HD
ATOM     86  H   UNL A   1      35.381  22.074  25.520  1.00  0.00     0.346 HD
BRANCH  79  87
ATOM     87  C   UNL A   1      32.102  23.780  26.905  1.00  0.00     0.171 C 
BRANCH  87  88
ATOM     88  O   UNL A   1      30.711  23.671  27.209  1.00  0.00    -0.395 OA
ATOM     89  H   UNL A   1      30.474  22.735  27.310  1.00  0.00     0.210 HD
ENDBRANCH  87  88
ENDBRANCH  79  87
ENDBRANCH  71  75
ENDBRANCH  66  69
ENDBRANCH  64  65
ENDBRANCH   1  64
TORSDOF 14
ENDMDL
