MODEL 1
REMARK VINA RESULT:     -10.2      0.000      0.000
REMARK SMILES CCN(Cc1ccccn1)C(=O)[C@H]([NH3+])CCC(=O)NCCCCNC(=O)c1ccc(-c2c3nc(c(-c4c(F)cccc4F)c4ccc([nH]4)c(-c4c(F)cccc4F)c4nc(c(-c5c(F)cccc5F)c5ccc2[nH]5)C=C4)C=C3)cc1
REMARK SMILES IDX 17 1 18 2 19 3 16 5 15 6 13 7 11 8 12 9 3 10 2 11 1 12 4 13
REMARK SMILES IDX 5 14 6 15 10 16 7 17 9 18 8 19 14 20 20 24 21 25 22 26 23 27
REMARK SMILES IDX 24 28 25 29 26 31 27 32 28 33 80 34 29 35 79 36 30 37 31 38
REMARK SMILES IDX 32 39 73 40 33 41 78 42 72 43 74 44 34 45 77 46 71 47 70 48
REMARK SMILES IDX 35 50 61 51 44 52 60 53 45 54 48 55 59 56 75 57 46 58 47 59
REMARK SMILES IDX 58 61 76 62 49 63 36 64 37 65 42 66 38 67 39 68 41 69 43 70
REMARK SMILES IDX 40 71 62 72 63 73 68 74 64 75 65 76 67 77 69 78 66 79 50 80
REMARK SMILES IDX 51 81 56 82 52 83 53 84 55 85 57 86 54 87
REMARK H PARENT 19 4 14 21 14 22 14 23 24 30 74 49 48 60
REMARK Flexibility Score: inf
ROOT
ATOM      1  C   UNL A   1      34.479  22.300  26.691  1.00  0.00     0.220 C 
ATOM      2  O   UNL A   1      34.121  22.557  27.841  1.00  0.00    -0.275 OA
ATOM      3  N   UNL A   1      35.817  22.188  26.459  1.00  0.00    -0.356 N 
ATOM      4  H   UNL A   1      36.377  22.365  27.248  1.00  0.00     0.163 HD
ENDROOT
BRANCH   1   5
ATOM      5  C   UNL A   1      33.460  22.138  25.579  1.00  0.00     0.106 C 
BRANCH   5   6
ATOM      6  C   UNL A   1      32.075  21.686  26.078  1.00  0.00     0.085 C 
BRANCH   6   7
ATOM      7  C   UNL A   1      30.968  22.704  25.804  1.00  0.00     0.271 C 
BRANCH   7   8
ATOM      8  C   UNL A   1      31.332  24.163  26.175  1.00  0.00     0.281 C 
ATOM      9  O   UNL A   1      31.484  24.452  27.368  1.00  0.00    -0.268 OA
BRANCH   8  10
ATOM     10  N   UNL A   1      31.226  25.140  25.184  1.00  0.00    -0.332 N 
BRANCH  10  11
ATOM     11  C   UNL A   1      32.142  25.033  24.052  1.00  0.00     0.116 C 
ATOM     12  C   UNL A   1      31.396  25.223  22.732  1.00  0.00     0.027 C 
ENDBRANCH  10  11
BRANCH  10  13
ATOM     13  C   UNL A   1      30.446  26.384  25.281  1.00  0.00     0.175 C 
BRANCH  13  14
ATOM     14  C   UNL A   1      31.248  27.617  25.669  1.00  0.00     0.060 A 
ATOM     15  C   UNL A   1      31.639  27.816  26.991  1.00  0.00     0.026 A 
ATOM     16  N   UNL A   1      31.608  28.484  24.691  1.00  0.00    -0.259 NA
ATOM     17  C   UNL A   1      32.377  28.941  27.341  1.00  0.00     0.004 A 
ATOM     18  C   UNL A   1      32.341  29.566  25.055  1.00  0.00     0.111 A 
ATOM     19  C   UNL A   1      32.741  29.838  26.352  1.00  0.00     0.020 A 
ENDBRANCH  13  14
ENDBRANCH  10  13
ENDBRANCH   8  10
ENDBRANCH   7   8
BRANCH   7  20
ATOM     20  N   UNL A   1      29.728  22.379  26.559  1.00  0.00    -0.347 N 
ATOM     21  H   UNL A   1      29.945  22.303  27.552  1.00  0.00     0.345 HD
ATOM     22  H   UNL A   1      29.349  21.493  26.225  1.00  0.00     0.345 HD
ATOM     23  H   UNL A   1      29.040  23.118  26.416  1.00  0.00     0.345 HD
ENDBRANCH   7  20
ENDBRANCH   6   7
ENDBRANCH   5   6
ENDBRANCH   1   5
BRANCH   3  24
ATOM     24  C   UNL A   1      36.571  21.855  25.261  1.00  0.00     0.116 C 
BRANCH  24  25
ATOM     25  C   UNL A   1      36.704  20.354  25.002  1.00  0.00     0.023 C 
BRANCH  25  26
ATOM     26  C   UNL A   1      38.111  19.865  24.673  1.00  0.00     0.023 C 
BRANCH  26  27
ATOM     27  C   UNL A   1      39.101  20.168  25.772  1.00  0.00     0.116 C 
BRANCH  27  28
ATOM     28  N   UNL A   1      40.210  19.221  25.801  1.00  0.00    -0.352 N 
ATOM     29  C   UNL A   1      41.524  19.428  26.148  1.00  0.00     0.251 C 
ATOM     30  H   UNL A   1      39.984  18.301  25.535  1.00  0.00     0.163 HD
ATOM     31  O   UNL A   1      42.347  18.544  26.006  1.00  0.00    -0.269 OA
BRANCH  29  32
ATOM     32  C   UNL A   1      41.930  20.760  26.648  1.00  0.00     0.039 A 
ATOM     33  C   UNL A   1      42.369  21.720  25.735  1.00  0.00     0.014 A 
ATOM     34  C   UNL A   1      41.821  21.073  28.004  1.00  0.00     0.014 A 
ATOM     35  C   UNL A   1      42.637  23.013  26.180  1.00  0.00     0.010 A 
ATOM     36  C   UNL A   1      41.949  22.387  28.417  1.00  0.00     0.010 A 
ATOM     37  C   UNL A   1      42.393  23.364  27.517  1.00  0.00    -0.014 A 
BRANCH  37  38
ATOM     38  C   UNL A   1      42.654  24.730  28.026  1.00  0.00     0.031 A 
ATOM     39  C   UNL A   1      44.056  25.111  28.419  1.00  0.00     0.074 A 
ATOM     40  C   UNL A   1      41.632  25.588  28.201  1.00  0.00     0.049 A 
ATOM     41  N   UNL A   1      44.489  26.211  28.979  1.00  0.00    -0.248 NA
ATOM     42  C   UNL A   1      45.107  24.101  28.200  1.00  0.00     0.031 C 
ATOM     43  C   UNL A   1      40.223  25.303  27.917  1.00  0.00     0.029 A 
ATOM     44  N   UNL A   1      41.622  26.877  28.665  1.00  0.00    -0.354 N 
ATOM     45  C   UNL A   1      45.845  26.006  29.203  1.00  0.00     0.074 A 
ATOM     46  C   UNL A   1      46.149  24.656  28.795  1.00  0.00     0.031 C 
ATOM     47  C   UNL A   1      39.492  26.399  28.177  1.00  0.00     0.029 A 
ATOM     48  C   UNL A   1      40.372  27.448  28.680  1.00  0.00     0.049 A 
ATOM     49  H   UNL A   1      42.433  27.351  28.960  1.00  0.00     0.167 HD
ATOM     50  C   UNL A   1      46.765  26.882  29.670  1.00  0.00     0.037 A 
ATOM     51  C   UNL A   1      39.987  28.680  29.059  1.00  0.00     0.037 A 
ATOM     52  C   UNL A   1      46.462  28.243  30.016  1.00  0.00     0.049 A 
ATOM     53  C   UNL A   1      41.033  29.647  29.542  1.00  0.00     0.074 A 
ATOM     54  C   UNL A   1      47.325  29.242  30.428  1.00  0.00     0.029 A 
ATOM     55  N   UNL A   1      45.190  28.797  29.978  1.00  0.00    -0.354 N 
ATOM     56  N   UNL A   1      42.325  29.466  29.684  1.00  0.00    -0.248 NA
ATOM     57  C   UNL A   1      40.571  30.992  29.910  1.00  0.00     0.031 C 
ATOM     58  C   UNL A   1      46.569  30.392  30.676  1.00  0.00     0.029 A 
ATOM     59  C   UNL A   1      45.243  30.122  30.374  1.00  0.00     0.049 A 
ATOM     60  H   UNL A   1      44.373  28.319  29.709  1.00  0.00     0.167 HD
ATOM     61  C   UNL A   1      42.833  30.679  30.131  1.00  0.00     0.074 A 
ATOM     62  C   UNL A   1      41.711  31.592  30.220  1.00  0.00     0.031 C 
ATOM     63  C   UNL A   1      44.110  31.009  30.441  1.00  0.00     0.037 A 
BRANCH  50  64
ATOM     64  C   UNL A   1      48.178  26.394  29.809  1.00  0.00     0.057 A 
ATOM     65  C   UNL A   1      49.106  26.506  28.764  1.00  0.00     0.134 A 
ATOM     66  C   UNL A   1      48.621  25.815  31.004  1.00  0.00     0.134 A 
ATOM     67  F   UNL A   1      48.743  27.032  27.585  1.00  0.00    -0.206 F 
ATOM     68  C   UNL A   1      50.413  26.030  28.892  1.00  0.00     0.040 A 
ATOM     69  C   UNL A   1      49.933  25.365  31.155  1.00  0.00     0.040 A 
ATOM     70  F   UNL A   1      47.787  25.678  32.045  1.00  0.00    -0.206 F 
ATOM     71  C   UNL A   1      50.831  25.464  30.093  1.00  0.00     0.006 A 
ENDBRANCH  50  64
BRANCH  51  72
ATOM     72  C   UNL A   1      38.561  29.082  28.958  1.00  0.00     0.057 A 
ATOM     73  C   UNL A   1      38.033  29.572  27.758  1.00  0.00     0.134 A 
ATOM     74  C   UNL A   1      37.693  28.989  30.053  1.00  0.00     0.134 A 
ATOM     75  F   UNL A   1      38.817  29.697  26.678  1.00  0.00    -0.206 F 
ATOM     76  C   UNL A   1      36.701  29.976  27.654  1.00  0.00     0.040 A 
ATOM     77  C   UNL A   1      36.353  29.367  29.957  1.00  0.00     0.040 A 
ATOM     78  F   UNL A   1      38.134  28.517  31.229  1.00  0.00    -0.206 F 
ATOM     79  C   UNL A   1      35.855  29.871  28.756  1.00  0.00     0.006 A 
ENDBRANCH  51  72
BRANCH  63  80
ATOM     80  C   UNL A   1      44.364  32.423  30.870  1.00  0.00     0.057 A 
ATOM     81  C   UNL A   1      44.624  33.439  29.944  1.00  0.00     0.134 A 
ATOM     82  C   UNL A   1      44.298  32.777  32.224  1.00  0.00     0.134 A 
ATOM     83  F   UNL A   1      44.711  33.160  28.635  1.00  0.00    -0.206 F 
ATOM     84  C   UNL A   1      44.834  34.757  30.352  1.00  0.00     0.040 A 
ATOM     85  C   UNL A   1      44.477  34.096  32.640  1.00  0.00     0.040 A 
ATOM     86  F   UNL A   1      44.040  31.851  33.160  1.00  0.00    -0.206 F 
ATOM     87  C   UNL A   1      44.753  35.089  31.703  1.00  0.00     0.006 A 
ENDBRANCH  63  80
ENDBRANCH  37  38
ENDBRANCH  29  32
ENDBRANCH  27  28
ENDBRANCH  26  27
ENDBRANCH  25  26
ENDBRANCH  24  25
ENDBRANCH   3  24
TORSDOF 19
ENDMDL
MODEL 2
REMARK VINA RESULT:     -10.0      4.445      9.218
REMARK SMILES CCN(Cc1ccccn1)C(=O)[C@H]([NH3+])CCC(=O)NCCCCNC(=O)c1ccc(-c2c3nc(c(-c4c(F)cccc4F)c4ccc([nH]4)c(-c4c(F)cccc4F)c4nc(c(-c5c(F)cccc5F)c5ccc2[nH]5)C=C4)C=C3)cc1
REMARK SMILES IDX 17 1 18 2 19 3 16 5 15 6 13 7 11 8 12 9 3 10 2 11 1 12 4 13
REMARK SMILES IDX 5 14 6 15 10 16 7 17 9 18 8 19 14 20 20 24 21 25 22 26 23 27
REMARK SMILES IDX 24 28 25 29 26 31 27 32 28 33 80 34 29 35 79 36 30 37 31 38
REMARK SMILES IDX 32 39 73 40 33 41 78 42 72 43 74 44 34 45 77 46 71 47 70 48
REMARK SMILES IDX 35 50 61 51 44 52 60 53 45 54 48 55 59 56 75 57 46 58 47 59
REMARK SMILES IDX 58 61 76 62 49 63 36 64 37 65 42 66 38 67 39 68 41 69 43 70
REMARK SMILES IDX 40 71 62 72 63 73 68 74 64 75 65 76 67 77 69 78 66 79 50 80
REMARK SMILES IDX 51 81 56 82 52 83 53 84 55 85 57 86 54 87
REMARK H PARENT 19 4 14 21 14 22 14 23 24 30 74 49 48 60
REMARK Flexibility Score: inf
ROOT
ATOM      1  C   UNL A   1      33.351  28.791  23.498  1.00  0.00     0.220 C 
ATOM      2  O   UNL A   1      34.530  28.810  23.141  1.00  0.00    -0.275 OA
ATOM      3  N   UNL A   1      32.967  29.692  24.446  1.00  0.00    -0.356 N 
ATOM      4  H   UNL A   1      33.700  30.256  24.784  1.00  0.00     0.163 HD
ENDROOT
BRANCH   1   5
ATOM      5  C   UNL A   1      32.379  27.785  22.914  1.00  0.00     0.106 C 
BRANCH   5   6
ATOM      6  C   UNL A   1      33.039  26.785  21.946  1.00  0.00     0.085 C 
BRANCH   6   7
ATOM      7  C   UNL A   1      32.133  25.612  21.573  1.00  0.00     0.271 C 
BRANCH   7   8
ATOM      8  C   UNL A   1      32.711  24.219  21.924  1.00  0.00     0.281 C 
ATOM      9  O   UNL A   1      33.641  23.772  21.241  1.00  0.00    -0.268 OA
BRANCH   8  10
ATOM     10  N   UNL A   1      32.002  23.419  22.821  1.00  0.00    -0.332 N 
BRANCH  10  11
ATOM     11  C   UNL A   1      32.217  21.977  22.731  1.00  0.00     0.116 C 
ATOM     12  C   UNL A   1      32.596  21.401  24.095  1.00  0.00     0.027 C 
ENDBRANCH  10  11
BRANCH  10  13
ATOM     13  C   UNL A   1      30.897  23.864  23.686  1.00  0.00     0.175 C 
BRANCH  13  14
ATOM     14  C   UNL A   1      31.286  24.870  24.759  1.00  0.00     0.060 A 
ATOM     15  C   UNL A   1      32.587  24.901  25.257  1.00  0.00     0.026 A 
ATOM     16  N   UNL A   1      30.351  25.759  25.177  1.00  0.00    -0.259 NA
ATOM     17  C   UNL A   1      32.940  25.826  26.233  1.00  0.00     0.004 A 
ATOM     18  C   UNL A   1      30.725  26.661  26.118  1.00  0.00     0.111 A 
ATOM     19  C   UNL A   1      31.991  26.731  26.674  1.00  0.00     0.020 A 
ENDBRANCH  13  14
ENDBRANCH  10  13
ENDBRANCH   8  10
ENDBRANCH   7   8
BRANCH   7  20
ATOM     20  N   UNL A   1      31.845  25.588  20.113  1.00  0.00    -0.347 N 
ATOM     21  H   UNL A   1      31.022  25.013  19.938  1.00  0.00     0.345 HD
ATOM     22  H   UNL A   1      32.645  25.197  19.616  1.00  0.00     0.345 HD
ATOM     23  H   UNL A   1      31.673  26.538  19.785  1.00  0.00     0.345 HD
ENDBRANCH   7  20
ENDBRANCH   6   7
ENDBRANCH   5   6
ENDBRANCH   1   5
BRANCH   3  24
ATOM     24  C   UNL A   1      31.676  29.975  25.051  1.00  0.00     0.116 C 
BRANCH  24  25
ATOM     25  C   UNL A   1      31.755  30.483  26.491  1.00  0.00     0.023 C 
BRANCH  25  26
ATOM     26  C   UNL A   1      31.496  31.974  26.679  1.00  0.00     0.023 C 
BRANCH  26  27
ATOM     27  C   UNL A   1      32.655  32.686  27.333  1.00  0.00     0.116 C 
BRANCH  27  28
ATOM     28  N   UNL A   1      32.359  34.084  27.624  1.00  0.00    -0.352 N 
ATOM     29  C   UNL A   1      32.958  34.933  28.524  1.00  0.00     0.251 C 
ATOM     30  H   UNL A   1      31.624  34.476  27.099  1.00  0.00     0.163 HD
ATOM     31  O   UNL A   1      32.507  36.046  28.719  1.00  0.00    -0.269 OA
BRANCH  29  32
ATOM     32  C   UNL A   1      34.130  34.453  29.288  1.00  0.00     0.039 A 
ATOM     33  C   UNL A   1      33.925  33.831  30.521  1.00  0.00     0.014 A 
ATOM     34  C   UNL A   1      35.417  34.566  28.761  1.00  0.00     0.014 A 
ATOM     35  C   UNL A   1      35.010  33.268  31.191  1.00  0.00     0.010 A 
ATOM     36  C   UNL A   1      36.464  33.885  29.354  1.00  0.00     0.010 A 
ATOM     37  C   UNL A   1      36.280  33.258  30.593  1.00  0.00    -0.014 A 
BRANCH  37  38
ATOM     38  C   UNL A   1      37.455  32.660  31.267  1.00  0.00     0.031 A 
ATOM     39  C   UNL A   1      38.158  31.497  30.620  1.00  0.00     0.074 A 
ATOM     40  C   UNL A   1      37.836  33.108  32.477  1.00  0.00     0.049 A 
ATOM     41  N   UNL A   1      39.137  30.761  31.079  1.00  0.00    -0.248 NA
ATOM     42  C   UNL A   1      37.662  31.069  29.299  1.00  0.00     0.031 C 
ATOM     43  C   UNL A   1      37.186  34.185  33.229  1.00  0.00     0.029 A 
ATOM     44  N   UNL A   1      38.864  32.710  33.291  1.00  0.00    -0.354 N 
ATOM     45  C   UNL A   1      39.344  29.775  30.122  1.00  0.00     0.074 A 
ATOM     46  C   UNL A   1      38.344  29.956  29.097  1.00  0.00     0.031 C 
ATOM     47  C   UNL A   1      37.856  34.386  34.376  1.00  0.00     0.029 A 
ATOM     48  C   UNL A   1      38.954  33.430  34.458  1.00  0.00     0.049 A 
ATOM     49  H   UNL A   1      39.480  31.976  33.063  1.00  0.00     0.167 HD
ATOM     50  C   UNL A   1      40.311  28.829  30.080  1.00  0.00     0.037 A 
ATOM     51  C   UNL A   1      39.829  33.325  35.475  1.00  0.00     0.037 A 
ATOM     52  C   UNL A   1      41.338  28.698  31.077  1.00  0.00     0.049 A 
ATOM     53  C   UNL A   1      40.915  32.288  35.389  1.00  0.00     0.074 A 
ATOM     54  C   UNL A   1      42.411  27.827  31.100  1.00  0.00     0.029 A 
ATOM     55  N   UNL A   1      41.421  29.475  32.223  1.00  0.00    -0.354 N 
ATOM     56  N   UNL A   1      41.145  31.407  34.445  1.00  0.00    -0.248 NA
ATOM     57  C   UNL A   1      41.868  32.235  36.506  1.00  0.00     0.031 C 
ATOM     58  C   UNL A   1      43.123  28.051  32.283  1.00  0.00     0.029 A 
ATOM     59  C   UNL A   1      42.521  29.093  32.971  1.00  0.00     0.049 A 
ATOM     60  H   UNL A   1      40.792  30.191  32.468  1.00  0.00     0.167 HD
ATOM     61  C   UNL A   1      42.282  30.714  34.839  1.00  0.00     0.074 A 
ATOM     62  C   UNL A   1      42.704  31.290  36.100  1.00  0.00     0.031 C 
ATOM     63  C   UNL A   1      42.921  29.693  34.217  1.00  0.00     0.037 A 
BRANCH  50  64
ATOM     64  C   UNL A   1      40.306  27.886  28.912  1.00  0.00     0.057 A 
ATOM     65  C   UNL A   1      39.586  26.684  28.934  1.00  0.00     0.134 A 
ATOM     66  C   UNL A   1      41.022  28.186  27.747  1.00  0.00     0.134 A 
ATOM     67  F   UNL A   1      38.895  26.324  30.027  1.00  0.00    -0.206 F 
ATOM     68  C   UNL A   1      39.604  25.799  27.854  1.00  0.00     0.040 A 
ATOM     69  C   UNL A   1      41.021  27.326  26.647  1.00  0.00     0.040 A 
ATOM     70  F   UNL A   1      41.732  29.320  27.656  1.00  0.00    -0.206 F 
ATOM     71  C   UNL A   1      40.318  26.124  26.703  1.00  0.00     0.006 A 
ENDBRANCH  50  64
BRANCH  51  72
ATOM     72  C   UNL A   1      39.741  34.248  36.635  1.00  0.00     0.057 A 
ATOM     73  C   UNL A   1      39.072  33.873  37.806  1.00  0.00     0.134 A 
ATOM     74  C   UNL A   1      40.319  35.524  36.603  1.00  0.00     0.134 A 
ATOM     75  F   UNL A   1      38.487  32.670  37.892  1.00  0.00    -0.206 F 
ATOM     76  C   UNL A   1      38.960  34.739  38.895  1.00  0.00     0.040 A 
ATOM     77  C   UNL A   1      40.236  36.390  37.694  1.00  0.00     0.040 A 
ATOM     78  F   UNL A   1      40.984  35.939  35.515  1.00  0.00    -0.206 F 
ATOM     79  C   UNL A   1      39.547  36.001  38.842  1.00  0.00     0.006 A 
ENDBRANCH  51  72
BRANCH  63  80
ATOM     80  C   UNL A   1      44.159  29.161  34.874  1.00  0.00     0.057 A 
ATOM     81  C   UNL A   1      44.114  28.094  35.779  1.00  0.00     0.134 A 
ATOM     82  C   UNL A   1      45.415  29.694  34.557  1.00  0.00     0.134 A 
ATOM     83  F   UNL A   1      42.940  27.550  36.130  1.00  0.00    -0.206 F 
ATOM     84  C   UNL A   1      45.276  27.590  36.365  1.00  0.00     0.040 A 
ATOM     85  C   UNL A   1      46.585  29.179  35.115  1.00  0.00     0.040 A 
ATOM     86  F   UNL A   1      45.526  30.710  33.688  1.00  0.00    -0.206 F 
ATOM     87  C   UNL A   1      46.516  28.128  36.028  1.00  0.00     0.006 A 
ENDBRANCH  63  80
ENDBRANCH  37  38
ENDBRANCH  29  32
ENDBRANCH  27  28
ENDBRANCH  26  27
ENDBRANCH  25  26
ENDBRANCH  24  25
ENDBRANCH   3  24
TORSDOF 19
ENDMDL
MODEL 3
REMARK VINA RESULT:      -9.9      5.314     10.332
REMARK SMILES CCN(Cc1ccccn1)C(=O)[C@H]([NH3+])CCC(=O)NCCCCNC(=O)c1ccc(-c2c3nc(c(-c4c(F)cccc4F)c4ccc([nH]4)c(-c4c(F)cccc4F)c4nc(c(-c5c(F)cccc5F)c5ccc2[nH]5)C=C4)C=C3)cc1
REMARK SMILES IDX 17 1 18 2 19 3 16 5 15 6 13 7 11 8 12 9 3 10 2 11 1 12 4 13
REMARK SMILES IDX 5 14 6 15 10 16 7 17 9 18 8 19 14 20 20 24 21 25 22 26 23 27
REMARK SMILES IDX 24 28 25 29 26 31 27 32 28 33 80 34 29 35 79 36 30 37 31 38
REMARK SMILES IDX 32 39 73 40 33 41 78 42 72 43 74 44 34 45 77 46 71 47 70 48
REMARK SMILES IDX 35 50 61 51 44 52 60 53 45 54 48 55 59 56 75 57 46 58 47 59
REMARK SMILES IDX 58 61 76 62 49 63 36 64 37 65 42 66 38 67 39 68 41 69 43 70
REMARK SMILES IDX 40 71 62 72 63 73 68 74 64 75 65 76 67 77 69 78 66 79 50 80
REMARK SMILES IDX 51 81 56 82 52 83 53 84 55 85 57 86 54 87
REMARK H PARENT 19 4 14 21 14 22 14 23 24 30 74 49 48 60
REMARK Flexibility Score: inf
ROOT
ATOM      1  C   UNL A   1      34.699  30.533  27.671  1.00  0.00     0.220 C 
ATOM      2  O   UNL A   1      35.776  29.951  27.535  1.00  0.00    -0.275 OA
ATOM      3  N   UNL A   1      34.734  31.878  27.886  1.00  0.00    -0.356 N 
ATOM      4  H   UNL A   1      35.643  32.251  27.948  1.00  0.00     0.163 HD
ENDROOT
BRANCH   1   5
ATOM      5  C   UNL A   1      33.391  29.767  27.621  1.00  0.00     0.106 C 
BRANCH   5   6
ATOM      6  C   UNL A   1      33.438  28.533  26.701  1.00  0.00     0.085 C 
BRANCH   6   7
ATOM      7  C   UNL A   1      32.617  28.697  25.422  1.00  0.00     0.271 C 
BRANCH   7   8
ATOM      8  C   UNL A   1      32.411  27.388  24.620  1.00  0.00     0.281 C 
ATOM      9  O   UNL A   1      33.355  26.944  23.955  1.00  0.00    -0.268 OA
BRANCH   8  10
ATOM     10  N   UNL A   1      31.111  26.902  24.474  1.00  0.00    -0.332 N 
BRANCH  10  11
ATOM     11  C   UNL A   1      30.521  26.243  25.636  1.00  0.00     0.116 C 
ATOM     12  C   UNL A   1      30.758  24.734  25.579  1.00  0.00     0.027 C 
ENDBRANCH  10  11
BRANCH  10  13
ATOM     13  C   UNL A   1      30.370  26.787  23.208  1.00  0.00     0.175 C 
BRANCH  13  14
ATOM     14  C   UNL A   1      29.574  28.021  22.814  1.00  0.00     0.060 A 
ATOM     15  C   UNL A   1      28.248  28.162  23.219  1.00  0.00     0.026 A 
ATOM     16  N   UNL A   1      30.200  28.993  22.106  1.00  0.00    -0.259 NA
ATOM     17  C   UNL A   1      27.524  29.295  22.863  1.00  0.00     0.004 A 
ATOM     18  C   UNL A   1      29.477  30.095  21.784  1.00  0.00     0.111 A 
ATOM     19  C   UNL A   1      28.150  30.287  22.131  1.00  0.00     0.020 A 
ENDBRANCH  13  14
ENDBRANCH  10  13
ENDBRANCH   8  10
ENDBRANCH   7   8
BRANCH   7  20
ATOM     20  N   UNL A   1      33.252  29.663  24.486  1.00  0.00    -0.347 N 
ATOM     21  H   UNL A   1      33.953  29.182  23.923  1.00  0.00     0.345 HD
ATOM     22  H   UNL A   1      33.699  30.409  25.019  1.00  0.00     0.345 HD
ATOM     23  H   UNL A   1      32.540  30.062  23.875  1.00  0.00     0.345 HD
ENDBRANCH   7  20
ENDBRANCH   6   7
ENDBRANCH   5   6
ENDBRANCH   1   5
BRANCH   3  24
ATOM     24  C   UNL A   1      33.678  32.865  28.038  1.00  0.00     0.116 C 
BRANCH  24  25
ATOM     25  C   UNL A   1      34.047  34.044  28.940  1.00  0.00     0.023 C 
BRANCH  25  26
ATOM     26  C   UNL A   1      33.113  35.248  28.864  1.00  0.00     0.023 C 
BRANCH  26  27
ATOM     27  C   UNL A   1      33.458  36.313  29.877  1.00  0.00     0.116 C 
BRANCH  27  28
ATOM     28  N   UNL A   1      32.466  36.412  30.942  1.00  0.00    -0.352 N 
ATOM     29  C   UNL A   1      32.483  35.868  32.204  1.00  0.00     0.251 C 
ATOM     30  H   UNL A   1      31.669  36.948  30.725  1.00  0.00     0.163 HD
ATOM     31  O   UNL A   1      31.512  35.958  32.930  1.00  0.00    -0.269 OA
BRANCH  29  32
ATOM     32  C   UNL A   1      33.684  35.125  32.645  1.00  0.00     0.039 A 
ATOM     33  C   UNL A   1      33.552  33.785  33.017  1.00  0.00     0.014 A 
ATOM     34  C   UNL A   1      34.940  35.733  32.635  1.00  0.00     0.014 A 
ATOM     35  C   UNL A   1      34.694  33.044  33.316  1.00  0.00     0.010 A 
ATOM     36  C   UNL A   1      36.077  34.962  32.792  1.00  0.00     0.010 A 
ATOM     37  C   UNL A   1      35.966  33.618  33.169  1.00  0.00    -0.014 A 
BRANCH  37  38
ATOM     38  C   UNL A   1      37.203  32.860  33.466  1.00  0.00     0.031 A 
ATOM     39  C   UNL A   1      37.947  33.142  34.745  1.00  0.00     0.074 A 
ATOM     40  C   UNL A   1      37.689  31.987  32.565  1.00  0.00     0.049 A 
ATOM     41  N   UNL A   1      39.097  32.672  35.154  1.00  0.00    -0.248 NA
ATOM     42  C   UNL A   1      37.343  34.122  35.665  1.00  0.00     0.031 C 
ATOM     43  C   UNL A   1      37.087  31.684  31.263  1.00  0.00     0.029 A 
ATOM     44  N   UNL A   1      38.805  31.194  32.606  1.00  0.00    -0.354 N 
ATOM     45  C   UNL A   1      39.360  33.322  36.354  1.00  0.00     0.074 A 
ATOM     46  C   UNL A   1      38.295  34.274  36.568  1.00  0.00     0.031 C 
ATOM     47  C   UNL A   1      37.821  30.743  30.648  1.00  0.00     0.029 A 
ATOM     48  C   UNL A   1      38.962  30.405  31.491  1.00  0.00     0.049 A 
ATOM     49  H   UNL A   1      39.437  31.189  33.361  1.00  0.00     0.167 HD
ATOM     50  C   UNL A   1      40.377  33.114  37.221  1.00  0.00     0.037 A 
ATOM     51  C   UNL A   1      39.922  29.511  31.192  1.00  0.00     0.037 A 
ATOM     52  C   UNL A   1      41.397  32.122  37.025  1.00  0.00     0.049 A 
ATOM     53  C   UNL A   1      41.024  29.273  32.187  1.00  0.00     0.074 A 
ATOM     54  C   UNL A   1      42.433  31.771  37.871  1.00  0.00     0.029 A 
ATOM     55  N   UNL A   1      41.499  31.312  35.903  1.00  0.00    -0.354 N 
ATOM     56  N   UNL A   1      41.225  29.843  33.351  1.00  0.00    -0.248 NA
ATOM     57  C   UNL A   1      42.029  28.262  31.832  1.00  0.00     0.031 C 
ATOM     58  C   UNL A   1      43.186  30.773  37.243  1.00  0.00     0.029 A 
ATOM     59  C   UNL A   1      42.590  30.471  36.027  1.00  0.00     0.049 A 
ATOM     60  H   UNL A   1      40.885  31.333  35.134  1.00  0.00     0.167 HD
ATOM     61  C   UNL A   1      42.360  29.243  33.879  1.00  0.00     0.074 A 
ATOM     62  C   UNL A   1      42.793  28.252  32.915  1.00  0.00     0.031 C 
ATOM     63  C   UNL A   1      42.990  29.488  35.054  1.00  0.00     0.037 A 
BRANCH  50  64
ATOM     64  C   UNL A   1      40.416  33.962  38.459  1.00  0.00     0.057 A 
ATOM     65  C   UNL A   1      39.705  33.616  39.617  1.00  0.00     0.134 A 
ATOM     66  C   UNL A   1      41.181  35.135  38.500  1.00  0.00     0.134 A 
ATOM     67  F   UNL A   1      38.936  32.517  39.640  1.00  0.00    -0.206 F 
ATOM     68  C   UNL A   1      39.727  34.421  40.758  1.00  0.00     0.040 A 
ATOM     69  C   UNL A   1      41.237  35.930  39.645  1.00  0.00     0.040 A 
ATOM     70  F   UNL A   1      41.887  35.525  37.429  1.00  0.00    -0.206 F 
ATOM     71  C   UNL A   1      40.501  35.578  40.776  1.00  0.00     0.006 A 
ENDBRANCH  50  64
BRANCH  51  72
ATOM     72  C   UNL A   1      39.862  28.749  29.919  1.00  0.00     0.057 A 
ATOM     73  C   UNL A   1      40.440  29.254  28.747  1.00  0.00     0.134 A 
ATOM     74  C   UNL A   1      39.229  27.502  29.839  1.00  0.00     0.134 A 
ATOM     75  F   UNL A   1      41.048  30.448  28.757  1.00  0.00    -0.206 F 
ATOM     76  C   UNL A   1      40.370  28.561  27.538  1.00  0.00     0.040 A 
ATOM     77  C   UNL A   1      39.173  26.786  28.641  1.00  0.00     0.040 A 
ATOM     78  F   UNL A   1      38.666  26.958  30.927  1.00  0.00    -0.206 F 
ATOM     79  C   UNL A   1      39.738  27.320  27.484  1.00  0.00     0.006 A 
ENDBRANCH  51  72
BRANCH  63  80
ATOM     80  C   UNL A   1      44.190  28.647  35.373  1.00  0.00     0.057 A 
ATOM     81  C   UNL A   1      45.482  29.036  35.003  1.00  0.00     0.134 A 
ATOM     82  C   UNL A   1      44.051  27.460  36.104  1.00  0.00     0.134 A 
ATOM     83  F   UNL A   1      45.678  30.157  34.293  1.00  0.00    -0.206 F 
ATOM     84  C   UNL A   1      46.595  28.258  35.328  1.00  0.00     0.040 A 
ATOM     85  C   UNL A   1      45.158  26.691  36.458  1.00  0.00     0.040 A 
ATOM     86  F   UNL A   1      42.839  27.039  36.499  1.00  0.00    -0.206 F 
ATOM     87  C   UNL A   1      46.435  27.086  36.064  1.00  0.00     0.006 A 
ENDBRANCH  63  80
ENDBRANCH  37  38
ENDBRANCH  29  32
ENDBRANCH  27  28
ENDBRANCH  26  27
ENDBRANCH  25  26
ENDBRANCH  24  25
ENDBRANCH   3  24
TORSDOF 19
ENDMDL
