MODEL 1
REMARK VINA RESULT:      -9.2      0.000      0.000
REMARK SMILES O=C(NCCCCNC(=O)C(F)(F)[C@H](O)c1ccccc1C1CC1)c1ccc(-c2c3nc(c(-c4c(F)cccc4F)c4ccc([nH]4)c(-c4c(F)cccc4F)c4nc(c(-c5c(F)cccc5F)c5ccc2[nH]5)C=C4)C=C3)cc1
REMARK SMILES IDX 6 1 5 2 4 3 3 4 1 5 2 6 25 8 26 9 78 10 27 11 77 12 28 13
REMARK SMILES IDX 29 14 30 15 71 16 31 17 76 18 70 19 72 20 32 21 75 22 69 23
REMARK SMILES IDX 68 24 33 26 59 27 42 28 58 29 43 30 46 31 57 32 73 33 44 34
REMARK SMILES IDX 45 35 56 37 74 38 47 39 34 40 35 41 40 42 36 43 37 44 39 45
REMARK SMILES IDX 41 46 38 47 60 48 61 49 66 50 62 51 63 52 65 53 67 54 64 55
REMARK SMILES IDX 48 56 49 57 54 58 50 59 51 60 53 61 55 62 52 63 7 64 8 65
REMARK SMILES IDX 9 66 10 68 11 69 12 70 13 71 14 72 16 73 17 74 21 75 18 76
REMARK SMILES IDX 20 77 19 78 22 79 23 80 24 81 15 82
REMARK H PARENT 3 7 72 25 46 36 8 67 15 83
REMARK Flexibility Score: inf
ROOT
ATOM      1  C   UNL A   1      34.683  35.201  33.498  1.00  0.00     0.023 C 
ENDROOT
BRANCH   1   2
ATOM      2  C   UNL A   1      33.535  35.012  32.512  1.00  0.00     0.023 C 
BRANCH   2   3
ATOM      3  C   UNL A   1      33.666  35.786  31.211  1.00  0.00     0.116 C 
BRANCH   3   4
ATOM      4  N   UNL A   1      32.844  35.275  30.125  1.00  0.00    -0.352 N 
ATOM      5  O   UNL A   1      32.429  34.054  28.263  1.00  0.00    -0.269 OA
ATOM      6  C   UNL A   1      33.187  34.334  29.172  1.00  0.00     0.251 C 
ATOM      7  H   UNL A   1      31.934  35.644  30.061  1.00  0.00     0.163 HD
BRANCH   6   8
ATOM      8  C   UNL A   1      34.525  33.702  29.258  1.00  0.00     0.039 A 
ATOM      9  C   UNL A   1      34.769  32.702  30.199  1.00  0.00     0.014 A 
ATOM     10  C   UNL A   1      35.556  34.165  28.436  1.00  0.00     0.014 A 
ATOM     11  C   UNL A   1      36.072  32.293  30.439  1.00  0.00     0.010 A 
ATOM     12  C   UNL A   1      36.856  33.674  28.611  1.00  0.00     0.010 A 
ATOM     13  C   UNL A   1      37.131  32.763  29.642  1.00  0.00    -0.014 A 
BRANCH  13  14
ATOM     14  C   UNL A   1      38.493  32.228  29.892  1.00  0.00     0.031 A 
ATOM     15  C   UNL A   1      39.463  32.929  30.802  1.00  0.00     0.074 A 
ATOM     16  C   UNL A   1      38.816  31.039  29.346  1.00  0.00     0.049 A 
ATOM     17  N   UNL A   1      40.651  32.537  31.192  1.00  0.00    -0.248 NA
ATOM     18  C   UNL A   1      39.060  34.236  31.339  1.00  0.00     0.031 C 
ATOM     19  C   UNL A   1      37.962  30.279  28.428  1.00  0.00     0.029 A 
ATOM     20  N   UNL A   1      39.919  30.244  29.509  1.00  0.00    -0.354 N 
ATOM     21  C   UNL A   1      41.142  33.549  32.005  1.00  0.00     0.074 A 
ATOM     22  C   UNL A   1      40.134  34.588  32.035  1.00  0.00     0.031 C 
ATOM     23  C   UNL A   1      38.540  29.100  28.166  1.00  0.00     0.029 A 
ATOM     24  C   UNL A   1      39.829  29.044  28.845  1.00  0.00     0.049 A 
ATOM     25  H   UNL A   1      40.700  30.506  30.047  1.00  0.00     0.167 HD
ATOM     26  C   UNL A   1      42.321  33.602  32.672  1.00  0.00     0.037 A 
ATOM     27  C   UNL A   1      40.689  28.012  28.784  1.00  0.00     0.037 A 
ATOM     28  C   UNL A   1      43.317  32.560  32.648  1.00  0.00     0.049 A 
ATOM     29  C   UNL A   1      41.976  28.092  29.546  1.00  0.00     0.074 A 
ATOM     30  C   UNL A   1      44.541  32.520  33.295  1.00  0.00     0.029 A 
ATOM     31  N   UNL A   1      43.200  31.370  31.946  1.00  0.00    -0.354 N 
ATOM     32  N   UNL A   1      42.417  29.055  30.319  1.00  0.00    -0.248 NA
ATOM     33  C   UNL A   1      42.886  26.947  29.426  1.00  0.00     0.031 C 
ATOM     34  C   UNL A   1      45.178  31.320  32.959  1.00  0.00     0.029 A 
ATOM     35  C   UNL A   1      44.333  30.595  32.136  1.00  0.00     0.049 A 
ATOM     36  H   UNL A   1      42.426  31.114  31.394  1.00  0.00     0.167 HD
ATOM     37  C   UNL A   1      43.659  28.634  30.774  1.00  0.00     0.074 A 
ATOM     38  C   UNL A   1      43.880  27.312  30.222  1.00  0.00     0.031 C 
ATOM     39  C   UNL A   1      44.541  29.288  31.566  1.00  0.00     0.037 A 
BRANCH  26  40
ATOM     40  C   UNL A   1      42.609  34.831  33.484  1.00  0.00     0.057 A 
ATOM     41  C   UNL A   1      43.128  35.995  32.899  1.00  0.00     0.134 A 
ATOM     42  C   UNL A   1      42.303  34.876  34.850  1.00  0.00     0.134 A 
ATOM     43  F   UNL A   1      43.451  36.014  31.598  1.00  0.00    -0.206 F 
ATOM     44  C   UNL A   1      43.343  37.153  33.649  1.00  0.00     0.040 A 
ATOM     45  C   UNL A   1      42.496  36.035  35.604  1.00  0.00     0.040 A 
ATOM     46  F   UNL A   1      41.797  33.799  35.470  1.00  0.00    -0.206 F 
ATOM     47  C   UNL A   1      43.019  37.178  35.003  1.00  0.00     0.006 A 
ENDBRANCH  26  40
BRANCH  27  48
ATOM     48  C   UNL A   1      40.353  26.824  27.963  1.00  0.00     0.057 A 
ATOM     49  C   UNL A   1      40.857  26.669  26.668  1.00  0.00     0.134 A 
ATOM     50  C   UNL A   1      39.532  25.807  28.464  1.00  0.00     0.134 A 
ATOM     51  F   UNL A   1      41.637  27.619  26.128  1.00  0.00    -0.206 F 
ATOM     52  C   UNL A   1      40.549  25.550  25.894  1.00  0.00     0.040 A 
ATOM     53  C   UNL A   1      39.236  24.670  27.713  1.00  0.00     0.040 A 
ATOM     54  F   UNL A   1      39.026  25.893  29.702  1.00  0.00    -0.206 F 
ATOM     55  C   UNL A   1      39.741  24.543  26.420  1.00  0.00     0.006 A 
ENDBRANCH  27  48
BRANCH  39  56
ATOM     56  C   UNL A   1      45.823  28.574  31.872  1.00  0.00     0.057 A 
ATOM     57  C   UNL A   1      46.953  28.719  31.059  1.00  0.00     0.134 A 
ATOM     58  C   UNL A   1      45.927  27.735  32.988  1.00  0.00     0.134 A 
ATOM     59  F   UNL A   1      46.910  29.497  29.967  1.00  0.00    -0.206 F 
ATOM     60  C   UNL A   1      48.135  28.027  31.326  1.00  0.00     0.040 A 
ATOM     61  C   UNL A   1      47.111  27.055  33.278  1.00  0.00     0.040 A 
ATOM     62  F   UNL A   1      44.881  27.558  33.809  1.00  0.00    -0.206 F 
ATOM     63  C   UNL A   1      48.217  27.194  32.440  1.00  0.00     0.006 A 
ENDBRANCH  39  56
ENDBRANCH  13  14
ENDBRANCH   6   8
ENDBRANCH   3   4
ENDBRANCH   2   3
ENDBRANCH   1   2
BRANCH   1  64
ATOM     64  C   UNL A   1      35.285  33.906  34.057  1.00  0.00     0.116 C 
BRANCH  64  65
ATOM     65  N   UNL A   1      35.845  34.060  35.396  1.00  0.00    -0.351 N 
ATOM     66  C   UNL A   1      37.014  33.487  35.872  1.00  0.00     0.293 C 
ATOM     67  H   UNL A   1      35.342  34.627  36.023  1.00  0.00     0.163 HD
ATOM     68  O   UNL A   1      37.344  33.691  37.043  1.00  0.00    -0.268 OA
BRANCH  66  69
ATOM     69  C   UNL A   1      37.806  32.584  34.901  1.00  0.00     0.353 C 
ATOM     70  F   UNL A   1      37.155  32.675  33.707  1.00  0.00    -0.192 F 
ATOM     71  F   UNL A   1      39.050  33.113  34.687  1.00  0.00    -0.192 F 
BRANCH  69  72
ATOM     72  C   UNL A   1      37.923  31.077  35.280  1.00  0.00     0.225 C 
BRANCH  72  73
ATOM     73  C   UNL A   1      39.341  30.521  35.022  1.00  0.00    -0.009 A 
ATOM     74  C   UNL A   1      40.292  30.716  36.067  1.00  0.00     0.007 A 
ATOM     75  C   UNL A   1      39.780  29.890  33.821  1.00  0.00    -0.039 A 
ATOM     76  C   UNL A   1      41.630  30.343  35.954  1.00  0.00     0.000 A 
ATOM     77  C   UNL A   1      41.172  29.589  33.737  1.00  0.00     0.004 A 
ATOM     78  C   UNL A   1      42.080  29.798  34.772  1.00  0.00     0.000 A 
BRANCH  75  79
ATOM     79  C   UNL A   1      39.005  29.408  32.595  1.00  0.00     0.019 C 
ATOM     80  C   UNL A   1      38.745  28.017  32.114  1.00  0.00     0.009 C 
ATOM     81  C   UNL A   1      37.634  28.803  32.764  1.00  0.00     0.009 C 
ENDBRANCH  75  79
ENDBRANCH  72  73
BRANCH  72  82
ATOM     82  O   UNL A   1      37.550  30.791  36.649  1.00  0.00    -0.381 OA
ATOM     83  H   UNL A   1      38.341  30.799  37.210  1.00  0.00     0.211 HD
ENDBRANCH  72  82
ENDBRANCH  69  72
ENDBRANCH  66  69
ENDBRANCH  64  65
ENDBRANCH   1  64
TORSDOF 15
ENDMDL
MODEL 2
REMARK VINA RESULT:      -9.1      0.489      6.302
REMARK SMILES O=C(NCCCCNC(=O)C(F)(F)[C@H](O)c1ccccc1C1CC1)c1ccc(-c2c3nc(c(-c4c(F)cccc4F)c4ccc([nH]4)c(-c4c(F)cccc4F)c4nc(c(-c5c(F)cccc5F)c5ccc2[nH]5)C=C4)C=C3)cc1
REMARK SMILES IDX 6 1 5 2 4 3 3 4 1 5 2 6 25 8 26 9 78 10 27 11 77 12 28 13
REMARK SMILES IDX 29 14 30 15 71 16 31 17 76 18 70 19 72 20 32 21 75 22 69 23
REMARK SMILES IDX 68 24 33 26 59 27 42 28 58 29 43 30 46 31 57 32 73 33 44 34
REMARK SMILES IDX 45 35 56 37 74 38 47 39 34 40 35 41 40 42 36 43 37 44 39 45
REMARK SMILES IDX 41 46 38 47 60 48 61 49 66 50 62 51 63 52 65 53 67 54 64 55
REMARK SMILES IDX 48 56 49 57 54 58 50 59 51 60 53 61 55 62 52 63 7 64 8 65
REMARK SMILES IDX 9 66 10 68 11 69 12 70 13 71 14 72 16 73 17 74 21 75 18 76
REMARK SMILES IDX 20 77 19 78 22 79 23 80 24 81 15 82
REMARK H PARENT 3 7 72 25 46 36 8 67 15 83
REMARK Flexibility Score: inf
ROOT
ATOM      1  C   UNL A   1      34.789  35.263  33.097  1.00  0.00     0.023 C 
ENDROOT
BRANCH   1   2
ATOM      2  C   UNL A   1      33.520  35.303  32.250  1.00  0.00     0.023 C 
BRANCH   2   3
ATOM      3  C   UNL A   1      33.648  36.044  30.929  1.00  0.00     0.116 C 
BRANCH   3   4
ATOM      4  N   UNL A   1      32.829  35.500  29.857  1.00  0.00    -0.352 N 
ATOM      5  O   UNL A   1      32.401  34.172  28.073  1.00  0.00    -0.269 OA
ATOM      6  C   UNL A   1      33.148  34.476  28.984  1.00  0.00     0.251 C 
ATOM      7  H   UNL A   1      31.943  35.911  29.738  1.00  0.00     0.163 HD
BRANCH   6   8
ATOM      8  C   UNL A   1      34.446  33.783  29.156  1.00  0.00     0.039 A 
ATOM      9  C   UNL A   1      34.580  32.773  30.109  1.00  0.00     0.014 A 
ATOM     10  C   UNL A   1      35.550  34.197  28.406  1.00  0.00     0.014 A 
ATOM     11  C   UNL A   1      35.844  32.303  30.433  1.00  0.00     0.010 A 
ATOM     12  C   UNL A   1      36.810  33.646  28.665  1.00  0.00     0.010 A 
ATOM     13  C   UNL A   1      36.974  32.724  29.710  1.00  0.00    -0.014 A 
BRANCH  13  14
ATOM     14  C   UNL A   1      38.290  32.126  30.048  1.00  0.00     0.031 A 
ATOM     15  C   UNL A   1      38.730  30.808  29.475  1.00  0.00     0.074 A 
ATOM     16  C   UNL A   1      39.130  32.841  30.822  1.00  0.00     0.049 A 
ATOM     17  N   UNL A   1      39.886  30.203  29.602  1.00  0.00    -0.248 NA
ATOM     18  C   UNL A   1      37.754  30.065  28.664  1.00  0.00     0.031 C 
ATOM     19  C   UNL A   1      38.802  34.123  31.452  1.00  0.00     0.029 A 
ATOM     20  N   UNL A   1      40.434  32.619  31.179  1.00  0.00    -0.354 N 
ATOM     21  C   UNL A   1      39.774  29.009  28.902  1.00  0.00     0.074 A 
ATOM     22  C   UNL A   1      38.428  28.959  28.371  1.00  0.00     0.031 C 
ATOM     23  C   UNL A   1      39.895  34.607  32.057  1.00  0.00     0.029 A 
ATOM     24  C   UNL A   1      40.980  33.645  31.911  1.00  0.00     0.049 A 
ATOM     25  H   UNL A   1      40.930  31.805  30.935  1.00  0.00     0.167 HD
ATOM     26  C   UNL A   1      40.711  28.048  28.714  1.00  0.00     0.037 A 
ATOM     27  C   UNL A   1      42.218  33.797  32.415  1.00  0.00     0.037 A 
ATOM     28  C   UNL A   1      42.054  28.107  29.235  1.00  0.00     0.049 A 
ATOM     29  C   UNL A   1      43.237  32.726  32.175  1.00  0.00     0.074 A 
ATOM     30  C   UNL A   1      43.076  27.184  29.093  1.00  0.00     0.029 A 
ATOM     31  N   UNL A   1      42.563  29.151  29.992  1.00  0.00    -0.354 N 
ATOM     32  N   UNL A   1      43.114  31.608  31.501  1.00  0.00    -0.248 NA
ATOM     33  C   UNL A   1      44.564  32.933  32.767  1.00  0.00     0.031 C 
ATOM     34  C   UNL A   1      44.195  27.655  29.790  1.00  0.00     0.029 A 
ATOM     35  C   UNL A   1      43.881  28.890  30.332  1.00  0.00     0.049 A 
ATOM     36  H   UNL A   1      42.062  29.959  30.250  1.00  0.00     0.167 HD
ATOM     37  C   UNL A   1      44.346  30.976  31.592  1.00  0.00     0.074 A 
ATOM     38  C   UNL A   1      45.213  31.855  32.351  1.00  0.00     0.031 C 
ATOM     39  C   UNL A   1      44.722  29.771  31.101  1.00  0.00     0.037 A 
BRANCH  26  40
ATOM     40  C   UNL A   1      40.319  26.840  27.914  1.00  0.00     0.057 A 
ATOM     41  C   UNL A   1      40.770  26.649  26.601  1.00  0.00     0.134 A 
ATOM     42  C   UNL A   1      39.538  25.826  28.482  1.00  0.00     0.134 A 
ATOM     43  F   UNL A   1      41.513  27.586  25.994  1.00  0.00    -0.206 F 
ATOM     44  C   UNL A   1      40.447  25.497  25.880  1.00  0.00     0.040 A 
ATOM     45  C   UNL A   1      39.226  24.662  27.777  1.00  0.00     0.040 A 
ATOM     46  F   UNL A   1      39.080  25.943  29.738  1.00  0.00    -0.206 F 
ATOM     47  C   UNL A   1      39.679  24.496  26.470  1.00  0.00     0.006 A 
ENDBRANCH  26  40
BRANCH  27  48
ATOM     48  C   UNL A   1      42.546  35.011  33.202  1.00  0.00     0.057 A 
ATOM     49  C   UNL A   1      42.282  35.082  34.573  1.00  0.00     0.134 A 
ATOM     50  C   UNL A   1      43.150  36.121  32.600  1.00  0.00     0.134 A 
ATOM     51  F   UNL A   1      41.691  34.055  35.202  1.00  0.00    -0.206 F 
ATOM     52  C   UNL A   1      42.596  36.220  35.318  1.00  0.00     0.040 A 
ATOM     53  C   UNL A   1      43.494  37.254  33.336  1.00  0.00     0.040 A 
ATOM     54  F   UNL A   1      43.438  36.108  31.291  1.00  0.00    -0.206 F 
ATOM     55  C   UNL A   1      43.210  37.307  34.699  1.00  0.00     0.006 A 
ENDBRANCH  27  48
BRANCH  39  56
ATOM     56  C   UNL A   1      46.131  29.345  31.381  1.00  0.00     0.057 A 
ATOM     57  C   UNL A   1      47.178  29.652  30.503  1.00  0.00     0.134 A 
ATOM     58  C   UNL A   1      46.445  28.619  32.538  1.00  0.00     0.134 A 
ATOM     59  F   UNL A   1      46.938  30.331  29.372  1.00  0.00    -0.206 F 
ATOM     60  C   UNL A   1      48.483  29.225  30.749  1.00  0.00     0.040 A 
ATOM     61  C   UNL A   1      47.751  28.207  32.805  1.00  0.00     0.040 A 
ATOM     62  F   UNL A   1      45.487  28.297  33.421  1.00  0.00    -0.206 F 
ATOM     63  C   UNL A   1      48.773  28.503  31.905  1.00  0.00     0.006 A 
ENDBRANCH  39  56
ENDBRANCH  13  14
ENDBRANCH   6   8
ENDBRANCH   3   4
ENDBRANCH   2   3
ENDBRANCH   1   2
BRANCH   1  64
ATOM     64  C   UNL A   1      35.121  33.900  33.714  1.00  0.00     0.116 C 
BRANCH  64  65
ATOM     65  N   UNL A   1      35.485  33.977  35.125  1.00  0.00    -0.351 N 
ATOM     66  C   UNL A   1      36.583  33.385  35.728  1.00  0.00     0.293 C 
ATOM     67  H   UNL A   1      34.890  34.503  35.707  1.00  0.00     0.163 HD
ATOM     68  O   UNL A   1      36.742  33.520  36.944  1.00  0.00    -0.268 OA
BRANCH  66  69
ATOM     69  C   UNL A   1      37.517  32.546  34.828  1.00  0.00     0.353 C 
ATOM     70  F   UNL A   1      36.880  32.455  33.627  1.00  0.00    -0.192 F 
ATOM     71  F   UNL A   1      38.671  33.240  34.584  1.00  0.00    -0.192 F 
BRANCH  69  72
ATOM     72  C   UNL A   1      37.853  31.104  35.314  1.00  0.00     0.225 C 
BRANCH  72  73
ATOM     73  C   UNL A   1      39.315  30.711  35.006  1.00  0.00    -0.009 A 
ATOM     74  C   UNL A   1      40.278  31.047  36.004  1.00  0.00     0.007 A 
ATOM     75  C   UNL A   1      39.776  30.103  33.802  1.00  0.00    -0.039 A 
ATOM     76  C   UNL A   1      41.645  30.832  35.842  1.00  0.00     0.000 A 
ATOM     77  C   UNL A   1      41.190  29.966  33.665  1.00  0.00     0.004 A 
ATOM     78  C   UNL A   1      42.108  30.310  34.654  1.00  0.00     0.000 A 
BRANCH  75  79
ATOM     79  C   UNL A   1      39.015  29.499  32.623  1.00  0.00     0.019 C 
ATOM     80  C   UNL A   1      38.624  28.080  32.362  1.00  0.00     0.009 C 
ATOM     81  C   UNL A   1      37.578  29.076  32.795  1.00  0.00     0.009 C 
ENDBRANCH  75  79
ENDBRANCH  72  73
BRANCH  72  82
ATOM     82  O   UNL A   1      37.596  30.890  36.722  1.00  0.00    -0.381 OA
ATOM     83  H   UNL A   1      37.807  31.697  37.216  1.00  0.00     0.211 HD
ENDBRANCH  72  82
ENDBRANCH  69  72
ENDBRANCH  66  69
ENDBRANCH  64  65
ENDBRANCH   1  64
TORSDOF 15
ENDMDL
MODEL 3
REMARK VINA RESULT:      -9.1      3.488      6.341
REMARK SMILES O=C(NCCCCNC(=O)C(F)(F)[C@H](O)c1ccccc1C1CC1)c1ccc(-c2c3nc(c(-c4c(F)cccc4F)c4ccc([nH]4)c(-c4c(F)cccc4F)c4nc(c(-c5c(F)cccc5F)c5ccc2[nH]5)C=C4)C=C3)cc1
REMARK SMILES IDX 6 1 5 2 4 3 3 4 1 5 2 6 25 8 26 9 78 10 27 11 77 12 28 13
REMARK SMILES IDX 29 14 30 15 71 16 31 17 76 18 70 19 72 20 32 21 75 22 69 23
REMARK SMILES IDX 68 24 33 26 59 27 42 28 58 29 43 30 46 31 57 32 73 33 44 34
REMARK SMILES IDX 45 35 56 37 74 38 47 39 34 40 35 41 40 42 36 43 37 44 39 45
REMARK SMILES IDX 41 46 38 47 60 48 61 49 66 50 62 51 63 52 65 53 67 54 64 55
REMARK SMILES IDX 48 56 49 57 54 58 50 59 51 60 53 61 55 62 52 63 7 64 8 65
REMARK SMILES IDX 9 66 10 68 11 69 12 70 13 71 14 72 16 73 17 74 21 75 18 76
REMARK SMILES IDX 20 77 19 78 22 79 23 80 24 81 15 82
REMARK H PARENT 3 7 72 25 46 36 8 67 15 83
REMARK Flexibility Score: inf
ROOT
ATOM      1  C   UNL A   1      31.830  30.317  26.754  1.00  0.00     0.023 C 
ENDROOT
BRANCH   1   2
ATOM      2  C   UNL A   1      31.627  31.828  26.686  1.00  0.00     0.023 C 
BRANCH   2   3
ATOM      3  C   UNL A   1      32.744  32.658  27.297  1.00  0.00     0.116 C 
BRANCH   3   4
ATOM      4  N   UNL A   1      32.357  34.015  27.648  1.00  0.00    -0.352 N 
ATOM      5  O   UNL A   1      32.501  35.956  28.806  1.00  0.00    -0.269 OA
ATOM      6  C   UNL A   1      32.978  34.869  28.540  1.00  0.00     0.251 C 
ATOM      7  H   UNL A   1      31.557  34.368  27.197  1.00  0.00     0.163 HD
BRANCH   6   8
ATOM      8  C   UNL A   1      34.221  34.410  29.204  1.00  0.00     0.039 A 
ATOM      9  C   UNL A   1      35.458  34.613  28.592  1.00  0.00     0.014 A 
ATOM     10  C   UNL A   1      34.137  33.714  30.413  1.00  0.00     0.014 A 
ATOM     11  C   UNL A   1      36.581  33.971  29.092  1.00  0.00     0.010 A 
ATOM     12  C   UNL A   1      35.292  33.153  30.971  1.00  0.00     0.010 A 
ATOM     13  C   UNL A   1      36.517  33.242  30.293  1.00  0.00    -0.014 A 
BRANCH  13  14
ATOM     14  C   UNL A   1      37.768  32.645  30.824  1.00  0.00     0.031 A 
ATOM     15  C   UNL A   1      38.393  33.126  32.104  1.00  0.00     0.074 A 
ATOM     16  C   UNL A   1      38.293  31.591  30.169  1.00  0.00     0.049 A 
ATOM     17  N   UNL A   1      39.430  32.642  32.742  1.00  0.00    -0.248 NA
ATOM     18  C   UNL A   1      37.787  34.299  32.751  1.00  0.00     0.031 C 
ATOM     19  C   UNL A   1      37.785  31.052  28.904  1.00  0.00     0.029 A 
ATOM     20  N   UNL A   1      39.336  30.762  30.488  1.00  0.00    -0.354 N 
ATOM     21  C   UNL A   1      39.610  33.455  33.853  1.00  0.00     0.074 A 
ATOM     22  C   UNL A   1      38.591  34.481  33.792  1.00  0.00     0.031 C 
ATOM     23  C   UNL A   1      38.470  29.944  28.592  1.00  0.00     0.029 A 
ATOM     24  C   UNL A   1      39.502  29.728  29.599  1.00  0.00     0.049 A 
ATOM     25  H   UNL A   1      39.910  30.894  31.277  1.00  0.00     0.167 HD
ATOM     26  C   UNL A   1      40.537  33.350  34.837  1.00  0.00     0.037 A 
ATOM     27  C   UNL A   1      40.389  28.718  29.589  1.00  0.00     0.037 A 
ATOM     28  C   UNL A   1      41.544  32.320  34.900  1.00  0.00     0.049 A 
ATOM     29  C   UNL A   1      41.390  28.617  30.699  1.00  0.00     0.074 A 
ATOM     30  C   UNL A   1      42.523  32.128  35.860  1.00  0.00     0.029 A 
ATOM     31  N   UNL A   1      41.696  31.304  33.969  1.00  0.00    -0.354 N 
ATOM     32  N   UNL A   1      41.537  29.391  31.747  1.00  0.00    -0.248 NA
ATOM     33  C   UNL A   1      42.348  27.508  30.626  1.00  0.00     0.031 C 
ATOM     34  C   UNL A   1      43.287  31.014  35.493  1.00  0.00     0.029 A 
ATOM     35  C   UNL A   1      42.758  30.489  34.326  1.00  0.00     0.049 A 
ATOM     36  H   UNL A   1      41.131  31.181  33.170  1.00  0.00     0.167 HD
ATOM     37  C   UNL A   1      42.608  28.865  32.456  1.00  0.00     0.074 A 
ATOM     38  C   UNL A   1      43.045  27.684  31.739  1.00  0.00     0.031 C 
ATOM     39  C   UNL A   1      43.186  29.326  33.591  1.00  0.00     0.037 A 
BRANCH  26  40
ATOM     40  C   UNL A   1      40.514  34.379  35.930  1.00  0.00     0.057 A 
ATOM     41  C   UNL A   1      41.218  35.585  35.820  1.00  0.00     0.134 A 
ATOM     42  C   UNL A   1      39.729  34.191  37.074  1.00  0.00     0.134 A 
ATOM     43  F   UNL A   1      41.997  35.822  34.753  1.00  0.00    -0.206 F 
ATOM     44  C   UNL A   1      41.150  36.563  36.815  1.00  0.00     0.040 A 
ATOM     45  C   UNL A   1      39.638  35.170  38.066  1.00  0.00     0.040 A 
ATOM     46  F   UNL A   1      39.024  33.062  37.239  1.00  0.00    -0.206 F 
ATOM     47  C   UNL A   1      40.353  36.360  37.939  1.00  0.00     0.006 A 
ENDBRANCH  26  40
BRANCH  27  48
ATOM     48  C   UNL A   1      40.367  27.732  28.481  1.00  0.00     0.057 A 
ATOM     49  C   UNL A   1      41.072  27.956  27.294  1.00  0.00     0.134 A 
ATOM     50  C   UNL A   1      39.652  26.533  28.593  1.00  0.00     0.134 A 
ATOM     51  F   UNL A   1      41.763  29.094  27.123  1.00  0.00    -0.206 F 
ATOM     52  C   UNL A   1      41.059  27.029  26.252  1.00  0.00     0.040 A 
ATOM     53  C   UNL A   1      39.652  25.585  27.571  1.00  0.00     0.040 A 
ATOM     54  F   UNL A   1      38.966  26.257  29.711  1.00  0.00    -0.206 F 
ATOM     55  C   UNL A   1      40.352  25.835  26.393  1.00  0.00     0.006 A 
ENDBRANCH  27  48
BRANCH  39  56
ATOM     56  C   UNL A   1      44.353  28.544  34.113  1.00  0.00     0.057 A 
ATOM     57  C   UNL A   1      45.667  28.856  33.745  1.00  0.00     0.134 A 
ATOM     58  C   UNL A   1      44.161  27.470  34.990  1.00  0.00     0.134 A 
ATOM     59  F   UNL A   1      45.914  29.865  32.895  1.00  0.00    -0.206 F 
ATOM     60  C   UNL A   1      46.750  28.105  34.205  1.00  0.00     0.040 A 
ATOM     61  C   UNL A   1      45.238  26.726  35.475  1.00  0.00     0.040 A 
ATOM     62  F   UNL A   1      42.926  27.124  35.385  1.00  0.00    -0.206 F 
ATOM     63  C   UNL A   1      46.536  27.038  35.075  1.00  0.00     0.006 A 
ENDBRANCH  39  56
ENDBRANCH  13  14
ENDBRANCH   6   8
ENDBRANCH   3   4
ENDBRANCH   2   3
ENDBRANCH   1   2
BRANCH   1  64
ATOM     64  C   UNL A   1      33.260  29.836  26.485  1.00  0.00     0.116 C 
BRANCH  64  65
ATOM     65  N   UNL A   1      33.542  29.622  25.069  1.00  0.00    -0.351 N 
ATOM     66  C   UNL A   1      33.647  28.400  24.423  1.00  0.00     0.293 C 
ATOM     67  H   UNL A   1      33.668  30.427  24.517  1.00  0.00     0.163 HD
ATOM     68  O   UNL A   1      33.917  28.383  23.220  1.00  0.00    -0.268 OA
BRANCH  66  69
ATOM     69  C   UNL A   1      33.462  27.129  25.281  1.00  0.00     0.353 C 
ATOM     70  F   UNL A   1      34.349  27.252  26.309  1.00  0.00    -0.192 F 
ATOM     71  F   UNL A   1      32.222  27.136  25.858  1.00  0.00    -0.192 F 
BRANCH  69  72
ATOM     72  C   UNL A   1      33.717  25.763  24.576  1.00  0.00     0.225 C 
BRANCH  72  73
ATOM     73  C   UNL A   1      33.685  24.580  25.570  1.00  0.00    -0.009 A 
ATOM     74  C   UNL A   1      32.398  24.203  26.055  1.00  0.00     0.007 A 
ATOM     75  C   UNL A   1      34.825  23.888  26.075  1.00  0.00    -0.039 A 
ATOM     76  C   UNL A   1      32.209  23.210  27.015  1.00  0.00     0.000 A 
ATOM     77  C   UNL A   1      34.577  22.928  27.101  1.00  0.00     0.004 A 
ATOM     78  C   UNL A   1      33.308  22.584  27.560  1.00  0.00     0.000 A 
BRANCH  75  79
ATOM     79  C   UNL A   1      36.297  23.940  25.668  1.00  0.00     0.019 C 
ATOM     80  C   UNL A   1      37.332  22.862  25.681  1.00  0.00     0.009 C 
ATOM     81  C   UNL A   1      36.740  23.314  24.370  1.00  0.00     0.009 C 
ENDBRANCH  75  79
ENDBRANCH  72  73
BRANCH  72  82
ATOM     82  O   UNL A   1      32.800  25.488  23.491  1.00  0.00    -0.381 OA
ATOM     83  H   UNL A   1      31.973  25.975  23.634  1.00  0.00     0.211 HD
ENDBRANCH  72  82
ENDBRANCH  69  72
ENDBRANCH  66  69
ENDBRANCH  64  65
ENDBRANCH   1  64
TORSDOF 15
ENDMDL
