MODEL 1
REMARK VINA RESULT:     -12.4      0.000      0.000
REMARK SMILES O=C(NCCCCNC(=O)[C@H](NC(=O)c1ccc(Br)nc1)c1ccccc1)c1ccc(-c2c3nc(c(-c4c(F)cccc4F)c4ccc([nH]4)c(-c4c(F)cccc4F)c4nc(c(-c5c(F)cccc5F)c5ccc2[nH]5)C=C4)C=C3)cc1
REMARK SMILES IDX 5 1 4 2 3 3 1 4 2 5 28 7 29 8 81 9 30 10 80 11 31 12 32 13
REMARK SMILES IDX 33 14 74 15 34 16 79 17 73 18 75 19 35 20 78 21 72 22 71 23
REMARK SMILES IDX 36 25 62 26 45 27 61 28 46 29 49 30 60 31 76 32 47 33 48 34
REMARK SMILES IDX 59 36 77 37 50 38 37 39 38 40 43 41 39 42 40 43 42 44 44 45
REMARK SMILES IDX 41 46 63 47 64 48 69 49 65 50 66 51 68 52 70 53 67 54 51 55
REMARK SMILES IDX 52 56 57 57 53 58 54 59 56 60 58 61 55 62 6 63 7 64 8 65
REMARK SMILES IDX 9 66 10 68 11 69 22 70 23 71 27 72 24 73 26 74 25 75 12 76
REMARK SMILES IDX 13 77 14 79 15 80 16 81 21 82 17 83 20 84 18 85 19 86
REMARK H PARENT 3 6 75 24 49 35 8 67 12 78
REMARK Flexibility Score: inf
ROOT
ATOM      1  C   UNL A   1      31.326  31.685  26.812  1.00  0.00     0.023 C 
ENDROOT
BRANCH   1   2
ATOM      2  C   UNL A   1      32.621  32.478  26.924  1.00  0.00     0.116 C 
BRANCH   2   3
ATOM      3  N   UNL A   1      32.412  33.840  27.386  1.00  0.00    -0.352 N 
ATOM      4  O   UNL A   1      32.701  35.612  28.760  1.00  0.00    -0.269 OA
ATOM      5  C   UNL A   1      33.079  34.507  28.384  1.00  0.00     0.251 C 
ATOM      6  H   UNL A   1      31.704  34.348  26.926  1.00  0.00     0.163 HD
BRANCH   5   7
ATOM      7  C   UNL A   1      34.252  33.868  29.015  1.00  0.00     0.039 A 
ATOM      8  C   UNL A   1      34.080  32.832  29.937  1.00  0.00     0.014 A 
ATOM      9  C   UNL A   1      35.534  34.312  28.680  1.00  0.00     0.014 A 
ATOM     10  C   UNL A   1      35.182  32.306  30.598  1.00  0.00     0.010 A 
ATOM     11  C   UNL A   1      36.647  33.730  29.289  1.00  0.00     0.010 A 
ATOM     12  C   UNL A   1      36.478  32.728  30.258  1.00  0.00    -0.014 A 
BRANCH  12  13
ATOM     13  C   UNL A   1      37.643  32.013  30.830  1.00  0.00     0.031 A 
ATOM     14  C   UNL A   1      38.368  30.949  30.061  1.00  0.00     0.074 A 
ATOM     15  C   UNL A   1      38.033  32.344  32.077  1.00  0.00     0.049 A 
ATOM     16  N   UNL A   1      39.392  30.223  30.436  1.00  0.00    -0.248 NA
ATOM     17  C   UNL A   1      37.888  30.654  28.704  1.00  0.00     0.031 C 
ATOM     18  C   UNL A   1      37.380  33.349  32.923  1.00  0.00     0.029 A 
ATOM     19  N   UNL A   1      39.063  31.879  32.851  1.00  0.00    -0.354 N 
ATOM     20  C   UNL A   1      39.666  29.373  29.373  1.00  0.00     0.074 A 
ATOM     21  C   UNL A   1      38.694  29.664  28.339  1.00  0.00     0.031 C 
ATOM     22  C   UNL A   1      38.039  33.441  34.086  1.00  0.00     0.029 A 
ATOM     23  C   UNL A   1      39.117  32.462  34.094  1.00  0.00     0.049 A 
ATOM     24  H   UNL A   1      39.701  31.194  32.546  1.00  0.00     0.167 HD
ATOM     25  C   UNL A   1      40.642  28.440  29.276  1.00  0.00     0.037 A 
ATOM     26  C   UNL A   1      39.925  32.213  35.141  1.00  0.00     0.037 A 
ATOM     27  C   UNL A   1      41.617  28.176  30.304  1.00  0.00     0.049 A 
ATOM     28  C   UNL A   1      40.976  31.152  35.007  1.00  0.00     0.074 A 
ATOM     29  C   UNL A   1      42.695  27.307  30.266  1.00  0.00     0.029 A 
ATOM     30  N   UNL A   1      41.626  28.768  31.558  1.00  0.00    -0.354 N 
ATOM     31  N   UNL A   1      41.268  30.407  33.970  1.00  0.00    -0.248 NA
ATOM     32  C   UNL A   1      41.805  30.891  36.191  1.00  0.00     0.031 C 
ATOM     33  C   UNL A   1      43.323  27.333  31.515  1.00  0.00     0.029 A 
ATOM     34  C   UNL A   1      42.665  28.251  32.317  1.00  0.00     0.049 A 
ATOM     35  H   UNL A   1      40.988  29.452  31.865  1.00  0.00     0.167 HD
ATOM     36  C   UNL A   1      42.315  29.591  34.373  1.00  0.00     0.074 A 
ATOM     37  C   UNL A   1      42.628  29.956  35.739  1.00  0.00     0.031 C 
ATOM     38  C   UNL A   1      42.953  28.620  33.678  1.00  0.00     0.037 A 
BRANCH  25  39
ATOM     39  C   UNL A   1      40.715  27.614  28.026  1.00  0.00     0.057 A 
ATOM     40  C   UNL A   1      41.479  28.010  26.921  1.00  0.00     0.134 A 
ATOM     41  C   UNL A   1      40.095  26.359  27.969  1.00  0.00     0.134 A 
ATOM     42  F   UNL A   1      42.092  29.202  26.911  1.00  0.00    -0.206 F 
ATOM     43  C   UNL A   1      41.623  27.184  25.803  1.00  0.00     0.040 A 
ATOM     44  C   UNL A   1      40.248  25.518  26.866  1.00  0.00     0.040 A 
ATOM     45  F   UNL A   1      39.356  25.918  28.998  1.00  0.00    -0.206 F 
ATOM     46  C   UNL A   1      41.016  25.930  25.778  1.00  0.00     0.006 A 
ENDBRANCH  25  39
BRANCH  26  47
ATOM     47  C   UNL A   1      39.737  32.949  36.414  1.00  0.00     0.057 A 
ATOM     48  C   UNL A   1      38.797  32.534  37.362  1.00  0.00     0.134 A 
ATOM     49  C   UNL A   1      40.491  34.093  36.708  1.00  0.00     0.134 A 
ATOM     50  F   UNL A   1      38.034  31.456  37.130  1.00  0.00    -0.206 F 
ATOM     51  C   UNL A   1      38.597  33.243  38.549  1.00  0.00     0.040 A 
ATOM     52  C   UNL A   1      40.323  34.793  37.902  1.00  0.00     0.040 A 
ATOM     53  F   UNL A   1      41.415  34.537  35.843  1.00  0.00    -0.206 F 
ATOM     54  C   UNL A   1      39.366  34.373  38.823  1.00  0.00     0.006 A 
ENDBRANCH  26  47
BRANCH  38  55
ATOM     55  C   UNL A   1      44.051  27.890  34.390  1.00  0.00     0.057 A 
ATOM     56  C   UNL A   1      43.813  26.682  35.057  1.00  0.00     0.134 A 
ATOM     57  C   UNL A   1      45.360  28.386  34.392  1.00  0.00     0.134 A 
ATOM     58  F   UNL A   1      42.576  26.165  35.108  1.00  0.00    -0.206 F 
ATOM     59  C   UNL A   1      44.836  26.004  35.721  1.00  0.00     0.040 A 
ATOM     60  C   UNL A   1      46.396  27.705  35.030  1.00  0.00     0.040 A 
ATOM     61  F   UNL A   1      45.654  29.536  33.766  1.00  0.00    -0.206 F 
ATOM     62  C   UNL A   1      46.133  26.512  35.703  1.00  0.00     0.006 A 
ENDBRANCH  38  55
ENDBRANCH  12  13
ENDBRANCH   5   7
ENDBRANCH   2   3
ENDBRANCH   1   2
BRANCH   1  63
ATOM     63  C   UNL A   1      31.224  30.791  25.574  1.00  0.00     0.023 C 
BRANCH  63  64
ATOM     64  C   UNL A   1      32.171  29.594  25.586  1.00  0.00     0.116 C 
BRANCH  64  65
ATOM     65  N   UNL A   1      33.120  29.652  24.486  1.00  0.00    -0.354 N 
ATOM     66  C   UNL A   1      33.161  28.892  23.342  1.00  0.00     0.247 C 
ATOM     67  H   UNL A   1      33.830  30.327  24.573  1.00  0.00     0.163 HD
ATOM     68  O   UNL A   1      34.135  29.026  22.602  1.00  0.00    -0.272 OA
BRANCH  66  69
ATOM     69  C   UNL A   1      32.000  27.906  23.070  1.00  0.00     0.202 C 
BRANCH  69  70
ATOM     70  C   UNL A   1      30.661  28.581  22.808  1.00  0.00    -0.016 A 
ATOM     71  C   UNL A   1      29.493  28.004  23.338  1.00  0.00     0.006 A 
ATOM     72  C   UNL A   1      30.531  29.713  21.985  1.00  0.00     0.006 A 
ATOM     73  C   UNL A   1      28.235  28.517  23.018  1.00  0.00     0.000 A 
ATOM     74  C   UNL A   1      29.272  30.219  21.662  1.00  0.00     0.000 A 
ATOM     75  C   UNL A   1      28.124  29.615  22.170  1.00  0.00     0.000 A 
ENDBRANCH  69  70
BRANCH  69  76
ATOM     76  N   UNL A   1      32.399  27.003  21.988  1.00  0.00    -0.336 N 
ATOM     77  C   UNL A   1      32.955  25.754  22.045  1.00  0.00     0.253 C 
ATOM     78  H   UNL A   1      32.244  27.348  21.079  1.00  0.00     0.165 HD
ATOM     79  O   UNL A   1      33.361  25.220  21.018  1.00  0.00    -0.269 OA
BRANCH  77  80
ATOM     80  C   UNL A   1      33.147  25.062  23.334  1.00  0.00     0.058 A 
ATOM     81  C   UNL A   1      34.212  25.308  24.201  1.00  0.00     0.018 A 
ATOM     82  C   UNL A   1      32.204  24.118  23.719  1.00  0.00     0.126 A 
ATOM     83  C   UNL A   1      34.334  24.553  25.367  1.00  0.00     0.037 A 
ATOM     84  N   UNL A   1      32.299  23.369  24.844  1.00  0.00    -0.249 NA
ATOM     85  C   UNL A   1      33.365  23.599  25.643  1.00  0.00     0.106 A 
ATOM     86  Br  UNL A   1      33.533  22.552  27.213  1.00  0.00    -0.029 Br
ENDBRANCH  77  80
ENDBRANCH  69  76
ENDBRANCH  66  69
ENDBRANCH  64  65
ENDBRANCH  63  64
ENDBRANCH   1  63
TORSDOF 14
ENDMDL
MODEL 2
REMARK VINA RESULT:     -12.3      5.154     10.269
REMARK SMILES O=C(NCCCCNC(=O)[C@H](NC(=O)c1ccc(Br)nc1)c1ccccc1)c1ccc(-c2c3nc(c(-c4c(F)cccc4F)c4ccc([nH]4)c(-c4c(F)cccc4F)c4nc(c(-c5c(F)cccc5F)c5ccc2[nH]5)C=C4)C=C3)cc1
REMARK SMILES IDX 5 1 4 2 3 3 1 4 2 5 28 7 29 8 81 9 30 10 80 11 31 12 32 13
REMARK SMILES IDX 33 14 74 15 34 16 79 17 73 18 75 19 35 20 78 21 72 22 71 23
REMARK SMILES IDX 36 25 62 26 45 27 61 28 46 29 49 30 60 31 76 32 47 33 48 34
REMARK SMILES IDX 59 36 77 37 50 38 37 39 38 40 43 41 39 42 40 43 42 44 44 45
REMARK SMILES IDX 41 46 63 47 64 48 69 49 65 50 66 51 68 52 70 53 67 54 51 55
REMARK SMILES IDX 52 56 57 57 53 58 54 59 56 60 58 61 55 62 6 63 7 64 8 65
REMARK SMILES IDX 9 66 10 68 11 69 22 70 23 71 27 72 24 73 26 74 25 75 12 76
REMARK SMILES IDX 13 77 14 79 15 80 16 81 21 82 17 83 20 84 18 85 19 86
REMARK H PARENT 3 6 75 24 49 35 8 67 12 78
REMARK Flexibility Score: inf
ROOT
ATOM      1  C   UNL A   1      37.907  19.960  24.609  1.00  0.00     0.023 C 
ENDROOT
BRANCH   1   2
ATOM      2  C   UNL A   1      38.885  20.159  25.758  1.00  0.00     0.116 C 
BRANCH   2   3
ATOM      3  N   UNL A   1      39.906  19.126  25.818  1.00  0.00    -0.352 N 
ATOM      4  O   UNL A   1      42.017  18.327  25.936  1.00  0.00    -0.269 OA
ATOM      5  C   UNL A   1      41.250  19.277  26.053  1.00  0.00     0.251 C 
ATOM      6  H   UNL A   1      39.594  18.203  25.671  1.00  0.00     0.163 HD
BRANCH   5   7
ATOM      7  C   UNL A   1      41.767  20.607  26.433  1.00  0.00     0.039 A 
ATOM      8  C   UNL A   1      42.106  21.540  25.448  1.00  0.00     0.014 A 
ATOM      9  C   UNL A   1      41.914  20.922  27.786  1.00  0.00     0.014 A 
ATOM     10  C   UNL A   1      42.684  22.749  25.812  1.00  0.00     0.010 A 
ATOM     11  C   UNL A   1      42.426  22.168  28.154  1.00  0.00     0.010 A 
ATOM     12  C   UNL A   1      42.820  23.088  27.168  1.00  0.00    -0.014 A 
BRANCH  12  13
ATOM     13  C   UNL A   1      43.252  24.458  27.530  1.00  0.00     0.031 A 
ATOM     14  C   UNL A   1      42.268  25.503  27.968  1.00  0.00     0.074 A 
ATOM     15  C   UNL A   1      44.566  24.746  27.447  1.00  0.00     0.049 A 
ATOM     16  N   UNL A   1      42.492  26.750  28.298  1.00  0.00    -0.248 NA
ATOM     17  C   UNL A   1      40.854  25.107  28.042  1.00  0.00     0.031 C 
ATOM     18  C   UNL A   1      45.604  23.809  27.008  1.00  0.00     0.029 A 
ATOM     19  N   UNL A   1      45.254  25.896  27.725  1.00  0.00    -0.354 N 
ATOM     20  C   UNL A   1      41.251  27.294  28.599  1.00  0.00     0.074 A 
ATOM     21  C   UNL A   1      40.272  26.244  28.403  1.00  0.00     0.031 C 
ATOM     22  C   UNL A   1      46.798  24.414  27.069  1.00  0.00     0.029 A 
ATOM     23  C   UNL A   1      46.604  25.795  27.489  1.00  0.00     0.049 A 
ATOM     24  H   UNL A   1      44.824  26.716  28.061  1.00  0.00     0.167 HD
ATOM     25  C   UNL A   1      40.964  28.554  29.004  1.00  0.00     0.037 A 
ATOM     26  C   UNL A   1      47.576  26.722  27.569  1.00  0.00     0.037 A 
ATOM     27  C   UNL A   1      41.950  29.582  29.218  1.00  0.00     0.049 A 
ATOM     28  C   UNL A   1      47.216  28.114  27.993  1.00  0.00     0.074 A 
ATOM     29  C   UNL A   1      41.765  30.865  29.705  1.00  0.00     0.029 A 
ATOM     30  N   UNL A   1      43.304  29.451  28.944  1.00  0.00    -0.354 N 
ATOM     31  N   UNL A   1      46.048  28.593  28.343  1.00  0.00    -0.248 NA
ATOM     32  C   UNL A   1      48.307  29.097  28.025  1.00  0.00     0.031 C 
ATOM     33  C   UNL A   1      42.996  31.527  29.676  1.00  0.00     0.029 A 
ATOM     34  C   UNL A   1      43.957  30.643  29.213  1.00  0.00     0.049 A 
ATOM     35  H   UNL A   1      43.736  28.632  28.608  1.00  0.00     0.167 HD
ATOM     36  C   UNL A   1      46.262  29.931  28.639  1.00  0.00     0.074 A 
ATOM     37  C   UNL A   1      47.677  30.178  28.460  1.00  0.00     0.031 C 
ATOM     38  C   UNL A   1      45.365  30.873  29.018  1.00  0.00     0.037 A 
BRANCH  25  39
ATOM     39  C   UNL A   1      39.527  28.915  29.238  1.00  0.00     0.057 A 
ATOM     40  C   UNL A   1      38.702  29.376  28.205  1.00  0.00     0.134 A 
ATOM     41  C   UNL A   1      38.937  28.701  30.491  1.00  0.00     0.134 A 
ATOM     42  F   UNL A   1      39.206  29.607  26.984  1.00  0.00    -0.206 F 
ATOM     43  C   UNL A   1      37.340  29.610  28.410  1.00  0.00     0.040 A 
ATOM     44  C   UNL A   1      37.574  28.914  30.703  1.00  0.00     0.040 A 
ATOM     45  F   UNL A   1      39.671  28.253  31.520  1.00  0.00    -0.206 F 
ATOM     46  C   UNL A   1      36.771  29.369  29.659  1.00  0.00     0.006 A 
ENDBRANCH  25  39
BRANCH  26  47
ATOM     47  C   UNL A   1      48.967  26.370  27.196  1.00  0.00     0.057 A 
ATOM     48  C   UNL A   1      49.430  26.522  25.885  1.00  0.00     0.134 A 
ATOM     49  C   UNL A   1      49.867  25.864  28.144  1.00  0.00     0.134 A 
ATOM     50  F   UNL A   1      48.611  26.985  24.929  1.00  0.00    -0.206 F 
ATOM     51  C   UNL A   1      50.730  26.164  25.524  1.00  0.00     0.040 A 
ATOM     52  C   UNL A   1      51.177  25.531  27.804  1.00  0.00     0.040 A 
ATOM     53  F   UNL A   1      49.487  25.704  29.420  1.00  0.00    -0.206 F 
ATOM     54  C   UNL A   1      51.609  25.672  26.487  1.00  0.00     0.006 A 
ENDBRANCH  26  47
BRANCH  38  55
ATOM     55  C   UNL A   1      45.896  32.253  29.260  1.00  0.00     0.057 A 
ATOM     56  C   UNL A   1      45.912  33.218  28.245  1.00  0.00     0.134 A 
ATOM     57  C   UNL A   1      46.374  32.627  30.521  1.00  0.00     0.134 A 
ATOM     58  F   UNL A   1      45.485  32.914  27.010  1.00  0.00    -0.206 F 
ATOM     59  C   UNL A   1      46.408  34.502  28.472  1.00  0.00     0.040 A 
ATOM     60  C   UNL A   1      46.849  33.915  30.766  1.00  0.00     0.040 A 
ATOM     61  F   UNL A   1      46.380  31.749  31.536  1.00  0.00    -0.206 F 
ATOM     62  C   UNL A   1      46.872  34.855  29.737  1.00  0.00     0.006 A 
ENDBRANCH  38  55
ENDBRANCH  12  13
ENDBRANCH   5   7
ENDBRANCH   2   3
ENDBRANCH   1   2
BRANCH   1  63
ATOM     63  C   UNL A   1      36.430  19.980  25.009  1.00  0.00     0.023 C 
BRANCH  63  64
ATOM     64  C   UNL A   1      35.869  21.377  25.267  1.00  0.00     0.116 C 
BRANCH  64  65
ATOM     65  N   UNL A   1      35.290  21.484  26.596  1.00  0.00    -0.354 N 
ATOM     66  C   UNL A   1      33.982  21.705  26.951  1.00  0.00     0.247 C 
ATOM     67  H   UNL A   1      35.923  21.385  27.343  1.00  0.00     0.163 HD
ATOM     68  O   UNL A   1      33.737  21.888  28.143  1.00  0.00    -0.272 OA
BRANCH  66  69
ATOM     69  C   UNL A   1      32.910  21.733  25.836  1.00  0.00     0.202 C 
BRANCH  69  70
ATOM     70  C   UNL A   1      32.705  20.395  25.138  1.00  0.00    -0.016 A 
ATOM     71  C   UNL A   1      32.833  19.212  25.886  1.00  0.00     0.006 A 
ATOM     72  C   UNL A   1      32.479  20.290  23.755  1.00  0.00     0.006 A 
ATOM     73  C   UNL A   1      32.779  17.964  25.262  1.00  0.00     0.000 A 
ATOM     74  C   UNL A   1      32.433  19.042  23.133  1.00  0.00     0.000 A 
ATOM     75  C   UNL A   1      32.593  17.880  23.885  1.00  0.00     0.000 A 
ENDBRANCH  69  70
BRANCH  69  76
ATOM     76  N   UNL A   1      31.670  22.275  26.395  1.00  0.00    -0.336 N 
ATOM     77  C   UNL A   1      31.203  23.562  26.418  1.00  0.00     0.253 C 
ATOM     78  H   UNL A   1      31.079  21.611  26.821  1.00  0.00     0.165 HD
ATOM     79  O   UNL A   1      30.205  23.836  27.075  1.00  0.00    -0.269 OA
BRANCH  77  80
ATOM     80  C   UNL A   1      31.926  24.647  25.727  1.00  0.00     0.058 A 
ATOM     81  C   UNL A   1      33.084  25.249  26.217  1.00  0.00     0.018 A 
ATOM     82  C   UNL A   1      31.432  25.089  24.506  1.00  0.00     0.126 A 
ATOM     83  C   UNL A   1      33.653  26.311  25.514  1.00  0.00     0.037 A 
ATOM     84  N   UNL A   1      31.964  26.119  23.804  1.00  0.00    -0.249 NA
ATOM     85  C   UNL A   1      33.060  26.712  24.326  1.00  0.00     0.106 A 
ATOM     86  Br  UNL A   1      33.813  28.169  23.374  1.00  0.00    -0.029 Br
ENDBRANCH  77  80
ENDBRANCH  69  76
ENDBRANCH  66  69
ENDBRANCH  64  65
ENDBRANCH  63  64
ENDBRANCH   1  63
TORSDOF 14
ENDMDL
MODEL 3
REMARK VINA RESULT:     -12.3      5.163     10.280
REMARK SMILES O=C(NCCCCNC(=O)[C@H](NC(=O)c1ccc(Br)nc1)c1ccccc1)c1ccc(-c2c3nc(c(-c4c(F)cccc4F)c4ccc([nH]4)c(-c4c(F)cccc4F)c4nc(c(-c5c(F)cccc5F)c5ccc2[nH]5)C=C4)C=C3)cc1
REMARK SMILES IDX 5 1 4 2 3 3 1 4 2 5 28 7 29 8 81 9 30 10 80 11 31 12 32 13
REMARK SMILES IDX 33 14 74 15 34 16 79 17 73 18 75 19 35 20 78 21 72 22 71 23
REMARK SMILES IDX 36 25 62 26 45 27 61 28 46 29 49 30 60 31 76 32 47 33 48 34
REMARK SMILES IDX 59 36 77 37 50 38 37 39 38 40 43 41 39 42 40 43 42 44 44 45
REMARK SMILES IDX 41 46 63 47 64 48 69 49 65 50 66 51 68 52 70 53 67 54 51 55
REMARK SMILES IDX 52 56 57 57 53 58 54 59 56 60 58 61 55 62 6 63 7 64 8 65
REMARK SMILES IDX 9 66 10 68 11 69 22 70 23 71 27 72 24 73 26 74 25 75 12 76
REMARK SMILES IDX 13 77 14 79 15 80 16 81 21 82 17 83 20 84 18 85 19 86
REMARK H PARENT 3 6 75 24 49 35 8 67 12 78
REMARK Flexibility Score: inf
ROOT
ATOM      1  C   UNL A   1      37.898  19.834  24.601  1.00  0.00     0.023 C 
ENDROOT
BRANCH   1   2
ATOM      2  C   UNL A   1      38.878  20.023  25.752  1.00  0.00     0.116 C 
BRANCH   2   3
ATOM      3  N   UNL A   1      39.928  19.018  25.770  1.00  0.00    -0.352 N 
ATOM      4  O   UNL A   1      42.063  18.278  25.823  1.00  0.00    -0.269 OA
ATOM      5  C   UNL A   1      41.274  19.204  25.973  1.00  0.00     0.251 C 
ATOM      6  H   UNL A   1      39.639  18.089  25.618  1.00  0.00     0.163 HD
BRANCH   5   7
ATOM      7  C   UNL A   1      41.763  20.544  26.358  1.00  0.00     0.039 A 
ATOM      8  C   UNL A   1      42.104  21.479  25.376  1.00  0.00     0.014 A 
ATOM      9  C   UNL A   1      41.882  20.864  27.712  1.00  0.00     0.014 A 
ATOM     10  C   UNL A   1      42.656  22.698  25.747  1.00  0.00     0.010 A 
ATOM     11  C   UNL A   1      42.367  22.119  28.086  1.00  0.00     0.010 A 
ATOM     12  C   UNL A   1      42.764  23.042  27.104  1.00  0.00    -0.014 A 
BRANCH  12  13
ATOM     13  C   UNL A   1      43.167  24.420  27.470  1.00  0.00     0.031 A 
ATOM     14  C   UNL A   1      42.160  25.450  27.891  1.00  0.00     0.074 A 
ATOM     15  C   UNL A   1      44.477  24.729  27.406  1.00  0.00     0.049 A 
ATOM     16  N   UNL A   1      42.359  26.701  28.221  1.00  0.00    -0.248 NA
ATOM     17  C   UNL A   1      40.752  25.030  27.945  1.00  0.00     0.031 C 
ATOM     18  C   UNL A   1      45.538  23.809  26.984  1.00  0.00     0.029 A 
ATOM     19  N   UNL A   1      45.143  25.892  27.691  1.00  0.00    -0.354 N 
ATOM     20  C   UNL A   1      41.104  27.225  28.502  1.00  0.00     0.074 A 
ATOM     21  C   UNL A   1      40.146  26.159  28.294  1.00  0.00     0.031 C 
ATOM     22  C   UNL A   1      46.721  24.433  27.062  1.00  0.00     0.029 A 
ATOM     23  C   UNL A   1      46.497  25.812  27.476  1.00  0.00     0.049 A 
ATOM     24  H   UNL A   1      44.694  26.705  28.019  1.00  0.00     0.167 HD
ATOM     25  C   UNL A   1      40.791  28.480  28.901  1.00  0.00     0.037 A 
ATOM     26  C   UNL A   1      47.453  26.754  27.568  1.00  0.00     0.037 A 
ATOM     27  C   UNL A   1      41.757  29.525  29.127  1.00  0.00     0.049 A 
ATOM     28  C   UNL A   1      47.064  28.141  27.984  1.00  0.00     0.074 A 
ATOM     29  C   UNL A   1      41.544  30.806  29.609  1.00  0.00     0.029 A 
ATOM     30  N   UNL A   1      43.116  29.416  28.874  1.00  0.00    -0.354 N 
ATOM     31  N   UNL A   1      45.883  28.602  28.316  1.00  0.00    -0.248 NA
ATOM     32  C   UNL A   1      48.138  29.142  28.030  1.00  0.00     0.031 C 
ATOM     33  C   UNL A   1      42.764  31.487  29.597  1.00  0.00     0.029 A 
ATOM     34  C   UNL A   1      43.746  30.619  29.150  1.00  0.00     0.049 A 
ATOM     35  H   UNL A   1      43.566  28.604  28.546  1.00  0.00     0.167 HD
ATOM     36  C   UNL A   1      46.070  29.944  28.612  1.00  0.00     0.074 A 
ATOM     37  C   UNL A   1      47.484  30.214  28.453  1.00  0.00     0.031 C 
ATOM     38  C   UNL A   1      45.152  30.871  28.975  1.00  0.00     0.037 A 
BRANCH  25  39
ATOM     39  C   UNL A   1      39.345  28.819  29.112  1.00  0.00     0.057 A 
ATOM     40  C   UNL A   1      38.720  28.655  30.354  1.00  0.00     0.134 A 
ATOM     41  C   UNL A   1      38.599  29.412  28.085  1.00  0.00     0.134 A 
ATOM     42  F   UNL A   1      39.377  28.088  31.376  1.00  0.00    -0.206 F 
ATOM     43  C   UNL A   1      37.403  29.070  30.566  1.00  0.00     0.040 A 
ATOM     44  C   UNL A   1      37.289  29.848  28.291  1.00  0.00     0.040 A 
ATOM     45  F   UNL A   1      39.141  29.604  26.873  1.00  0.00    -0.206 F 
ATOM     46  C   UNL A   1      36.688  29.678  29.536  1.00  0.00     0.006 A 
ENDBRANCH  25  39
BRANCH  26  47
ATOM     47  C   UNL A   1      48.855  26.425  27.217  1.00  0.00     0.057 A 
ATOM     48  C   UNL A   1      49.739  25.901  28.166  1.00  0.00     0.134 A 
ATOM     49  C   UNL A   1      49.348  26.635  25.922  1.00  0.00     0.134 A 
ATOM     50  F   UNL A   1      49.331  25.694  29.426  1.00  0.00    -0.206 F 
ATOM     51  C   UNL A   1      51.068  25.618  27.846  1.00  0.00     0.040 A 
ATOM     52  C   UNL A   1      50.664  26.328  25.581  1.00  0.00     0.040 A 
ATOM     53  F   UNL A   1      48.547  27.126  24.964  1.00  0.00    -0.206 F 
ATOM     54  C   UNL A   1      51.531  25.826  26.548  1.00  0.00     0.006 A 
ENDBRANCH  26  47
BRANCH  38  55
ATOM     55  C   UNL A   1      45.658  32.261  29.222  1.00  0.00     0.057 A 
ATOM     56  C   UNL A   1      45.666  33.226  28.208  1.00  0.00     0.134 A 
ATOM     57  C   UNL A   1      46.118  32.642  30.487  1.00  0.00     0.134 A 
ATOM     58  F   UNL A   1      45.254  32.916  26.970  1.00  0.00    -0.206 F 
ATOM     59  C   UNL A   1      46.137  34.519  28.439  1.00  0.00     0.040 A 
ATOM     60  C   UNL A   1      46.568  33.938  30.738  1.00  0.00     0.040 A 
ATOM     61  F   UNL A   1      46.131  31.764  31.502  1.00  0.00    -0.206 F 
ATOM     62  C   UNL A   1      46.584  34.880  29.709  1.00  0.00     0.006 A 
ENDBRANCH  38  55
ENDBRANCH  12  13
ENDBRANCH   5   7
ENDBRANCH   2   3
ENDBRANCH   1   2
BRANCH   1  63
ATOM     63  C   UNL A   1      36.421  19.895  24.997  1.00  0.00     0.023 C 
BRANCH  63  64
ATOM     64  C   UNL A   1      35.890  21.309  25.224  1.00  0.00     0.116 C 
BRANCH  64  65
ATOM     65  N   UNL A   1      35.322  21.460  26.553  1.00  0.00    -0.354 N 
ATOM     66  C   UNL A   1      34.013  21.674  26.912  1.00  0.00     0.247 C 
ATOM     67  H   UNL A   1      35.962  21.400  27.298  1.00  0.00     0.163 HD
ATOM     68  O   UNL A   1      33.776  21.901  28.098  1.00  0.00    -0.272 OA
BRANCH  66  69
ATOM     69  C   UNL A   1      32.931  21.642  25.806  1.00  0.00     0.202 C 
BRANCH  69  70
ATOM     70  C   UNL A   1      32.758  20.281  25.147  1.00  0.00    -0.016 A 
ATOM     71  C   UNL A   1      32.903  19.122  25.931  1.00  0.00     0.006 A 
ATOM     72  C   UNL A   1      32.545  20.129  23.766  1.00  0.00     0.006 A 
ATOM     73  C   UNL A   1      32.878  17.856  25.344  1.00  0.00     0.000 A 
ATOM     74  C   UNL A   1      32.528  18.863  23.182  1.00  0.00     0.000 A 
ATOM     75  C   UNL A   1      32.704  17.727  23.969  1.00  0.00     0.000 A 
ENDBRANCH  69  70
BRANCH  69  76
ATOM     76  N   UNL A   1      31.681  22.165  26.362  1.00  0.00    -0.336 N 
ATOM     77  C   UNL A   1      31.182  23.439  26.359  1.00  0.00     0.253 C 
ATOM     78  H   UNL A   1      31.111  21.496  26.807  1.00  0.00     0.165 HD
ATOM     79  O   UNL A   1      30.181  23.703  27.017  1.00  0.00    -0.269 OA
BRANCH  77  80
ATOM     80  C   UNL A   1      31.871  24.526  25.637  1.00  0.00     0.058 A 
ATOM     81  C   UNL A   1      32.989  25.201  26.126  1.00  0.00     0.018 A 
ATOM     82  C   UNL A   1      31.387  24.894  24.389  1.00  0.00     0.126 A 
ATOM     83  C   UNL A   1      33.527  26.258  25.392  1.00  0.00     0.037 A 
ATOM     84  N   UNL A   1      31.889  25.917  23.655  1.00  0.00    -0.249 NA
ATOM     85  C   UNL A   1      32.945  26.581  24.174  1.00  0.00     0.106 A 
ATOM     86  Br  UNL A   1      33.653  28.029  23.178  1.00  0.00    -0.029 Br
ENDBRANCH  77  80
ENDBRANCH  69  76
ENDBRANCH  66  69
ENDBRANCH  64  65
ENDBRANCH  63  64
ENDBRANCH   1  63
TORSDOF 14
ENDMDL
