MODEL 1
REMARK VINA RESULT:     -11.9      0.000      0.000
REMARK SMILES Cc1n[nH]c(C(=O)Nc2cc(C(=O)NCCCCNC(=O)c3ccc(-c4c5nc(c(-c6c(F)cccc6F)c6ccc([nH]6)c(-c6c(F)cccc6F)c6nc(c(-c7c(F)cccc7F)c7ccc4[nH]7)C=C6)C=C5)cc3)[nH]n2)n1
REMARK SMILES IDX 16 1 15 2 14 3 12 4 13 5 11 7 9 8 10 9 77 10 76 11 8 13 6 14
REMARK SMILES IDX 7 15 5 17 1 18 2 19 3 20 78 21 4 22 17 24 18 25 19 26 20 27
REMARK SMILES IDX 21 29 22 30 23 31 75 32 24 33 74 34 25 35 26 36 27 37 68 38
REMARK SMILES IDX 28 39 73 40 67 41 69 42 29 43 72 44 66 45 65 46 30 48 56 49
REMARK SMILES IDX 39 50 55 51 40 52 43 53 54 54 70 55 41 56 42 57 53 59 71 60
REMARK SMILES IDX 44 61 31 62 32 63 37 64 33 65 34 66 36 67 38 68 35 69 57 70
REMARK SMILES IDX 58 71 63 72 59 73 60 74 62 75 64 76 61 77 45 78 46 79 51 80
REMARK SMILES IDX 47 81 48 82 50 83 52 84 49 85
REMARK H PARENT 14 6 76 12 8 16 4 23 19 28 69 47 43 58
REMARK Flexibility Score: inf
ROOT
ATOM      1  C   UNL A   1      41.126  20.446  26.513  1.00  0.00     0.023 C 
ENDROOT
BRANCH   1   2
ATOM      2  C   UNL A   1      39.683  20.775  26.121  1.00  0.00     0.116 C 
BRANCH   2   3
ATOM      3  N   UNL A   1      39.453  22.208  26.050  1.00  0.00    -0.351 N 
ATOM      4  C   UNL A   1      38.311  22.948  25.859  1.00  0.00     0.269 C 
ATOM      5  O   UNL A   1      38.405  24.164  25.920  1.00  0.00    -0.268 OA
ATOM      6  H   UNL A   1      40.269  22.750  26.159  1.00  0.00     0.163 HD
BRANCH   4   7
ATOM      7  C   UNL A   1      37.034  22.306  25.684  1.00  0.00     0.125 A 
ATOM      8  C   UNL A   1      35.324  20.946  25.330  1.00  0.00     0.155 A 
ATOM      9  C   UNL A   1      36.470  21.495  24.723  1.00  0.00     0.082 A 
ATOM     10  N   UNL A   1      35.003  21.602  26.440  1.00  0.00    -0.157 NA
ATOM     11  N   UNL A   1      36.043  22.436  26.629  1.00  0.00    -0.271 N 
ATOM     12  H   UNL A   1      36.090  23.078  27.374  1.00  0.00     0.190 HD
BRANCH   8  13
ATOM     13  N   UNL A   1      34.631  19.836  24.933  1.00  0.00    -0.302 N 
ATOM     14  C   UNL A   1      33.260  19.650  24.983  1.00  0.00     0.294 C 
ATOM     15  O   UNL A   1      32.848  18.488  24.968  1.00  0.00    -0.265 OA
ATOM     16  H   UNL A   1      35.164  19.090  24.574  1.00  0.00     0.172 HD
BRANCH  14  17
ATOM     17  C   UNL A   1      32.371  20.810  24.898  1.00  0.00     0.214 A 
ATOM     18  C   UNL A   1      31.076  23.741  23.374  1.00  0.00     0.092 C 
ATOM     19  C   UNL A   1      31.408  22.589  24.236  1.00  0.00     0.148 A 
ATOM     20  N   UNL A   1      31.059  22.531  25.525  1.00  0.00    -0.159 NA
ATOM     21  N   UNL A   1      32.169  21.533  23.805  1.00  0.00    -0.207 NA
ATOM     22  N   UNL A   1      31.739  21.448  25.931  1.00  0.00    -0.255 N 
ATOM     23  H   UNL A   1      31.779  21.147  26.868  1.00  0.00     0.192 HD
ENDBRANCH  14  17
ENDBRANCH   8  13
ENDBRANCH   4   7
ENDBRANCH   2   3
ENDBRANCH   1   2
BRANCH   1  24
ATOM     24  C   UNL A   1      41.722  19.222  25.803  1.00  0.00     0.023 C 
BRANCH  24  25
ATOM     25  C   UNL A   1      43.156  18.887  26.202  1.00  0.00     0.116 C 
BRANCH  25  26
ATOM     26  N   UNL A   1      44.068  18.792  25.060  1.00  0.00    -0.352 N 
ATOM     27  C   UNL A   1      44.497  19.815  24.233  1.00  0.00     0.251 C 
ATOM     28  H   UNL A   1      44.416  17.894  24.857  1.00  0.00     0.163 HD
ATOM     29  O   UNL A   1      44.900  19.592  23.099  1.00  0.00    -0.269 OA
BRANCH  27  30
ATOM     30  C   UNL A   1      44.480  21.189  24.760  1.00  0.00     0.039 A 
ATOM     31  C   UNL A   1      43.528  22.129  24.357  1.00  0.00     0.014 A 
ATOM     32  C   UNL A   1      45.432  21.500  25.724  1.00  0.00     0.014 A 
ATOM     33  C   UNL A   1      43.493  23.362  25.005  1.00  0.00     0.010 A 
ATOM     34  C   UNL A   1      45.283  22.632  26.478  1.00  0.00     0.010 A 
ATOM     35  C   UNL A   1      44.363  23.595  26.083  1.00  0.00    -0.014 A 
BRANCH  35  36
ATOM     36  C   UNL A   1      44.258  24.795  26.902  1.00  0.00     0.031 A 
ATOM     37  C   UNL A   1      45.329  25.800  26.670  1.00  0.00     0.074 A 
ATOM     38  C   UNL A   1      43.155  25.081  27.629  1.00  0.00     0.049 A 
ATOM     39  N   UNL A   1      46.243  26.169  27.502  1.00  0.00    -0.248 NA
ATOM     40  C   UNL A   1      45.492  26.366  25.320  1.00  0.00     0.031 C 
ATOM     41  C   UNL A   1      41.897  24.329  27.719  1.00  0.00     0.029 A 
ATOM     42  N   UNL A   1      42.888  26.187  28.372  1.00  0.00    -0.354 N 
ATOM     43  C   UNL A   1      46.969  27.168  26.861  1.00  0.00     0.074 A 
ATOM     44  C   UNL A   1      46.586  27.115  25.474  1.00  0.00     0.031 C 
ATOM     45  C   UNL A   1      40.939  25.108  28.268  1.00  0.00     0.029 A 
ATOM     46  C   UNL A   1      41.550  26.343  28.721  1.00  0.00     0.049 A 
ATOM     47  H   UNL A   1      43.586  26.828  28.642  1.00  0.00     0.167 HD
ATOM     48  C   UNL A   1      47.637  28.114  27.576  1.00  0.00     0.037 A 
ATOM     49  C   UNL A   1      40.990  27.422  29.324  1.00  0.00     0.037 A 
ATOM     50  C   UNL A   1      47.784  27.717  28.956  1.00  0.00     0.049 A 
ATOM     51  C   UNL A   1      42.088  28.175  29.980  1.00  0.00     0.074 A 
ATOM     52  C   UNL A   1      48.352  26.627  29.589  1.00  0.00     0.029 A 
ATOM     53  N   UNL A   1      46.939  28.283  29.880  1.00  0.00    -0.354 N 
ATOM     54  N   UNL A   1      42.751  27.724  31.009  1.00  0.00    -0.248 NA
ATOM     55  C   UNL A   1      42.771  29.191  29.193  1.00  0.00     0.031 C 
ATOM     56  C   UNL A   1      47.441  26.301  30.639  1.00  0.00     0.029 A 
ATOM     57  C   UNL A   1      46.429  27.261  30.643  1.00  0.00     0.049 A 
ATOM     58  H   UNL A   1      46.736  29.241  29.977  1.00  0.00     0.167 HD
ATOM     59  C   UNL A   1      44.073  28.043  30.738  1.00  0.00     0.074 A 
ATOM     60  C   UNL A   1      44.015  29.019  29.649  1.00  0.00     0.031 C 
ATOM     61  C   UNL A   1      45.098  27.268  31.204  1.00  0.00     0.037 A 
BRANCH  48  62
ATOM     62  C   UNL A   1      47.824  29.543  27.131  1.00  0.00     0.057 A 
ATOM     63  C   UNL A   1      49.100  30.128  27.210  1.00  0.00     0.134 A 
ATOM     64  C   UNL A   1      46.765  30.445  26.906  1.00  0.00     0.134 A 
ATOM     65  F   UNL A   1      50.188  29.377  27.442  1.00  0.00    -0.206 F 
ATOM     66  C   UNL A   1      49.297  31.513  27.138  1.00  0.00     0.040 A 
ATOM     67  C   UNL A   1      46.956  31.823  26.780  1.00  0.00     0.040 A 
ATOM     68  F   UNL A   1      45.483  30.059  26.900  1.00  0.00    -0.206 F 
ATOM     69  C   UNL A   1      48.221  32.365  26.929  1.00  0.00     0.006 A 
ENDBRANCH  48  62
BRANCH  49  70
ATOM     70  C   UNL A   1      39.632  27.987  29.141  1.00  0.00     0.057 A 
ATOM     71  C   UNL A   1      38.728  28.073  30.210  1.00  0.00     0.134 A 
ATOM     72  C   UNL A   1      39.286  28.712  27.986  1.00  0.00     0.134 A 
ATOM     73  F   UNL A   1      38.984  27.451  31.370  1.00  0.00    -0.206 F 
ATOM     74  C   UNL A   1      37.565  28.856  30.145  1.00  0.00     0.040 A 
ATOM     75  C   UNL A   1      38.127  29.492  27.906  1.00  0.00     0.040 A 
ATOM     76  F   UNL A   1      40.108  28.762  26.927  1.00  0.00    -0.206 F 
ATOM     77  C   UNL A   1      37.269  29.579  28.994  1.00  0.00     0.006 A 
ENDBRANCH  49  70
BRANCH  61  78
ATOM     78  C   UNL A   1      44.771  26.190  32.205  1.00  0.00     0.057 A 
ATOM     79  C   UNL A   1      44.507  24.851  31.875  1.00  0.00     0.134 A 
ATOM     80  C   UNL A   1      44.863  26.488  33.569  1.00  0.00     0.134 A 
ATOM     81  F   UNL A   1      44.507  24.435  30.604  1.00  0.00    -0.206 F 
ATOM     82  C   UNL A   1      44.289  23.873  32.850  1.00  0.00     0.040 A 
ATOM     83  C   UNL A   1      44.682  25.514  34.554  1.00  0.00     0.040 A 
ATOM     84  F   UNL A   1      45.173  27.731  33.969  1.00  0.00    -0.206 F 
ATOM     85  C   UNL A   1      44.381  24.202  34.197  1.00  0.00     0.006 A 
ENDBRANCH  61  78
ENDBRANCH  35  36
ENDBRANCH  27  30
ENDBRANCH  25  26
ENDBRANCH  24  25
ENDBRANCH   1  24
TORSDOF 13
ENDMDL
MODEL 2
REMARK VINA RESULT:     -11.7      5.189      9.978
REMARK SMILES Cc1n[nH]c(C(=O)Nc2cc(C(=O)NCCCCNC(=O)c3ccc(-c4c5nc(c(-c6c(F)cccc6F)c6ccc([nH]6)c(-c6c(F)cccc6F)c6nc(c(-c7c(F)cccc7F)c7ccc4[nH]7)C=C6)C=C5)cc3)[nH]n2)n1
REMARK SMILES IDX 16 1 15 2 14 3 12 4 13 5 11 7 9 8 10 9 77 10 76 11 8 13 6 14
REMARK SMILES IDX 7 15 5 17 1 18 2 19 3 20 78 21 4 22 17 24 18 25 19 26 20 27
REMARK SMILES IDX 21 29 22 30 23 31 75 32 24 33 74 34 25 35 26 36 27 37 68 38
REMARK SMILES IDX 28 39 73 40 67 41 69 42 29 43 72 44 66 45 65 46 30 48 56 49
REMARK SMILES IDX 39 50 55 51 40 52 43 53 54 54 70 55 41 56 42 57 53 59 71 60
REMARK SMILES IDX 44 61 31 62 32 63 37 64 33 65 34 66 36 67 38 68 35 69 57 70
REMARK SMILES IDX 58 71 63 72 59 73 60 74 62 75 64 76 61 77 45 78 46 79 51 80
REMARK SMILES IDX 47 81 48 82 50 83 52 84 49 85
REMARK H PARENT 14 6 76 12 8 16 4 23 19 28 69 47 43 58
REMARK Flexibility Score: inf
ROOT
ATOM      1  C   UNL A   1      38.277  33.238  31.404  1.00  0.00     0.023 C 
ENDROOT
BRANCH   1   2
ATOM      2  C   UNL A   1      37.254  34.275  31.878  1.00  0.00     0.116 C 
BRANCH   2   3
ATOM      3  N   UNL A   1      36.782  33.994  33.223  1.00  0.00    -0.351 N 
ATOM      4  C   UNL A   1      35.590  34.259  33.853  1.00  0.00     0.269 C 
ATOM      5  O   UNL A   1      35.440  33.833  34.988  1.00  0.00    -0.268 OA
ATOM      6  H   UNL A   1      37.438  33.525  33.789  1.00  0.00     0.163 HD
BRANCH   4   7
ATOM      7  C   UNL A   1      34.523  34.939  33.164  1.00  0.00     0.125 A 
ATOM      8  C   UNL A   1      33.204  36.061  31.785  1.00  0.00     0.155 A 
ATOM      9  C   UNL A   1      34.376  36.169  32.560  1.00  0.00     0.082 A 
ATOM     10  N   UNL A   1      32.495  34.991  32.126  1.00  0.00    -0.157 NA
ATOM     11  N   UNL A   1      33.303  34.331  32.978  1.00  0.00    -0.271 N 
ATOM     12  H   UNL A   1      33.045  33.493  33.426  1.00  0.00     0.190 HD
BRANCH   8  13
ATOM     13  N   UNL A   1      32.825  36.865  30.746  1.00  0.00    -0.302 N 
ATOM     14  C   UNL A   1      33.305  36.827  29.448  1.00  0.00     0.294 C 
ATOM     15  O   UNL A   1      33.161  37.843  28.764  1.00  0.00    -0.265 OA
ATOM     16  H   UNL A   1      32.138  37.541  30.942  1.00  0.00     0.172 HD
BRANCH  14  17
ATOM     17  C   UNL A   1      33.813  35.567  28.903  1.00  0.00     0.214 A 
ATOM     18  C   UNL A   1      33.581  32.133  28.037  1.00  0.00     0.092 C 
ATOM     19  C   UNL A   1      33.971  33.536  28.287  1.00  0.00     0.148 A 
ATOM     20  N   UNL A   1      35.247  33.934  28.311  1.00  0.00    -0.159 NA
ATOM     21  N   UNL A   1      33.064  34.517  28.597  1.00  0.00    -0.207 NA
ATOM     22  N   UNL A   1      35.122  35.187  28.773  1.00  0.00    -0.255 N 
ATOM     23  H   UNL A   1      35.886  35.767  28.994  1.00  0.00     0.192 HD
ENDBRANCH  14  17
ENDBRANCH   8  13
ENDBRANCH   4   7
ENDBRANCH   2   3
ENDBRANCH   1   2
BRANCH   1  24
ATOM     24  C   UNL A   1      37.738  32.221  30.387  1.00  0.00     0.023 C 
BRANCH  24  25
ATOM     25  C   UNL A   1      37.254  30.907  30.993  1.00  0.00     0.116 C 
BRANCH  25  26
ATOM     26  N   UNL A   1      36.228  30.241  30.187  1.00  0.00    -0.352 N 
ATOM     27  C   UNL A   1      36.395  29.584  28.981  1.00  0.00     0.251 C 
ATOM     28  H   UNL A   1      35.312  30.263  30.546  1.00  0.00     0.163 HD
ATOM     29  O   UNL A   1      35.462  29.434  28.201  1.00  0.00    -0.269 OA
BRANCH  27  30
ATOM     30  C   UNL A   1      37.726  29.045  28.659  1.00  0.00     0.039 A 
ATOM     31  C   UNL A   1      38.489  29.530  27.593  1.00  0.00     0.014 A 
ATOM     32  C   UNL A   1      38.220  28.057  29.503  1.00  0.00     0.014 A 
ATOM     33  C   UNL A   1      39.793  29.066  27.441  1.00  0.00     0.010 A 
ATOM     34  C   UNL A   1      39.549  27.739  29.463  1.00  0.00     0.010 A 
ATOM     35  C   UNL A   1      40.323  28.184  28.398  1.00  0.00    -0.014 A 
BRANCH  35  36
ATOM     36  C   UNL A   1      41.728  27.799  28.384  1.00  0.00     0.031 A 
ATOM     37  C   UNL A   1      42.023  26.555  27.625  1.00  0.00     0.074 A 
ATOM     38  C   UNL A   1      42.709  28.624  28.813  1.00  0.00     0.049 A 
ATOM     39  N   UNL A   1      42.452  25.435  28.102  1.00  0.00    -0.248 NA
ATOM     40  C   UNL A   1      41.677  26.498  26.195  1.00  0.00     0.031 C 
ATOM     41  C   UNL A   1      42.596  30.001  29.310  1.00  0.00     0.029 A 
ATOM     42  N   UNL A   1      44.054  28.432  28.790  1.00  0.00    -0.354 N 
ATOM     43  C   UNL A   1      42.636  24.596  27.009  1.00  0.00     0.074 A 
ATOM     44  C   UNL A   1      41.974  25.230  25.898  1.00  0.00     0.031 C 
ATOM     45  C   UNL A   1      43.814  30.586  29.312  1.00  0.00     0.029 A 
ATOM     46  C   UNL A   1      44.809  29.584  28.981  1.00  0.00     0.049 A 
ATOM     47  H   UNL A   1      44.462  27.546  28.649  1.00  0.00     0.167 HD
ATOM     48  C   UNL A   1      43.530  23.570  27.058  1.00  0.00     0.037 A 
ATOM     49  C   UNL A   1      46.155  29.702  28.857  1.00  0.00     0.037 A 
ATOM     50  C   UNL A   1      43.919  23.284  28.418  1.00  0.00     0.049 A 
ATOM     51  C   UNL A   1      46.725  28.336  28.970  1.00  0.00     0.074 A 
ATOM     52  C   UNL A   1      43.229  22.931  29.563  1.00  0.00     0.029 A 
ATOM     53  N   UNL A   1      45.137  23.751  28.850  1.00  0.00    -0.354 N 
ATOM     54  N   UNL A   1      46.711  27.644  30.075  1.00  0.00    -0.248 NA
ATOM     55  C   UNL A   1      46.859  27.559  27.748  1.00  0.00     0.031 C 
ATOM     56  C   UNL A   1      43.847  23.684  30.607  1.00  0.00     0.029 A 
ATOM     57  C   UNL A   1      44.929  24.372  30.058  1.00  0.00     0.049 A 
ATOM     58  H   UNL A   1      45.998  23.660  28.381  1.00  0.00     0.167 HD
ATOM     59  C   UNL A   1      46.370  26.359  29.678  1.00  0.00     0.074 A 
ATOM     60  C   UNL A   1      46.556  26.348  28.226  1.00  0.00     0.031 C 
ATOM     61  C   UNL A   1      45.681  25.520  30.507  1.00  0.00     0.037 A 
BRANCH  48  62
ATOM     62  C   UNL A   1      44.332  23.083  25.878  1.00  0.00     0.057 A 
ATOM     63  C   UNL A   1      44.347  21.709  25.575  1.00  0.00     0.134 A 
ATOM     64  C   UNL A   1      45.306  23.853  25.212  1.00  0.00     0.134 A 
ATOM     65  F   UNL A   1      43.481  20.867  26.160  1.00  0.00    -0.206 F 
ATOM     66  C   UNL A   1      45.304  21.138  24.727  1.00  0.00     0.040 A 
ATOM     67  C   UNL A   1      46.233  23.301  24.323  1.00  0.00     0.040 A 
ATOM     68  F   UNL A   1      45.485  25.156  25.462  1.00  0.00    -0.206 F 
ATOM     69  C   UNL A   1      46.255  21.935  24.103  1.00  0.00     0.006 A 
ENDBRANCH  48  62
BRANCH  49  70
ATOM     70  C   UNL A   1      46.946  30.860  28.377  1.00  0.00     0.057 A 
ATOM     71  C   UNL A   1      46.828  31.330  27.061  1.00  0.00     0.134 A 
ATOM     72  C   UNL A   1      47.627  31.706  29.271  1.00  0.00     0.134 A 
ATOM     73  F   UNL A   1      46.162  30.617  26.141  1.00  0.00    -0.206 F 
ATOM     74  C   UNL A   1      47.330  32.578  26.665  1.00  0.00     0.040 A 
ATOM     75  C   UNL A   1      48.138  32.951  28.888  1.00  0.00     0.040 A 
ATOM     76  F   UNL A   1      47.740  31.395  30.571  1.00  0.00    -0.206 F 
ATOM     77  C   UNL A   1      47.976  33.399  27.583  1.00  0.00     0.006 A 
ENDBRANCH  49  70
BRANCH  61  78
ATOM     78  C   UNL A   1      45.498  25.939  31.943  1.00  0.00     0.057 A 
ATOM     79  C   UNL A   1      46.463  25.775  32.950  1.00  0.00     0.134 A 
ATOM     80  C   UNL A   1      44.352  26.662  32.292  1.00  0.00     0.134 A 
ATOM     81  F   UNL A   1      47.641  25.195  32.696  1.00  0.00    -0.206 F 
ATOM     82  C   UNL A   1      46.273  26.255  34.249  1.00  0.00     0.040 A 
ATOM     83  C   UNL A   1      44.164  27.178  33.577  1.00  0.00     0.040 A 
ATOM     84  F   UNL A   1      43.409  26.917  31.372  1.00  0.00    -0.206 F 
ATOM     85  C   UNL A   1      45.121  26.964  34.566  1.00  0.00     0.006 A 
ENDBRANCH  61  78
ENDBRANCH  35  36
ENDBRANCH  27  30
ENDBRANCH  25  26
ENDBRANCH  24  25
ENDBRANCH   1  24
TORSDOF 13
ENDMDL
MODEL 3
REMARK VINA RESULT:     -11.3      4.381      7.215
REMARK SMILES Cc1n[nH]c(C(=O)Nc2cc(C(=O)NCCCCNC(=O)c3ccc(-c4c5nc(c(-c6c(F)cccc6F)c6ccc([nH]6)c(-c6c(F)cccc6F)c6nc(c(-c7c(F)cccc7F)c7ccc4[nH]7)C=C6)C=C5)cc3)[nH]n2)n1
REMARK SMILES IDX 16 1 15 2 14 3 12 4 13 5 11 7 9 8 10 9 77 10 76 11 8 13 6 14
REMARK SMILES IDX 7 15 5 17 1 18 2 19 3 20 78 21 4 22 17 24 18 25 19 26 20 27
REMARK SMILES IDX 21 29 22 30 23 31 75 32 24 33 74 34 25 35 26 36 27 37 68 38
REMARK SMILES IDX 28 39 73 40 67 41 69 42 29 43 72 44 66 45 65 46 30 48 56 49
REMARK SMILES IDX 39 50 55 51 40 52 43 53 54 54 70 55 41 56 42 57 53 59 71 60
REMARK SMILES IDX 44 61 31 62 32 63 37 64 33 65 34 66 36 67 38 68 35 69 57 70
REMARK SMILES IDX 58 71 63 72 59 73 60 74 62 75 64 76 61 77 45 78 46 79 51 80
REMARK SMILES IDX 47 81 48 82 50 83 52 84 49 85
REMARK H PARENT 14 6 76 12 8 16 4 23 19 28 69 47 43 58
REMARK Flexibility Score: inf
ROOT
ATOM      1  C   UNL A   1      43.156  26.488  25.603  1.00  0.00     0.023 C 
ENDROOT
BRANCH   1   2
ATOM      2  C   UNL A   1      44.464  26.299  26.376  1.00  0.00     0.116 C 
BRANCH   2   3
ATOM      3  N   UNL A   1      45.626  26.427  25.515  1.00  0.00    -0.351 N 
ATOM      4  C   UNL A   1      46.385  25.495  24.849  1.00  0.00     0.269 C 
ATOM      5  O   UNL A   1      47.278  25.903  24.122  1.00  0.00    -0.268 OA
ATOM      6  H   UNL A   1      45.927  27.356  25.383  1.00  0.00     0.163 HD
BRANCH   4   7
ATOM      7  C   UNL A   1      46.077  24.090  24.937  1.00  0.00     0.125 A 
ATOM      8  C   UNL A   1      45.839  21.905  24.679  1.00  0.00     0.155 A 
ATOM      9  C   UNL A   1      45.557  23.147  24.078  1.00  0.00     0.082 A 
ATOM     10  N   UNL A   1      46.196  22.053  25.950  1.00  0.00    -0.157 NA
ATOM     11  N   UNL A   1      46.317  23.386  26.095  1.00  0.00    -0.271 N 
ATOM     12  H   UNL A   1      46.556  23.817  26.947  1.00  0.00     0.190 HD
BRANCH   8  13
ATOM     13  N   UNL A   1      45.847  20.678  24.075  1.00  0.00    -0.302 N 
ATOM     14  C   UNL A   1      45.200  19.534  24.509  1.00  0.00     0.294 C 
ATOM     15  O   UNL A   1      45.623  18.454  24.090  1.00  0.00    -0.265 OA
ATOM     16  H   UNL A   1      46.368  20.601  23.244  1.00  0.00     0.172 HD
BRANCH  14  17
ATOM     17  C   UNL A   1      43.978  19.655  25.306  1.00  0.00     0.214 A 
ATOM     18  C   UNL A   1      40.484  19.381  25.862  1.00  0.00     0.092 C 
ATOM     19  C   UNL A   1      41.942  19.610  25.924  1.00  0.00     0.148 A 
ATOM     20  N   UNL A   1      42.507  20.404  26.838  1.00  0.00    -0.159 NA
ATOM     21  N   UNL A   1      42.816  19.096  25.000  1.00  0.00    -0.207 NA
ATOM     22  N   UNL A   1      43.766  20.475  26.382  1.00  0.00    -0.255 N 
ATOM     23  H   UNL A   1      44.460  21.052  26.776  1.00  0.00     0.192 HD
ENDBRANCH  14  17
ENDBRANCH   8  13
ENDBRANCH   4   7
ENDBRANCH   2   3
ENDBRANCH   1   2
BRANCH   1  24
ATOM     24  C   UNL A   1      42.613  25.215  24.937  1.00  0.00     0.023 C 
BRANCH  24  25
ATOM     25  C   UNL A   1      42.770  23.943  25.766  1.00  0.00     0.116 C 
BRANCH  25  26
ATOM     26  N   UNL A   1      41.508  23.231  25.979  1.00  0.00    -0.352 N 
ATOM     27  C   UNL A   1      40.604  23.402  27.011  1.00  0.00     0.251 C 
ATOM     28  H   UNL A   1      41.277  22.549  25.308  1.00  0.00     0.163 HD
ATOM     29  O   UNL A   1      39.824  22.514  27.332  1.00  0.00    -0.269 OA
BRANCH  27  30
ATOM     30  C   UNL A   1      40.582  24.698  27.710  1.00  0.00     0.039 A 
ATOM     31  C   UNL A   1      41.594  25.086  28.591  1.00  0.00     0.014 A 
ATOM     32  C   UNL A   1      39.524  25.550  27.412  1.00  0.00     0.014 A 
ATOM     33  C   UNL A   1      41.573  26.381  29.102  1.00  0.00     0.010 A 
ATOM     34  C   UNL A   1      39.601  26.868  27.767  1.00  0.00     0.010 A 
ATOM     35  C   UNL A   1      40.581  27.275  28.665  1.00  0.00    -0.014 A 
BRANCH  35  36
ATOM     36  C   UNL A   1      40.608  28.684  29.034  1.00  0.00     0.031 A 
ATOM     37  C   UNL A   1      41.745  29.453  28.463  1.00  0.00     0.074 A 
ATOM     38  C   UNL A   1      39.564  29.294  29.638  1.00  0.00     0.049 A 
ATOM     39  N   UNL A   1      42.722  29.994  29.109  1.00  0.00    -0.248 NA
ATOM     40  C   UNL A   1      41.894  29.518  26.999  1.00  0.00     0.031 C 
ATOM     41  C   UNL A   1      38.255  28.732  29.993  1.00  0.00     0.029 A 
ATOM     42  N   UNL A   1      39.419  30.604  29.969  1.00  0.00    -0.354 N 
ATOM     43  C   UNL A   1      43.496  30.652  28.160  1.00  0.00     0.074 A 
ATOM     44  C   UNL A   1      43.051  30.173  26.877  1.00  0.00     0.031 C 
ATOM     45  C   UNL A   1      37.388  29.733  30.262  1.00  0.00     0.029 A 
ATOM     46  C   UNL A   1      38.115  30.987  30.264  1.00  0.00     0.049 A 
ATOM     47  H   UNL A   1      40.177  31.232  29.999  1.00  0.00     0.167 HD
ATOM     48  C   UNL A   1      44.269  31.718  28.505  1.00  0.00     0.037 A 
ATOM     49  C   UNL A   1      37.669  32.251  30.476  1.00  0.00     0.037 A 
ATOM     50  C   UNL A   1      44.443  31.792  29.936  1.00  0.00     0.049 A 
ATOM     51  C   UNL A   1      38.852  33.078  30.826  1.00  0.00     0.074 A 
ATOM     52  C   UNL A   1      44.948  30.930  30.891  1.00  0.00     0.029 A 
ATOM     53  N   UNL A   1      43.688  32.708  30.628  1.00  0.00    -0.354 N 
ATOM     54  N   UNL A   1      39.521  32.939  31.937  1.00  0.00    -0.248 NA
ATOM     55  C   UNL A   1      39.579  33.708  29.734  1.00  0.00     0.031 C 
ATOM     56  C   UNL A   1      44.061  31.057  32.002  1.00  0.00     0.029 A 
ATOM     57  C   UNL A   1      43.131  32.050  31.697  1.00  0.00     0.049 A 
ATOM     58  H   UNL A   1      43.567  33.658  30.400  1.00  0.00     0.167 HD
ATOM     59  C   UNL A   1      40.852  33.028  31.557  1.00  0.00     0.074 A 
ATOM     60  C   UNL A   1      40.825  33.585  30.203  1.00  0.00     0.031 C 
ATOM     61  C   UNL A   1      41.830  32.365  32.241  1.00  0.00     0.037 A 
BRANCH  48  62
ATOM     62  C   UNL A   1      44.551  32.893  27.603  1.00  0.00     0.057 A 
ATOM     63  C   UNL A   1      45.757  32.934  26.881  1.00  0.00     0.134 A 
ATOM     64  C   UNL A   1      43.830  34.104  27.636  1.00  0.00     0.134 A 
ATOM     65  F   UNL A   1      46.543  31.850  26.793  1.00  0.00    -0.206 F 
ATOM     66  C   UNL A   1      46.241  34.111  26.296  1.00  0.00     0.040 A 
ATOM     67  C   UNL A   1      44.279  35.270  27.010  1.00  0.00     0.040 A 
ATOM     68  F   UNL A   1      42.714  34.256  28.358  1.00  0.00    -0.206 F 
ATOM     69  C   UNL A   1      45.503  35.285  26.365  1.00  0.00     0.006 A 
ENDBRANCH  48  62
BRANCH  49  70
ATOM     70  C   UNL A   1      36.355  32.844  30.133  1.00  0.00     0.057 A 
ATOM     71  C   UNL A   1      35.609  33.563  31.079  1.00  0.00     0.134 A 
ATOM     72  C   UNL A   1      35.927  32.960  28.798  1.00  0.00     0.134 A 
ATOM     73  F   UNL A   1      35.959  33.551  32.373  1.00  0.00    -0.206 F 
ATOM     74  C   UNL A   1      34.522  34.372  30.716  1.00  0.00     0.040 A 
ATOM     75  C   UNL A   1      34.840  33.759  28.423  1.00  0.00     0.040 A 
ATOM     76  F   UNL A   1      36.604  32.375  27.799  1.00  0.00    -0.206 F 
ATOM     77  C   UNL A   1      34.143  34.481  29.382  1.00  0.00     0.006 A 
ENDBRANCH  49  70
BRANCH  61  78
ATOM     78  C   UNL A   1      41.462  31.717  33.551  1.00  0.00     0.057 A 
ATOM     79  C   UNL A   1      41.008  30.394  33.686  1.00  0.00     0.134 A 
ATOM     80  C   UNL A   1      41.707  32.414  34.740  1.00  0.00     0.134 A 
ATOM     81  F   UNL A   1      40.846  29.603  32.619  1.00  0.00    -0.206 F 
ATOM     82  C   UNL A   1      40.757  29.817  34.934  1.00  0.00     0.040 A 
ATOM     83  C   UNL A   1      41.494  31.838  35.994  1.00  0.00     0.040 A 
ATOM     84  F   UNL A   1      42.200  33.662  34.700  1.00  0.00    -0.206 F 
ATOM     85  C   UNL A   1      41.004  30.538  36.096  1.00  0.00     0.006 A 
ENDBRANCH  61  78
ENDBRANCH  35  36
ENDBRANCH  27  30
ENDBRANCH  25  26
ENDBRANCH  24  25
ENDBRANCH   1  24
TORSDOF 13
ENDMDL
