MODEL 1
REMARK VINA RESULT:      -9.1      0.000      0.000
REMARK SMILES C[C@@H](CC(=O)NCCCCNC(=O)c1ccc(-c2c3nc(c(-c4c(F)cccc4F)c4ccc([nH]4)c(-c4c(F)cccc4F)c4nc(c(-c5c(F)cccc5F)c5ccc2[nH]5)C=C4)C=C3)cc1)N1C(=O)CCCC1=O
REMARK SMILES IDX 8 1 7 2 6 3 4 4 5 5 3 7 2 8 1 9 68 10 69 11 74 12 70 13
REMARK SMILES IDX 71 14 73 15 75 16 72 17 9 18 10 19 11 20 12 21 13 23 14 24
REMARK SMILES IDX 15 25 67 26 16 27 66 28 17 29 18 30 19 31 60 32 20 33 65 34
REMARK SMILES IDX 59 35 61 36 21 37 64 38 58 39 57 40 22 42 48 43 31 44 47 45
REMARK SMILES IDX 32 46 35 47 46 48 62 49 33 50 34 51 45 53 63 54 36 55 23 56
REMARK SMILES IDX 24 57 29 58 25 59 26 60 28 61 30 62 27 63 49 64 50 65 55 66
REMARK SMILES IDX 51 67 52 68 54 69 56 70 53 71 37 72 38 73 43 74 39 75 40 76
REMARK SMILES IDX 42 77 44 78 41 79
REMARK H PARENT 6 6 11 22 61 41 35 52
REMARK Flexibility Score: inf
ROOT
ATOM      1  C   UNL A   1      46.002  21.614  24.794  1.00  0.00     0.023 C 
ENDROOT
BRANCH   1   2
ATOM      2  C   UNL A   1      45.814  23.106  24.530  1.00  0.00     0.116 C 
BRANCH   2   3
ATOM      3  N   UNL A   1      47.058  23.824  24.720  1.00  0.00    -0.356 N 
ATOM      4  C   UNL A   1      47.263  25.095  25.154  1.00  0.00     0.222 C 
ATOM      5  O   UNL A   1      48.388  25.583  25.018  1.00  0.00    -0.275 OA
ATOM      6  H   UNL A   1      47.874  23.317  24.503  1.00  0.00     0.163 HD
BRANCH   4   7
ATOM      7  C   UNL A   1      46.153  25.875  25.824  1.00  0.00     0.125 C 
BRANCH   7   8
ATOM      8  C   UNL A   1      45.495  26.975  24.970  1.00  0.00     0.099 C 
ATOM      9  C   UNL A   1      46.516  27.843  24.227  1.00  0.00     0.032 C 
BRANCH   8  10
ATOM     10  N   UNL A   1      44.403  27.687  25.671  1.00  0.00    -0.279 N 
ATOM     11  C   UNL A   1      43.071  27.454  25.324  1.00  0.00     0.229 C 
ATOM     12  C   UNL A   1      44.814  28.679  26.571  1.00  0.00     0.229 C 
ATOM     13  O   UNL A   1      42.703  26.582  24.537  1.00  0.00    -0.274 OA
ATOM     14  C   UNL A   1      42.013  28.275  26.022  1.00  0.00     0.101 C 
ATOM     15  C   UNL A   1      43.736  29.476  27.264  1.00  0.00     0.101 C 
ATOM     16  O   UNL A   1      45.996  28.880  26.860  1.00  0.00    -0.274 OA
ATOM     17  C   UNL A   1      42.526  29.647  26.380  1.00  0.00     0.020 C 
ENDBRANCH   8  10
ENDBRANCH   7   8
ENDBRANCH   4   7
ENDBRANCH   2   3
ENDBRANCH   1   2
BRANCH   1  18
ATOM     18  C   UNL A   1      44.811  20.740  24.414  1.00  0.00     0.023 C 
BRANCH  18  19
ATOM     19  C   UNL A   1      44.323  19.844  25.538  1.00  0.00     0.116 C 
BRANCH  19  20
ATOM     20  N   UNL A   1      42.966  19.354  25.325  1.00  0.00    -0.352 N 
ATOM     21  C   UNL A   1      41.787  19.898  25.780  1.00  0.00     0.251 C 
ATOM     22  H   UNL A   1      42.883  18.533  24.789  1.00  0.00     0.163 HD
ATOM     23  O   UNL A   1      40.719  19.325  25.624  1.00  0.00    -0.269 OA
BRANCH  21  24
ATOM     24  C   UNL A   1      41.853  21.181  26.502  1.00  0.00     0.039 A 
ATOM     25  C   UNL A   1      41.826  21.180  27.897  1.00  0.00     0.014 A 
ATOM     26  C   UNL A   1      42.058  22.364  25.786  1.00  0.00     0.014 A 
ATOM     27  C   UNL A   1      42.089  22.365  28.586  1.00  0.00     0.010 A 
ATOM     28  C   UNL A   1      42.399  23.519  26.471  1.00  0.00     0.010 A 
ATOM     29  C   UNL A   1      42.421  23.531  27.876  1.00  0.00    -0.014 A 
BRANCH  29  30
ATOM     30  C   UNL A   1      42.775  24.797  28.560  1.00  0.00     0.031 A 
ATOM     31  C   UNL A   1      41.708  25.835  28.765  1.00  0.00     0.074 A 
ATOM     32  C   UNL A   1      44.056  25.062  28.879  1.00  0.00     0.049 A 
ATOM     33  N   UNL A   1      41.827  27.084  29.129  1.00  0.00    -0.248 NA
ATOM     34  C   UNL A   1      40.327  25.419  28.470  1.00  0.00     0.031 C 
ATOM     35  C   UNL A   1      45.187  24.152  28.692  1.00  0.00     0.029 A 
ATOM     36  N   UNL A   1      44.624  26.193  29.408  1.00  0.00    -0.354 N 
ATOM     37  C   UNL A   1      40.546  27.615  29.059  1.00  0.00     0.074 A 
ATOM     38  C   UNL A   1      39.673  26.565  28.583  1.00  0.00     0.031 C 
ATOM     39  C   UNL A   1      46.312  24.756  29.113  1.00  0.00     0.029 A 
ATOM     40  C   UNL A   1      45.988  26.108  29.556  1.00  0.00     0.049 A 
ATOM     41  H   UNL A   1      44.104  26.990  29.659  1.00  0.00     0.167 HD
ATOM     42  C   UNL A   1      40.133  28.863  29.379  1.00  0.00     0.037 A 
ATOM     43  C   UNL A   1      46.874  27.026  29.985  1.00  0.00     0.037 A 
ATOM     44  C   UNL A   1      40.993  29.882  29.912  1.00  0.00     0.049 A 
ATOM     45  C   UNL A   1      46.383  28.392  30.378  1.00  0.00     0.074 A 
ATOM     46  C   UNL A   1      40.662  31.155  30.340  1.00  0.00     0.029 A 
ATOM     47  N   UNL A   1      42.358  29.732  30.108  1.00  0.00    -0.354 N 
ATOM     48  N   UNL A   1      45.164  28.873  30.341  1.00  0.00    -0.248 NA
ATOM     49  C   UNL A   1      47.391  29.343  30.868  1.00  0.00     0.031 C 
ATOM     50  C   UNL A   1      41.832  31.784  30.777  1.00  0.00     0.029 A 
ATOM     51  C   UNL A   1      42.885  30.893  30.647  1.00  0.00     0.049 A 
ATOM     52  H   UNL A   1      42.875  28.922  29.894  1.00  0.00     0.167 HD
ATOM     53  C   UNL A   1      45.253  30.169  30.830  1.00  0.00     0.074 A 
ATOM     54  C   UNL A   1      46.644  30.399  31.160  1.00  0.00     0.031 C 
ATOM     55  C   UNL A   1      44.269  31.087  30.990  1.00  0.00     0.037 A 
BRANCH  42  56
ATOM     56  C   UNL A   1      38.684  29.183  29.167  1.00  0.00     0.057 A 
ATOM     57  C   UNL A   1      37.753  29.127  30.212  1.00  0.00     0.134 A 
ATOM     58  C   UNL A   1      38.214  29.559  27.902  1.00  0.00     0.134 A 
ATOM     59  F   UNL A   1      38.136  28.754  31.443  1.00  0.00    -0.206 F 
ATOM     60  C   UNL A   1      36.402  29.405  30.002  1.00  0.00     0.040 A 
ATOM     61  C   UNL A   1      36.871  29.866  27.685  1.00  0.00     0.040 A 
ATOM     62  F   UNL A   1      39.054  29.635  26.858  1.00  0.00    -0.206 F 
ATOM     63  C   UNL A   1      35.959  29.782  28.736  1.00  0.00     0.006 A 
ENDBRANCH  42  56
BRANCH  43  64
ATOM     64  C   UNL A   1      48.313  26.679  30.085  1.00  0.00     0.057 A 
ATOM     65  C   UNL A   1      48.837  26.140  31.266  1.00  0.00     0.134 A 
ATOM     66  C   UNL A   1      49.195  26.878  29.019  1.00  0.00     0.134 A 
ATOM     67  F   UNL A   1      48.043  25.944  32.329  1.00  0.00    -0.206 F 
ATOM     68  C   UNL A   1      50.192  25.825  31.389  1.00  0.00     0.040 A 
ATOM     69  C   UNL A   1      50.548  26.548  29.119  1.00  0.00     0.040 A 
ATOM     70  F   UNL A   1      48.752  27.385  27.858  1.00  0.00    -0.206 F 
ATOM     71  C   UNL A   1      51.051  26.026  30.310  1.00  0.00     0.006 A 
ENDBRANCH  43  64
BRANCH  55  72
ATOM     72  C   UNL A   1      44.651  32.406  31.590  1.00  0.00     0.057 A 
ATOM     73  C   UNL A   1      45.097  33.471  30.800  1.00  0.00     0.134 A 
ATOM     74  C   UNL A   1      44.500  32.629  32.964  1.00  0.00     0.134 A 
ATOM     75  F   UNL A   1      45.271  33.313  29.479  1.00  0.00    -0.206 F 
ATOM     76  C   UNL A   1      45.389  34.715  31.359  1.00  0.00     0.040 A 
ATOM     77  C   UNL A   1      44.771  33.874  33.531  1.00  0.00     0.040 A 
ATOM     78  F   UNL A   1      44.069  31.647  33.770  1.00  0.00    -0.206 F 
ATOM     79  C   UNL A   1      45.217  34.921  32.727  1.00  0.00     0.006 A 
ENDBRANCH  55  72
ENDBRANCH  29  30
ENDBRANCH  21  24
ENDBRANCH  19  20
ENDBRANCH  18  19
ENDBRANCH   1  18
TORSDOF 13
ENDMDL
MODEL 2
REMARK VINA RESULT:      -9.1      5.820     10.972
REMARK SMILES C[C@@H](CC(=O)NCCCCNC(=O)c1ccc(-c2c3nc(c(-c4c(F)cccc4F)c4ccc([nH]4)c(-c4c(F)cccc4F)c4nc(c(-c5c(F)cccc5F)c5ccc2[nH]5)C=C4)C=C3)cc1)N1C(=O)CCCC1=O
REMARK SMILES IDX 8 1 7 2 6 3 4 4 5 5 3 7 2 8 1 9 68 10 69 11 74 12 70 13
REMARK SMILES IDX 71 14 73 15 75 16 72 17 9 18 10 19 11 20 12 21 13 23 14 24
REMARK SMILES IDX 15 25 67 26 16 27 66 28 17 29 18 30 19 31 60 32 20 33 65 34
REMARK SMILES IDX 59 35 61 36 21 37 64 38 58 39 57 40 22 42 48 43 31 44 47 45
REMARK SMILES IDX 32 46 35 47 46 48 62 49 33 50 34 51 45 53 63 54 36 55 23 56
REMARK SMILES IDX 24 57 29 58 25 59 26 60 28 61 30 62 27 63 49 64 50 65 55 66
REMARK SMILES IDX 51 67 52 68 54 69 56 70 53 71 37 72 38 73 43 74 39 75 40 76
REMARK SMILES IDX 42 77 44 78 41 79
REMARK H PARENT 6 6 11 22 61 41 35 52
REMARK Flexibility Score: inf
ROOT
ATOM      1  C   UNL A   1      31.729  30.780  26.166  1.00  0.00     0.023 C 
ENDROOT
BRANCH   1   2
ATOM      2  C   UNL A   1      32.702  29.873  26.916  1.00  0.00     0.116 C 
BRANCH   2   3
ATOM      3  N   UNL A   1      32.043  28.660  27.356  1.00  0.00    -0.356 N 
ATOM      4  C   UNL A   1      32.070  27.416  26.809  1.00  0.00     0.222 C 
ATOM      5  O   UNL A   1      31.250  26.587  27.209  1.00  0.00    -0.275 OA
ATOM      6  H   UNL A   1      31.496  28.750  28.169  1.00  0.00     0.163 HD
BRANCH   4   7
ATOM      7  C   UNL A   1      33.105  27.049  25.767  1.00  0.00     0.125 C 
BRANCH   7   8
ATOM      8  C   UNL A   1      32.559  26.415  24.474  1.00  0.00     0.099 C 
ATOM      9  C   UNL A   1      33.653  25.766  23.620  1.00  0.00     0.032 C 
BRANCH   8  10
ATOM     10  N   UNL A   1      31.586  27.276  23.765  1.00  0.00    -0.279 N 
ATOM     11  C   UNL A   1      31.989  28.499  23.224  1.00  0.00     0.229 C 
ATOM     12  C   UNL A   1      30.254  26.843  23.811  1.00  0.00     0.229 C 
ATOM     13  O   UNL A   1      33.157  28.884  23.177  1.00  0.00    -0.274 OA
ATOM     14  C   UNL A   1      30.929  29.365  22.586  1.00  0.00     0.101 C 
ATOM     15  C   UNL A   1      29.217  27.720  23.155  1.00  0.00     0.101 C 
ATOM     16  O   UNL A   1      29.913  25.764  24.302  1.00  0.00    -0.274 OA
ATOM     17  C   UNL A   1      29.590  29.179  23.255  1.00  0.00     0.020 C 
ENDBRANCH   8  10
ENDBRANCH   7   8
ENDBRANCH   4   7
ENDBRANCH   2   3
ENDBRANCH   1   2
BRANCH   1  18
ATOM     18  C   UNL A   1      31.457  32.123  26.836  1.00  0.00     0.023 C 
BRANCH  18  19
ATOM     19  C   UNL A   1      32.709  32.845  27.299  1.00  0.00     0.116 C 
BRANCH  19  20
ATOM     20  N   UNL A   1      32.469  34.246  27.622  1.00  0.00    -0.352 N 
ATOM     21  C   UNL A   1      33.072  35.008  28.597  1.00  0.00     0.251 C 
ATOM     22  H   UNL A   1      31.792  34.705  27.075  1.00  0.00     0.163 HD
ATOM     23  O   UNL A   1      32.699  36.146  28.837  1.00  0.00    -0.269 OA
BRANCH  21  24
ATOM     24  C   UNL A   1      34.162  34.393  29.376  1.00  0.00     0.039 A 
ATOM     25  C   UNL A   1      33.848  33.602  30.481  1.00  0.00     0.014 A 
ATOM     26  C   UNL A   1      35.480  34.516  28.929  1.00  0.00     0.014 A 
ATOM     27  C   UNL A   1      34.855  32.860  31.098  1.00  0.00     0.010 A 
ATOM     28  C   UNL A   1      36.462  33.715  29.491  1.00  0.00     0.010 A 
ATOM     29  C   UNL A   1      36.159  32.878  30.578  1.00  0.00    -0.014 A 
BRANCH  29  30
ATOM     30  C   UNL A   1      37.250  32.055  31.153  1.00  0.00     0.031 A 
ATOM     31  C   UNL A   1      37.762  32.387  32.526  1.00  0.00     0.074 A 
ATOM     32  C   UNL A   1      37.853  31.110  30.409  1.00  0.00     0.049 A 
ATOM     33  N   UNL A   1      38.838  31.960  33.134  1.00  0.00    -0.248 NA
ATOM     34  C   UNL A   1      36.982  33.369  33.295  1.00  0.00     0.031 C 
ATOM     35  C   UNL A   1      37.474  30.725  29.048  1.00  0.00     0.029 A 
ATOM     36  N   UNL A   1      38.936  30.315  30.688  1.00  0.00    -0.354 N 
ATOM     37  C   UNL A   1      38.888  32.658  34.333  1.00  0.00     0.074 A 
ATOM     38  C   UNL A   1      37.758  33.561  34.351  1.00  0.00     0.031 C 
ATOM     39  C   UNL A   1      38.302  29.758  28.617  1.00  0.00     0.029 A 
ATOM     40  C   UNL A   1      39.296  29.488  29.652  1.00  0.00     0.049 A 
ATOM     41  H   UNL A   1      39.410  30.335  31.551  1.00  0.00     0.167 HD
ATOM     42  C   UNL A   1      39.788  32.544  35.337  1.00  0.00     0.037 A 
ATOM     43  C   UNL A   1      40.323  28.624  29.545  1.00  0.00     0.037 A 
ATOM     44  C   UNL A   1      40.870  31.599  35.342  1.00  0.00     0.049 A 
ATOM     45  C   UNL A   1      41.284  28.483  30.694  1.00  0.00     0.074 A 
ATOM     46  C   UNL A   1      41.794  31.350  36.341  1.00  0.00     0.029 A 
ATOM     47  N   UNL A   1      41.160  30.734  34.298  1.00  0.00    -0.354 N 
ATOM     48  N   UNL A   1      41.302  29.123  31.838  1.00  0.00    -0.248 NA
ATOM     49  C   UNL A   1      42.366  27.502  30.535  1.00  0.00     0.031 C 
ATOM     50  C   UNL A   1      42.657  30.345  35.892  1.00  0.00     0.029 A 
ATOM     51  C   UNL A   1      42.252  29.951  34.627  1.00  0.00     0.049 A 
ATOM     52  H   UNL A   1      40.664  30.685  33.449  1.00  0.00     0.167 HD
ATOM     53  C   UNL A   1      42.377  28.603  32.546  1.00  0.00     0.074 A 
ATOM     54  C   UNL A   1      42.985  27.593  31.705  1.00  0.00     0.031 C 
ATOM     55  C   UNL A   1      42.822  28.934  33.782  1.00  0.00     0.037 A 
BRANCH  42  56
ATOM     56  C   UNL A   1      39.626  33.460  36.512  1.00  0.00     0.057 A 
ATOM     57  C   UNL A   1      38.781  33.145  37.585  1.00  0.00     0.134 A 
ATOM     58  C   UNL A   1      40.331  34.669  36.577  1.00  0.00     0.134 A 
ATOM     59  F   UNL A   1      38.065  32.011  37.574  1.00  0.00    -0.206 F 
ATOM     60  C   UNL A   1      38.620  34.013  38.665  1.00  0.00     0.040 A 
ATOM     61  C   UNL A   1      40.198  35.532  37.664  1.00  0.00     0.040 A 
ATOM     62  F   UNL A   1      41.158  35.029  35.584  1.00  0.00    -0.206 F 
ATOM     63  C   UNL A   1      39.335  35.208  38.710  1.00  0.00     0.006 A 
ENDBRANCH  42  56
BRANCH  43  64
ATOM     64  C   UNL A   1      40.485  27.811  28.316  1.00  0.00     0.057 A 
ATOM     65  C   UNL A   1      39.903  26.541  28.217  1.00  0.00     0.134 A 
ATOM     66  C   UNL A   1      41.221  28.271  27.219  1.00  0.00     0.134 A 
ATOM     67  F   UNL A   1      39.202  26.039  29.244  1.00  0.00    -0.206 F 
ATOM     68  C   UNL A   1      40.060  25.751  27.077  1.00  0.00     0.040 A 
ATOM     69  C   UNL A   1      41.369  27.500  26.065  1.00  0.00     0.040 A 
ATOM     70  F   UNL A   1      41.797  29.482  27.250  1.00  0.00    -0.206 F 
ATOM     71  C   UNL A   1      40.793  26.233  25.994  1.00  0.00     0.006 A 
ENDBRANCH  43  64
BRANCH  55  72
ATOM     72  C   UNL A   1      43.991  28.167  34.320  1.00  0.00     0.057 A 
ATOM     73  C   UNL A   1      45.301  28.643  34.199  1.00  0.00     0.134 A 
ATOM     74  C   UNL A   1      43.790  26.976  35.029  1.00  0.00     0.134 A 
ATOM     75  F   UNL A   1      45.555  29.773  33.522  1.00  0.00    -0.206 F 
ATOM     76  C   UNL A   1      46.376  27.955  34.760  1.00  0.00     0.040 A 
ATOM     77  C   UNL A   1      44.856  26.289  35.610  1.00  0.00     0.040 A 
ATOM     78  F   UNL A   1      42.556  26.475  35.184  1.00  0.00    -0.206 F 
ATOM     79  C   UNL A   1      46.154  26.778  35.475  1.00  0.00     0.006 A 
ENDBRANCH  55  72
ENDBRANCH  29  30
ENDBRANCH  21  24
ENDBRANCH  19  20
ENDBRANCH  18  19
ENDBRANCH   1  18
TORSDOF 13
ENDMDL
MODEL 3
REMARK VINA RESULT:      -9.0      3.987      6.196
REMARK SMILES C[C@@H](CC(=O)NCCCCNC(=O)c1ccc(-c2c3nc(c(-c4c(F)cccc4F)c4ccc([nH]4)c(-c4c(F)cccc4F)c4nc(c(-c5c(F)cccc5F)c5ccc2[nH]5)C=C4)C=C3)cc1)N1C(=O)CCCC1=O
REMARK SMILES IDX 8 1 7 2 6 3 4 4 5 5 3 7 2 8 1 9 68 10 69 11 74 12 70 13
REMARK SMILES IDX 71 14 73 15 75 16 72 17 9 18 10 19 11 20 12 21 13 23 14 24
REMARK SMILES IDX 15 25 67 26 16 27 66 28 17 29 18 30 19 31 60 32 20 33 65 34
REMARK SMILES IDX 59 35 61 36 21 37 64 38 58 39 57 40 22 42 48 43 31 44 47 45
REMARK SMILES IDX 32 46 35 47 46 48 62 49 33 50 34 51 45 53 63 54 36 55 23 56
REMARK SMILES IDX 24 57 29 58 25 59 26 60 28 61 30 62 27 63 49 64 50 65 55 66
REMARK SMILES IDX 51 67 52 68 54 69 56 70 53 71 37 72 38 73 43 74 39 75 40 76
REMARK SMILES IDX 42 77 44 78 41 79
REMARK H PARENT 6 6 11 22 61 41 35 52
REMARK Flexibility Score: inf
ROOT
ATOM      1  C   UNL A   1      37.313  22.071  24.509  1.00  0.00     0.023 C 
ENDROOT
BRANCH   1   2
ATOM      2  C   UNL A   1      36.578  22.925  25.539  1.00  0.00     0.116 C 
BRANCH   2   3
ATOM      3  N   UNL A   1      35.715  22.106  26.367  1.00  0.00    -0.356 N 
ATOM      4  C   UNL A   1      34.513  21.545  26.069  1.00  0.00     0.222 C 
ATOM      5  O   UNL A   1      33.842  21.083  26.995  1.00  0.00    -0.275 OA
ATOM      6  H   UNL A   1      36.048  21.930  27.276  1.00  0.00     0.163 HD
BRANCH   4   7
ATOM      7  C   UNL A   1      34.033  21.452  24.637  1.00  0.00     0.125 C 
BRANCH   7   8
ATOM      8  C   UNL A   1      32.762  22.255  24.303  1.00  0.00     0.099 C 
ATOM      9  C   UNL A   1      32.162  21.884  22.942  1.00  0.00     0.032 C 
BRANCH   8  10
ATOM     10  N   UNL A   1      32.886  23.699  24.602  1.00  0.00    -0.279 N 
ATOM     11  C   UNL A   1      33.759  24.501  23.863  1.00  0.00     0.229 C 
ATOM     12  C   UNL A   1      32.191  24.140  25.736  1.00  0.00     0.229 C 
ATOM     13  O   UNL A   1      34.369  24.121  22.864  1.00  0.00    -0.274 OA
ATOM     14  C   UNL A   1      33.898  25.947  24.275  1.00  0.00     0.101 C 
ATOM     15  C   UNL A   1      32.337  25.593  26.118  1.00  0.00     0.101 C 
ATOM     16  O   UNL A   1      31.431  23.417  26.385  1.00  0.00    -0.274 OA
ATOM     17  C   UNL A   1      33.706  26.118  25.761  1.00  0.00     0.020 C 
ENDBRANCH   8  10
ENDBRANCH   7   8
ENDBRANCH   4   7
ENDBRANCH   2   3
ENDBRANCH   1   2
BRANCH   1  18
ATOM     18  C   UNL A   1      37.802  20.722  25.023  1.00  0.00     0.023 C 
BRANCH  18  19
ATOM     19  C   UNL A   1      39.056  20.805  25.874  1.00  0.00     0.116 C 
BRANCH  19  20
ATOM     20  N   UNL A   1      39.866  19.594  25.811  1.00  0.00    -0.352 N 
ATOM     21  C   UNL A   1      41.226  19.473  25.982  1.00  0.00     0.251 C 
ATOM     22  H   UNL A   1      39.379  18.760  25.622  1.00  0.00     0.163 HD
ATOM     23  O   UNL A   1      41.799  18.411  25.793  1.00  0.00    -0.269 OA
BRANCH  21  24
ATOM     24  C   UNL A   1      41.982  20.679  26.365  1.00  0.00     0.039 A 
ATOM     25  C   UNL A   1      42.369  21.583  25.375  1.00  0.00     0.014 A 
ATOM     26  C   UNL A   1      42.198  20.955  27.717  1.00  0.00     0.014 A 
ATOM     27  C   UNL A   1      42.905  22.816  25.748  1.00  0.00     0.010 A 
ATOM     28  C   UNL A   1      42.654  22.211  28.087  1.00  0.00     0.010 A 
ATOM     29  C   UNL A   1      43.008  23.154  27.107  1.00  0.00    -0.014 A 
BRANCH  29  30
ATOM     30  C   UNL A   1      43.507  24.475  27.556  1.00  0.00     0.031 A 
ATOM     31  C   UNL A   1      42.516  25.505  28.021  1.00  0.00     0.074 A 
ATOM     32  C   UNL A   1      44.809  24.789  27.431  1.00  0.00     0.049 A 
ATOM     33  N   UNL A   1      42.690  26.781  28.244  1.00  0.00    -0.248 NA
ATOM     34  C   UNL A   1      41.132  25.041  28.212  1.00  0.00     0.031 C 
ATOM     35  C   UNL A   1      45.861  23.890  26.953  1.00  0.00     0.029 A 
ATOM     36  N   UNL A   1      45.467  25.969  27.674  1.00  0.00    -0.354 N 
ATOM     37  C   UNL A   1      41.431  27.280  28.551  1.00  0.00     0.074 A 
ATOM     38  C   UNL A   1      40.499  26.179  28.451  1.00  0.00     0.031 C 
ATOM     39  C   UNL A   1      47.034  24.546  26.951  1.00  0.00     0.029 A 
ATOM     40  C   UNL A   1      46.809  25.922  27.383  1.00  0.00     0.049 A 
ATOM     41  H   UNL A   1      45.019  26.772  28.024  1.00  0.00     0.167 HD
ATOM     42  C   UNL A   1      41.088  28.540  28.903  1.00  0.00     0.037 A 
ATOM     43  C   UNL A   1      47.746  26.887  27.444  1.00  0.00     0.037 A 
ATOM     44  C   UNL A   1      42.028  29.614  29.064  1.00  0.00     0.049 A 
ATOM     45  C   UNL A   1      47.347  28.270  27.881  1.00  0.00     0.074 A 
ATOM     46  C   UNL A   1      41.795  30.909  29.489  1.00  0.00     0.029 A 
ATOM     47  N   UNL A   1      43.389  29.506  28.823  1.00  0.00    -0.354 N 
ATOM     48  N   UNL A   1      46.159  28.722  28.204  1.00  0.00    -0.248 NA
ATOM     49  C   UNL A   1      48.416  29.275  27.960  1.00  0.00     0.031 C 
ATOM     50  C   UNL A   1      43.015  31.593  29.486  1.00  0.00     0.029 A 
ATOM     51  C   UNL A   1      44.010  30.715  29.087  1.00  0.00     0.049 A 
ATOM     52  H   UNL A   1      43.847  28.693  28.509  1.00  0.00     0.167 HD
ATOM     53  C   UNL A   1      46.342  30.054  28.551  1.00  0.00     0.074 A 
ATOM     54  C   UNL A   1      47.755  30.336  28.403  1.00  0.00     0.031 C 
ATOM     55  C   UNL A   1      45.422  30.962  28.956  1.00  0.00     0.037 A 
BRANCH  42  56
ATOM     56  C   UNL A   1      39.634  28.814  29.144  1.00  0.00     0.057 A 
ATOM     57  C   UNL A   1      39.061  28.701  30.417  1.00  0.00     0.134 A 
ATOM     58  C   UNL A   1      38.797  29.204  28.090  1.00  0.00     0.134 A 
ATOM     59  F   UNL A   1      39.805  28.314  31.465  1.00  0.00    -0.206 F 
ATOM     60  C   UNL A   1      37.702  28.937  30.630  1.00  0.00     0.040 A 
ATOM     61  C   UNL A   1      37.443  29.468  28.295  1.00  0.00     0.040 A 
ATOM     62  F   UNL A   1      39.283  29.333  26.847  1.00  0.00    -0.206 F 
ATOM     63  C   UNL A   1      36.891  29.328  29.567  1.00  0.00     0.006 A 
ENDBRANCH  42  56
BRANCH  43  64
ATOM     64  C   UNL A   1      49.155  26.577  27.102  1.00  0.00     0.057 A 
ATOM     65  C   UNL A   1      49.602  26.650  25.778  1.00  0.00     0.134 A 
ATOM     66  C   UNL A   1      50.084  26.200  28.077  1.00  0.00     0.134 A 
ATOM     67  F   UNL A   1      48.752  26.988  24.797  1.00  0.00    -0.206 F 
ATOM     68  C   UNL A   1      50.919  26.344  25.432  1.00  0.00     0.040 A 
ATOM     69  C   UNL A   1      51.410  25.910  27.749  1.00  0.00     0.040 A 
ATOM     70  F   UNL A   1      49.719  26.118  29.366  1.00  0.00    -0.206 F 
ATOM     71  C   UNL A   1      51.829  25.976  26.422  1.00  0.00     0.006 A 
ENDBRANCH  43  64
BRANCH  55  72
ATOM     72  C   UNL A   1      45.917  32.330  29.313  1.00  0.00     0.057 A 
ATOM     73  C   UNL A   1      46.374  32.634  30.599  1.00  0.00     0.134 A 
ATOM     74  C   UNL A   1      46.002  33.330  28.335  1.00  0.00     0.134 A 
ATOM     75  F   UNL A   1      46.307  31.719  31.579  1.00  0.00    -0.206 F 
ATOM     76  C   UNL A   1      46.894  33.891  30.906  1.00  0.00     0.040 A 
ATOM     77  C   UNL A   1      46.537  34.584  28.626  1.00  0.00     0.040 A 
ATOM     78  F   UNL A   1      45.586  33.094  27.082  1.00  0.00    -0.206 F 
ATOM     79  C   UNL A   1      46.984  34.868  29.915  1.00  0.00     0.006 A 
ENDBRANCH  55  72
ENDBRANCH  29  30
ENDBRANCH  21  24
ENDBRANCH  19  20
ENDBRANCH  18  19
ENDBRANCH   1  18
TORSDOF 13
ENDMDL
