MODEL 1
REMARK VINA RESULT:     -11.1      0.000      0.000
REMARK SMILES O=C(C[C@H]([NH2+]Cc1ccco1)C(=O)NCCCCNC(=O)c1ccc(-c2c3nc(c(-c4c(F)cccc4F)c4ccc([nH]4)c(-c4c(F)cccc4F)c4nc(c(-c5c(F)cccc5F)c5ccc2[nH]5)C=C4)C=C3)cc1)Nc1ccc(O)cc1
REMARK SMILES IDX 15 1 14 2 12 3 13 4 4 6 3 7 2 8 1 9 76 10 77 12 78 13 83 14
REMARK SMILES IDX 79 15 82 16 80 17 81 18 5 20 6 23 7 24 8 25 11 26 9 27 10 28
REMARK SMILES IDX 16 29 17 30 18 31 19 32 20 33 21 35 22 36 23 37 75 38 24 39
REMARK SMILES IDX 74 40 25 41 26 42 27 43 68 44 28 45 73 46 67 47 69 48 29 49
REMARK SMILES IDX 72 50 66 51 65 52 30 54 56 55 39 56 55 57 40 58 43 59 54 60
REMARK SMILES IDX 70 61 41 62 42 63 53 65 71 66 44 67 31 68 32 69 37 70 33 71
REMARK SMILES IDX 34 72 36 73 38 74 35 75 57 76 58 77 63 78 59 79 60 80 62 81
REMARK SMILES IDX 64 82 61 83 45 84 46 85 51 86 47 87 48 88 50 89 52 90 49 91
REMARK H PARENT 14 5 76 11 81 19 5 21 5 22 19 34 69 53 43 64
REMARK Flexibility Score: inf
ROOT
ATOM      1  C   UNL A   1      32.307  26.738  25.316  1.00  0.00     0.116 C 
ENDROOT
BRANCH   1   2
ATOM      2  N   UNL A   1      31.750  25.769  26.226  1.00  0.00    -0.351 N 
ATOM      3  C   UNL A   1      32.011  24.437  26.359  1.00  0.00     0.278 C 
ATOM      4  O   UNL A   1      31.539  23.872  27.352  1.00  0.00    -0.268 OA
ATOM      5  H   UNL A   1      31.074  26.123  26.848  1.00  0.00     0.163 HD
BRANCH   3   6
ATOM      6  C   UNL A   1      32.857  23.625  25.342  1.00  0.00     0.282 C 
BRANCH   6   7
ATOM      7  C   UNL A   1      32.211  22.318  24.853  1.00  0.00     0.175 C 
BRANCH   7   8
ATOM      8  C   UNL A   1      32.769  21.022  25.402  1.00  0.00     0.230 C 
ATOM      9  O   UNL A   1      33.235  20.977  26.536  1.00  0.00    -0.274 OA
ATOM     10  N   UNL A   1      32.728  19.970  24.499  1.00  0.00    -0.326 N 
ATOM     11  H   UNL A   1      32.329  20.147  23.617  1.00  0.00     0.169 HD
BRANCH  10  12
ATOM     12  C   UNL A   1      33.212  18.664  24.738  1.00  0.00     0.041 A 
ATOM     13  C   UNL A   1      32.386  17.778  25.442  1.00  0.00     0.030 A 
ATOM     14  C   UNL A   1      34.456  18.217  24.283  1.00  0.00     0.030 A 
ATOM     15  C   UNL A   1      32.786  16.453  25.641  1.00  0.00     0.048 A 
ATOM     16  C   UNL A   1      34.863  16.897  24.496  1.00  0.00     0.048 A 
ATOM     17  C   UNL A   1      34.017  16.022  25.162  1.00  0.00     0.115 A 
BRANCH  17  18
ATOM     18  O   UNL A   1      34.364  14.721  25.363  1.00  0.00    -0.508 OA
ATOM     19  H   UNL A   1      35.265  14.487  25.470  1.00  0.00     0.293 HD
ENDBRANCH  17  18
ENDBRANCH  10  12
ENDBRANCH   7   8
ENDBRANCH   6   7
BRANCH   6  20
ATOM     20  N   UNL A   1      34.266  23.522  25.777  1.00  0.00    -0.329 N 
ATOM     21  H   UNL A   1      34.349  22.731  26.416  1.00  0.00     0.347 HD
ATOM     22  H   UNL A   1      34.506  24.408  26.224  1.00  0.00     0.347 HD
BRANCH  20  23
ATOM     23  C   UNL A   1      35.208  23.329  24.677  1.00  0.00     0.337 C 
BRANCH  23  24
ATOM     24  C   UNL A   1      36.544  22.950  25.215  1.00  0.00     0.157 A 
ATOM     25  C   UNL A   1      37.511  23.644  25.914  1.00  0.00     0.052 A 
ATOM     26  O   UNL A   1      36.966  21.674  24.979  1.00  0.00    -0.463 OA
ATOM     27  C   UNL A   1      38.581  22.739  26.119  1.00  0.00     0.042 A 
ATOM     28  C   UNL A   1      38.200  21.556  25.532  1.00  0.00     0.195 A 
ENDBRANCH  23  24
ENDBRANCH  20  23
ENDBRANCH   6  20
ENDBRANCH   3   6
ENDBRANCH   1   2
BRANCH   1  29
ATOM     29  C   UNL A   1      33.695  27.226  25.699  1.00  0.00     0.023 C 
BRANCH  29  30
ATOM     30  C   UNL A   1      33.776  28.706  26.062  1.00  0.00     0.023 C 
BRANCH  30  31
ATOM     31  C   UNL A   1      33.543  29.029  27.538  1.00  0.00     0.116 C 
BRANCH  31  32
ATOM     32  N   UNL A   1      33.805  30.428  27.851  1.00  0.00    -0.352 N 
ATOM     33  C   UNL A   1      34.879  30.996  28.482  1.00  0.00     0.251 C 
ATOM     34  H   UNL A   1      33.104  31.059  27.566  1.00  0.00     0.163 HD
ATOM     35  O   UNL A   1      34.773  32.117  28.980  1.00  0.00    -0.269 OA
BRANCH  33  36
ATOM     36  C   UNL A   1      36.153  30.258  28.602  1.00  0.00     0.039 A 
ATOM     37  C   UNL A   1      37.021  30.249  27.507  1.00  0.00     0.014 A 
ATOM     38  C   UNL A   1      36.503  29.596  29.780  1.00  0.00     0.014 A 
ATOM     39  C   UNL A   1      38.285  29.680  27.634  1.00  0.00     0.010 A 
ATOM     40  C   UNL A   1      37.795  29.117  29.941  1.00  0.00     0.010 A 
ATOM     41  C   UNL A   1      38.703  29.177  28.876  1.00  0.00    -0.014 A 
BRANCH  41  42
ATOM     42  C   UNL A   1      40.110  28.775  29.102  1.00  0.00     0.031 A 
ATOM     43  C   UNL A   1      41.085  29.743  29.703  1.00  0.00     0.074 A 
ATOM     44  C   UNL A   1      40.511  27.568  28.660  1.00  0.00     0.049 A 
ATOM     45  N   UNL A   1      42.371  29.606  29.896  1.00  0.00    -0.248 NA
ATOM     46  C   UNL A   1      40.553  31.055  30.105  1.00  0.00     0.031 C 
ATOM     47  C   UNL A   1      39.655  26.586  27.986  1.00  0.00     0.029 A 
ATOM     48  N   UNL A   1      41.740  26.962  28.697  1.00  0.00    -0.354 N 
ATOM     49  C   UNL A   1      42.803  30.817  30.420  1.00  0.00     0.074 A 
ATOM     50  C   UNL A   1      41.655  31.695  30.464  1.00  0.00     0.031 C 
ATOM     51  C   UNL A   1      40.375  25.490  27.704  1.00  0.00     0.029 A 
ATOM     52  C   UNL A   1      41.749  25.705  28.140  1.00  0.00     0.049 A 
ATOM     53  H   UNL A   1      42.538  27.386  29.085  1.00  0.00     0.167 HD
ATOM     54  C   UNL A   1      44.044  31.153  30.846  1.00  0.00     0.037 A 
ATOM     55  C   UNL A   1      42.759  24.828  27.997  1.00  0.00     0.037 A 
ATOM     56  C   UNL A   1      45.167  30.254  30.812  1.00  0.00     0.049 A 
ATOM     57  C   UNL A   1      44.114  25.208  28.520  1.00  0.00     0.074 A 
ATOM     58  C   UNL A   1      46.459  30.465  31.260  1.00  0.00     0.029 A 
ATOM     59  N   UNL A   1      45.126  28.965  30.296  1.00  0.00    -0.354 N 
ATOM     60  N   UNL A   1      44.496  26.331  29.080  1.00  0.00    -0.248 NA
ATOM     61  C   UNL A   1      45.174  24.199  28.406  1.00  0.00     0.031 C 
ATOM     62  C   UNL A   1      47.208  29.314  30.985  1.00  0.00     0.029 A 
ATOM     63  C   UNL A   1      46.370  28.370  30.410  1.00  0.00     0.049 A 
ATOM     64  H   UNL A   1      44.329  28.538  29.907  1.00  0.00     0.167 HD
ATOM     65  C   UNL A   1      45.832  26.155  29.413  1.00  0.00     0.074 A 
ATOM     66  C   UNL A   1      46.187  24.810  29.004  1.00  0.00     0.031 C 
ATOM     67  C   UNL A   1      46.688  27.024  30.004  1.00  0.00     0.037 A 
BRANCH  54  68
ATOM     68  C   UNL A   1      44.236  32.542  31.384  1.00  0.00     0.057 A 
ATOM     69  C   UNL A   1      44.053  32.842  32.742  1.00  0.00     0.134 A 
ATOM     70  C   UNL A   1      44.614  33.594  30.539  1.00  0.00     0.134 A 
ATOM     71  F   UNL A   1      43.676  31.886  33.604  1.00  0.00    -0.206 F 
ATOM     72  C   UNL A   1      44.203  34.141  33.232  1.00  0.00     0.040 A 
ATOM     73  C   UNL A   1      44.796  34.891  31.023  1.00  0.00     0.040 A 
ATOM     74  F   UNL A   1      44.811  33.380  29.230  1.00  0.00    -0.206 F 
ATOM     75  C   UNL A   1      44.581  35.169  32.372  1.00  0.00     0.006 A 
ENDBRANCH  54  68
BRANCH  55  76
ATOM     76  C   UNL A   1      42.510  23.499  27.383  1.00  0.00     0.057 A 
ATOM     77  C   UNL A   1      42.690  23.297  26.010  1.00  0.00     0.134 A 
ATOM     78  C   UNL A   1      42.106  22.398  28.148  1.00  0.00     0.134 A 
ATOM     79  F   UNL A   1      43.067  24.314  25.222  1.00  0.00    -0.206 F 
ATOM     80  C   UNL A   1      42.458  22.055  25.416  1.00  0.00     0.040 A 
ATOM     81  C   UNL A   1      41.896  21.144  27.572  1.00  0.00     0.040 A 
ATOM     82  F   UNL A   1      41.931  22.521  29.472  1.00  0.00    -0.206 F 
ATOM     83  C   UNL A   1      42.064  20.972  26.199  1.00  0.00     0.006 A 
ENDBRANCH  55  76
BRANCH  67  84
ATOM     84  C   UNL A   1      48.072  26.523  30.284  1.00  0.00     0.057 A 
ATOM     85  C   UNL A   1      49.122  26.702  29.375  1.00  0.00     0.134 A 
ATOM     86  C   UNL A   1      48.362  25.883  31.495  1.00  0.00     0.134 A 
ATOM     87  F   UNL A   1      48.905  27.295  28.192  1.00  0.00    -0.206 F 
ATOM     88  C   UNL A   1      50.409  26.237  29.652  1.00  0.00     0.040 A 
ATOM     89  C   UNL A   1      49.649  25.439  31.795  1.00  0.00     0.040 A 
ATOM     90  F   UNL A   1      47.400  25.689  32.411  1.00  0.00    -0.206 F 
ATOM     91  C   UNL A   1      50.676  25.610  30.867  1.00  0.00     0.006 A 
ENDBRANCH  67  84
ENDBRANCH  41  42
ENDBRANCH  33  36
ENDBRANCH  31  32
ENDBRANCH  30  31
ENDBRANCH  29  30
ENDBRANCH   1  29
TORSDOF 18
ENDMDL
MODEL 2
REMARK VINA RESULT:     -10.9      4.199      6.562
REMARK SMILES O=C(C[C@H]([NH2+]Cc1ccco1)C(=O)NCCCCNC(=O)c1ccc(-c2c3nc(c(-c4c(F)cccc4F)c4ccc([nH]4)c(-c4c(F)cccc4F)c4nc(c(-c5c(F)cccc5F)c5ccc2[nH]5)C=C4)C=C3)cc1)Nc1ccc(O)cc1
REMARK SMILES IDX 15 1 14 2 12 3 13 4 4 6 3 7 2 8 1 9 76 10 77 12 78 13 83 14
REMARK SMILES IDX 79 15 82 16 80 17 81 18 5 20 6 23 7 24 8 25 11 26 9 27 10 28
REMARK SMILES IDX 16 29 17 30 18 31 19 32 20 33 21 35 22 36 23 37 75 38 24 39
REMARK SMILES IDX 74 40 25 41 26 42 27 43 68 44 28 45 73 46 67 47 69 48 29 49
REMARK SMILES IDX 72 50 66 51 65 52 30 54 56 55 39 56 55 57 40 58 43 59 54 60
REMARK SMILES IDX 70 61 41 62 42 63 53 65 71 66 44 67 31 68 32 69 37 70 33 71
REMARK SMILES IDX 34 72 36 73 38 74 35 75 57 76 58 77 63 78 59 79 60 80 62 81
REMARK SMILES IDX 64 82 61 83 45 84 46 85 51 86 47 87 48 88 50 89 52 90 49 91
REMARK H PARENT 14 5 76 11 81 19 5 21 5 22 19 34 69 53 43 64
REMARK Flexibility Score: inf
ROOT
ATOM      1  C   UNL A   1      32.701  29.913  25.900  1.00  0.00     0.116 C 
ENDROOT
BRANCH   1   2
ATOM      2  N   UNL A   1      33.240  29.667  24.586  1.00  0.00    -0.351 N 
ATOM      3  C   UNL A   1      32.834  28.795  23.620  1.00  0.00     0.278 C 
ATOM      4  O   UNL A   1      33.349  28.922  22.503  1.00  0.00    -0.268 OA
ATOM      5  H   UNL A   1      34.023  30.214  24.349  1.00  0.00     0.163 HD
BRANCH   3   6
ATOM      6  C   UNL A   1      31.779  27.682  23.859  1.00  0.00     0.282 C 
BRANCH   6   7
ATOM      7  C   UNL A   1      31.902  26.457  22.939  1.00  0.00     0.175 C 
BRANCH   7   8
ATOM      8  C   UNL A   1      33.254  25.781  22.863  1.00  0.00     0.230 C 
ATOM      9  O   UNL A   1      33.924  25.842  21.838  1.00  0.00    -0.274 OA
ATOM     10  N   UNL A   1      33.598  25.090  24.016  1.00  0.00    -0.326 N 
ATOM     11  H   UNL A   1      32.963  25.121  24.768  1.00  0.00     0.169 HD
BRANCH  10  12
ATOM     12  C   UNL A   1      34.784  24.344  24.204  1.00  0.00     0.041 A 
ATOM     13  C   UNL A   1      35.506  24.548  25.386  1.00  0.00     0.030 A 
ATOM     14  C   UNL A   1      35.245  23.402  23.279  1.00  0.00     0.030 A 
ATOM     15  C   UNL A   1      36.645  23.782  25.655  1.00  0.00     0.048 A 
ATOM     16  C   UNL A   1      36.393  22.649  23.540  1.00  0.00     0.048 A 
ATOM     17  C   UNL A   1      37.076  22.836  24.733  1.00  0.00     0.115 A 
BRANCH  17  18
ATOM     18  O   UNL A   1      38.181  22.101  25.037  1.00  0.00    -0.508 OA
ATOM     19  H   UNL A   1      38.302  21.256  24.651  1.00  0.00     0.293 HD
ENDBRANCH  17  18
ENDBRANCH  10  12
ENDBRANCH   7   8
ENDBRANCH   6   7
BRANCH   6  20
ATOM     20  N   UNL A   1      30.420  28.251  23.994  1.00  0.00    -0.329 N 
ATOM     21  H   UNL A   1      30.506  29.218  24.307  1.00  0.00     0.347 HD
ATOM     22  H   UNL A   1      29.919  27.669  24.665  1.00  0.00     0.347 HD
BRANCH  20  23
ATOM     23  C   UNL A   1      29.651  28.233  22.752  1.00  0.00     0.337 C 
BRANCH  23  24
ATOM     24  C   UNL A   1      29.026  29.565  22.525  1.00  0.00     0.157 A 
ATOM     25  C   UNL A   1      28.720  30.619  23.364  1.00  0.00     0.052 A 
ATOM     26  O   UNL A   1      28.628  29.854  21.253  1.00  0.00    -0.463 OA
ATOM     27  C   UNL A   1      28.105  31.606  22.556  1.00  0.00     0.042 A 
ATOM     28  C   UNL A   1      28.073  31.092  21.281  1.00  0.00     0.195 A 
ENDBRANCH  23  24
ENDBRANCH  20  23
ENDBRANCH   6  20
ENDBRANCH   3   6
ENDBRANCH   1   2
BRANCH   1  29
ATOM     29  C   UNL A   1      31.466  30.799  25.912  1.00  0.00     0.023 C 
BRANCH  29  30
ATOM     30  C   UNL A   1      31.423  31.823  27.044  1.00  0.00     0.023 C 
BRANCH  30  31
ATOM     31  C   UNL A   1      32.729  32.576  27.292  1.00  0.00     0.116 C 
BRANCH  31  32
ATOM     32  N   UNL A   1      32.520  34.005  27.494  1.00  0.00    -0.352 N 
ATOM     33  C   UNL A   1      33.034  34.835  28.453  1.00  0.00     0.251 C 
ATOM     34  H   UNL A   1      31.921  34.436  26.843  1.00  0.00     0.163 HD
ATOM     35  O   UNL A   1      32.480  35.908  28.693  1.00  0.00    -0.269 OA
BRANCH  33  36
ATOM     36  C   UNL A   1      34.225  34.436  29.229  1.00  0.00     0.039 A 
ATOM     37  C   UNL A   1      34.036  33.871  30.494  1.00  0.00     0.014 A 
ATOM     38  C   UNL A   1      35.515  34.596  28.718  1.00  0.00     0.014 A 
ATOM     39  C   UNL A   1      35.128  33.361  31.190  1.00  0.00     0.010 A 
ATOM     40  C   UNL A   1      36.588  34.001  29.365  1.00  0.00     0.010 A 
ATOM     41  C   UNL A   1      36.398  33.359  30.595  1.00  0.00    -0.014 A 
BRANCH  41  42
ATOM     42  C   UNL A   1      37.527  32.625  31.209  1.00  0.00     0.031 A 
ATOM     43  C   UNL A   1      38.112  33.089  32.510  1.00  0.00     0.074 A 
ATOM     44  C   UNL A   1      38.078  31.604  30.524  1.00  0.00     0.049 A 
ATOM     45  N   UNL A   1      39.153  32.632  33.157  1.00  0.00    -0.248 NA
ATOM     46  C   UNL A   1      37.466  34.246  33.151  1.00  0.00     0.031 C 
ATOM     47  C   UNL A   1      37.633  31.130  29.210  1.00  0.00     0.029 A 
ATOM     48  N   UNL A   1      39.138  30.789  30.826  1.00  0.00    -0.354 N 
ATOM     49  C   UNL A   1      39.297  33.455  34.265  1.00  0.00     0.074 A 
ATOM     50  C   UNL A   1      38.273  34.473  34.175  1.00  0.00     0.031 C 
ATOM     51  C   UNL A   1      38.390  30.088  28.836  1.00  0.00     0.029 A 
ATOM     52  C   UNL A   1      39.397  29.846  29.861  1.00  0.00     0.049 A 
ATOM     53  H   UNL A   1      39.662  30.872  31.655  1.00  0.00     0.167 HD
ATOM     54  C   UNL A   1      40.193  33.354  35.276  1.00  0.00     0.037 A 
ATOM     55  C   UNL A   1      40.346  28.893  29.813  1.00  0.00     0.037 A 
ATOM     56  C   UNL A   1      41.190  32.320  35.355  1.00  0.00     0.049 A 
ATOM     57  C   UNL A   1      41.297  28.774  30.968  1.00  0.00     0.074 A 
ATOM     58  C   UNL A   1      42.119  32.086  36.353  1.00  0.00     0.029 A 
ATOM     59  N   UNL A   1      41.385  31.342  34.387  1.00  0.00    -0.354 N 
ATOM     60  N   UNL A   1      41.380  29.515  32.047  1.00  0.00    -0.248 NA
ATOM     61  C   UNL A   1      42.275  27.681  30.910  1.00  0.00     0.031 C 
ATOM     62  C   UNL A   1      42.898  30.986  35.973  1.00  0.00     0.029 A 
ATOM     63  C   UNL A   1      42.423  30.506  34.762  1.00  0.00     0.049 A 
ATOM     64  H   UNL A   1      40.863  31.257  33.557  1.00  0.00     0.167 HD
ATOM     65  C   UNL A   1      42.398  28.962  32.812  1.00  0.00     0.074 A 
ATOM     66  C   UNL A   1      42.892  27.814  32.076  1.00  0.00     0.031 C 
ATOM     67  C   UNL A   1      42.881  29.363  34.013  1.00  0.00     0.037 A 
BRANCH  54  68
ATOM     68  C   UNL A   1      40.122  34.384  36.367  1.00  0.00     0.057 A 
ATOM     69  C   UNL A   1      39.332  34.197  37.511  1.00  0.00     0.134 A 
ATOM     70  C   UNL A   1      40.852  35.576  36.279  1.00  0.00     0.134 A 
ATOM     71  F   UNL A   1      38.595  33.085  37.654  1.00  0.00    -0.206 F 
ATOM     72  C   UNL A   1      39.246  35.170  38.509  1.00  0.00     0.040 A 
ATOM     73  C   UNL A   1      40.797  36.544  37.285  1.00  0.00     0.040 A 
ATOM     74  F   UNL A   1      41.632  35.821  35.216  1.00  0.00    -0.206 F 
ATOM     75  C   UNL A   1      39.984  36.346  38.399  1.00  0.00     0.006 A 
ENDBRANCH  54  68
BRANCH  55  76
ATOM     76  C   UNL A   1      40.404  27.957  28.661  1.00  0.00     0.057 A 
ATOM     77  C   UNL A   1      39.708  26.743  28.686  1.00  0.00     0.134 A 
ATOM     78  C   UNL A   1      41.134  28.256  27.505  1.00  0.00     0.134 A 
ATOM     79  F   UNL A   1      38.996  26.395  29.768  1.00  0.00    -0.206 F 
ATOM     80  C   UNL A   1      39.753  25.850  27.614  1.00  0.00     0.040 A 
ATOM     81  C   UNL A   1      41.168  27.385  26.415  1.00  0.00     0.040 A 
ATOM     82  F   UNL A   1      41.810  29.411  27.411  1.00  0.00    -0.206 F 
ATOM     83  C   UNL A   1      40.481  26.173  26.471  1.00  0.00     0.006 A 
ENDBRANCH  55  76
BRANCH  67  84
ATOM     84  C   UNL A   1      43.964  28.525  34.620  1.00  0.00     0.057 A 
ATOM     85  C   UNL A   1      45.321  28.809  34.421  1.00  0.00     0.134 A 
ATOM     86  C   UNL A   1      43.641  27.438  35.441  1.00  0.00     0.134 A 
ATOM     87  F   UNL A   1      45.694  29.828  33.633  1.00  0.00    -0.206 F 
ATOM     88  C   UNL A   1      46.319  28.024  34.998  1.00  0.00     0.040 A 
ATOM     89  C   UNL A   1      44.629  26.663  36.046  1.00  0.00     0.040 A 
ATOM     90  F   UNL A   1      42.359  27.120  35.677  1.00  0.00    -0.206 F 
ATOM     91  C   UNL A   1      45.974  26.951  35.819  1.00  0.00     0.006 A 
ENDBRANCH  67  84
ENDBRANCH  41  42
ENDBRANCH  33  36
ENDBRANCH  31  32
ENDBRANCH  30  31
ENDBRANCH  29  30
ENDBRANCH   1  29
TORSDOF 18
ENDMDL
MODEL 3
REMARK VINA RESULT:     -10.8      2.074      7.894
REMARK SMILES O=C(C[C@H]([NH2+]Cc1ccco1)C(=O)NCCCCNC(=O)c1ccc(-c2c3nc(c(-c4c(F)cccc4F)c4ccc([nH]4)c(-c4c(F)cccc4F)c4nc(c(-c5c(F)cccc5F)c5ccc2[nH]5)C=C4)C=C3)cc1)Nc1ccc(O)cc1
REMARK SMILES IDX 15 1 14 2 12 3 13 4 4 6 3 7 2 8 1 9 76 10 77 12 78 13 83 14
REMARK SMILES IDX 79 15 82 16 80 17 81 18 5 20 6 23 7 24 8 25 11 26 9 27 10 28
REMARK SMILES IDX 16 29 17 30 18 31 19 32 20 33 21 35 22 36 23 37 75 38 24 39
REMARK SMILES IDX 74 40 25 41 26 42 27 43 68 44 28 45 73 46 67 47 69 48 29 49
REMARK SMILES IDX 72 50 66 51 65 52 30 54 56 55 39 56 55 57 40 58 43 59 54 60
REMARK SMILES IDX 70 61 41 62 42 63 53 65 71 66 44 67 31 68 32 69 37 70 33 71
REMARK SMILES IDX 34 72 36 73 38 74 35 75 57 76 58 77 63 78 59 79 60 80 62 81
REMARK SMILES IDX 64 82 61 83 45 84 46 85 51 86 47 87 48 88 50 89 52 90 49 91
REMARK H PARENT 14 5 76 11 81 19 5 21 5 22 19 34 69 53 43 64
REMARK Flexibility Score: inf
ROOT
ATOM      1  C   UNL A   1      35.723  22.178  25.251  1.00  0.00     0.116 C 
ENDROOT
BRANCH   1   2
ATOM      2  N   UNL A   1      35.055  22.399  26.508  1.00  0.00    -0.351 N 
ATOM      3  C   UNL A   1      33.728  22.354  26.817  1.00  0.00     0.278 C 
ATOM      4  O   UNL A   1      33.434  22.387  28.018  1.00  0.00    -0.268 OA
ATOM      5  H   UNL A   1      35.650  22.615  27.263  1.00  0.00     0.163 HD
BRANCH   3   6
ATOM      6  C   UNL A   1      32.604  22.265  25.752  1.00  0.00     0.282 C 
BRANCH   6   7
ATOM      7  C   UNL A   1      31.508  23.337  25.867  1.00  0.00     0.175 C 
BRANCH   7   8
ATOM      8  C   UNL A   1      31.371  24.314  24.719  1.00  0.00     0.230 C 
ATOM      9  O   UNL A   1      31.475  23.928  23.559  1.00  0.00    -0.274 OA
ATOM     10  N   UNL A   1      31.168  25.625  25.123  1.00  0.00    -0.326 N 
ATOM     11  H   UNL A   1      31.108  25.795  26.091  1.00  0.00     0.169 HD
BRANCH  10  12
ATOM     12  C   UNL A   1      31.041  26.739  24.262  1.00  0.00     0.041 A 
ATOM     13  C   UNL A   1      32.205  27.438  23.919  1.00  0.00     0.030 A 
ATOM     14  C   UNL A   1      29.818  27.150  23.724  1.00  0.00     0.030 A 
ATOM     15  C   UNL A   1      32.145  28.501  23.013  1.00  0.00     0.048 A 
ATOM     16  C   UNL A   1      29.755  28.223  22.831  1.00  0.00     0.048 A 
ATOM     17  C   UNL A   1      30.923  28.882  22.473  1.00  0.00     0.115 A 
BRANCH  17  18
ATOM     18  O   UNL A   1      30.907  29.912  21.583  1.00  0.00    -0.508 OA
ATOM     19  H   UNL A   1      31.055  30.789  21.879  1.00  0.00     0.293 HD
ENDBRANCH  17  18
ENDBRANCH  10  12
ENDBRANCH   7   8
ENDBRANCH   6   7
BRANCH   6  20
ATOM     20  N   UNL A   1      32.127  20.874  25.590  1.00  0.00    -0.329 N 
ATOM     21  H   UNL A   1      31.111  20.869  25.678  1.00  0.00     0.347 HD
ATOM     22  H   UNL A   1      32.581  20.317  26.315  1.00  0.00     0.347 HD
BRANCH  20  23
ATOM     23  C   UNL A   1      32.483  20.277  24.305  1.00  0.00     0.337 C 
BRANCH  23  24
ATOM     24  C   UNL A   1      32.778  18.828  24.485  1.00  0.00     0.157 A 
ATOM     25  C   UNL A   1      33.463  17.903  23.723  1.00  0.00     0.052 A 
ATOM     26  O   UNL A   1      32.270  18.227  25.599  1.00  0.00    -0.463 OA
ATOM     27  C   UNL A   1      33.372  16.671  24.415  1.00  0.00     0.042 A 
ATOM     28  C   UNL A   1      32.637  16.922  25.549  1.00  0.00     0.195 A 
ENDBRANCH  23  24
ENDBRANCH  20  23
ENDBRANCH   6  20
ENDBRANCH   3   6
ENDBRANCH   1   2
BRANCH   1  29
ATOM     29  C   UNL A   1      36.239  20.762  25.058  1.00  0.00     0.023 C 
BRANCH  29  30
ATOM     30  C   UNL A   1      37.708  20.663  24.656  1.00  0.00     0.023 C 
BRANCH  30  31
ATOM     31  C   UNL A   1      38.710  20.854  25.794  1.00  0.00     0.116 C 
BRANCH  31  32
ATOM     32  N   UNL A   1      39.684  19.772  25.868  1.00  0.00    -0.352 N 
ATOM     33  C   UNL A   1      41.037  19.826  26.068  1.00  0.00     0.251 C 
ATOM     34  H   UNL A   1      39.311  18.867  25.760  1.00  0.00     0.163 HD
ATOM     35  O   UNL A   1      41.741  18.869  25.745  1.00  0.00    -0.269 OA
BRANCH  33  36
ATOM     36  C   UNL A   1      41.662  21.039  26.632  1.00  0.00     0.039 A 
ATOM     37  C   UNL A   1      42.219  21.970  25.752  1.00  0.00     0.014 A 
ATOM     38  C   UNL A   1      41.688  21.271  28.009  1.00  0.00     0.014 A 
ATOM     39  C   UNL A   1      42.693  23.184  26.242  1.00  0.00     0.010 A 
ATOM     40  C   UNL A   1      42.068  22.517  28.487  1.00  0.00     0.010 A 
ATOM     41  C   UNL A   1      42.551  23.491  27.604  1.00  0.00    -0.014 A 
BRANCH  41  42
ATOM     42  C   UNL A   1      42.835  24.852  28.113  1.00  0.00     0.031 A 
ATOM     43  C   UNL A   1      44.221  25.222  28.548  1.00  0.00     0.074 A 
ATOM     44  C   UNL A   1      41.805  25.705  28.273  1.00  0.00     0.049 A 
ATOM     45  N   UNL A   1      44.645  26.330  29.099  1.00  0.00    -0.248 NA
ATOM     46  C   UNL A   1      45.265  24.199  28.377  1.00  0.00     0.031 C 
ATOM     47  C   UNL A   1      40.403  25.408  27.956  1.00  0.00     0.029 A 
ATOM     48  N   UNL A   1      41.768  26.988  28.752  1.00  0.00    -0.354 N 
ATOM     49  C   UNL A   1      45.993  26.128  29.359  1.00  0.00     0.074 A 
ATOM     50  C   UNL A   1      46.306  24.775  28.957  1.00  0.00     0.031 C 
ATOM     51  C   UNL A   1      39.652  26.488  28.217  1.00  0.00     0.029 A 
ATOM     52  C   UNL A   1      40.508  27.537  28.755  1.00  0.00     0.049 A 
ATOM     53  H   UNL A   1      42.568  27.470  29.063  1.00  0.00     0.167 HD
ATOM     54  C   UNL A   1      46.891  27.005  29.868  1.00  0.00     0.037 A 
ATOM     55  C   UNL A   1      40.094  28.755  29.152  1.00  0.00     0.037 A 
ATOM     56  C   UNL A   1      46.561  28.355  30.243  1.00  0.00     0.049 A 
ATOM     57  C   UNL A   1      41.118  29.723  29.670  1.00  0.00     0.074 A 
ATOM     58  C   UNL A   1      47.394  29.349  30.723  1.00  0.00     0.029 A 
ATOM     59  N   UNL A   1      45.284  28.898  30.175  1.00  0.00    -0.354 N 
ATOM     60  N   UNL A   1      42.406  29.546  29.845  1.00  0.00    -0.248 NA
ATOM     61  C   UNL A   1      40.639  31.063  30.029  1.00  0.00     0.031 C 
ATOM     62  C   UNL A   1      46.615  30.484  30.977  1.00  0.00     0.029 A 
ATOM     63  C   UNL A   1      45.306  30.212  30.610  1.00  0.00     0.049 A 
ATOM     64  H   UNL A   1      44.483  28.419  29.864  1.00  0.00     0.167 HD
ATOM     65  C   UNL A   1      42.898  30.758  30.307  1.00  0.00     0.074 A 
ATOM     66  C   UNL A   1      41.769  31.666  30.371  1.00  0.00     0.031 C 
ATOM     67  C   UNL A   1      44.166  31.093  30.648  1.00  0.00     0.037 A 
BRANCH  54  68
ATOM     68  C   UNL A   1      48.304  26.525  30.039  1.00  0.00     0.057 A 
ATOM     69  C   UNL A   1      48.723  25.856  31.199  1.00  0.00     0.134 A 
ATOM     70  C   UNL A   1      49.259  26.727  29.035  1.00  0.00     0.134 A 
ATOM     71  F   UNL A   1      47.864  25.642  32.208  1.00  0.00    -0.206 F 
ATOM     72  C   UNL A   1      50.044  25.438  31.367  1.00  0.00     0.040 A 
ATOM     73  C   UNL A   1      50.577  26.287  29.179  1.00  0.00     0.040 A 
ATOM     74  F   UNL A   1      48.929  27.355  27.897  1.00  0.00    -0.206 F 
ATOM     75  C   UNL A   1      50.975  25.650  30.352  1.00  0.00     0.006 A 
ENDBRANCH  54  68
BRANCH  55  76
ATOM     76  C   UNL A   1      38.664  29.133  29.025  1.00  0.00     0.057 A 
ATOM     77  C   UNL A   1      38.140  29.561  27.800  1.00  0.00     0.134 A 
ATOM     78  C   UNL A   1      37.784  29.059  30.111  1.00  0.00     0.134 A 
ATOM     79  F   UNL A   1      38.934  29.661  26.724  1.00  0.00    -0.206 F 
ATOM     80  C   UNL A   1      36.799  29.923  27.663  1.00  0.00     0.040 A 
ATOM     81  C   UNL A   1      36.434  29.393  29.983  1.00  0.00     0.040 A 
ATOM     82  F   UNL A   1      38.219  28.641  31.308  1.00  0.00    -0.206 F 
ATOM     83  C   UNL A   1      35.940  29.834  28.756  1.00  0.00     0.006 A 
ENDBRANCH  55  76
BRANCH  67  84
ATOM     84  C   UNL A   1      44.400  32.512  31.071  1.00  0.00     0.057 A 
ATOM     85  C   UNL A   1      44.621  33.535  30.142  1.00  0.00     0.134 A 
ATOM     86  C   UNL A   1      44.372  32.859  32.427  1.00  0.00     0.134 A 
ATOM     87  F   UNL A   1      44.673  33.263  28.829  1.00  0.00    -0.206 F 
ATOM     88  C   UNL A   1      44.830  34.853  30.549  1.00  0.00     0.040 A 
ATOM     89  C   UNL A   1      44.552  34.177  32.845  1.00  0.00     0.040 A 
ATOM     90  F   UNL A   1      44.157  31.925  33.366  1.00  0.00    -0.206 F 
ATOM     91  C   UNL A   1      44.789  35.178  31.904  1.00  0.00     0.006 A 
ENDBRANCH  67  84
ENDBRANCH  41  42
ENDBRANCH  33  36
ENDBRANCH  31  32
ENDBRANCH  30  31
ENDBRANCH  29  30
ENDBRANCH   1  29
TORSDOF 18
ENDMDL
