MODEL 1
REMARK VINA RESULT:     -12.0      0.000      0.000
REMARK SMILES O=C(NCCCCNC(=O)c1nnn(-c2cccc(OC(F)(F)F)c2)c1-c1ccncc1)c1ccc(-c2c3nc(c(-c4c(F)cccc4F)c4ccc([nH]4)c(-c4c(F)cccc4F)c4nc(c(-c5c(F)cccc5F)c5ccc2[nH]5)C=C4)C=C3)cc1
REMARK SMILES IDX 6 1 5 2 4 3 3 4 1 5 2 6 33 8 34 9 86 10 35 11 85 12 36 13
REMARK SMILES IDX 37 14 38 15 79 16 39 17 84 18 78 19 80 20 40 21 83 22 77 23
REMARK SMILES IDX 76 24 41 26 67 27 50 28 66 29 51 30 54 31 65 32 81 33 52 34
REMARK SMILES IDX 53 35 64 37 82 38 55 39 42 40 43 41 48 42 44 43 45 44 47 45
REMARK SMILES IDX 49 46 46 47 68 48 69 49 74 50 70 51 71 52 73 53 75 54 72 55
REMARK SMILES IDX 56 56 57 57 62 58 58 59 59 60 61 61 63 62 60 63 7 64 8 65
REMARK SMILES IDX 9 66 10 68 11 69 12 70 26 71 13 72 14 73 27 74 28 75 32 76
REMARK SMILES IDX 29 77 31 78 30 79 15 80 16 81 25 82 17 83 19 84 18 85 20 86
REMARK SMILES IDX 21 87 22 88 23 89 24 90
REMARK H PARENT 3 7 80 25 54 36 8 67
REMARK Flexibility Score: inf
ROOT
ATOM      1  C   UNL A   1      32.328  29.033  27.186  1.00  0.00     0.023 C 
ENDROOT
BRANCH   1   2
ATOM      2  C   UNL A   1      33.843  29.213  27.260  1.00  0.00     0.023 C 
BRANCH   2   3
ATOM      3  C   UNL A   1      34.358  30.658  27.244  1.00  0.00     0.116 C 
BRANCH   3   4
ATOM      4  N   UNL A   1      34.239  31.385  28.493  1.00  0.00    -0.352 N 
ATOM      5  O   UNL A   1      34.675  32.450  30.384  1.00  0.00    -0.269 OA
ATOM      6  C   UNL A   1      35.091  31.662  29.530  1.00  0.00     0.251 C 
ATOM      7  H   UNL A   1      33.342  31.766  28.626  1.00  0.00     0.163 HD
BRANCH   6   8
ATOM      8  C   UNL A   1      36.433  31.045  29.725  1.00  0.00     0.039 A 
ATOM      9  C   UNL A   1      37.654  31.693  29.550  1.00  0.00     0.014 A 
ATOM     10  C   UNL A   1      36.452  29.683  30.083  1.00  0.00     0.014 A 
ATOM     11  C   UNL A   1      38.852  30.986  29.593  1.00  0.00     0.010 A 
ATOM     12  C   UNL A   1      37.652  28.981  30.182  1.00  0.00     0.010 A 
ATOM     13  C   UNL A   1      38.853  29.623  29.885  1.00  0.00    -0.014 A 
BRANCH  13  14
ATOM     14  C   UNL A   1      40.148  28.942  29.944  1.00  0.00     0.031 A 
ATOM     15  C   UNL A   1      40.793  28.830  31.290  1.00  0.00     0.074 A 
ATOM     16  C   UNL A   1      40.686  28.293  28.892  1.00  0.00     0.049 A 
ATOM     17  N   UNL A   1      42.013  29.105  31.638  1.00  0.00    -0.248 NA
ATOM     18  C   UNL A   1      39.950  28.356  32.400  1.00  0.00     0.031 C 
ATOM     19  C   UNL A   1      40.064  28.023  27.594  1.00  0.00     0.029 A 
ATOM     20  N   UNL A   1      41.875  27.626  28.816  1.00  0.00    -0.354 N 
ATOM     21  C   UNL A   1      42.141  28.688  32.964  1.00  0.00     0.074 A 
ATOM     22  C   UNL A   1      40.824  28.312  33.406  1.00  0.00     0.031 C 
ATOM     23  C   UNL A   1      40.776  27.069  26.956  1.00  0.00     0.029 A 
ATOM     24  C   UNL A   1      41.959  26.758  27.741  1.00  0.00     0.049 A 
ATOM     25  H   UNL A   1      42.604  27.752  29.466  1.00  0.00     0.167 HD
ATOM     26  C   UNL A   1      43.347  28.517  33.573  1.00  0.00     0.037 A 
ATOM     27  C   UNL A   1      42.884  25.791  27.544  1.00  0.00     0.037 A 
ATOM     28  C   UNL A   1      44.394  29.267  32.938  1.00  0.00     0.049 A 
ATOM     29  C   UNL A   1      44.055  26.074  28.403  1.00  0.00     0.074 A 
ATOM     30  C   UNL A   1      44.625  30.604  32.679  1.00  0.00     0.029 A 
ATOM     31  N   UNL A   1      45.352  28.592  32.226  1.00  0.00    -0.354 N 
ATOM     32  N   UNL A   1      44.901  27.047  28.216  1.00  0.00    -0.248 NA
ATOM     33  C   UNL A   1      44.112  25.442  29.713  1.00  0.00     0.031 C 
ATOM     34  C   UNL A   1      45.376  30.628  31.467  1.00  0.00     0.029 A 
ATOM     35  C   UNL A   1      45.544  29.302  31.071  1.00  0.00     0.049 A 
ATOM     36  H   UNL A   1      45.811  27.763  32.493  1.00  0.00     0.167 HD
ATOM     37  C   UNL A   1      45.307  27.413  29.490  1.00  0.00     0.074 A 
ATOM     38  C   UNL A   1      44.892  26.313  30.353  1.00  0.00     0.031 C 
ATOM     39  C   UNL A   1      45.690  28.692  29.771  1.00  0.00     0.037 A 
BRANCH  26  40
ATOM     40  C   UNL A   1      43.636  27.431  34.583  1.00  0.00     0.057 A 
ATOM     41  C   UNL A   1      43.604  26.079  34.189  1.00  0.00     0.134 A 
ATOM     42  C   UNL A   1      43.656  27.647  35.975  1.00  0.00     0.134 A 
ATOM     43  F   UNL A   1      43.558  25.739  32.892  1.00  0.00    -0.206 F 
ATOM     44  C   UNL A   1      43.533  25.028  35.113  1.00  0.00     0.040 A 
ATOM     45  C   UNL A   1      43.637  26.603  36.905  1.00  0.00     0.040 A 
ATOM     46  F   UNL A   1      43.597  28.875  36.505  1.00  0.00    -0.206 F 
ATOM     47  C   UNL A   1      43.545  25.289  36.476  1.00  0.00     0.006 A 
ENDBRANCH  26  40
BRANCH  27  48
ATOM     48  C   UNL A   1      42.711  24.502  26.845  1.00  0.00     0.057 A 
ATOM     49  C   UNL A   1      43.189  24.305  25.543  1.00  0.00     0.134 A 
ATOM     50  C   UNL A   1      42.280  23.350  27.526  1.00  0.00     0.134 A 
ATOM     51  F   UNL A   1      43.672  25.335  24.833  1.00  0.00    -0.206 F 
ATOM     52  C   UNL A   1      43.234  23.036  24.953  1.00  0.00     0.040 A 
ATOM     53  C   UNL A   1      42.307  22.080  26.945  1.00  0.00     0.040 A 
ATOM     54  F   UNL A   1      41.895  23.406  28.810  1.00  0.00    -0.206 F 
ATOM     55  C   UNL A   1      42.795  21.918  25.655  1.00  0.00     0.006 A 
ENDBRANCH  27  48
BRANCH  39  56
ATOM     56  C   UNL A   1      45.958  29.615  28.620  1.00  0.00     0.057 A 
ATOM     57  C   UNL A   1      44.952  30.326  27.951  1.00  0.00     0.134 A 
ATOM     58  C   UNL A   1      47.282  29.910  28.275  1.00  0.00     0.134 A 
ATOM     59  F   UNL A   1      43.664  30.188  28.294  1.00  0.00    -0.206 F 
ATOM     60  C   UNL A   1      45.248  31.252  26.947  1.00  0.00     0.040 A 
ATOM     61  C   UNL A   1      47.593  30.856  27.296  1.00  0.00     0.040 A 
ATOM     62  F   UNL A   1      48.299  29.316  28.920  1.00  0.00    -0.206 F 
ATOM     63  C   UNL A   1      46.573  31.522  26.620  1.00  0.00     0.006 A 
ENDBRANCH  39  56
ENDBRANCH  13  14
ENDBRANCH   6   8
ENDBRANCH   3   4
ENDBRANCH   2   3
ENDBRANCH   1   2
BRANCH   1  64
ATOM     64  C   UNL A   1      31.833  27.631  27.489  1.00  0.00     0.116 C 
BRANCH  64  65
ATOM     65  N   UNL A   1      30.702  27.223  26.680  1.00  0.00    -0.351 N 
ATOM     66  C   UNL A   1      30.473  25.989  26.105  1.00  0.00     0.274 C 
ATOM     67  H   UNL A   1      30.014  27.909  26.522  1.00  0.00     0.163 HD
ATOM     68  O   UNL A   1      29.459  25.826  25.441  1.00  0.00    -0.267 OA
BRANCH  66  69
ATOM     69  C   UNL A   1      31.449  24.929  26.311  1.00  0.00     0.178 A 
ATOM     70  N   UNL A   1      31.342  24.043  27.355  1.00  0.00    -0.124 NA
ATOM     71  C   UNL A   1      32.537  24.577  25.521  1.00  0.00     0.108 A 
ATOM     72  N   UNL A   1      32.274  23.113  27.208  1.00  0.00    -0.061 NA
ATOM     73  N   UNL A   1      33.079  23.487  26.192  1.00  0.00    -0.212 N 
BRANCH  71  74
ATOM     74  C   UNL A   1      32.947  25.036  24.192  1.00  0.00     0.006 A 
ATOM     75  C   UNL A   1      33.620  26.244  24.020  1.00  0.00     0.030 A 
ATOM     76  C   UNL A   1      32.597  24.289  23.058  1.00  0.00     0.030 A 
ATOM     77  C   UNL A   1      33.904  26.653  22.727  1.00  0.00     0.111 A 
ATOM     78  C   UNL A   1      32.916  24.786  21.808  1.00  0.00     0.111 A 
ATOM     79  N   UNL A   1      33.551  25.960  21.622  1.00  0.00    -0.265 NA
ENDBRANCH  71  74
BRANCH  73  80
ATOM     80  C   UNL A   1      34.251  22.769  25.864  1.00  0.00     0.071 A 
ATOM     81  C   UNL A   1      34.167  21.410  25.552  1.00  0.00     0.029 A 
ATOM     82  C   UNL A   1      35.474  23.454  25.770  1.00  0.00     0.075 A 
ATOM     83  C   UNL A   1      35.296  20.765  25.049  1.00  0.00     0.006 A 
ATOM     84  C   UNL A   1      36.607  22.801  25.294  1.00  0.00     0.131 A 
ATOM     85  C   UNL A   1      36.502  21.461  24.911  1.00  0.00     0.047 A 
BRANCH  84  86
ATOM     86  O   UNL A   1      37.846  23.355  25.138  1.00  0.00    -0.406 OA
BRANCH  86  87
ATOM     87  C   UNL A   1      38.631  23.552  26.305  1.00  0.00     0.573 C 
ATOM     88  F   UNL A   1      37.923  24.173  27.272  1.00  0.00    -0.132 F 
ATOM     89  F   UNL A   1      39.097  22.377  26.779  1.00  0.00    -0.132 F 
ATOM     90  F   UNL A   1      39.691  24.331  25.994  1.00  0.00    -0.132 F 
ENDBRANCH  86  87
ENDBRANCH  84  86
ENDBRANCH  73  80
ENDBRANCH  66  69
ENDBRANCH  64  65
ENDBRANCH   1  64
TORSDOF 15
ENDMDL
MODEL 2
REMARK VINA RESULT:     -11.8      2.822      3.823
REMARK SMILES O=C(NCCCCNC(=O)c1nnn(-c2cccc(OC(F)(F)F)c2)c1-c1ccncc1)c1ccc(-c2c3nc(c(-c4c(F)cccc4F)c4ccc([nH]4)c(-c4c(F)cccc4F)c4nc(c(-c5c(F)cccc5F)c5ccc2[nH]5)C=C4)C=C3)cc1
REMARK SMILES IDX 6 1 5 2 4 3 3 4 1 5 2 6 33 8 34 9 86 10 35 11 85 12 36 13
REMARK SMILES IDX 37 14 38 15 79 16 39 17 84 18 78 19 80 20 40 21 83 22 77 23
REMARK SMILES IDX 76 24 41 26 67 27 50 28 66 29 51 30 54 31 65 32 81 33 52 34
REMARK SMILES IDX 53 35 64 37 82 38 55 39 42 40 43 41 48 42 44 43 45 44 47 45
REMARK SMILES IDX 49 46 46 47 68 48 69 49 74 50 70 51 71 52 73 53 75 54 72 55
REMARK SMILES IDX 56 56 57 57 62 58 58 59 59 60 61 61 63 62 60 63 7 64 8 65
REMARK SMILES IDX 9 66 10 68 11 69 12 70 26 71 13 72 14 73 27 74 28 75 32 76
REMARK SMILES IDX 29 77 31 78 30 79 15 80 16 81 25 82 17 83 19 84 18 85 20 86
REMARK SMILES IDX 21 87 22 88 23 89 24 90
REMARK H PARENT 3 7 80 25 54 36 8 67
REMARK Flexibility Score: inf
ROOT
ATOM      1  C   UNL A   1      33.421  27.299  26.050  1.00  0.00     0.023 C 
ENDROOT
BRANCH   1   2
ATOM      2  C   UNL A   1      33.757  28.765  26.313  1.00  0.00     0.023 C 
BRANCH   2   3
ATOM      3  C   UNL A   1      34.142  29.128  27.753  1.00  0.00     0.116 C 
BRANCH   3   4
ATOM      4  N   UNL A   1      34.831  30.392  27.924  1.00  0.00    -0.352 N 
ATOM      5  O   UNL A   1      36.370  31.981  28.010  1.00  0.00    -0.269 OA
ATOM      6  C   UNL A   1      36.146  30.767  28.009  1.00  0.00     0.251 C 
ATOM      7  H   UNL A   1      34.214  31.155  27.994  1.00  0.00     0.163 HD
BRANCH   6   8
ATOM      8  C   UNL A   1      37.296  29.831  28.158  1.00  0.00     0.039 A 
ATOM      9  C   UNL A   1      37.465  28.917  29.196  1.00  0.00     0.014 A 
ATOM     10  C   UNL A   1      38.304  29.914  27.178  1.00  0.00     0.014 A 
ATOM     11  C   UNL A   1      38.653  28.205  29.337  1.00  0.00     0.010 A 
ATOM     12  C   UNL A   1      39.474  29.163  27.283  1.00  0.00     0.010 A 
ATOM     13  C   UNL A   1      39.671  28.345  28.394  1.00  0.00    -0.014 A 
BRANCH  13  14
ATOM     14  C   UNL A   1      40.884  27.547  28.583  1.00  0.00     0.031 A 
ATOM     15  C   UNL A   1      41.636  27.749  29.861  1.00  0.00     0.074 A 
ATOM     16  C   UNL A   1      41.248  26.554  27.746  1.00  0.00     0.049 A 
ATOM     17  N   UNL A   1      42.906  27.951  30.040  1.00  0.00    -0.248 NA
ATOM     18  C   UNL A   1      40.854  27.736  31.108  1.00  0.00     0.031 C 
ATOM     19  C   UNL A   1      40.481  26.000  26.628  1.00  0.00     0.029 A 
ATOM     20  N   UNL A   1      42.345  25.744  27.808  1.00  0.00    -0.354 N 
ATOM     21  C   UNL A   1      43.111  27.927  31.420  1.00  0.00     0.074 A 
ATOM     22  C   UNL A   1      41.807  27.873  32.029  1.00  0.00     0.031 C 
ATOM     23  C   UNL A   1      41.023  24.816  26.268  1.00  0.00     0.029 A 
ATOM     24  C   UNL A   1      42.233  24.596  27.042  1.00  0.00     0.049 A 
ATOM     25  H   UNL A   1      43.141  25.956  28.347  1.00  0.00     0.167 HD
ATOM     26  C   UNL A   1      44.343  27.784  31.983  1.00  0.00     0.037 A 
ATOM     27  C   UNL A   1      43.026  23.500  27.093  1.00  0.00     0.037 A 
ATOM     28  C   UNL A   1      45.401  28.171  31.093  1.00  0.00     0.049 A 
ATOM     29  C   UNL A   1      44.295  23.866  27.760  1.00  0.00     0.074 A 
ATOM     30  C   UNL A   1      45.750  29.331  30.431  1.00  0.00     0.029 A 
ATOM     31  N   UNL A   1      46.209  27.198  30.565  1.00  0.00    -0.354 N 
ATOM     32  N   UNL A   1      45.221  24.622  27.240  1.00  0.00    -0.248 NA
ATOM     33  C   UNL A   1      44.405  23.643  29.194  1.00  0.00     0.031 C 
ATOM     34  C   UNL A   1      46.383  28.901  29.227  1.00  0.00     0.029 A 
ATOM     35  C   UNL A   1      46.369  27.507  29.241  1.00  0.00     0.049 A 
ATOM     36  H   UNL A   1      46.599  26.431  31.043  1.00  0.00     0.167 HD
ATOM     37  C   UNL A   1      45.781  25.288  28.320  1.00  0.00     0.074 A 
ATOM     38  C   UNL A   1      45.332  24.552  29.495  1.00  0.00     0.031 C 
ATOM     39  C   UNL A   1      46.326  26.531  28.179  1.00  0.00     0.037 A 
BRANCH  26  40
ATOM     40  C   UNL A   1      44.605  27.013  33.255  1.00  0.00     0.057 A 
ATOM     41  C   UNL A   1      45.249  27.642  34.339  1.00  0.00     0.134 A 
ATOM     42  C   UNL A   1      44.515  25.610  33.348  1.00  0.00     0.134 A 
ATOM     43  F   UNL A   1      45.422  28.973  34.359  1.00  0.00    -0.206 F 
ATOM     44  C   UNL A   1      45.813  26.923  35.400  1.00  0.00     0.040 A 
ATOM     45  C   UNL A   1      45.030  24.886  34.429  1.00  0.00     0.040 A 
ATOM     46  F   UNL A   1      44.012  24.862  32.358  1.00  0.00    -0.206 F 
ATOM     47  C   UNL A   1      45.709  25.539  35.445  1.00  0.00     0.006 A 
ENDBRANCH  26  40
BRANCH  27  48
ATOM     48  C   UNL A   1      42.648  22.097  26.827  1.00  0.00     0.057 A 
ATOM     49  C   UNL A   1      43.340  21.320  25.890  1.00  0.00     0.134 A 
ATOM     50  C   UNL A   1      41.748  21.409  27.659  1.00  0.00     0.134 A 
ATOM     51  F   UNL A   1      44.260  21.877  25.089  1.00  0.00    -0.206 F 
ATOM     52  C   UNL A   1      43.147  19.937  25.786  1.00  0.00     0.040 A 
ATOM     53  C   UNL A   1      41.534  20.033  27.557  1.00  0.00     0.040 A 
ATOM     54  F   UNL A   1      41.105  22.037  28.655  1.00  0.00    -0.206 F 
ATOM     55  C   UNL A   1      42.244  19.289  26.623  1.00  0.00     0.006 A 
ENDBRANCH  27  48
BRANCH  39  56
ATOM     56  C   UNL A   1      46.584  27.032  26.790  1.00  0.00     0.057 A 
ATOM     57  C   UNL A   1      47.797  26.842  26.114  1.00  0.00     0.134 A 
ATOM     58  C   UNL A   1      45.528  27.589  26.058  1.00  0.00     0.134 A 
ATOM     59  F   UNL A   1      48.825  26.216  26.702  1.00  0.00    -0.206 F 
ATOM     60  C   UNL A   1      47.968  27.235  24.784  1.00  0.00     0.040 A 
ATOM     61  C   UNL A   1      45.676  27.957  24.719  1.00  0.00     0.040 A 
ATOM     62  F   UNL A   1      44.319  27.739  26.621  1.00  0.00    -0.206 F 
ATOM     63  C   UNL A   1      46.904  27.792  24.082  1.00  0.00     0.006 A 
ENDBRANCH  39  56
ENDBRANCH  13  14
ENDBRANCH   6   8
ENDBRANCH   3   4
ENDBRANCH   2   3
ENDBRANCH   1   2
BRANCH   1  64
ATOM     64  C   UNL A   1      32.447  27.058  24.911  1.00  0.00     0.116 C 
BRANCH  64  65
ATOM     65  N   UNL A   1      33.057  27.120  23.598  1.00  0.00    -0.351 N 
ATOM     66  C   UNL A   1      33.257  26.084  22.707  1.00  0.00     0.274 C 
ATOM     67  H   UNL A   1      33.366  28.008  23.306  1.00  0.00     0.163 HD
ATOM     68  O   UNL A   1      33.800  26.322  21.638  1.00  0.00    -0.267 OA
BRANCH  66  69
ATOM     69  C   UNL A   1      32.811  24.749  23.076  1.00  0.00     0.178 A 
ATOM     70  N   UNL A   1      31.579  24.270  22.702  1.00  0.00    -0.124 NA
ATOM     71  C   UNL A   1      33.508  23.749  23.744  1.00  0.00     0.108 A 
ATOM     72  N   UNL A   1      31.507  22.993  23.046  1.00  0.00    -0.061 NA
ATOM     73  N   UNL A   1      32.598  22.699  23.785  1.00  0.00    -0.212 N 
BRANCH  71  74
ATOM     74  C   UNL A   1      34.916  23.658  24.138  1.00  0.00     0.006 A 
ATOM     75  C   UNL A   1      35.845  22.977  23.354  1.00  0.00     0.030 A 
ATOM     76  C   UNL A   1      35.333  24.202  25.362  1.00  0.00     0.030 A 
ATOM     77  C   UNL A   1      37.140  22.863  23.831  1.00  0.00     0.111 A 
ATOM     78  C   UNL A   1      36.646  24.027  25.756  1.00  0.00     0.111 A 
ATOM     79  N   UNL A   1      37.553  23.357  25.019  1.00  0.00    -0.265 NA
ENDBRANCH  71  74
BRANCH  73  80
ATOM     80  C   UNL A   1      32.758  21.444  24.414  1.00  0.00     0.071 A 
ATOM     81  C   UNL A   1      32.829  21.370  25.806  1.00  0.00     0.029 A 
ATOM     82  C   UNL A   1      32.755  20.277  23.631  1.00  0.00     0.075 A 
ATOM     83  C   UNL A   1      32.796  20.116  26.415  1.00  0.00     0.006 A 
ATOM     84  C   UNL A   1      32.750  19.025  24.239  1.00  0.00     0.131 A 
ATOM     85  C   UNL A   1      32.745  18.955  25.635  1.00  0.00     0.047 A 
BRANCH  84  86
ATOM     86  O   UNL A   1      32.730  17.821  23.596  1.00  0.00    -0.406 OA
BRANCH  86  87
ATOM     87  C   UNL A   1      33.943  17.087  23.531  1.00  0.00     0.573 C 
ATOM     88  F   UNL A   1      33.817  15.881  24.125  1.00  0.00    -0.132 F 
ATOM     89  F   UNL A   1      34.337  16.913  22.250  1.00  0.00    -0.132 F 
ATOM     90  F   UNL A   1      34.908  17.776  24.178  1.00  0.00    -0.132 F 
ENDBRANCH  86  87
ENDBRANCH  84  86
ENDBRANCH  73  80
ENDBRANCH  66  69
ENDBRANCH  64  65
ENDBRANCH   1  64
TORSDOF 15
ENDMDL
MODEL 3
REMARK VINA RESULT:     -11.8      3.916      8.607
REMARK SMILES O=C(NCCCCNC(=O)c1nnn(-c2cccc(OC(F)(F)F)c2)c1-c1ccncc1)c1ccc(-c2c3nc(c(-c4c(F)cccc4F)c4ccc([nH]4)c(-c4c(F)cccc4F)c4nc(c(-c5c(F)cccc5F)c5ccc2[nH]5)C=C4)C=C3)cc1
REMARK SMILES IDX 6 1 5 2 4 3 3 4 1 5 2 6 33 8 34 9 86 10 35 11 85 12 36 13
REMARK SMILES IDX 37 14 38 15 79 16 39 17 84 18 78 19 80 20 40 21 83 22 77 23
REMARK SMILES IDX 76 24 41 26 67 27 50 28 66 29 51 30 54 31 65 32 81 33 52 34
REMARK SMILES IDX 53 35 64 37 82 38 55 39 42 40 43 41 48 42 44 43 45 44 47 45
REMARK SMILES IDX 49 46 46 47 68 48 69 49 74 50 70 51 71 52 73 53 75 54 72 55
REMARK SMILES IDX 56 56 57 57 62 58 58 59 59 60 61 61 63 62 60 63 7 64 8 65
REMARK SMILES IDX 9 66 10 68 11 69 12 70 26 71 13 72 14 73 27 74 28 75 32 76
REMARK SMILES IDX 29 77 31 78 30 79 15 80 16 81 25 82 17 83 19 84 18 85 20 86
REMARK SMILES IDX 21 87 22 88 23 89 24 90
REMARK H PARENT 3 7 80 25 54 36 8 67
REMARK Flexibility Score: inf
ROOT
ATOM      1  C   UNL A   1      36.697  22.544  24.181  1.00  0.00     0.023 C 
ENDROOT
BRANCH   1   2
ATOM      2  C   UNL A   1      36.982  22.594  25.680  1.00  0.00     0.023 C 
BRANCH   2   3
ATOM      3  C   UNL A   1      37.780  23.804  26.182  1.00  0.00     0.116 C 
BRANCH   3   4
ATOM      4  N   UNL A   1      39.065  23.508  26.785  1.00  0.00    -0.352 N 
ATOM      5  O   UNL A   1      40.861  23.519  28.078  1.00  0.00    -0.269 OA
ATOM      6  C   UNL A   1      39.883  24.154  27.674  1.00  0.00     0.251 C 
ATOM      7  H   UNL A   1      39.434  22.645  26.487  1.00  0.00     0.163 HD
BRANCH   6   8
ATOM      8  C   UNL A   1      39.710  25.562  28.130  1.00  0.00     0.039 A 
ATOM      9  C   UNL A   1      40.023  26.697  27.384  1.00  0.00     0.014 A 
ATOM     10  C   UNL A   1      39.220  25.743  29.437  1.00  0.00     0.014 A 
ATOM     11  C   UNL A   1      39.984  27.964  27.959  1.00  0.00     0.010 A 
ATOM     12  C   UNL A   1      39.125  27.014  30.001  1.00  0.00     0.010 A 
ATOM     13  C   UNL A   1      39.558  28.124  29.276  1.00  0.00    -0.014 A 
BRANCH  13  14
ATOM     14  C   UNL A   1      39.511  29.486  29.814  1.00  0.00     0.031 A 
ATOM     15  C   UNL A   1      40.793  30.257  29.818  1.00  0.00     0.074 A 
ATOM     16  C   UNL A   1      38.360  30.105  30.146  1.00  0.00     0.049 A 
ATOM     17  N   UNL A   1      41.338  30.933  30.782  1.00  0.00    -0.248 NA
ATOM     18  C   UNL A   1      41.578  30.259  28.572  1.00  0.00     0.031 C 
ATOM     19  C   UNL A   1      36.992  29.635  29.916  1.00  0.00     0.029 A 
ATOM     20  N   UNL A   1      38.181  31.360  30.653  1.00  0.00    -0.354 N 
ATOM     21  C   UNL A   1      42.444  31.579  30.227  1.00  0.00     0.074 A 
ATOM     22  C   UNL A   1      42.591  31.066  28.889  1.00  0.00     0.031 C 
ATOM     23  C   UNL A   1      36.140  30.671  30.068  1.00  0.00     0.029 A 
ATOM     24  C   UNL A   1      36.886  31.833  30.523  1.00  0.00     0.049 A 
ATOM     25  H   UNL A   1      38.905  31.879  31.072  1.00  0.00     0.167 HD
ATOM     26  C   UNL A   1      43.076  32.620  30.835  1.00  0.00     0.037 A 
ATOM     27  C   UNL A   1      36.463  33.107  30.693  1.00  0.00     0.037 A 
ATOM     28  C   UNL A   1      42.851  32.646  32.253  1.00  0.00     0.049 A 
ATOM     29  C   UNL A   1      37.483  33.845  31.470  1.00  0.00     0.074 A 
ATOM     30  C   UNL A   1      43.096  31.781  33.301  1.00  0.00     0.029 A 
ATOM     31  N   UNL A   1      42.052  33.629  32.778  1.00  0.00    -0.354 N 
ATOM     32  N   UNL A   1      37.732  33.664  32.736  1.00  0.00    -0.248 NA
ATOM     33  C   UNL A   1      38.491  34.596  30.738  1.00  0.00     0.031 C 
ATOM     34  C   UNL A   1      42.052  32.023  34.240  1.00  0.00     0.029 A 
ATOM     35  C   UNL A   1      41.241  33.017  33.694  1.00  0.00     0.049 A 
ATOM     36  H   UNL A   1      42.062  34.585  32.543  1.00  0.00     0.167 HD
ATOM     37  C   UNL A   1      39.089  33.917  32.870  1.00  0.00     0.074 A 
ATOM     38  C   UNL A   1      39.469  34.607  31.644  1.00  0.00     0.031 C 
ATOM     39  C   UNL A   1      39.832  33.300  33.833  1.00  0.00     0.037 A 
BRANCH  26  40
ATOM     40  C   UNL A   1      43.672  33.795  30.095  1.00  0.00     0.057 A 
ATOM     41  C   UNL A   1      45.003  34.182  30.346  1.00  0.00     0.134 A 
ATOM     42  C   UNL A   1      42.905  34.730  29.372  1.00  0.00     0.134 A 
ATOM     43  F   UNL A   1      45.830  33.391  31.047  1.00  0.00    -0.206 F 
ATOM     44  C   UNL A   1      45.510  35.429  29.960  1.00  0.00     0.040 A 
ATOM     45  C   UNL A   1      43.417  35.957  28.937  1.00  0.00     0.040 A 
ATOM     46  F   UNL A   1      41.600  34.547  29.133  1.00  0.00    -0.206 F 
ATOM     47  C   UNL A   1      44.714  36.324  29.256  1.00  0.00     0.006 A 
ENDBRANCH  26  40
BRANCH  27  48
ATOM     48  C   UNL A   1      35.347  33.788  30.006  1.00  0.00     0.057 A 
ATOM     49  C   UNL A   1      34.313  34.404  30.724  1.00  0.00     0.134 A 
ATOM     50  C   UNL A   1      35.390  34.059  28.627  1.00  0.00     0.134 A 
ATOM     51  F   UNL A   1      34.222  34.250  32.053  1.00  0.00    -0.206 F 
ATOM     52  C   UNL A   1      33.376  35.240  30.104  1.00  0.00     0.040 A 
ATOM     53  C   UNL A   1      34.453  34.880  27.994  1.00  0.00     0.040 A 
ATOM     54  F   UNL A   1      36.392  33.602  27.861  1.00  0.00    -0.206 F 
ATOM     55  C   UNL A   1      33.446  35.482  28.736  1.00  0.00     0.006 A 
ENDBRANCH  27  48
BRANCH  39  56
ATOM     56  C   UNL A   1      39.105  32.584  34.932  1.00  0.00     0.057 A 
ATOM     57  C   UNL A   1      38.722  31.238  34.854  1.00  0.00     0.134 A 
ATOM     58  C   UNL A   1      38.921  33.229  36.161  1.00  0.00     0.134 A 
ATOM     59  F   UNL A   1      38.963  30.513  33.753  1.00  0.00    -0.206 F 
ATOM     60  C   UNL A   1      38.135  30.576  35.935  1.00  0.00     0.040 A 
ATOM     61  C   UNL A   1      38.364  32.569  37.260  1.00  0.00     0.040 A 
ATOM     62  F   UNL A   1      39.325  34.498  36.328  1.00  0.00    -0.206 F 
ATOM     63  C   UNL A   1      37.958  31.242  37.144  1.00  0.00     0.006 A 
ENDBRANCH  39  56
ENDBRANCH  13  14
ENDBRANCH   6   8
ENDBRANCH   3   4
ENDBRANCH   2   3
ENDBRANCH   1   2
BRANCH   1  64
ATOM     64  C   UNL A   1      35.466  23.312  23.735  1.00  0.00     0.116 C 
BRANCH  64  65
ATOM     65  N   UNL A   1      34.473  22.490  23.075  1.00  0.00    -0.351 N 
ATOM     66  C   UNL A   1      33.314  22.902  22.447  1.00  0.00     0.274 C 
ATOM     67  H   UNL A   1      34.644  21.520  23.074  1.00  0.00     0.163 HD
ATOM     68  O   UNL A   1      32.583  22.060  21.947  1.00  0.00    -0.267 OA
BRANCH  66  69
ATOM     69  C   UNL A   1      33.009  24.325  22.405  1.00  0.00     0.178 A 
ATOM     70  N   UNL A   1      33.101  25.048  21.241  1.00  0.00    -0.124 NA
ATOM     71  C   UNL A   1      32.526  25.144  23.418  1.00  0.00     0.108 A 
ATOM     72  N   UNL A   1      32.629  26.264  21.469  1.00  0.00    -0.061 NA
ATOM     73  N   UNL A   1      32.402  26.381  22.795  1.00  0.00    -0.212 N 
BRANCH  71  74
ATOM     74  C   UNL A   1      32.034  24.825  24.759  1.00  0.00     0.006 A 
ATOM     75  C   UNL A   1      32.875  24.872  25.869  1.00  0.00     0.030 A 
ATOM     76  C   UNL A   1      30.711  24.392  24.932  1.00  0.00     0.030 A 
ATOM     77  C   UNL A   1      32.360  24.478  27.093  1.00  0.00     0.111 A 
ATOM     78  C   UNL A   1      30.293  24.011  26.193  1.00  0.00     0.111 A 
ATOM     79  N   UNL A   1      31.097  24.033  27.273  1.00  0.00    -0.265 NA
ENDBRANCH  71  74
BRANCH  73  80
ATOM     80  C   UNL A   1      32.012  27.606  23.381  1.00  0.00     0.071 A 
ATOM     81  C   UNL A   1      30.721  28.094  23.174  1.00  0.00     0.029 A 
ATOM     82  C   UNL A   1      32.905  28.273  24.238  1.00  0.00     0.075 A 
ATOM     83  C   UNL A   1      30.295  29.200  23.909  1.00  0.00     0.006 A 
ATOM     84  C   UNL A   1      32.487  29.394  24.949  1.00  0.00     0.131 A 
ATOM     85  C   UNL A   1      31.170  29.835  24.797  1.00  0.00     0.047 A 
BRANCH  84  86
ATOM     86  O   UNL A   1      33.247  30.118  25.823  1.00  0.00    -0.406 OA
BRANCH  86  87
ATOM     87  C   UNL A   1      33.452  29.580  27.121  1.00  0.00     0.573 C 
ATOM     88  F   UNL A   1      32.390  28.849  27.521  1.00  0.00    -0.132 F 
ATOM     89  F   UNL A   1      34.561  28.810  27.156  1.00  0.00    -0.132 F 
ATOM     90  F   UNL A   1      33.617  30.596  27.996  1.00  0.00    -0.132 F 
ENDBRANCH  86  87
ENDBRANCH  84  86
ENDBRANCH  73  80
ENDBRANCH  66  69
ENDBRANCH  64  65
ENDBRANCH   1  64
TORSDOF 15
ENDMDL
