MODEL 1
REMARK VINA RESULT:     -12.4      0.000      0.000
REMARK SMILES Cc1cc(F)cc(N[C@H](C(=O)NCCCCNC(=O)c2ccc(-c3c4nc(c(-c5c(F)cccc5F)c5ccc([nH]5)c(-c5c(F)cccc5F)c5nc(c(-c6c(F)cccc6F)c6ccc3[nH]6)C=C5)C=C4)cc2)c2cc(C)cc(C)c2)c1
REMARK SMILES IDX 14 1 13 2 12 3 10 4 11 5 9 7 8 8 7 10 1 11 2 12 3 13 82 14
REMARK SMILES IDX 4 15 5 16 6 17 74 18 75 19 81 20 76 21 79 22 77 23 78 24
REMARK SMILES IDX 80 25 15 26 16 27 17 28 18 29 19 31 20 32 21 33 73 34 22 35
REMARK SMILES IDX 72 36 23 37 24 38 25 39 66 40 26 41 71 42 65 43 67 44 27 45
REMARK SMILES IDX 70 46 64 47 63 48 28 50 54 51 37 52 53 53 38 54 41 55 52 56
REMARK SMILES IDX 68 57 39 58 40 59 51 61 69 62 42 63 29 64 30 65 35 66 31 67
REMARK SMILES IDX 32 68 34 69 36 70 33 71 55 72 56 73 61 74 57 75 58 76 60 77
REMARK SMILES IDX 62 78 59 79 43 80 44 81 49 82 45 83 46 84 48 85 50 86 47 87
REMARK H PARENT 12 6 8 9 17 30 67 49 41 60
REMARK Flexibility Score: inf
ROOT
ATOM      1  C   UNL A   1      36.482  20.477  25.005  1.00  0.00     0.023 C 
ENDROOT
BRANCH   1   2
ATOM      2  C   UNL A   1      36.425  21.825  25.718  1.00  0.00     0.116 C 
BRANCH   2   3
ATOM      3  N   UNL A   1      35.528  21.852  26.854  1.00  0.00    -0.354 N 
ATOM      4  C   UNL A   1      34.156  21.921  26.871  1.00  0.00     0.247 C 
ATOM      5  O   UNL A   1      33.640  21.830  27.991  1.00  0.00    -0.272 OA
ATOM      6  H   UNL A   1      35.961  21.816  27.737  1.00  0.00     0.163 HD
BRANCH   4   7
ATOM      7  C   UNL A   1      33.328  22.250  25.589  1.00  0.00     0.200 C 
BRANCH   7   8
ATOM      8  N   UNL A   1      32.364  21.200  25.174  1.00  0.00    -0.370 N 
ATOM      9  H   UNL A   1      31.428  21.395  25.410  1.00  0.00     0.161 HD
BRANCH   8  10
ATOM     10  C   UNL A   1      32.544  19.999  24.518  1.00  0.00     0.038 A 
ATOM     11  C   UNL A   1      33.307  16.382  25.561  1.00  0.00     0.044 C 
ATOM     12  C   UNL A   1      33.005  17.581  24.714  1.00  0.00    -0.046 A 
ATOM     13  C   UNL A   1      32.866  17.432  23.336  1.00  0.00     0.042 A 
ATOM     14  C   UNL A   1      32.879  18.864  25.282  1.00  0.00     0.029 A 
ATOM     15  C   UNL A   1      32.528  18.533  22.575  1.00  0.00     0.125 A 
ATOM     16  F   UNL A   1      32.373  18.401  21.251  1.00  0.00    -0.207 F 
ATOM     17  C   UNL A   1      32.329  19.780  23.163  1.00  0.00     0.065 A 
ENDBRANCH   8  10
ENDBRANCH   7   8
BRANCH   7  18
ATOM     18  C   UNL A   1      32.674  23.631  25.538  1.00  0.00    -0.016 A 
ATOM     19  C   UNL A   1      31.423  23.821  24.935  1.00  0.00     0.009 A 
ATOM     20  C   UNL A   1      33.386  24.772  25.948  1.00  0.00     0.009 A 
ATOM     21  C   UNL A   1      31.005  25.087  24.518  1.00  0.00    -0.051 A 
ATOM     22  C   UNL A   1      32.898  26.060  25.684  1.00  0.00    -0.051 A 
ATOM     23  C   UNL A   1      29.904  25.199  23.503  1.00  0.00     0.044 C 
ATOM     24  C   UNL A   1      31.742  26.205  24.908  1.00  0.00     0.006 A 
ATOM     25  C   UNL A   1      33.652  27.279  26.126  1.00  0.00     0.044 C 
ENDBRANCH   7  18
ENDBRANCH   4   7
ENDBRANCH   2   3
ENDBRANCH   1   2
BRANCH   1  26
ATOM     26  C   UNL A   1      37.882  19.942  24.703  1.00  0.00     0.023 C 
BRANCH  26  27
ATOM     27  C   UNL A   1      38.949  20.241  25.751  1.00  0.00     0.116 C 
BRANCH  27  28
ATOM     28  N   UNL A   1      39.947  19.187  25.873  1.00  0.00    -0.352 N 
ATOM     29  C   UNL A   1      41.296  19.283  26.126  1.00  0.00     0.251 C 
ATOM     30  H   UNL A   1      39.605  18.270  25.758  1.00  0.00     0.163 HD
ATOM     31  O   UNL A   1      42.010  18.284  26.074  1.00  0.00    -0.269 OA
BRANCH  29  32
ATOM     32  C   UNL A   1      41.893  20.601  26.426  1.00  0.00     0.039 A 
ATOM     33  C   UNL A   1      42.283  21.429  25.370  1.00  0.00     0.014 A 
ATOM     34  C   UNL A   1      42.037  21.032  27.746  1.00  0.00     0.014 A 
ATOM     35  C   UNL A   1      42.727  22.727  25.635  1.00  0.00     0.010 A 
ATOM     36  C   UNL A   1      42.405  22.349  28.005  1.00  0.00     0.010 A 
ATOM     37  C   UNL A   1      42.743  23.215  26.952  1.00  0.00    -0.014 A 
BRANCH  37  38
ATOM     38  C   UNL A   1      43.096  24.624  27.261  1.00  0.00     0.031 A 
ATOM     39  C   UNL A   1      44.533  25.066  27.219  1.00  0.00     0.074 A 
ATOM     40  C   UNL A   1      42.141  25.481  27.674  1.00  0.00     0.049 A 
ATOM     41  N   UNL A   1      45.060  26.205  27.586  1.00  0.00    -0.248 NA
ATOM     42  C   UNL A   1      45.510  24.080  26.728  1.00  0.00     0.031 C 
ATOM     43  C   UNL A   1      40.717  25.167  27.801  1.00  0.00     0.029 A 
ATOM     44  N   UNL A   1      42.230  26.788  28.087  1.00  0.00    -0.354 N 
ATOM     45  C   UNL A   1      46.429  26.065  27.396  1.00  0.00     0.074 A 
ATOM     46  C   UNL A   1      46.656  24.716  26.923  1.00  0.00     0.031 C 
ATOM     47  C   UNL A   1      40.064  26.253  28.246  1.00  0.00     0.029 A 
ATOM     48  C   UNL A   1      41.026  27.327  28.476  1.00  0.00     0.049 A 
ATOM     49  H   UNL A   1      43.075  27.292  28.102  1.00  0.00     0.167 HD
ATOM     50  C   UNL A   1      47.408  26.984  27.579  1.00  0.00     0.037 A 
ATOM     51  C   UNL A   1      40.734  28.542  28.978  1.00  0.00     0.037 A 
ATOM     52  C   UNL A   1      47.178  28.335  28.017  1.00  0.00     0.049 A 
ATOM     53  C   UNL A   1      41.838  29.544  29.170  1.00  0.00     0.074 A 
ATOM     54  C   UNL A   1      48.097  29.358  28.175  1.00  0.00     0.029 A 
ATOM     55  N   UNL A   1      45.940  28.851  28.366  1.00  0.00    -0.354 N 
ATOM     56  N   UNL A   1      43.120  29.418  28.931  1.00  0.00    -0.248 NA
ATOM     57  C   UNL A   1      41.454  30.861  29.701  1.00  0.00     0.031 C 
ATOM     58  C   UNL A   1      47.420  30.483  28.656  1.00  0.00     0.029 A 
ATOM     59  C   UNL A   1      46.073  30.174  28.753  1.00  0.00     0.049 A 
ATOM     60  H   UNL A   1      45.091  28.351  28.343  1.00  0.00     0.167 HD
ATOM     61  C   UNL A   1      43.690  30.644  29.247  1.00  0.00     0.074 A 
ATOM     62  C   UNL A   1      42.613  31.504  29.692  1.00  0.00     0.031 C 
ATOM     63  C   UNL A   1      44.988  31.024  29.173  1.00  0.00     0.037 A 
BRANCH  50  64
ATOM     64  C   UNL A   1      48.818  26.556  27.297  1.00  0.00     0.057 A 
ATOM     65  C   UNL A   1      49.625  25.978  28.286  1.00  0.00     0.134 A 
ATOM     66  C   UNL A   1      49.366  26.694  26.016  1.00  0.00     0.134 A 
ATOM     67  F   UNL A   1      49.165  25.828  29.537  1.00  0.00    -0.206 F 
ATOM     68  C   UNL A   1      50.935  25.579  28.018  1.00  0.00     0.040 A 
ATOM     69  C   UNL A   1      50.665  26.274  25.728  1.00  0.00     0.040 A 
ATOM     70  F   UNL A   1      48.645  27.233  25.021  1.00  0.00    -0.206 F 
ATOM     71  C   UNL A   1      51.457  25.720  26.733  1.00  0.00     0.006 A 
ENDBRANCH  50  64
BRANCH  51  72
ATOM     72  C   UNL A   1      39.330  28.890  29.313  1.00  0.00     0.057 A 
ATOM     73  C   UNL A   1      38.818  28.657  30.594  1.00  0.00     0.134 A 
ATOM     74  C   UNL A   1      38.466  29.450  28.364  1.00  0.00     0.134 A 
ATOM     75  F   UNL A   1      39.591  28.104  31.540  1.00  0.00    -0.206 F 
ATOM     76  C   UNL A   1      37.493  28.954  30.918  1.00  0.00     0.040 A 
ATOM     77  C   UNL A   1      37.145  29.773  28.681  1.00  0.00     0.040 A 
ATOM     78  F   UNL A   1      38.897  29.703  27.120  1.00  0.00    -0.206 F 
ATOM     79  C   UNL A   1      36.653  29.518  29.960  1.00  0.00     0.006 A 
ENDBRANCH  51  72
BRANCH  63  80
ATOM     80  C   UNL A   1      45.315  32.444  29.528  1.00  0.00     0.057 A 
ATOM     81  C   UNL A   1      45.712  32.813  30.818  1.00  0.00     0.134 A 
ATOM     82  C   UNL A   1      45.289  33.443  28.545  1.00  0.00     0.134 A 
ATOM     83  F   UNL A   1      45.743  31.906  31.805  1.00  0.00    -0.206 F 
ATOM     84  C   UNL A   1      46.057  34.130  31.124  1.00  0.00     0.040 A 
ATOM     85  C   UNL A   1      45.656  34.757  28.833  1.00  0.00     0.040 A 
ATOM     86  F   UNL A   1      44.927  33.152  27.287  1.00  0.00    -0.206 F 
ATOM     87  C   UNL A   1      46.038  35.105  30.127  1.00  0.00     0.006 A 
ENDBRANCH  63  80
ENDBRANCH  37  38
ENDBRANCH  29  32
ENDBRANCH  27  28
ENDBRANCH  26  27
ENDBRANCH   1  26
TORSDOF 14
ENDMDL
MODEL 2
REMARK VINA RESULT:     -12.4      5.514     10.500
REMARK SMILES Cc1cc(F)cc(N[C@H](C(=O)NCCCCNC(=O)c2ccc(-c3c4nc(c(-c5c(F)cccc5F)c5ccc([nH]5)c(-c5c(F)cccc5F)c5nc(c(-c6c(F)cccc6F)c6ccc3[nH]6)C=C5)C=C4)cc2)c2cc(C)cc(C)c2)c1
REMARK SMILES IDX 14 1 13 2 12 3 10 4 11 5 9 7 8 8 7 10 1 11 2 12 3 13 82 14
REMARK SMILES IDX 4 15 5 16 6 17 74 18 75 19 81 20 76 21 79 22 77 23 78 24
REMARK SMILES IDX 80 25 15 26 16 27 17 28 18 29 19 31 20 32 21 33 73 34 22 35
REMARK SMILES IDX 72 36 23 37 24 38 25 39 66 40 26 41 71 42 65 43 67 44 27 45
REMARK SMILES IDX 70 46 64 47 63 48 28 50 54 51 37 52 53 53 38 54 41 55 52 56
REMARK SMILES IDX 68 57 39 58 40 59 51 61 69 62 42 63 29 64 30 65 35 66 31 67
REMARK SMILES IDX 32 68 34 69 36 70 33 71 55 72 56 73 61 74 57 75 58 76 60 77
REMARK SMILES IDX 62 78 59 79 43 80 44 81 49 82 45 83 46 84 48 85 50 86 47 87
REMARK H PARENT 12 6 8 9 17 30 67 49 41 60
REMARK Flexibility Score: inf
ROOT
ATOM      1  C   UNL A   1      31.602  30.810  25.991  1.00  0.00     0.023 C 
ENDROOT
BRANCH   1   2
ATOM      2  C   UNL A   1      32.904  30.048  26.220  1.00  0.00     0.116 C 
BRANCH   2   3
ATOM      3  N   UNL A   1      33.578  29.656  25.000  1.00  0.00    -0.354 N 
ATOM      4  C   UNL A   1      33.189  28.741  24.053  1.00  0.00     0.247 C 
ATOM      5  O   UNL A   1      33.917  28.676  23.055  1.00  0.00    -0.272 OA
ATOM      6  H   UNL A   1      34.435  30.109  24.825  1.00  0.00     0.163 HD
BRANCH   4   7
ATOM      7  C   UNL A   1      32.009  27.748  24.296  1.00  0.00     0.200 C 
BRANCH   7   8
ATOM      8  N   UNL A   1      30.950  27.761  23.256  1.00  0.00    -0.370 N 
ATOM      9  H   UNL A   1      31.119  27.152  22.501  1.00  0.00     0.161 HD
BRANCH   8  10
ATOM     10  C   UNL A   1      29.772  28.473  23.156  1.00  0.00     0.038 A 
ATOM     11  C   UNL A   1      28.778  31.998  22.001  1.00  0.00     0.044 C 
ATOM     12  C   UNL A   1      28.683  30.594  22.514  1.00  0.00    -0.046 A 
ATOM     13  C   UNL A   1      27.433  30.055  22.813  1.00  0.00     0.042 A 
ATOM     14  C   UNL A   1      29.835  29.812  22.723  1.00  0.00     0.029 A 
ATOM     15  C   UNL A   1      27.354  28.741  23.228  1.00  0.00     0.125 A 
ATOM     16  F   UNL A   1      26.157  28.203  23.501  1.00  0.00    -0.207 F 
ATOM     17  C   UNL A   1      28.497  27.956  23.353  1.00  0.00     0.065 A 
ENDBRANCH   8  10
ENDBRANCH   7   8
BRANCH   7  18
ATOM     18  C   UNL A   1      32.391  26.313  24.658  1.00  0.00    -0.016 A 
ATOM     19  C   UNL A   1      31.419  25.374  25.032  1.00  0.00     0.009 A 
ATOM     20  C   UNL A   1      33.742  25.946  24.786  1.00  0.00     0.009 A 
ATOM     21  C   UNL A   1      31.761  24.222  25.742  1.00  0.00    -0.051 A 
ATOM     22  C   UNL A   1      34.105  24.713  25.349  1.00  0.00    -0.051 A 
ATOM     23  C   UNL A   1      30.696  23.484  26.501  1.00  0.00     0.044 C 
ATOM     24  C   UNL A   1      33.108  23.890  25.886  1.00  0.00     0.006 A 
ATOM     25  C   UNL A   1      35.545  24.317  25.480  1.00  0.00     0.044 C 
ENDBRANCH   7  18
ENDBRANCH   4   7
ENDBRANCH   2   3
ENDBRANCH   1   2
BRANCH   1  26
ATOM     26  C   UNL A   1      31.390  32.044  26.869  1.00  0.00     0.023 C 
BRANCH  26  27
ATOM     27  C   UNL A   1      32.647  32.828  27.230  1.00  0.00     0.116 C 
BRANCH  27  28
ATOM     28  N   UNL A   1      32.374  34.203  27.626  1.00  0.00    -0.352 N 
ATOM     29  C   UNL A   1      32.975  34.971  28.597  1.00  0.00     0.251 C 
ATOM     30  H   UNL A   1      31.653  34.649  27.124  1.00  0.00     0.163 HD
ATOM     31  O   UNL A   1      32.528  36.080  28.876  1.00  0.00    -0.269 OA
BRANCH  29  32
ATOM     32  C   UNL A   1      34.142  34.440  29.332  1.00  0.00     0.039 A 
ATOM     33  C   UNL A   1      33.945  33.828  30.573  1.00  0.00     0.014 A 
ATOM     34  C   UNL A   1      35.423  34.517  28.783  1.00  0.00     0.014 A 
ATOM     35  C   UNL A   1      35.019  33.207  31.217  1.00  0.00     0.010 A 
ATOM     36  C   UNL A   1      36.475  33.833  29.386  1.00  0.00     0.010 A 
ATOM     37  C   UNL A   1      36.282  33.162  30.604  1.00  0.00    -0.014 A 
BRANCH  37  38
ATOM     38  C   UNL A   1      37.416  32.411  31.203  1.00  0.00     0.031 A 
ATOM     39  C   UNL A   1      38.048  32.896  32.478  1.00  0.00     0.074 A 
ATOM     40  C   UNL A   1      37.940  31.354  30.552  1.00  0.00     0.049 A 
ATOM     41  N   UNL A   1      39.126  32.468  33.083  1.00  0.00    -0.248 NA
ATOM     42  C   UNL A   1      37.397  34.037  33.144  1.00  0.00     0.031 C 
ATOM     43  C   UNL A   1      37.449  30.808  29.285  1.00  0.00     0.029 A 
ATOM     44  N   UNL A   1      39.020  30.562  30.856  1.00  0.00    -0.354 N 
ATOM     45  C   UNL A   1      39.296  33.300  34.183  1.00  0.00     0.074 A 
ATOM     46  C   UNL A   1      38.238  34.286  34.137  1.00  0.00     0.031 C 
ATOM     47  C   UNL A   1      38.215  29.765  28.929  1.00  0.00     0.029 A 
ATOM     48  C   UNL A   1      39.275  29.592  29.916  1.00  0.00     0.049 A 
ATOM     49  H   UNL A   1      39.561  30.678  31.671  1.00  0.00     0.167 HD
ATOM     50  C   UNL A   1      40.238  33.237  35.154  1.00  0.00     0.037 A 
ATOM     51  C   UNL A   1      40.262  28.677  29.850  1.00  0.00     0.037 A 
ATOM     52  C   UNL A   1      41.270  32.237  35.218  1.00  0.00     0.049 A 
ATOM     53  C   UNL A   1      41.295  28.627  30.941  1.00  0.00     0.074 A 
ATOM     54  C   UNL A   1      42.234  32.053  36.193  1.00  0.00     0.029 A 
ATOM     55  N   UNL A   1      41.472  31.250  34.265  1.00  0.00    -0.354 N 
ATOM     56  N   UNL A   1      41.410  29.383  32.005  1.00  0.00    -0.248 NA
ATOM     57  C   UNL A   1      42.335  27.594  30.824  1.00  0.00     0.031 C 
ATOM     58  C   UNL A   1      43.042  30.977  35.812  1.00  0.00     0.029 A 
ATOM     59  C   UNL A   1      42.554  30.463  34.622  1.00  0.00     0.049 A 
ATOM     60  H   UNL A   1      40.927  31.127  33.453  1.00  0.00     0.167 HD
ATOM     61  C   UNL A   1      42.510  28.898  32.701  1.00  0.00     0.074 A 
ATOM     62  C   UNL A   1      43.025  27.778  31.941  1.00  0.00     0.031 C 
ATOM     63  C   UNL A   1      43.042  29.338  33.866  1.00  0.00     0.037 A 
BRANCH  50  64
ATOM     64  C   UNL A   1      40.189  34.279  36.233  1.00  0.00     0.057 A 
ATOM     65  C   UNL A   1      40.892  35.486  36.126  1.00  0.00     0.134 A 
ATOM     66  C   UNL A   1      39.404  34.087  37.377  1.00  0.00     0.134 A 
ATOM     67  F   UNL A   1      41.671  35.726  35.060  1.00  0.00    -0.206 F 
ATOM     68  C   UNL A   1      40.839  36.453  37.131  1.00  0.00     0.040 A 
ATOM     69  C   UNL A   1      39.322  35.059  38.376  1.00  0.00     0.040 A 
ATOM     70  F   UNL A   1      38.700  32.957  37.540  1.00  0.00    -0.206 F 
ATOM     71  C   UNL A   1      40.047  36.243  38.258  1.00  0.00     0.006 A 
ENDBRANCH  50  64
BRANCH  51  72
ATOM     72  C   UNL A   1      40.310  27.716  28.718  1.00  0.00     0.057 A 
ATOM     73  C   UNL A   1      39.616  26.502  28.777  1.00  0.00     0.134 A 
ATOM     74  C   UNL A   1      41.053  27.980  27.562  1.00  0.00     0.134 A 
ATOM     75  F   UNL A   1      38.903  26.184  29.867  1.00  0.00    -0.206 F 
ATOM     76  C   UNL A   1      39.671  25.577  27.733  1.00  0.00     0.040 A 
ATOM     77  C   UNL A   1      41.098  27.075  26.501  1.00  0.00     0.040 A 
ATOM     78  F   UNL A   1      41.734  29.128  27.442  1.00  0.00    -0.206 F 
ATOM     79  C   UNL A   1      40.412  25.865  26.588  1.00  0.00     0.006 A 
ENDBRANCH  51  72
BRANCH  63  80
ATOM     80  C   UNL A   1      44.210  28.580  34.424  1.00  0.00     0.057 A 
ATOM     81  C   UNL A   1      45.532  28.949  34.151  1.00  0.00     0.134 A 
ATOM     82  C   UNL A   1      44.003  27.502  35.295  1.00  0.00     0.134 A 
ATOM     83  F   UNL A   1      45.795  29.964  33.314  1.00  0.00    -0.206 F 
ATOM     84  C   UNL A   1      46.609  28.263  34.712  1.00  0.00     0.040 A 
ATOM     85  C   UNL A   1      45.072  26.824  35.881  1.00  0.00     0.040 A 
ATOM     86  F   UNL A   1      42.760  27.104  35.603  1.00  0.00    -0.206 F 
ATOM     87  C   UNL A   1      46.380  27.203  35.588  1.00  0.00     0.006 A 
ENDBRANCH  63  80
ENDBRANCH  37  38
ENDBRANCH  29  32
ENDBRANCH  27  28
ENDBRANCH  26  27
ENDBRANCH   1  26
TORSDOF 14
ENDMDL
MODEL 3
REMARK VINA RESULT:     -12.4      1.004      1.889
REMARK SMILES Cc1cc(F)cc(N[C@H](C(=O)NCCCCNC(=O)c2ccc(-c3c4nc(c(-c5c(F)cccc5F)c5ccc([nH]5)c(-c5c(F)cccc5F)c5nc(c(-c6c(F)cccc6F)c6ccc3[nH]6)C=C5)C=C4)cc2)c2cc(C)cc(C)c2)c1
REMARK SMILES IDX 14 1 13 2 12 3 10 4 11 5 9 7 8 8 7 10 1 11 2 12 3 13 82 14
REMARK SMILES IDX 4 15 5 16 6 17 74 18 75 19 81 20 76 21 79 22 77 23 78 24
REMARK SMILES IDX 80 25 15 26 16 27 17 28 18 29 19 31 20 32 21 33 73 34 22 35
REMARK SMILES IDX 72 36 23 37 24 38 25 39 66 40 26 41 71 42 65 43 67 44 27 45
REMARK SMILES IDX 70 46 64 47 63 48 28 50 54 51 37 52 53 53 38 54 41 55 52 56
REMARK SMILES IDX 68 57 39 58 40 59 51 61 69 62 42 63 29 64 30 65 35 66 31 67
REMARK SMILES IDX 32 68 34 69 36 70 33 71 55 72 56 73 61 74 57 75 58 76 60 77
REMARK SMILES IDX 62 78 59 79 43 80 44 81 49 82 45 83 46 84 48 85 50 86 47 87
REMARK H PARENT 12 6 8 9 17 30 67 49 41 60
REMARK Flexibility Score: inf
ROOT
ATOM      1  C   UNL A   1      37.249  21.052  24.482  1.00  0.00     0.023 C 
ENDROOT
BRANCH   1   2
ATOM      2  C   UNL A   1      37.244  22.262  25.411  1.00  0.00     0.116 C 
BRANCH   2   3
ATOM      3  N   UNL A   1      36.266  22.183  26.475  1.00  0.00    -0.354 N 
ATOM      4  C   UNL A   1      34.906  22.010  26.389  1.00  0.00     0.247 C 
ATOM      5  O   UNL A   1      34.323  21.881  27.472  1.00  0.00    -0.272 OA
ATOM      6  H   UNL A   1      36.626  22.264  27.388  1.00  0.00     0.163 HD
BRANCH   4   7
ATOM      7  C   UNL A   1      34.141  22.131  25.034  1.00  0.00     0.200 C 
BRANCH   7   8
ATOM      8  N   UNL A   1      33.104  21.094  24.800  1.00  0.00    -0.370 N 
ATOM      9  H   UNL A   1      32.212  21.333  25.141  1.00  0.00     0.161 HD
BRANCH   8  10
ATOM     10  C   UNL A   1      33.167  19.857  24.193  1.00  0.00     0.038 A 
ATOM     11  C   UNL A   1      35.020  16.558  24.857  1.00  0.00     0.044 C 
ATOM     12  C   UNL A   1      34.119  17.578  24.230  1.00  0.00    -0.046 A 
ATOM     13  C   UNL A   1      33.356  17.230  23.118  1.00  0.00     0.042 A 
ATOM     14  C   UNL A   1      34.043  18.893  24.731  1.00  0.00     0.029 A 
ATOM     15  C   UNL A   1      32.485  18.160  22.587  1.00  0.00     0.125 A 
ATOM     16  F   UNL A   1      31.731  17.833  21.528  1.00  0.00    -0.207 F 
ATOM     17  C   UNL A   1      32.364  19.431  23.143  1.00  0.00     0.065 A 
ENDBRANCH   8  10
ENDBRANCH   7   8
BRANCH   7  18
ATOM     18  C   UNL A   1      33.605  23.518  24.676  1.00  0.00    -0.016 A 
ATOM     19  C   UNL A   1      33.038  23.777  23.421  1.00  0.00     0.009 A 
ATOM     20  C   UNL A   1      33.819  24.608  25.538  1.00  0.00     0.009 A 
ATOM     21  C   UNL A   1      32.925  25.080  22.932  1.00  0.00    -0.051 A 
ATOM     22  C   UNL A   1      33.553  25.921  25.120  1.00  0.00    -0.051 A 
ATOM     23  C   UNL A   1      32.742  25.297  21.457  1.00  0.00     0.044 C 
ATOM     24  C   UNL A   1      33.172  26.149  23.792  1.00  0.00     0.006 A 
ATOM     25  C   UNL A   1      33.774  27.085  26.039  1.00  0.00     0.044 C 
ENDBRANCH   7  18
ENDBRANCH   4   7
ENDBRANCH   2   3
ENDBRANCH   1   2
BRANCH   1  26
ATOM     26  C   UNL A   1      38.080  19.856  24.950  1.00  0.00     0.023 C 
BRANCH  26  27
ATOM     27  C   UNL A   1      39.210  20.172  25.924  1.00  0.00     0.116 C 
BRANCH  27  28
ATOM     28  N   UNL A   1      40.267  19.170  25.924  1.00  0.00    -0.352 N 
ATOM     29  C   UNL A   1      41.616  19.319  26.150  1.00  0.00     0.251 C 
ATOM     30  H   UNL A   1      39.972  18.249  25.736  1.00  0.00     0.163 HD
ATOM     31  O   UNL A   1      42.381  18.372  25.988  1.00  0.00    -0.269 OA
BRANCH  29  32
ATOM     32  C   UNL A   1      42.150  20.637  26.552  1.00  0.00     0.039 A 
ATOM     33  C   UNL A   1      42.664  21.492  25.574  1.00  0.00     0.014 A 
ATOM     34  C   UNL A   1      42.112  21.041  27.888  1.00  0.00     0.014 A 
ATOM     35  C   UNL A   1      43.051  22.789  25.921  1.00  0.00     0.010 A 
ATOM     36  C   UNL A   1      42.424  22.357  28.220  1.00  0.00     0.010 A 
ATOM     37  C   UNL A   1      42.886  23.248  27.239  1.00  0.00    -0.014 A 
BRANCH  37  38
ATOM     38  C   UNL A   1      43.175  24.655  27.619  1.00  0.00     0.031 A 
ATOM     39  C   UNL A   1      44.596  25.098  27.832  1.00  0.00     0.074 A 
ATOM     40  C   UNL A   1      42.161  25.505  27.870  1.00  0.00     0.049 A 
ATOM     41  N   UNL A   1      45.048  26.234  28.298  1.00  0.00    -0.248 NA
ATOM     42  C   UNL A   1      45.648  24.120  27.507  1.00  0.00     0.031 C 
ATOM     43  C   UNL A   1      40.737  25.189  27.744  1.00  0.00     0.029 A 
ATOM     44  N   UNL A   1      42.172  26.808  28.305  1.00  0.00    -0.354 N 
ATOM     45  C   UNL A   1      46.430  26.098  28.346  1.00  0.00     0.074 A 
ATOM     46  C   UNL A   1      46.740  24.755  27.906  1.00  0.00     0.031 C 
ATOM     47  C   UNL A   1      40.014  26.268  28.080  1.00  0.00     0.029 A 
ATOM     48  C   UNL A   1      40.917  27.341  28.486  1.00  0.00     0.049 A 
ATOM     49  H   UNL A   1      43.001  27.313  28.473  1.00  0.00     0.167 HD
ATOM     50  C   UNL A   1      47.359  27.016  28.707  1.00  0.00     0.037 A 
ATOM     51  C   UNL A   1      40.539  28.550  28.942  1.00  0.00     0.037 A 
ATOM     52  C   UNL A   1      47.053  28.362  29.113  1.00  0.00     0.049 A 
ATOM     53  C   UNL A   1      41.589  29.551  29.335  1.00  0.00     0.074 A 
ATOM     54  C   UNL A   1      47.927  29.384  29.440  1.00  0.00     0.029 A 
ATOM     55  N   UNL A   1      45.771  28.872  29.247  1.00  0.00    -0.354 N 
ATOM     56  N   UNL A   1      42.893  29.429  29.320  1.00  0.00    -0.248 NA
ATOM     57  C   UNL A   1      41.115  30.862  29.805  1.00  0.00     0.031 C 
ATOM     58  C   UNL A   1      47.173  30.503  29.808  1.00  0.00     0.029 A 
ATOM     59  C   UNL A   1      45.830  30.191  29.666  1.00  0.00     0.049 A 
ATOM     60  H   UNL A   1      44.941  28.372  29.072  1.00  0.00     0.167 HD
ATOM     61  C   UNL A   1      43.396  30.653  29.744  1.00  0.00     0.074 A 
ATOM     62  C   UNL A   1      42.256  31.506  30.004  1.00  0.00     0.031 C 
ATOM     63  C   UNL A   1      44.686  31.034  29.900  1.00  0.00     0.037 A 
BRANCH  50  64
ATOM     64  C   UNL A   1      48.799  26.593  28.670  1.00  0.00     0.057 A 
ATOM     65  C   UNL A   1      49.565  26.685  27.501  1.00  0.00     0.134 A 
ATOM     66  C   UNL A   1      49.434  26.119  29.824  1.00  0.00     0.134 A 
ATOM     67  F   UNL A   1      49.013  27.120  26.359  1.00  0.00    -0.206 F 
ATOM     68  C   UNL A   1      50.905  26.293  27.474  1.00  0.00     0.040 A 
ATOM     69  C   UNL A   1      50.780  25.749  29.817  1.00  0.00     0.040 A 
ATOM     70  F   UNL A   1      48.760  26.012  30.980  1.00  0.00    -0.206 F 
ATOM     71  C   UNL A   1      51.518  25.829  28.637  1.00  0.00     0.006 A 
ENDBRANCH  50  64
BRANCH  51  72
ATOM     72  C   UNL A   1      39.096  28.892  29.032  1.00  0.00     0.057 A 
ATOM     73  C   UNL A   1      38.412  29.416  27.929  1.00  0.00     0.134 A 
ATOM     74  C   UNL A   1      38.372  28.714  30.216  1.00  0.00     0.134 A 
ATOM     75  F   UNL A   1      39.057  29.629  26.773  1.00  0.00    -0.206 F 
ATOM     76  C   UNL A   1      37.063  29.767  28.005  1.00  0.00     0.040 A 
ATOM     77  C   UNL A   1      37.017  29.038  30.299  1.00  0.00     0.040 A 
ATOM     78  F   UNL A   1      38.968  28.210  31.306  1.00  0.00    -0.206 F 
ATOM     79  C   UNL A   1      36.360  29.574  29.192  1.00  0.00     0.006 A 
ENDBRANCH  51  72
BRANCH  63  80
ATOM     80  C   UNL A   1      44.942  32.451  30.322  1.00  0.00     0.057 A 
ATOM     81  C   UNL A   1      45.042  33.494  29.394  1.00  0.00     0.134 A 
ATOM     82  C   UNL A   1      45.029  32.780  31.682  1.00  0.00     0.134 A 
ATOM     83  F   UNL A   1      44.981  33.242  28.079  1.00  0.00    -0.206 F 
ATOM     84  C   UNL A   1      45.235  34.814  29.803  1.00  0.00     0.040 A 
ATOM     85  C   UNL A   1      45.197  34.099  32.102  1.00  0.00     0.040 A 
ATOM     86  F   UNL A   1      44.932  31.827  32.620  1.00  0.00    -0.206 F 
ATOM     87  C   UNL A   1      45.304  35.121  31.161  1.00  0.00     0.006 A 
ENDBRANCH  63  80
ENDBRANCH  37  38
ENDBRANCH  29  32
ENDBRANCH  27  28
ENDBRANCH  26  27
ENDBRANCH   1  26
TORSDOF 14
ENDMDL
