MODEL 1
REMARK VINA RESULT:     -12.4      0.000      0.000
REMARK SMILES O=C(Cn1cnc(-c2ccccc2)c1-c1ccccc1)NCCCCNC(=O)c1ccc(-c2c3nc(c(-c4c(F)cccc4F)c4ccc([nH]4)c(-c4c(F)cccc4F)c4nc(c(-c5c(F)cccc5F)c5ccc2[nH]5)C=C4)C=C3)cc1
REMARK SMILES IDX 23 1 22 2 21 3 1 4 2 5 3 7 4 8 5 9 14 10 6 11 7 12 15 13
REMARK SMILES IDX 16 14 20 15 17 16 19 17 18 18 8 19 9 20 13 21 10 22 12 23
REMARK SMILES IDX 11 24 24 25 25 26 26 27 27 28 28 30 29 31 30 32 82 33 31 34
REMARK SMILES IDX 81 35 32 36 33 37 34 38 75 39 35 40 80 41 74 42 76 43 36 44
REMARK SMILES IDX 79 45 73 46 72 47 37 49 63 50 46 51 62 52 47 53 50 54 61 55
REMARK SMILES IDX 77 56 48 57 49 58 60 60 78 61 51 62 38 63 39 64 44 65 40 66
REMARK SMILES IDX 41 67 43 68 45 69 42 70 64 71 65 72 70 73 66 74 67 75 69 76
REMARK SMILES IDX 71 77 68 78 52 79 53 80 58 81 54 82 55 83 57 84 59 85 56 86
REMARK H PARENT 21 6 26 29 76 48 50 59
REMARK Flexibility Score: inf
ROOT
ATOM      1  C   UNL A   1      36.449  20.287  25.054  1.00  0.00     0.023 C 
ENDROOT
BRANCH   1   2
ATOM      2  C   UNL A   1      36.467  21.720  25.605  1.00  0.00     0.116 C 
BRANCH   2   3
ATOM      3  N   UNL A   1      35.148  22.198  25.986  1.00  0.00    -0.355 N 
ATOM      4  O   UNL A   1      35.186  24.085  24.671  1.00  0.00    -0.273 OA
ATOM      5  C   UNL A   1      34.598  23.358  25.466  1.00  0.00     0.239 C 
ATOM      6  H   UNL A   1      34.627  21.677  26.638  1.00  0.00     0.163 HD
BRANCH   5   7
ATOM      7  C   UNL A   1      33.202  23.684  25.964  1.00  0.00     0.223 C 
BRANCH   7   8
ATOM      8  N   UNL A   1      32.315  24.272  24.967  1.00  0.00    -0.321 N 
ATOM      9  C   UNL A   1      31.627  23.590  23.998  1.00  0.00     0.201 A 
ATOM     10  C   UNL A   1      31.891  25.591  24.925  1.00  0.00     0.076 A 
ATOM     11  N   UNL A   1      30.751  24.350  23.388  1.00  0.00    -0.236 NA
ATOM     12  C   UNL A   1      30.931  25.599  23.919  1.00  0.00     0.096 A 
BRANCH  10  13
ATOM     13  C   UNL A   1      32.353  26.684  25.780  1.00  0.00     0.000 A 
ATOM     14  C   UNL A   1      31.485  27.248  26.727  1.00  0.00     0.010 A 
ATOM     15  C   UNL A   1      33.613  27.264  25.589  1.00  0.00     0.010 A 
ATOM     16  C   UNL A   1      31.862  28.377  27.457  1.00  0.00     0.001 A 
ATOM     17  C   UNL A   1      33.995  28.385  26.328  1.00  0.00     0.001 A 
ATOM     18  C   UNL A   1      33.118  28.946  27.256  1.00  0.00     0.000 A 
ENDBRANCH  10  13
BRANCH  12  19
ATOM     19  C   UNL A   1      30.186  26.758  23.467  1.00  0.00     0.002 A 
ATOM     20  C   UNL A   1      28.818  26.862  23.739  1.00  0.00     0.010 A 
ATOM     21  C   UNL A   1      30.831  27.792  22.776  1.00  0.00     0.010 A 
ATOM     22  C   UNL A   1      28.111  28.003  23.352  1.00  0.00     0.001 A 
ATOM     23  C   UNL A   1      30.121  28.927  22.383  1.00  0.00     0.001 A 
ATOM     24  C   UNL A   1      28.764  29.034  22.677  1.00  0.00     0.000 A 
ENDBRANCH  12  19
ENDBRANCH   7   8
ENDBRANCH   5   7
ENDBRANCH   2   3
ENDBRANCH   1   2
BRANCH   1  25
ATOM     25  C   UNL A   1      37.809  19.662  24.703  1.00  0.00     0.023 C 
BRANCH  25  26
ATOM     26  C   UNL A   1      38.954  20.097  25.600  1.00  0.00     0.116 C 
BRANCH  26  27
ATOM     27  N   UNL A   1      40.016  19.094  25.763  1.00  0.00    -0.352 N 
ATOM     28  C   UNL A   1      41.380  19.315  25.957  1.00  0.00     0.251 C 
ATOM     29  H   UNL A   1      39.730  18.152  25.731  1.00  0.00     0.163 HD
ATOM     30  O   UNL A   1      42.208  18.453  25.730  1.00  0.00    -0.269 OA
BRANCH  28  31
ATOM     31  C   UNL A   1      41.790  20.636  26.473  1.00  0.00     0.039 A 
ATOM     32  C   UNL A   1      42.356  21.649  25.695  1.00  0.00     0.014 A 
ATOM     33  C   UNL A   1      41.509  20.854  27.811  1.00  0.00     0.014 A 
ATOM     34  C   UNL A   1      42.575  22.893  26.294  1.00  0.00     0.010 A 
ATOM     35  C   UNL A   1      41.373  22.127  28.254  1.00  0.00     0.010 A 
ATOM     36  C   UNL A   1      42.071  23.112  27.584  1.00  0.00    -0.014 A 
BRANCH  36  37
ATOM     37  C   UNL A   1      42.229  24.348  28.327  1.00  0.00     0.031 A 
ATOM     38  C   UNL A   1      41.100  25.292  28.216  1.00  0.00     0.074 A 
ATOM     39  C   UNL A   1      43.215  24.506  29.242  1.00  0.00     0.049 A 
ATOM     40  N   UNL A   1      41.085  26.409  27.573  1.00  0.00    -0.248 NA
ATOM     41  C   UNL A   1      39.792  24.890  28.753  1.00  0.00     0.031 C 
ATOM     42  C   UNL A   1      44.237  23.548  29.700  1.00  0.00     0.029 A 
ATOM     43  N   UNL A   1      43.454  25.580  30.035  1.00  0.00    -0.354 N 
ATOM     44  C   UNL A   1      39.829  26.960  27.794  1.00  0.00     0.074 A 
ATOM     45  C   UNL A   1      39.023  25.908  28.358  1.00  0.00     0.031 C 
ATOM     46  C   UNL A   1      44.827  24.008  30.825  1.00  0.00     0.029 A 
ATOM     47  C   UNL A   1      44.362  25.360  31.064  1.00  0.00     0.049 A 
ATOM     48  H   UNL A   1      43.017  26.451  29.893  1.00  0.00     0.167 HD
ATOM     49  C   UNL A   1      39.633  28.304  27.709  1.00  0.00     0.037 A 
ATOM     50  C   UNL A   1      44.694  26.238  32.042  1.00  0.00     0.037 A 
ATOM     51  C   UNL A   1      40.769  28.959  27.105  1.00  0.00     0.049 A 
ATOM     52  C   UNL A   1      44.332  27.590  31.542  1.00  0.00     0.074 A 
ATOM     53  C   UNL A   1      41.395  28.875  25.876  1.00  0.00     0.029 A 
ATOM     54  N   UNL A   1      41.683  29.547  27.949  1.00  0.00    -0.354 N 
ATOM     55  N   UNL A   1      44.937  28.165  30.538  1.00  0.00    -0.248 NA
ATOM     56  C   UNL A   1      42.983  28.070  31.813  1.00  0.00     0.031 C 
ATOM     57  C   UNL A   1      42.790  28.948  26.169  1.00  0.00     0.029 A 
ATOM     58  C   UNL A   1      42.932  29.146  27.543  1.00  0.00     0.049 A 
ATOM     59  H   UNL A   1      41.479  30.146  28.704  1.00  0.00     0.167 HD
ATOM     60  C   UNL A   1      43.921  28.752  29.796  1.00  0.00     0.074 A 
ATOM     61  C   UNL A   1      42.748  28.724  30.671  1.00  0.00     0.031 C 
ATOM     62  C   UNL A   1      44.039  28.929  28.446  1.00  0.00     0.037 A 
BRANCH  49  63
ATOM     63  C   UNL A   1      38.601  29.075  28.486  1.00  0.00     0.057 A 
ATOM     64  C   UNL A   1      38.572  28.953  29.887  1.00  0.00     0.134 A 
ATOM     65  C   UNL A   1      37.472  29.686  27.910  1.00  0.00     0.134 A 
ATOM     66  F   UNL A   1      39.590  28.384  30.550  1.00  0.00    -0.206 F 
ATOM     67  C   UNL A   1      37.463  29.338  30.648  1.00  0.00     0.040 A 
ATOM     68  C   UNL A   1      36.380  30.121  28.666  1.00  0.00     0.040 A 
ATOM     69  F   UNL A   1      37.316  29.802  26.586  1.00  0.00    -0.206 F 
ATOM     70  C   UNL A   1      36.358  29.915  30.036  1.00  0.00     0.006 A 
ENDBRANCH  49  63
BRANCH  50  71
ATOM     71  C   UNL A   1      45.003  25.956  33.462  1.00  0.00     0.057 A 
ATOM     72  C   UNL A   1      43.996  25.665  34.392  1.00  0.00     0.134 A 
ATOM     73  C   UNL A   1      46.320  25.695  33.879  1.00  0.00     0.134 A 
ATOM     74  F   UNL A   1      42.705  25.845  34.074  1.00  0.00    -0.206 F 
ATOM     75  C   UNL A   1      44.280  25.120  35.653  1.00  0.00     0.040 A 
ATOM     76  C   UNL A   1      46.619  25.149  35.131  1.00  0.00     0.040 A 
ATOM     77  F   UNL A   1      47.355  25.886  33.049  1.00  0.00    -0.206 F 
ATOM     78  C   UNL A   1      45.595  24.847  36.020  1.00  0.00     0.006 A 
ENDBRANCH  50  71
BRANCH  62  79
ATOM     79  C   UNL A   1      45.378  28.637  27.818  1.00  0.00     0.057 A 
ATOM     80  C   UNL A   1      45.721  27.399  27.251  1.00  0.00     0.134 A 
ATOM     81  C   UNL A   1      46.290  29.678  27.639  1.00  0.00     0.134 A 
ATOM     82  F   UNL A   1      44.871  26.369  27.271  1.00  0.00    -0.206 F 
ATOM     83  C   UNL A   1      46.931  27.194  26.581  1.00  0.00     0.040 A 
ATOM     84  C   UNL A   1      47.491  29.497  26.946  1.00  0.00     0.040 A 
ATOM     85  F   UNL A   1      46.006  30.908  28.093  1.00  0.00    -0.206 F 
ATOM     86  C   UNL A   1      47.821  28.248  26.423  1.00  0.00     0.006 A 
ENDBRANCH  62  79
ENDBRANCH  36  37
ENDBRANCH  28  31
ENDBRANCH  26  27
ENDBRANCH  25  26
ENDBRANCH   1  25
TORSDOF 14
ENDMDL
MODEL 2
REMARK VINA RESULT:     -12.0      1.182      2.219
REMARK SMILES O=C(Cn1cnc(-c2ccccc2)c1-c1ccccc1)NCCCCNC(=O)c1ccc(-c2c3nc(c(-c4c(F)cccc4F)c4ccc([nH]4)c(-c4c(F)cccc4F)c4nc(c(-c5c(F)cccc5F)c5ccc2[nH]5)C=C4)C=C3)cc1
REMARK SMILES IDX 23 1 22 2 21 3 1 4 2 5 3 7 4 8 5 9 14 10 6 11 7 12 15 13
REMARK SMILES IDX 16 14 20 15 17 16 19 17 18 18 8 19 9 20 13 21 10 22 12 23
REMARK SMILES IDX 11 24 24 25 25 26 26 27 27 28 28 30 29 31 30 32 82 33 31 34
REMARK SMILES IDX 81 35 32 36 33 37 34 38 75 39 35 40 80 41 74 42 76 43 36 44
REMARK SMILES IDX 79 45 73 46 72 47 37 49 63 50 46 51 62 52 47 53 50 54 61 55
REMARK SMILES IDX 77 56 48 57 49 58 60 60 78 61 51 62 38 63 39 64 44 65 40 66
REMARK SMILES IDX 41 67 43 68 45 69 42 70 64 71 65 72 70 73 66 74 67 75 69 76
REMARK SMILES IDX 71 77 68 78 52 79 53 80 58 81 54 82 55 83 57 84 59 85 56 86
REMARK H PARENT 21 6 26 29 76 48 50 59
REMARK Flexibility Score: inf
ROOT
ATOM      1  C   UNL A   1      36.373  20.871  24.773  1.00  0.00     0.023 C 
ENDROOT
BRANCH   1   2
ATOM      2  C   UNL A   1      34.981  20.268  25.006  1.00  0.00     0.116 C 
BRANCH   2   3
ATOM      3  N   UNL A   1      33.904  21.202  24.724  1.00  0.00    -0.355 N 
ATOM      4  O   UNL A   1      32.189  19.746  25.202  1.00  0.00    -0.273 OA
ATOM      5  C   UNL A   1      32.568  20.862  24.862  1.00  0.00     0.239 C 
ATOM      6  H   UNL A   1      34.132  22.111  24.423  1.00  0.00     0.163 HD
BRANCH   5   7
ATOM      7  C   UNL A   1      31.587  21.976  24.543  1.00  0.00     0.223 C 
BRANCH   7   8
ATOM      8  N   UNL A   1      31.641  23.119  25.447  1.00  0.00    -0.321 N 
ATOM      9  C   UNL A   1      31.533  23.073  26.812  1.00  0.00     0.201 A 
ATOM     10  C   UNL A   1      31.968  24.422  25.102  1.00  0.00     0.076 A 
ATOM     11  N   UNL A   1      31.830  24.221  27.369  1.00  0.00    -0.236 NA
ATOM     12  C   UNL A   1      32.060  25.076  26.326  1.00  0.00     0.096 A 
BRANCH  10  13
ATOM     13  C   UNL A   1      32.186  24.938  23.751  1.00  0.00     0.000 A 
ATOM     14  C   UNL A   1      33.455  24.844  23.161  1.00  0.00     0.010 A 
ATOM     15  C   UNL A   1      31.177  25.637  23.077  1.00  0.00     0.010 A 
ATOM     16  C   UNL A   1      33.715  25.449  21.930  1.00  0.00     0.001 A 
ATOM     17  C   UNL A   1      31.435  26.232  21.840  1.00  0.00     0.001 A 
ATOM     18  C   UNL A   1      32.704  26.144  21.270  1.00  0.00     0.000 A 
ENDBRANCH  10  13
BRANCH  12  19
ATOM     19  C   UNL A   1      32.367  26.480  26.515  1.00  0.00     0.002 A 
ATOM     20  C   UNL A   1      31.395  27.347  27.025  1.00  0.00     0.010 A 
ATOM     21  C   UNL A   1      33.641  26.976  26.213  1.00  0.00     0.010 A 
ATOM     22  C   UNL A   1      31.706  28.689  27.260  1.00  0.00     0.001 A 
ATOM     23  C   UNL A   1      33.947  28.318  26.440  1.00  0.00     0.001 A 
ATOM     24  C   UNL A   1      32.982  29.171  26.969  1.00  0.00     0.000 A 
ENDBRANCH  12  19
ENDBRANCH   7   8
ENDBRANCH   5   7
ENDBRANCH   2   3
ENDBRANCH   1   2
BRANCH   1  25
ATOM     25  C   UNL A   1      37.555  19.890  24.726  1.00  0.00     0.023 C 
BRANCH  25  26
ATOM     26  C   UNL A   1      38.728  20.271  25.613  1.00  0.00     0.116 C 
BRANCH  26  27
ATOM     27  N   UNL A   1      39.756  19.230  25.744  1.00  0.00    -0.352 N 
ATOM     28  C   UNL A   1      41.130  19.401  25.922  1.00  0.00     0.251 C 
ATOM     29  H   UNL A   1      39.438  18.299  25.701  1.00  0.00     0.163 HD
ATOM     30  O   UNL A   1      41.925  18.515  25.669  1.00  0.00    -0.269 OA
BRANCH  28  31
ATOM     31  C   UNL A   1      41.593  20.698  26.454  1.00  0.00     0.039 A 
ATOM     32  C   UNL A   1      42.232  21.683  25.695  1.00  0.00     0.014 A 
ATOM     33  C   UNL A   1      41.284  20.928  27.783  1.00  0.00     0.014 A 
ATOM     34  C   UNL A   1      42.496  22.912  26.304  1.00  0.00     0.010 A 
ATOM     35  C   UNL A   1      41.202  22.206  28.226  1.00  0.00     0.010 A 
ATOM     36  C   UNL A   1      41.968  23.155  27.580  1.00  0.00    -0.014 A 
BRANCH  36  37
ATOM     37  C   UNL A   1      42.168  24.379  28.331  1.00  0.00     0.031 A 
ATOM     38  C   UNL A   1      41.073  25.363  28.225  1.00  0.00     0.074 A 
ATOM     39  C   UNL A   1      43.158  24.497  29.248  1.00  0.00     0.049 A 
ATOM     40  N   UNL A   1      41.097  26.484  27.590  1.00  0.00    -0.248 NA
ATOM     41  C   UNL A   1      39.750  25.003  28.757  1.00  0.00     0.031 C 
ATOM     42  C   UNL A   1      44.144  23.501  29.701  1.00  0.00     0.029 A 
ATOM     43  N   UNL A   1      43.432  25.557  30.049  1.00  0.00    -0.354 N 
ATOM     44  C   UNL A   1      39.862  27.077  27.812  1.00  0.00     0.074 A 
ATOM     45  C   UNL A   1      39.018  26.050  28.368  1.00  0.00     0.031 C 
ATOM     46  C   UNL A   1      44.749  23.933  30.830  1.00  0.00     0.029 A 
ATOM     47  C   UNL A   1      44.331  25.299  31.078  1.00  0.00     0.049 A 
ATOM     48  H   UNL A   1      43.026  26.443  29.911  1.00  0.00     0.167 HD
ATOM     49  C   UNL A   1      39.712  28.427  27.736  1.00  0.00     0.037 A 
ATOM     50  C   UNL A   1      44.692  26.158  32.061  1.00  0.00     0.037 A 
ATOM     51  C   UNL A   1      40.871  29.046  27.138  1.00  0.00     0.049 A 
ATOM     52  C   UNL A   1      44.377  27.525  31.570  1.00  0.00     0.074 A 
ATOM     53  C   UNL A   1      41.495  28.949  25.909  1.00  0.00     0.029 A 
ATOM     54  N   UNL A   1      41.804  29.597  27.986  1.00  0.00    -0.354 N 
ATOM     55  N   UNL A   1      45.004  28.085  30.571  1.00  0.00    -0.248 NA
ATOM     56  C   UNL A   1      43.046  28.050  31.842  1.00  0.00     0.031 C 
ATOM     57  C   UNL A   1      42.892  28.971  26.204  1.00  0.00     0.029 A 
ATOM     58  C   UNL A   1      43.039  29.155  27.579  1.00  0.00     0.049 A 
ATOM     59  H   UNL A   1      41.620  30.197  28.745  1.00  0.00     0.167 HD
ATOM     60  C   UNL A   1      44.010  28.713  29.831  1.00  0.00     0.074 A 
ATOM     61  C   UNL A   1      42.835  28.720  30.705  1.00  0.00     0.031 C 
ATOM     62  C   UNL A   1      44.136  28.894  28.482  1.00  0.00     0.037 A 
BRANCH  49  63
ATOM     63  C   UNL A   1      38.707  29.229  28.517  1.00  0.00     0.057 A 
ATOM     64  C   UNL A   1      38.721  29.157  29.921  1.00  0.00     0.134 A 
ATOM     65  C   UNL A   1      37.561  29.823  27.954  1.00  0.00     0.134 A 
ATOM     66  F   UNL A   1      39.758  28.608  30.572  1.00  0.00    -0.206 F 
ATOM     67  C   UNL A   1      37.637  29.572  30.702  1.00  0.00     0.040 A 
ATOM     68  C   UNL A   1      36.495  30.288  28.728  1.00  0.00     0.040 A 
ATOM     69  F   UNL A   1      37.365  29.893  26.632  1.00  0.00    -0.206 F 
ATOM     70  C   UNL A   1      36.514  30.131  30.104  1.00  0.00     0.006 A 
ENDBRANCH  49  63
BRANCH  50  71
ATOM     71  C   UNL A   1      44.988  25.856  33.480  1.00  0.00     0.057 A 
ATOM     72  C   UNL A   1      43.971  25.583  34.404  1.00  0.00     0.134 A 
ATOM     73  C   UNL A   1      46.297  25.559  33.899  1.00  0.00     0.134 A 
ATOM     74  F   UNL A   1      42.687  25.797  34.083  1.00  0.00    -0.206 F 
ATOM     75  C   UNL A   1      44.237  25.021  35.661  1.00  0.00     0.040 A 
ATOM     76  C   UNL A   1      46.577  24.995  35.147  1.00  0.00     0.040 A 
ATOM     77  F   UNL A   1      47.339  25.731  33.075  1.00  0.00    -0.206 F 
ATOM     78  C   UNL A   1      45.543  24.712  36.031  1.00  0.00     0.006 A 
ENDBRANCH  50  71
BRANCH  62  79
ATOM     79  C   UNL A   1      45.465  28.559  27.854  1.00  0.00     0.057 A 
ATOM     80  C   UNL A   1      45.767  27.312  27.282  1.00  0.00     0.134 A 
ATOM     81  C   UNL A   1      46.412  29.570  27.680  1.00  0.00     0.134 A 
ATOM     82  F   UNL A   1      44.882  26.312  27.297  1.00  0.00    -0.206 F 
ATOM     83  C   UNL A   1      46.970  27.070  26.612  1.00  0.00     0.040 A 
ATOM     84  C   UNL A   1      47.607  29.352  26.987  1.00  0.00     0.040 A 
ATOM     85  F   UNL A   1      46.169  30.807  28.140  1.00  0.00    -0.206 F 
ATOM     86  C   UNL A   1      47.894  28.094  26.460  1.00  0.00     0.006 A 
ENDBRANCH  62  79
ENDBRANCH  36  37
ENDBRANCH  28  31
ENDBRANCH  26  27
ENDBRANCH  25  26
ENDBRANCH   1  25
TORSDOF 14
ENDMDL
MODEL 3
REMARK VINA RESULT:     -11.9      4.069      8.980
REMARK SMILES O=C(Cn1cnc(-c2ccccc2)c1-c1ccccc1)NCCCCNC(=O)c1ccc(-c2c3nc(c(-c4c(F)cccc4F)c4ccc([nH]4)c(-c4c(F)cccc4F)c4nc(c(-c5c(F)cccc5F)c5ccc2[nH]5)C=C4)C=C3)cc1
REMARK SMILES IDX 23 1 22 2 21 3 1 4 2 5 3 7 4 8 5 9 14 10 6 11 7 12 15 13
REMARK SMILES IDX 16 14 20 15 17 16 19 17 18 18 8 19 9 20 13 21 10 22 12 23
REMARK SMILES IDX 11 24 24 25 25 26 26 27 27 28 28 30 29 31 30 32 82 33 31 34
REMARK SMILES IDX 81 35 32 36 33 37 34 38 75 39 35 40 80 41 74 42 76 43 36 44
REMARK SMILES IDX 79 45 73 46 72 47 37 49 63 50 46 51 62 52 47 53 50 54 61 55
REMARK SMILES IDX 77 56 48 57 49 58 60 60 78 61 51 62 38 63 39 64 44 65 40 66
REMARK SMILES IDX 41 67 43 68 45 69 42 70 64 71 65 72 70 73 66 74 67 75 69 76
REMARK SMILES IDX 71 77 68 78 52 79 53 80 58 81 54 82 55 83 57 84 59 85 56 86
REMARK H PARENT 21 6 26 29 76 48 50 59
REMARK Flexibility Score: inf
ROOT
ATOM      1  C   UNL A   1      31.608  30.571  25.721  1.00  0.00     0.023 C 
ENDROOT
BRANCH   1   2
ATOM      2  C   UNL A   1      32.920  29.819  25.986  1.00  0.00     0.116 C 
BRANCH   2   3
ATOM      3  N   UNL A   1      33.207  28.810  24.980  1.00  0.00    -0.355 N 
ATOM      4  O   UNL A   1      32.927  26.998  26.369  1.00  0.00    -0.273 OA
ATOM      5  C   UNL A   1      33.172  27.452  25.255  1.00  0.00     0.239 C 
ATOM      6  H   UNL A   1      33.436  29.102  24.068  1.00  0.00     0.163 HD
BRANCH   5   7
ATOM      7  C   UNL A   1      33.478  26.551  24.074  1.00  0.00     0.223 C 
BRANCH   7   8
ATOM      8  N   UNL A   1      32.745  25.291  24.056  1.00  0.00    -0.321 N 
ATOM      9  C   UNL A   1      31.411  25.138  23.791  1.00  0.00     0.201 A 
ATOM     10  C   UNL A   1      33.297  24.021  24.146  1.00  0.00     0.076 A 
ATOM     11  N   UNL A   1      31.078  23.880  23.637  1.00  0.00    -0.236 NA
ATOM     12  C   UNL A   1      32.222  23.174  23.895  1.00  0.00     0.096 A 
BRANCH  10  13
ATOM     13  C   UNL A   1      34.697  23.695  24.416  1.00  0.00     0.000 A 
ATOM     14  C   UNL A   1      35.258  23.999  25.665  1.00  0.00     0.010 A 
ATOM     15  C   UNL A   1      35.527  23.195  23.406  1.00  0.00     0.010 A 
ATOM     16  C   UNL A   1      36.623  23.819  25.896  1.00  0.00     0.001 A 
ATOM     17  C   UNL A   1      36.890  23.004  23.641  1.00  0.00     0.001 A 
ATOM     18  C   UNL A   1      37.439  23.322  24.882  1.00  0.00     0.000 A 
ENDBRANCH  10  13
BRANCH  12  19
ATOM     19  C   UNL A   1      32.269  21.726  23.889  1.00  0.00     0.002 A 
ATOM     20  C   UNL A   1      32.150  21.026  22.683  1.00  0.00     0.010 A 
ATOM     21  C   UNL A   1      32.456  21.015  25.081  1.00  0.00     0.010 A 
ATOM     22  C   UNL A   1      32.249  19.632  22.669  1.00  0.00     0.001 A 
ATOM     23  C   UNL A   1      32.545  19.623  25.066  1.00  0.00     0.001 A 
ATOM     24  C   UNL A   1      32.449  18.934  23.860  1.00  0.00     0.000 A 
ENDBRANCH  12  19
ENDBRANCH   7   8
ENDBRANCH   5   7
ENDBRANCH   2   3
ENDBRANCH   1   2
BRANCH   1  25
ATOM     25  C   UNL A   1      31.318  31.793  26.607  1.00  0.00     0.023 C 
BRANCH  25  26
ATOM     26  C   UNL A   1      32.550  32.433  27.224  1.00  0.00     0.116 C 
BRANCH  26  27
ATOM     27  N   UNL A   1      32.385  33.847  27.589  1.00  0.00    -0.352 N 
ATOM     28  C   UNL A   1      33.051  34.555  28.590  1.00  0.00     0.251 C 
ATOM     29  H   UNL A   1      31.724  34.355  27.066  1.00  0.00     0.163 HD
ATOM     30  O   UNL A   1      32.608  35.593  29.045  1.00  0.00    -0.269 OA
BRANCH  28  31
ATOM     31  C   UNL A   1      34.337  34.012  29.070  1.00  0.00     0.039 A 
ATOM     32  C   UNL A   1      34.501  33.302  30.262  1.00  0.00     0.014 A 
ATOM     33  C   UNL A   1      35.404  34.189  28.207  1.00  0.00     0.014 A 
ATOM     34  C   UNL A   1      35.752  32.737  30.523  1.00  0.00     0.010 A 
ATOM     35  C   UNL A   1      36.460  33.342  28.286  1.00  0.00     0.010 A 
ATOM     36  C   UNL A   1      36.725  32.768  29.513  1.00  0.00    -0.014 A 
BRANCH  36  37
ATOM     37  C   UNL A   1      38.064  32.228  29.648  1.00  0.00     0.031 A 
ATOM     38  C   UNL A   1      38.232  30.846  29.159  1.00  0.00     0.074 A 
ATOM     39  C   UNL A   1      39.120  33.016  29.962  1.00  0.00     0.049 A 
ATOM     40  N   UNL A   1      38.405  29.787  29.873  1.00  0.00    -0.248 NA
ATOM     41  C   UNL A   1      38.040  30.578  27.726  1.00  0.00     0.031 C 
ATOM     42  C   UNL A   1      39.177  34.472  30.175  1.00  0.00     0.029 A 
ATOM     43  N   UNL A   1      40.423  32.658  30.076  1.00  0.00    -0.354 N 
ATOM     44  C   UNL A   1      38.556  28.739  28.974  1.00  0.00     0.074 A 
ATOM     45  C   UNL A   1      38.135  29.247  27.693  1.00  0.00     0.031 C 
ATOM     46  C   UNL A   1      40.463  34.888  30.172  1.00  0.00     0.029 A 
ATOM     47  C   UNL A   1      41.320  33.719  30.140  1.00  0.00     0.049 A 
ATOM     48  H   UNL A   1      40.713  31.718  30.111  1.00  0.00     0.167 HD
ATOM     49  C   UNL A   1      39.236  27.614  29.323  1.00  0.00     0.037 A 
ATOM     50  C   UNL A   1      42.672  33.626  30.160  1.00  0.00     0.037 A 
ATOM     51  C   UNL A   1      39.480  27.572  30.745  1.00  0.00     0.049 A 
ATOM     52  C   UNL A   1      42.998  32.247  30.609  1.00  0.00     0.074 A 
ATOM     53  C   UNL A   1      38.672  27.547  31.865  1.00  0.00     0.029 A 
ATOM     54  N   UNL A   1      40.718  27.978  31.187  1.00  0.00    -0.354 N 
ATOM     55  N   UNL A   1      42.746  31.812  31.814  1.00  0.00    -0.248 NA
ATOM     56  C   UNL A   1      43.119  31.216  29.587  1.00  0.00     0.031 C 
ATOM     57  C   UNL A   1      39.319  28.407  32.804  1.00  0.00     0.029 A 
ATOM     58  C   UNL A   1      40.515  28.845  32.233  1.00  0.00     0.049 A 
ATOM     59  H   UNL A   1      41.588  27.698  30.822  1.00  0.00     0.167 HD
ATOM     60  C   UNL A   1      42.256  30.525  31.635  1.00  0.00     0.074 A 
ATOM     61  C   UNL A   1      42.579  30.186  30.248  1.00  0.00     0.031 C 
ATOM     62  C   UNL A   1      41.373  29.972  32.520  1.00  0.00     0.037 A 
BRANCH  49  63
ATOM     63  C   UNL A   1      39.999  26.737  28.367  1.00  0.00     0.057 A 
ATOM     64  C   UNL A   1      40.965  27.322  27.530  1.00  0.00     0.134 A 
ATOM     65  C   UNL A   1      39.626  25.422  28.032  1.00  0.00     0.134 A 
ATOM     66  F   UNL A   1      41.397  28.574  27.746  1.00  0.00    -0.206 F 
ATOM     67  C   UNL A   1      41.461  26.674  26.393  1.00  0.00     0.040 A 
ATOM     68  C   UNL A   1      40.154  24.746  26.929  1.00  0.00     0.040 A 
ATOM     69  F   UNL A   1      38.663  24.761  28.685  1.00  0.00    -0.206 F 
ATOM     70  C   UNL A   1      41.048  25.384  26.085  1.00  0.00     0.006 A 
ENDBRANCH  49  63
BRANCH  50  71
ATOM     71  C   UNL A   1      43.662  34.528  29.531  1.00  0.00     0.057 A 
ATOM     72  C   UNL A   1      43.748  34.672  28.139  1.00  0.00     0.134 A 
ATOM     73  C   UNL A   1      44.365  35.478  30.293  1.00  0.00     0.134 A 
ATOM     74  F   UNL A   1      43.083  33.837  27.327  1.00  0.00    -0.206 F 
ATOM     75  C   UNL A   1      44.468  35.716  27.541  1.00  0.00     0.040 A 
ATOM     76  C   UNL A   1      45.084  36.527  29.711  1.00  0.00     0.040 A 
ATOM     77  F   UNL A   1      44.307  35.464  31.631  1.00  0.00    -0.206 F 
ATOM     78  C   UNL A   1      45.128  36.657  28.328  1.00  0.00     0.006 A 
ENDBRANCH  50  71
BRANCH  62  79
ATOM     79  C   UNL A   1      41.091  30.731  33.791  1.00  0.00     0.057 A 
ATOM     80  C   UNL A   1      40.011  31.614  33.951  1.00  0.00     0.134 A 
ATOM     81  C   UNL A   1      41.836  30.445  34.936  1.00  0.00     0.134 A 
ATOM     82  F   UNL A   1      39.171  31.869  32.945  1.00  0.00    -0.206 F 
ATOM     83  C   UNL A   1      39.716  32.219  35.176  1.00  0.00     0.040 A 
ATOM     84  C   UNL A   1      41.536  31.018  36.176  1.00  0.00     0.040 A 
ATOM     85  F   UNL A   1      42.844  29.560  34.880  1.00  0.00    -0.206 F 
ATOM     86  C   UNL A   1      40.479  31.918  36.297  1.00  0.00     0.006 A 
ENDBRANCH  62  79
ENDBRANCH  36  37
ENDBRANCH  28  31
ENDBRANCH  26  27
ENDBRANCH  25  26
ENDBRANCH   1  25
TORSDOF 14
ENDMDL
