MODEL 1
REMARK VINA RESULT:     -11.0      0.000      0.000
REMARK SMILES O=C(NCCCCNC(=O)c1c(F)cccc1NS(=O)(=O)C(F)(F)F)c1ccc(-c2c3nc(c(-c4c(F)cccc4F)c4ccc([nH]4)c(-c4c(F)cccc4F)c4nc(c(-c5c(F)cccc5F)c5ccc2[nH]5)C=C4)C=C3)cc1
REMARK SMILES IDX 6 1 5 2 4 3 3 4 1 5 2 6 26 8 27 9 79 10 28 11 78 12 29 13
REMARK SMILES IDX 30 14 31 15 72 16 32 17 77 18 71 19 73 20 33 21 76 22 70 23
REMARK SMILES IDX 69 24 34 26 60 27 43 28 59 29 44 30 47 31 58 32 74 33 45 34
REMARK SMILES IDX 46 35 57 37 75 38 48 39 35 40 36 41 41 42 37 43 38 44 40 45
REMARK SMILES IDX 42 46 39 47 61 48 62 49 67 50 63 51 64 52 66 53 68 54 65 55
REMARK SMILES IDX 49 56 50 57 55 58 51 59 52 60 54 61 56 62 53 63 7 64 8 65
REMARK SMILES IDX 9 66 10 68 11 69 12 70 17 71 13 72 14 73 16 74 15 75 18 76
REMARK SMILES IDX 19 78 20 79 21 80 22 81 23 82 24 83 25 84
REMARK H PARENT 3 7 73 25 47 36 8 67 18 77
REMARK Flexibility Score: inf
ROOT
ATOM      1  C   UNL A   1      38.854  22.414  26.124  1.00  0.00     0.023 C 
ENDROOT
BRANCH   1   2
ATOM      2  C   UNL A   1      39.011  21.085  25.384  1.00  0.00     0.023 C 
BRANCH   2   3
ATOM      3  C   UNL A   1      39.275  19.876  26.274  1.00  0.00     0.116 C 
BRANCH   3   4
ATOM      4  N   UNL A   1      40.484  19.158  25.899  1.00  0.00    -0.352 N 
ATOM      5  O   UNL A   1      42.655  18.876  25.365  1.00  0.00    -0.269 OA
ATOM      6  C   UNL A   1      41.788  19.587  25.865  1.00  0.00     0.251 C 
ATOM      7  H   UNL A   1      40.346  18.221  25.628  1.00  0.00     0.163 HD
BRANCH   6   8
ATOM      8  C   UNL A   1      42.148  20.916  26.404  1.00  0.00     0.039 A 
ATOM      9  C   UNL A   1      42.120  21.169  27.778  1.00  0.00     0.014 A 
ATOM     10  C   UNL A   1      42.535  21.922  25.514  1.00  0.00     0.014 A 
ATOM     11  C   UNL A   1      42.338  22.460  28.249  1.00  0.00     0.010 A 
ATOM     12  C   UNL A   1      42.828  23.200  25.996  1.00  0.00     0.010 A 
ATOM     13  C   UNL A   1      42.699  23.487  27.364  1.00  0.00    -0.014 A 
BRANCH  13  14
ATOM     14  C   UNL A   1      42.976  24.850  27.881  1.00  0.00     0.031 A 
ATOM     15  C   UNL A   1      44.379  25.279  28.203  1.00  0.00     0.074 A 
ATOM     16  C   UNL A   1      41.951  25.705  28.059  1.00  0.00     0.049 A 
ATOM     17  N   UNL A   1      44.799  26.410  28.714  1.00  0.00    -0.248 NA
ATOM     18  C   UNL A   1      45.452  24.314  27.922  1.00  0.00     0.031 C 
ATOM     19  C   UNL A   1      40.547  25.406  27.771  1.00  0.00     0.029 A 
ATOM     20  N   UNL A   1      41.931  26.996  28.519  1.00  0.00    -0.354 N 
ATOM     21  C   UNL A   1      46.176  26.285  28.834  1.00  0.00     0.074 A 
ATOM     22  C   UNL A   1      46.523  24.961  28.363  1.00  0.00     0.031 C 
ATOM     23  C   UNL A   1      39.806  26.491  28.035  1.00  0.00     0.029 A 
ATOM     24  C   UNL A   1      40.671  27.539  28.566  1.00  0.00     0.049 A 
ATOM     25  H   UNL A   1      42.741  27.486  28.790  1.00  0.00     0.167 HD
ATOM     26  C   UNL A   1      47.068  27.197  29.289  1.00  0.00     0.037 A 
ATOM     27  C   UNL A   1      40.250  28.738  29.011  1.00  0.00     0.037 A 
ATOM     28  C   UNL A   1      46.718  28.520  29.740  1.00  0.00     0.049 A 
ATOM     29  C   UNL A   1      41.251  29.714  29.552  1.00  0.00     0.074 A 
ATOM     30  C   UNL A   1      47.557  29.525  30.187  1.00  0.00     0.029 A 
ATOM     31  N   UNL A   1      45.426  29.019  29.802  1.00  0.00    -0.354 N 
ATOM     32  N   UNL A   1      42.552  29.588  29.651  1.00  0.00    -0.248 NA
ATOM     33  C   UNL A   1      40.730  30.995  30.052  1.00  0.00     0.031 C 
ATOM     34  C   UNL A   1      46.769  30.616  30.564  1.00  0.00     0.029 A 
ATOM     35  C   UNL A   1      45.442  30.310  30.304  1.00  0.00     0.049 A 
ATOM     36  H   UNL A   1      44.616  28.529  29.531  1.00  0.00     0.167 HD
ATOM     37  C   UNL A   1      43.009  30.776  30.205  1.00  0.00     0.074 A 
ATOM     38  C   UNL A   1      41.845  31.613  30.416  1.00  0.00     0.031 C 
ATOM     39  C   UNL A   1      44.279  31.136  30.506  1.00  0.00     0.037 A 
BRANCH  26  40
ATOM     40  C   UNL A   1      48.514  26.796  29.341  1.00  0.00     0.057 A 
ATOM     41  C   UNL A   1      49.370  27.080  28.270  1.00  0.00     0.134 A 
ATOM     42  C   UNL A   1      49.044  26.074  30.418  1.00  0.00     0.134 A 
ATOM     43  F   UNL A   1      48.925  27.761  27.202  1.00  0.00    -0.206 F 
ATOM     44  C   UNL A   1      50.700  26.655  28.264  1.00  0.00     0.040 A 
ATOM     45  C   UNL A   1      50.378  25.664  30.434  1.00  0.00     0.040 A 
ATOM     46  F   UNL A   1      48.278  25.777  31.479  1.00  0.00    -0.206 F 
ATOM     47  C   UNL A   1      51.209  25.948  29.352  1.00  0.00     0.006 A 
ENDBRANCH  26  40
BRANCH  27  48
ATOM     48  C   UNL A   1      38.805  29.063  28.949  1.00  0.00     0.057 A 
ATOM     49  C   UNL A   1      38.220  29.563  27.778  1.00  0.00     0.134 A 
ATOM     50  C   UNL A   1      37.992  28.950  30.081  1.00  0.00     0.134 A 
ATOM     51  F   UNL A   1      38.952  29.703  26.663  1.00  0.00    -0.206 F 
ATOM     52  C   UNL A   1      36.885  29.966  27.744  1.00  0.00     0.040 A 
ATOM     53  C   UNL A   1      36.650  29.330  30.056  1.00  0.00     0.040 A 
ATOM     54  F   UNL A   1      38.494  28.465  31.227  1.00  0.00    -0.206 F 
ATOM     55  C   UNL A   1      36.096  29.850  28.886  1.00  0.00     0.006 A 
ENDBRANCH  27  48
BRANCH  39  56
ATOM     56  C   UNL A   1      44.498  32.505  31.075  1.00  0.00     0.057 A 
ATOM     57  C   UNL A   1      44.453  32.715  32.460  1.00  0.00     0.134 A 
ATOM     58  C   UNL A   1      44.658  33.626  30.253  1.00  0.00     0.134 A 
ATOM     59  F   UNL A   1      44.293  31.681  33.300  1.00  0.00    -0.206 F 
ATOM     60  C   UNL A   1      44.539  33.996  33.006  1.00  0.00     0.040 A 
ATOM     61  C   UNL A   1      44.768  34.911  30.789  1.00  0.00     0.040 A 
ATOM     62  F   UNL A   1      44.720  33.489  28.920  1.00  0.00    -0.206 F 
ATOM     63  C   UNL A   1      44.696  35.099  32.169  1.00  0.00     0.006 A 
ENDBRANCH  39  56
ENDBRANCH  13  14
ENDBRANCH   6   8
ENDBRANCH   3   4
ENDBRANCH   2   3
ENDBRANCH   1   2
BRANCH   1  64
ATOM     64  C   UNL A   1      37.591  23.200  25.782  1.00  0.00     0.116 C 
BRANCH  64  65
ATOM     65  N   UNL A   1      37.402  23.328  24.347  1.00  0.00    -0.352 N 
ATOM     66  C   UNL A   1      36.304  22.987  23.599  1.00  0.00     0.256 C 
ATOM     67  H   UNL A   1      38.159  23.710  23.847  1.00  0.00     0.163 HD
ATOM     68  O   UNL A   1      36.375  22.952  22.376  1.00  0.00    -0.269 OA
BRANCH  66  69
ATOM     69  C   UNL A   1      35.066  22.558  24.266  1.00  0.00     0.099 A 
ATOM     70  C   UNL A   1      34.968  21.243  24.730  1.00  0.00     0.138 A 
ATOM     71  C   UNL A   1      33.979  23.439  24.395  1.00  0.00     0.065 A 
ATOM     72  F   UNL A   1      36.004  20.398  24.626  1.00  0.00    -0.206 F 
ATOM     73  C   UNL A   1      33.775  20.759  25.252  1.00  0.00     0.040 A 
ATOM     74  C   UNL A   1      32.773  22.929  24.888  1.00  0.00     0.028 A 
ATOM     75  C   UNL A   1      32.671  21.601  25.318  1.00  0.00     0.005 A 
BRANCH  71  76
ATOM     76  N   UNL A   1      34.029  24.788  23.875  1.00  0.00    -0.275 N 
ATOM     77  H   UNL A   1      34.490  25.499  24.375  1.00  0.00     0.180 HD
BRANCH  76  78
ATOM     78  S   UNL A   1      33.273  25.127  22.375  1.00  0.00     0.333 S 
ATOM     79  O   UNL A   1      33.999  26.228  21.770  1.00  0.00    -0.197 OA
ATOM     80  O   UNL A   1      33.257  23.832  21.709  1.00  0.00    -0.197 OA
BRANCH  78  81
ATOM     81  C   UNL A   1      31.521  25.628  22.768  1.00  0.00     0.516 C 
ATOM     82  F   UNL A   1      30.665  24.564  22.759  1.00  0.00    -0.155 F 
ATOM     83  F   UNL A   1      31.417  26.192  24.007  1.00  0.00    -0.155 F 
ATOM     84  F   UNL A   1      31.025  26.540  21.886  1.00  0.00    -0.155 F 
ENDBRANCH  78  81
ENDBRANCH  76  78
ENDBRANCH  71  76
ENDBRANCH  66  69
ENDBRANCH  64  65
ENDBRANCH   1  64
TORSDOF 14
ENDMDL
MODEL 2
REMARK VINA RESULT:     -10.9      2.369      6.978
REMARK SMILES O=C(NCCCCNC(=O)c1c(F)cccc1NS(=O)(=O)C(F)(F)F)c1ccc(-c2c3nc(c(-c4c(F)cccc4F)c4ccc([nH]4)c(-c4c(F)cccc4F)c4nc(c(-c5c(F)cccc5F)c5ccc2[nH]5)C=C4)C=C3)cc1
REMARK SMILES IDX 6 1 5 2 4 3 3 4 1 5 2 6 26 8 27 9 79 10 28 11 78 12 29 13
REMARK SMILES IDX 30 14 31 15 72 16 32 17 77 18 71 19 73 20 33 21 76 22 70 23
REMARK SMILES IDX 69 24 34 26 60 27 43 28 59 29 44 30 47 31 58 32 74 33 45 34
REMARK SMILES IDX 46 35 57 37 75 38 48 39 35 40 36 41 41 42 37 43 38 44 40 45
REMARK SMILES IDX 42 46 39 47 61 48 62 49 67 50 63 51 64 52 66 53 68 54 65 55
REMARK SMILES IDX 49 56 50 57 55 58 51 59 52 60 54 61 56 62 53 63 7 64 8 65
REMARK SMILES IDX 9 66 10 68 11 69 12 70 17 71 13 72 14 73 16 74 15 75 18 76
REMARK SMILES IDX 19 78 20 79 21 80 22 81 23 82 24 83 25 84
REMARK H PARENT 3 7 73 25 47 36 8 67 18 77
REMARK Flexibility Score: inf
ROOT
ATOM      1  C   UNL A   1      37.134  21.164  24.388  1.00  0.00     0.023 C 
ENDROOT
BRANCH   1   2
ATOM      2  C   UNL A   1      37.806  19.935  24.999  1.00  0.00     0.023 C 
BRANCH   2   3
ATOM      3  C   UNL A   1      38.935  20.235  25.981  1.00  0.00     0.116 C 
BRANCH   3   4
ATOM      4  N   UNL A   1      40.017  19.266  25.904  1.00  0.00    -0.352 N 
ATOM      5  O   UNL A   1      42.139  18.526  25.751  1.00  0.00    -0.269 OA
ATOM      6  C   UNL A   1      41.374  19.452  26.001  1.00  0.00     0.251 C 
ATOM      7  H   UNL A   1      39.733  18.334  25.760  1.00  0.00     0.163 HD
BRANCH   6   8
ATOM      8  C   UNL A   1      41.918  20.773  26.382  1.00  0.00     0.039 A 
ATOM      9  C   UNL A   1      41.997  21.161  27.722  1.00  0.00     0.014 A 
ATOM     10  C   UNL A   1      42.370  21.631  25.376  1.00  0.00     0.014 A 
ATOM     11  C   UNL A   1      42.392  22.456  28.046  1.00  0.00     0.010 A 
ATOM     12  C   UNL A   1      42.838  22.904  25.708  1.00  0.00     0.010 A 
ATOM     13  C   UNL A   1      42.821  23.338  27.043  1.00  0.00    -0.014 A 
BRANCH  13  14
ATOM     14  C   UNL A   1      43.287  24.701  27.401  1.00  0.00     0.031 A 
ATOM     15  C   UNL A   1      42.316  25.746  27.874  1.00  0.00     0.074 A 
ATOM     16  C   UNL A   1      44.597  24.995  27.298  1.00  0.00     0.049 A 
ATOM     17  N   UNL A   1      42.538  27.001  28.175  1.00  0.00    -0.248 NA
ATOM     18  C   UNL A   1      40.913  25.333  28.022  1.00  0.00     0.031 C 
ATOM     19  C   UNL A   1      45.636  24.060  26.862  1.00  0.00     0.029 A 
ATOM     20  N   UNL A   1      45.278  26.156  27.556  1.00  0.00    -0.354 N 
ATOM     21  C   UNL A   1      41.304  27.531  28.528  1.00  0.00     0.074 A 
ATOM     22  C   UNL A   1      40.332  26.469  28.383  1.00  0.00     0.031 C 
ATOM     23  C   UNL A   1      46.826  24.676  26.909  1.00  0.00     0.029 A 
ATOM     24  C   UNL A   1      46.627  26.063  27.319  1.00  0.00     0.049 A 
ATOM     25  H   UNL A   1      44.842  26.977  27.880  1.00  0.00     0.167 HD
ATOM     26  C   UNL A   1      41.014  28.788  28.942  1.00  0.00     0.037 A 
ATOM     27  C   UNL A   1      47.597  26.993  27.396  1.00  0.00     0.037 A 
ATOM     28  C   UNL A   1      41.990  29.835  29.101  1.00  0.00     0.049 A 
ATOM     29  C   UNL A   1      47.244  28.389  27.813  1.00  0.00     0.074 A 
ATOM     30  C   UNL A   1      41.795  31.130  29.547  1.00  0.00     0.029 A 
ATOM     31  N   UNL A   1      43.341  29.708  28.818  1.00  0.00    -0.354 N 
ATOM     32  N   UNL A   1      46.076  28.875  28.154  1.00  0.00    -0.248 NA
ATOM     33  C   UNL A   1      48.338  29.370  27.850  1.00  0.00     0.031 C 
ATOM     34  C   UNL A   1      43.021  31.801  29.490  1.00  0.00     0.029 A 
ATOM     35  C   UNL A   1      43.989  30.908  29.057  1.00  0.00     0.049 A 
ATOM     36  H   UNL A   1      43.777  28.886  28.494  1.00  0.00     0.167 HD
ATOM     37  C   UNL A   1      46.294  30.210  28.464  1.00  0.00     0.074 A 
ATOM     38  C   UNL A   1      47.709  30.457  28.275  1.00  0.00     0.031 C 
ATOM     39  C   UNL A   1      45.399  31.142  28.870  1.00  0.00     0.037 A 
BRANCH  26  40
ATOM     40  C   UNL A   1      39.579  29.112  29.239  1.00  0.00     0.057 A 
ATOM     41  C   UNL A   1      39.069  28.963  30.535  1.00  0.00     0.134 A 
ATOM     42  C   UNL A   1      38.687  29.509  28.236  1.00  0.00     0.134 A 
ATOM     43  F   UNL A   1      39.867  28.577  31.542  1.00  0.00    -0.206 F 
ATOM     44  C   UNL A   1      37.722  29.190  30.822  1.00  0.00     0.040 A 
ATOM     45  C   UNL A   1      37.342  29.763  28.515  1.00  0.00     0.040 A 
ATOM     46  F   UNL A   1      39.114  29.679  26.975  1.00  0.00    -0.206 F 
ATOM     47  C   UNL A   1      36.855  29.596  29.809  1.00  0.00     0.006 A 
ENDBRANCH  26  40
BRANCH  27  48
ATOM     48  C   UNL A   1      48.991  26.609  27.070  1.00  0.00     0.057 A 
ATOM     49  C   UNL A   1      49.505  26.761  25.776  1.00  0.00     0.134 A 
ATOM     50  C   UNL A   1      49.816  26.013  28.028  1.00  0.00     0.134 A 
ATOM     51  F   UNL A   1      48.756  27.317  24.811  1.00  0.00    -0.206 F 
ATOM     52  C   UNL A   1      50.781  26.307  25.439  1.00  0.00     0.040 A 
ATOM     53  C   UNL A   1      51.102  25.574  27.711  1.00  0.00     0.040 A 
ATOM     54  F   UNL A   1      49.382  25.853  29.287  1.00  0.00    -0.206 F 
ATOM     55  C   UNL A   1      51.582  25.711  26.409  1.00  0.00     0.006 A 
ENDBRANCH  27  48
BRANCH  39  56
ATOM     56  C   UNL A   1      45.914  32.518  29.168  1.00  0.00     0.057 A 
ATOM     57  C   UNL A   1      46.348  32.850  30.458  1.00  0.00     0.134 A 
ATOM     58  C   UNL A   1      45.890  33.536  28.208  1.00  0.00     0.134 A 
ATOM     59  F   UNL A   1      46.385  31.920  31.425  1.00  0.00    -0.206 F 
ATOM     60  C   UNL A   1      46.722  34.153  30.788  1.00  0.00     0.040 A 
ATOM     61  C   UNL A   1      46.284  34.839  28.521  1.00  0.00     0.040 A 
ATOM     62  F   UNL A   1      45.495  33.278  26.953  1.00  0.00    -0.206 F 
ATOM     63  C   UNL A   1      46.690  35.152  29.817  1.00  0.00     0.006 A 
ENDBRANCH  39  56
ENDBRANCH  13  14
ENDBRANCH   6   8
ENDBRANCH   3   4
ENDBRANCH   2   3
ENDBRANCH   1   2
BRANCH   1  64
ATOM     64  C   UNL A   1      36.673  22.217  25.394  1.00  0.00     0.116 C 
BRANCH  64  65
ATOM     65  N   UNL A   1      35.863  21.638  26.453  1.00  0.00    -0.352 N 
ATOM     66  C   UNL A   1      34.495  21.587  26.547  1.00  0.00     0.256 C 
ATOM     67  H   UNL A   1      36.359  21.230  27.199  1.00  0.00     0.163 HD
ATOM     68  O   UNL A   1      33.959  21.262  27.600  1.00  0.00    -0.269 OA
BRANCH  66  69
ATOM     69  C   UNL A   1      33.665  22.025  25.414  1.00  0.00     0.099 A 
ATOM     70  C   UNL A   1      33.051  23.279  25.471  1.00  0.00     0.138 A 
ATOM     71  C   UNL A   1      33.452  21.178  24.313  1.00  0.00     0.065 A 
ATOM     72  F   UNL A   1      33.260  24.101  26.510  1.00  0.00    -0.206 F 
ATOM     73  C   UNL A   1      32.160  23.680  24.484  1.00  0.00     0.040 A 
ATOM     74  C   UNL A   1      32.524  21.579  23.346  1.00  0.00     0.028 A 
ATOM     75  C   UNL A   1      31.885  22.822  23.426  1.00  0.00     0.005 A 
BRANCH  71  76
ATOM     76  N   UNL A   1      34.027  19.853  24.252  1.00  0.00    -0.275 N 
ATOM     77  H   UNL A   1      35.001  19.734  24.181  1.00  0.00     0.180 HD
BRANCH  76  78
ATOM     78  S   UNL A   1      32.984  18.494  24.304  1.00  0.00     0.333 S 
ATOM     79  O   UNL A   1      32.157  18.635  25.488  1.00  0.00    -0.197 OA
ATOM     80  O   UNL A   1      32.356  18.504  22.990  1.00  0.00    -0.197 OA
BRANCH  78  81
ATOM     81  C   UNL A   1      34.080  16.992  24.440  1.00  0.00     0.516 C 
ATOM     82  F   UNL A   1      35.388  17.324  24.649  1.00  0.00    -0.155 F 
ATOM     83  F   UNL A   1      33.717  16.190  25.483  1.00  0.00    -0.155 F 
ATOM     84  F   UNL A   1      34.044  16.213  23.323  1.00  0.00    -0.155 F 
ENDBRANCH  78  81
ENDBRANCH  76  78
ENDBRANCH  71  76
ENDBRANCH  66  69
ENDBRANCH  64  65
ENDBRANCH   1  64
TORSDOF 14
ENDMDL
MODEL 3
REMARK VINA RESULT:     -10.9      5.016      9.221
REMARK SMILES O=C(NCCCCNC(=O)c1c(F)cccc1NS(=O)(=O)C(F)(F)F)c1ccc(-c2c3nc(c(-c4c(F)cccc4F)c4ccc([nH]4)c(-c4c(F)cccc4F)c4nc(c(-c5c(F)cccc5F)c5ccc2[nH]5)C=C4)C=C3)cc1
REMARK SMILES IDX 6 1 5 2 4 3 3 4 1 5 2 6 26 8 27 9 79 10 28 11 78 12 29 13
REMARK SMILES IDX 30 14 31 15 72 16 32 17 77 18 71 19 73 20 33 21 76 22 70 23
REMARK SMILES IDX 69 24 34 26 60 27 43 28 59 29 44 30 47 31 58 32 74 33 45 34
REMARK SMILES IDX 46 35 57 37 75 38 48 39 35 40 36 41 41 42 37 43 38 44 40 45
REMARK SMILES IDX 42 46 39 47 61 48 62 49 67 50 63 51 64 52 66 53 68 54 65 55
REMARK SMILES IDX 49 56 50 57 55 58 51 59 52 60 54 61 56 62 53 63 7 64 8 65
REMARK SMILES IDX 9 66 10 68 11 69 12 70 17 71 13 72 14 73 16 74 15 75 18 76
REMARK SMILES IDX 19 78 20 79 21 80 22 81 23 82 24 83 25 84
REMARK H PARENT 3 7 73 25 47 36 8 67 18 77
REMARK Flexibility Score: inf
ROOT
ATOM      1  C   UNL A   1      31.408  30.865  25.769  1.00  0.00     0.023 C 
ENDROOT
BRANCH   1   2
ATOM      2  C   UNL A   1      31.402  31.910  26.885  1.00  0.00     0.023 C 
BRANCH   2   3
ATOM      3  C   UNL A   1      32.730  32.628  27.106  1.00  0.00     0.116 C 
BRANCH   3   4
ATOM      4  N   UNL A   1      32.557  33.983  27.607  1.00  0.00    -0.352 N 
ATOM      5  O   UNL A   1      32.818  35.735  29.000  1.00  0.00    -0.269 OA
ATOM      6  C   UNL A   1      33.217  34.638  28.617  1.00  0.00     0.251 C 
ATOM      7  H   UNL A   1      31.861  34.511  27.152  1.00  0.00     0.163 HD
BRANCH   6   8
ATOM      8  C   UNL A   1      34.391  34.016  29.265  1.00  0.00     0.039 A 
ATOM      9  C   UNL A   1      35.690  34.416  28.940  1.00  0.00     0.014 A 
ATOM     10  C   UNL A   1      34.183  33.024  30.227  1.00  0.00     0.014 A 
ATOM     11  C   UNL A   1      36.779  33.728  29.468  1.00  0.00     0.010 A 
ATOM     12  C   UNL A   1      35.278  32.386  30.814  1.00  0.00     0.010 A 
ATOM     13  C   UNL A   1      36.584  32.709  30.413  1.00  0.00    -0.014 A 
BRANCH  13  14
ATOM     14  C   UNL A   1      37.752  32.013  31.007  1.00  0.00     0.031 A 
ATOM     15  C   UNL A   1      38.498  30.965  30.233  1.00  0.00     0.074 A 
ATOM     16  C   UNL A   1      38.140  32.333  32.257  1.00  0.00     0.049 A 
ATOM     17  N   UNL A   1      39.504  30.217  30.614  1.00  0.00    -0.248 NA
ATOM     18  C   UNL A   1      38.055  30.715  28.853  1.00  0.00     0.031 C 
ATOM     19  C   UNL A   1      37.502  33.343  33.103  1.00  0.00     0.029 A 
ATOM     20  N   UNL A   1      39.164  31.848  33.028  1.00  0.00    -0.354 N 
ATOM     21  C   UNL A   1      39.801  29.399  29.533  1.00  0.00     0.074 A 
ATOM     22  C   UNL A   1      38.856  29.723  28.486  1.00  0.00     0.031 C 
ATOM     23  C   UNL A   1      38.164  33.422  34.266  1.00  0.00     0.029 A 
ATOM     24  C   UNL A   1      39.234  32.428  34.271  1.00  0.00     0.049 A 
ATOM     25  H   UNL A   1      39.788  31.151  32.722  1.00  0.00     0.167 HD
ATOM     26  C   UNL A   1      40.778  28.468  29.424  1.00  0.00     0.037 A 
ATOM     27  C   UNL A   1      40.049  32.176  35.311  1.00  0.00     0.037 A 
ATOM     28  C   UNL A   1      41.727  28.162  30.465  1.00  0.00     0.049 A 
ATOM     29  C   UNL A   1      41.094  31.109  35.184  1.00  0.00     0.074 A 
ATOM     30  C   UNL A   1      42.773  27.258  30.434  1.00  0.00     0.029 A 
ATOM     31  N   UNL A   1      41.742  28.750  31.720  1.00  0.00    -0.354 N 
ATOM     32  N   UNL A   1      41.372  30.349  34.152  1.00  0.00    -0.248 NA
ATOM     33  C   UNL A   1      41.936  30.856  36.362  1.00  0.00     0.031 C 
ATOM     34  C   UNL A   1      43.394  27.265  31.687  1.00  0.00     0.029 A 
ATOM     35  C   UNL A   1      42.765  28.211  32.482  1.00  0.00     0.049 A 
ATOM     36  H   UNL A   1      41.117  29.448  32.026  1.00  0.00     0.167 HD
ATOM     37  C   UNL A   1      42.430  29.541  34.547  1.00  0.00     0.074 A 
ATOM     38  C   UNL A   1      42.747  29.907  35.913  1.00  0.00     0.031 C 
ATOM     39  C   UNL A   1      43.076  28.586  33.838  1.00  0.00     0.037 A 
BRANCH  26  40
ATOM     40  C   UNL A   1      40.867  27.694  28.141  1.00  0.00     0.057 A 
ATOM     41  C   UNL A   1      40.236  26.449  28.015  1.00  0.00     0.134 A 
ATOM     42  C   UNL A   1      41.627  28.146  27.055  1.00  0.00     0.134 A 
ATOM     43  F   UNL A   1      39.500  25.953  29.021  1.00  0.00    -0.206 F 
ATOM     44  C   UNL A   1      40.363  25.679  26.858  1.00  0.00     0.040 A 
ATOM     45  C   UNL A   1      41.741  27.395  25.883  1.00  0.00     0.040 A 
ATOM     46  F   UNL A   1      42.249  29.334  27.108  1.00  0.00    -0.206 F 
ATOM     47  C   UNL A   1      41.115  26.155  25.785  1.00  0.00     0.006 A 
ENDBRANCH  26  40
BRANCH  27  48
ATOM     48  C   UNL A   1      39.894  32.965  36.557  1.00  0.00     0.057 A 
ATOM     49  C   UNL A   1      38.908  32.650  37.500  1.00  0.00     0.134 A 
ATOM     50  C   UNL A   1      40.681  34.096  36.795  1.00  0.00     0.134 A 
ATOM     51  F   UNL A   1      38.115  31.582  37.321  1.00  0.00    -0.206 F 
ATOM     52  C   UNL A   1      38.690  33.450  38.623  1.00  0.00     0.040 A 
ATOM     53  C   UNL A   1      40.488  34.892  37.924  1.00  0.00     0.040 A 
ATOM     54  F   UNL A   1      41.649  34.439  35.933  1.00  0.00    -0.206 F 
ATOM     55  C   UNL A   1      39.482  34.575  38.836  1.00  0.00     0.006 A 
ENDBRANCH  27  48
BRANCH  39  56
ATOM     56  C   UNL A   1      44.216  27.876  34.504  1.00  0.00     0.057 A 
ATOM     57  C   UNL A   1      43.999  26.674  35.193  1.00  0.00     0.134 A 
ATOM     58  C   UNL A   1      45.502  28.426  34.545  1.00  0.00     0.134 A 
ATOM     59  F   UNL A   1      42.786  26.102  35.199  1.00  0.00    -0.206 F 
ATOM     60  C   UNL A   1      45.019  26.056  35.917  1.00  0.00     0.040 A 
ATOM     61  C   UNL A   1      46.536  27.804  35.247  1.00  0.00     0.040 A 
ATOM     62  F   UNL A   1      45.774  29.567  33.896  1.00  0.00    -0.206 F 
ATOM     63  C   UNL A   1      46.293  26.622  35.945  1.00  0.00     0.006 A 
ENDBRANCH  39  56
ENDBRANCH  13  14
ENDBRANCH   6   8
ENDBRANCH   3   4
ENDBRANCH   2   3
ENDBRANCH   1   2
BRANCH   1  64
ATOM     64  C   UNL A   1      32.617  29.931  25.765  1.00  0.00     0.116 C 
BRANCH  64  65
ATOM     65  N   UNL A   1      33.124  29.704  24.422  1.00  0.00    -0.352 N 
ATOM     66  C   UNL A   1      32.606  28.894  23.442  1.00  0.00     0.256 C 
ATOM     67  H   UNL A   1      33.944  30.194  24.184  1.00  0.00     0.163 HD
ATOM     68  O   UNL A   1      33.264  28.640  22.440  1.00  0.00    -0.269 OA
BRANCH  66  69
ATOM     69  C   UNL A   1      31.303  28.244  23.641  1.00  0.00     0.099 A 
ATOM     70  C   UNL A   1      31.230  27.109  24.453  1.00  0.00     0.138 A 
ATOM     71  C   UNL A   1      30.155  28.725  22.987  1.00  0.00     0.065 A 
ATOM     72  F   UNL A   1      32.315  26.650  25.093  1.00  0.00    -0.206 F 
ATOM     73  C   UNL A   1      30.047  26.390  24.567  1.00  0.00     0.040 A 
ATOM     74  C   UNL A   1      28.980  27.971  23.081  1.00  0.00     0.028 A 
ATOM     75  C   UNL A   1      28.922  26.815  23.868  1.00  0.00     0.005 A 
BRANCH  71  76
ATOM     76  N   UNL A   1      30.210  29.862  22.096  1.00  0.00    -0.275 N 
ATOM     77  H   UNL A   1      31.065  30.145  21.698  1.00  0.00     0.180 HD
BRANCH  76  78
ATOM     78  S   UNL A   1      28.762  30.709  21.743  1.00  0.00     0.333 S 
ATOM     79  O   UNL A   1      29.106  31.777  20.823  1.00  0.00    -0.197 OA
ATOM     80  O   UNL A   1      27.857  29.656  21.304  1.00  0.00    -0.197 OA
BRANCH  78  81
ATOM     81  C   UNL A   1      28.147  31.402  23.360  1.00  0.00     0.516 C 
ATOM     82  F   UNL A   1      27.576  32.633  23.210  1.00  0.00    -0.155 F 
ATOM     83  F   UNL A   1      27.194  30.605  23.926  1.00  0.00    -0.155 F 
ATOM     84  F   UNL A   1      29.137  31.536  24.285  1.00  0.00    -0.155 F 
ENDBRANCH  78  81
ENDBRANCH  76  78
ENDBRANCH  71  76
ENDBRANCH  66  69
ENDBRANCH  64  65
ENDBRANCH   1  64
TORSDOF 14
ENDMDL
