MODEL 1
REMARK VINA RESULT:     -11.3      0.000      0.000
REMARK SMILES CCN(C[C@H](C)C(=O)NCCCCNC(=O)c1ccc(-c2c3nc(c(-c4c(F)cccc4F)c4ccc([nH]4)c(-c4c(F)cccc4F)c4nc(c(-c5c(F)cccc5F)c5ccc2[nH]5)C=C4)C=C3)cc1)c1ccc(C(=O)NC)nn1
REMARK SMILES IDX 10 1 9 2 7 3 8 4 5 6 6 7 4 8 3 9 2 10 1 11 71 12 72 13 80 14
REMARK SMILES IDX 73 15 79 16 74 17 75 18 76 19 77 20 78 21 11 23 12 24 13 25
REMARK SMILES IDX 14 26 15 27 16 29 17 30 18 31 70 32 19 33 69 34 20 35 21 36
REMARK SMILES IDX 22 37 63 38 23 39 68 40 62 41 64 42 24 43 67 44 61 45 60 46
REMARK SMILES IDX 25 48 51 49 34 50 50 51 35 52 38 53 49 54 65 55 36 56 37 57
REMARK SMILES IDX 48 59 66 60 39 61 26 62 27 63 32 64 28 65 29 66 31 67 33 68
REMARK SMILES IDX 30 69 52 70 53 71 58 72 54 73 55 74 57 75 59 76 56 77 40 78
REMARK SMILES IDX 41 79 46 80 42 81 43 82 45 83 47 84 44 85
REMARK H PARENT 9 5 77 22 14 28 64 47 38 58
REMARK Flexibility Score: inf
ROOT
ATOM      1  C   UNL A   1      37.148  22.231  24.391  1.00  0.00     0.116 C 
ENDROOT
BRANCH   1   2
ATOM      2  N   UNL A   1      36.199  22.648  23.379  1.00  0.00    -0.356 N 
ATOM      3  C   UNL A   1      35.052  23.371  23.461  1.00  0.00     0.224 C 
ATOM      4  O   UNL A   1      34.421  23.522  22.411  1.00  0.00    -0.275 OA
ATOM      5  H   UNL A   1      36.427  22.354  22.468  1.00  0.00     0.163 HD
BRANCH   3   6
ATOM      6  C   UNL A   1      34.579  24.021  24.755  1.00  0.00     0.095 C 
ATOM      7  C   UNL A   1      33.904  25.370  24.532  1.00  0.00     0.020 C 
BRANCH   6   8
ATOM      8  C   UNL A   1      33.791  22.983  25.568  1.00  0.00     0.131 C 
BRANCH   8   9
ATOM      9  N   UNL A   1      32.625  22.391  24.908  1.00  0.00    -0.355 N 
BRANCH   9  10
ATOM     10  C   UNL A   1      31.334  23.064  24.950  1.00  0.00     0.115 C 
ATOM     11  C   UNL A   1      30.611  22.811  26.265  1.00  0.00     0.027 C 
ENDBRANCH   9  10
BRANCH   9  12
ATOM     12  C   UNL A   1      32.679  21.042  24.603  1.00  0.00     0.151 A 
ATOM     13  C   UNL A   1      32.213  20.580  23.380  1.00  0.00     0.051 A 
ATOM     14  N   UNL A   1      33.272  20.174  25.440  1.00  0.00    -0.132 NA
ATOM     15  C   UNL A   1      32.403  19.244  23.005  1.00  0.00     0.040 A 
ATOM     16  N   UNL A   1      33.439  18.841  25.095  1.00  0.00    -0.143 NA
ATOM     17  C   UNL A   1      33.019  18.384  23.896  1.00  0.00     0.150 A 
BRANCH  17  18
ATOM     18  C   UNL A   1      33.392  16.966  23.606  1.00  0.00     0.271 C 
ATOM     19  O   UNL A   1      34.064  16.708  22.605  1.00  0.00    -0.267 OA
ATOM     20  N   UNL A   1      33.027  15.893  24.384  1.00  0.00    -0.354 N 
ATOM     21  C   UNL A   1      32.402  15.771  25.678  1.00  0.00     0.143 C 
ATOM     22  H   UNL A   1      33.239  15.024  23.971  1.00  0.00     0.163 HD
ENDBRANCH  17  18
ENDBRANCH   9  12
ENDBRANCH   8   9
ENDBRANCH   6   8
ENDBRANCH   3   6
ENDBRANCH   1   2
BRANCH   1  23
ATOM     23  C   UNL A   1      36.808  20.848  24.941  1.00  0.00     0.023 C 
BRANCH  23  24
ATOM     24  C   UNL A   1      37.973  19.855  24.930  1.00  0.00     0.023 C 
BRANCH  24  25
ATOM     25  C   UNL A   1      39.185  20.264  25.760  1.00  0.00     0.116 C 
BRANCH  25  26
ATOM     26  N   UNL A   1      40.200  19.226  25.843  1.00  0.00    -0.352 N 
ATOM     27  C   UNL A   1      41.536  19.355  26.152  1.00  0.00     0.251 C 
ATOM     28  H   UNL A   1      39.892  18.310  25.654  1.00  0.00     0.163 HD
ATOM     29  O   UNL A   1      42.291  18.400  26.083  1.00  0.00    -0.269 OA
BRANCH  27  30
ATOM     30  C   UNL A   1      42.048  20.688  26.535  1.00  0.00     0.039 A 
ATOM     31  C   UNL A   1      42.472  21.561  25.531  1.00  0.00     0.014 A 
ATOM     32  C   UNL A   1      42.052  21.084  27.874  1.00  0.00     0.014 A 
ATOM     33  C   UNL A   1      42.833  22.867  25.864  1.00  0.00     0.010 A 
ATOM     34  C   UNL A   1      42.348  22.404  28.195  1.00  0.00     0.010 A 
ATOM     35  C   UNL A   1      42.736  23.308  27.194  1.00  0.00    -0.014 A 
BRANCH  35  36
ATOM     36  C   UNL A   1      43.035  24.712  27.571  1.00  0.00     0.031 A 
ATOM     37  C   UNL A   1      44.462  25.144  27.757  1.00  0.00     0.074 A 
ATOM     38  C   UNL A   1      42.028  25.567  27.834  1.00  0.00     0.049 A 
ATOM     39  N   UNL A   1      44.932  26.275  28.217  1.00  0.00    -0.248 NA
ATOM     40  C   UNL A   1      45.499  24.158  27.408  1.00  0.00     0.031 C 
ATOM     41  C   UNL A   1      40.601  25.257  27.727  1.00  0.00     0.029 A 
ATOM     42  N   UNL A   1      42.053  26.869  28.265  1.00  0.00    -0.354 N 
ATOM     43  C   UNL A   1      46.312  26.128  28.235  1.00  0.00     0.074 A 
ATOM     44  C   UNL A   1      46.603  24.785  27.783  1.00  0.00     0.031 C 
ATOM     45  C   UNL A   1      39.889  26.341  28.072  1.00  0.00     0.029 A 
ATOM     46  C   UNL A   1      40.805  27.408  28.462  1.00  0.00     0.049 A 
ATOM     47  H   UNL A   1      42.886  27.370  28.420  1.00  0.00     0.167 HD
ATOM     48  C   UNL A   1      47.254  27.038  28.580  1.00  0.00     0.037 A 
ATOM     49  C   UNL A   1      40.442  28.622  28.920  1.00  0.00     0.037 A 
ATOM     50  C   UNL A   1      46.962  28.384  28.997  1.00  0.00     0.049 A 
ATOM     51  C   UNL A   1      41.507  29.615  29.296  1.00  0.00     0.074 A 
ATOM     52  C   UNL A   1      47.849  29.398  29.314  1.00  0.00     0.029 A 
ATOM     53  N   UNL A   1      45.686  28.902  29.149  1.00  0.00    -0.354 N 
ATOM     54  N   UNL A   1      42.811  29.481  29.260  1.00  0.00    -0.248 NA
ATOM     55  C   UNL A   1      41.051  30.928  29.775  1.00  0.00     0.031 C 
ATOM     56  C   UNL A   1      47.106  30.524  29.689  1.00  0.00     0.029 A 
ATOM     57  C   UNL A   1      45.760  30.221  29.566  1.00  0.00     0.049 A 
ATOM     58  H   UNL A   1      44.851  28.407  28.985  1.00  0.00     0.167 HD
ATOM     59  C   UNL A   1      43.330  30.700  29.678  1.00  0.00     0.074 A 
ATOM     60  C   UNL A   1      42.201  31.562  29.958  1.00  0.00     0.031 C 
ATOM     61  C   UNL A   1      44.625  31.070  29.817  1.00  0.00     0.037 A 
BRANCH  48  62
ATOM     62  C   UNL A   1      48.688  26.607  28.513  1.00  0.00     0.057 A 
ATOM     63  C   UNL A   1      49.452  26.766  27.350  1.00  0.00     0.134 A 
ATOM     64  C   UNL A   1      49.323  26.054  29.633  1.00  0.00     0.134 A 
ATOM     65  F   UNL A   1      48.899  27.275  26.239  1.00  0.00    -0.206 F 
ATOM     66  C   UNL A   1      50.789  26.368  27.293  1.00  0.00     0.040 A 
ATOM     67  C   UNL A   1      50.666  25.676  29.597  1.00  0.00     0.040 A 
ATOM     68  F   UNL A   1      48.650  25.879  30.780  1.00  0.00    -0.206 F 
ATOM     69  C   UNL A   1      51.401  25.828  28.423  1.00  0.00     0.006 A 
ENDBRANCH  48  62
BRANCH  49  70
ATOM     70  C   UNL A   1      39.005  28.978  29.032  1.00  0.00     0.057 A 
ATOM     71  C   UNL A   1      38.312  28.794  30.233  1.00  0.00     0.134 A 
ATOM     72  C   UNL A   1      38.290  29.493  27.944  1.00  0.00     0.134 A 
ATOM     73  F   UNL A   1      38.939  28.286  31.304  1.00  0.00    -0.206 F 
ATOM     74  C   UNL A   1      36.953  29.091  30.346  1.00  0.00     0.040 A 
ATOM     75  C   UNL A   1      36.936  29.816  28.050  1.00  0.00     0.040 A 
ATOM     76  F   UNL A   1      38.900  29.698  26.768  1.00  0.00    -0.206 F 
ATOM     77  C   UNL A   1      36.262  29.608  29.251  1.00  0.00     0.006 A 
ENDBRANCH  49  70
BRANCH  61  78
ATOM     78  C   UNL A   1      44.896  32.481  30.244  1.00  0.00     0.057 A 
ATOM     79  C   UNL A   1      45.075  32.827  31.588  1.00  0.00     0.134 A 
ATOM     80  C   UNL A   1      45.037  33.496  29.288  1.00  0.00     0.134 A 
ATOM     81  F   UNL A   1      44.940  31.903  32.552  1.00  0.00    -0.206 F 
ATOM     82  C   UNL A   1      45.372  34.136  31.969  1.00  0.00     0.040 A 
ATOM     83  C   UNL A   1      45.356  34.803  29.655  1.00  0.00     0.040 A 
ATOM     84  F   UNL A   1      44.886  33.228  27.982  1.00  0.00    -0.206 F 
ATOM     85  C   UNL A   1      45.521  35.127  31.000  1.00  0.00     0.006 A 
ENDBRANCH  61  78
ENDBRANCH  35  36
ENDBRANCH  27  30
ENDBRANCH  25  26
ENDBRANCH  24  25
ENDBRANCH  23  24
ENDBRANCH   1  23
TORSDOF 16
ENDMDL
MODEL 2
REMARK VINA RESULT:     -11.2      1.100      6.287
REMARK SMILES CCN(C[C@H](C)C(=O)NCCCCNC(=O)c1ccc(-c2c3nc(c(-c4c(F)cccc4F)c4ccc([nH]4)c(-c4c(F)cccc4F)c4nc(c(-c5c(F)cccc5F)c5ccc2[nH]5)C=C4)C=C3)cc1)c1ccc(C(=O)NC)nn1
REMARK SMILES IDX 10 1 9 2 7 3 8 4 5 6 6 7 4 8 3 9 2 10 1 11 71 12 72 13 80 14
REMARK SMILES IDX 73 15 79 16 74 17 75 18 76 19 77 20 78 21 11 23 12 24 13 25
REMARK SMILES IDX 14 26 15 27 16 29 17 30 18 31 70 32 19 33 69 34 20 35 21 36
REMARK SMILES IDX 22 37 63 38 23 39 68 40 62 41 64 42 24 43 67 44 61 45 60 46
REMARK SMILES IDX 25 48 51 49 34 50 50 51 35 52 38 53 49 54 65 55 36 56 37 57
REMARK SMILES IDX 48 59 66 60 39 61 26 62 27 63 32 64 28 65 29 66 31 67 33 68
REMARK SMILES IDX 30 69 52 70 53 71 58 72 54 73 55 74 57 75 59 76 56 77 40 78
REMARK SMILES IDX 41 79 46 80 42 81 43 82 45 83 47 84 44 85
REMARK H PARENT 9 5 77 22 14 28 64 47 38 58
REMARK Flexibility Score: inf
ROOT
ATOM      1  C   UNL A   1      37.033  22.557  24.753  1.00  0.00     0.116 C 
ENDROOT
BRANCH   1   2
ATOM      2  N   UNL A   1      36.246  22.866  23.577  1.00  0.00    -0.356 N 
ATOM      3  C   UNL A   1      34.958  23.271  23.433  1.00  0.00     0.224 C 
ATOM      4  O   UNL A   1      34.549  23.406  22.276  1.00  0.00    -0.275 OA
ATOM      5  H   UNL A   1      36.734  22.764  22.728  1.00  0.00     0.163 HD
BRANCH   3   6
ATOM      6  C   UNL A   1      34.062  23.603  24.621  1.00  0.00     0.095 C 
ATOM      7  C   UNL A   1      34.441  24.913  25.304  1.00  0.00     0.020 C 
BRANCH   6   8
ATOM      8  C   UNL A   1      32.596  23.451  24.189  1.00  0.00     0.131 C 
BRANCH   8   9
ATOM      9  N   UNL A   1      31.877  22.294  24.729  1.00  0.00    -0.355 N 
BRANCH   9  10
ATOM     10  C   UNL A   1      30.944  22.457  25.835  1.00  0.00     0.115 C 
ATOM     11  C   UNL A   1      31.345  23.610  26.744  1.00  0.00     0.027 C 
ENDBRANCH   9  10
BRANCH   9  12
ATOM     12  C   UNL A   1      32.385  21.038  24.446  1.00  0.00     0.151 A 
ATOM     13  C   UNL A   1      33.066  20.321  25.420  1.00  0.00     0.051 A 
ATOM     14  N   UNL A   1      32.140  20.452  23.262  1.00  0.00    -0.132 NA
ATOM     15  C   UNL A   1      33.448  18.994  25.189  1.00  0.00     0.040 A 
ATOM     16  N   UNL A   1      32.540  19.148  23.008  1.00  0.00    -0.143 NA
ATOM     17  C   UNL A   1      33.176  18.428  23.957  1.00  0.00     0.150 A 
BRANCH  17  18
ATOM     18  C   UNL A   1      33.419  16.998  23.594  1.00  0.00     0.271 C 
ATOM     19  O   UNL A   1      34.029  16.730  22.557  1.00  0.00    -0.267 OA
ATOM     20  N   UNL A   1      32.995  15.924  24.342  1.00  0.00    -0.354 N 
ATOM     21  C   UNL A   1      32.411  15.798  25.655  1.00  0.00     0.143 C 
ATOM     22  H   UNL A   1      33.118  15.061  23.886  1.00  0.00     0.163 HD
ENDBRANCH  17  18
ENDBRANCH   9  12
ENDBRANCH   8   9
ENDBRANCH   6   8
ENDBRANCH   3   6
ENDBRANCH   1   2
BRANCH   1  23
ATOM     23  C   UNL A   1      36.776  21.133  25.241  1.00  0.00     0.023 C 
BRANCH  23  24
ATOM     24  C   UNL A   1      37.917  20.151  24.966  1.00  0.00     0.023 C 
BRANCH  24  25
ATOM     25  C   UNL A   1      39.204  20.416  25.740  1.00  0.00     0.116 C 
BRANCH  25  26
ATOM     26  N   UNL A   1      40.087  19.261  25.796  1.00  0.00    -0.352 N 
ATOM     27  C   UNL A   1      41.435  19.225  26.075  1.00  0.00     0.251 C 
ATOM     28  H   UNL A   1      39.666  18.391  25.612  1.00  0.00     0.163 HD
ATOM     29  O   UNL A   1      42.067  18.186  25.985  1.00  0.00    -0.269 OA
BRANCH  27  30
ATOM     30  C   UNL A   1      42.113  20.483  26.450  1.00  0.00     0.039 A 
ATOM     31  C   UNL A   1      42.656  21.283  25.442  1.00  0.00     0.014 A 
ATOM     32  C   UNL A   1      42.159  20.890  27.786  1.00  0.00     0.014 A 
ATOM     33  C   UNL A   1      43.182  22.535  25.767  1.00  0.00     0.010 A 
ATOM     34  C   UNL A   1      42.623  22.162  28.097  1.00  0.00     0.010 A 
ATOM     35  C   UNL A   1      43.133  22.999  27.091  1.00  0.00    -0.014 A 
BRANCH  35  36
ATOM     36  C   UNL A   1      43.610  24.355  27.458  1.00  0.00     0.031 A 
ATOM     37  C   UNL A   1      42.620  25.401  27.885  1.00  0.00     0.074 A 
ATOM     38  C   UNL A   1      44.912  24.669  27.322  1.00  0.00     0.049 A 
ATOM     39  N   UNL A   1      42.808  26.676  28.111  1.00  0.00    -0.248 NA
ATOM     40  C   UNL A   1      41.224  24.960  28.048  1.00  0.00     0.031 C 
ATOM     41  C   UNL A   1      45.965  23.753  26.880  1.00  0.00     0.029 A 
ATOM     42  N   UNL A   1      45.570  25.857  27.522  1.00  0.00    -0.354 N 
ATOM     43  C   UNL A   1      41.556  27.192  28.419  1.00  0.00     0.074 A 
ATOM     44  C   UNL A   1      40.609  26.104  28.307  1.00  0.00     0.031 C 
ATOM     45  C   UNL A   1      47.137  24.408  26.854  1.00  0.00     0.029 A 
ATOM     46  C   UNL A   1      46.912  25.799  27.238  1.00  0.00     0.049 A 
ATOM     47  H   UNL A   1      45.121  26.674  27.839  1.00  0.00     0.167 HD
ATOM     48  C   UNL A   1      41.228  28.455  28.780  1.00  0.00     0.037 A 
ATOM     49  C   UNL A   1      47.853  26.763  27.270  1.00  0.00     0.037 A 
ATOM     50  C   UNL A   1      42.177  29.526  28.923  1.00  0.00     0.049 A 
ATOM     51  C   UNL A   1      47.462  28.158  27.674  1.00  0.00     0.074 A 
ATOM     52  C   UNL A   1      41.952  30.827  29.339  1.00  0.00     0.029 A 
ATOM     53  N   UNL A   1      43.534  29.417  28.661  1.00  0.00    -0.354 N 
ATOM     54  N   UNL A   1      46.283  28.620  28.011  1.00  0.00    -0.248 NA
ATOM     55  C   UNL A   1      48.534  29.163  27.705  1.00  0.00     0.031 C 
ATOM     56  C   UNL A   1      43.170  31.515  29.297  1.00  0.00     0.029 A 
ATOM     57  C   UNL A   1      44.158  30.631  28.894  1.00  0.00     0.049 A 
ATOM     58  H   UNL A   1      43.987  28.598  28.353  1.00  0.00     0.167 HD
ATOM     59  C   UNL A   1      46.476  29.960  28.326  1.00  0.00     0.074 A 
ATOM     60  C   UNL A   1      47.886  30.234  28.143  1.00  0.00     0.031 C 
ATOM     61  C   UNL A   1      45.566  30.879  28.729  1.00  0.00     0.037 A 
BRANCH  48  62
ATOM     62  C   UNL A   1      39.782  28.742  29.052  1.00  0.00     0.057 A 
ATOM     63  C   UNL A   1      38.918  29.190  28.044  1.00  0.00     0.134 A 
ATOM     64  C   UNL A   1      39.239  28.540  30.327  1.00  0.00     0.134 A 
ATOM     65  F   UNL A   1      39.379  29.417  26.805  1.00  0.00    -0.206 F 
ATOM     66  C   UNL A   1      37.571  29.451  28.299  1.00  0.00     0.040 A 
ATOM     67  C   UNL A   1      37.887  28.773  30.589  1.00  0.00     0.040 A 
ATOM     68  F   UNL A   1      40.010  28.108  31.335  1.00  0.00    -0.206 F 
ATOM     69  C   UNL A   1      37.051  29.235  29.575  1.00  0.00     0.006 A 
ENDBRANCH  48  62
BRANCH  49  70
ATOM     70  C   UNL A   1      49.261  26.442  26.925  1.00  0.00     0.057 A 
ATOM     71  C   UNL A   1      50.134  25.922  27.886  1.00  0.00     0.134 A 
ATOM     72  C   UNL A   1      49.769  26.661  25.639  1.00  0.00     0.134 A 
ATOM     73  F   UNL A   1      49.709  25.709  29.140  1.00  0.00    -0.206 F 
ATOM     74  C   UNL A   1      51.470  25.647  27.587  1.00  0.00     0.040 A 
ATOM     75  C   UNL A   1      51.096  26.369  25.321  1.00  0.00     0.040 A 
ATOM     76  F   UNL A   1      48.979  27.152  24.673  1.00  0.00    -0.206 F 
ATOM     77  C   UNL A   1      51.953  25.868  26.299  1.00  0.00     0.006 A 
ENDBRANCH  49  70
BRANCH  61  78
ATOM     78  C   UNL A   1      46.071  32.253  29.050  1.00  0.00     0.057 A 
ATOM     79  C   UNL A   1      46.124  33.266  28.086  1.00  0.00     0.134 A 
ATOM     80  C   UNL A   1      46.455  32.580  30.357  1.00  0.00     0.134 A 
ATOM     81  F   UNL A   1      45.782  33.012  26.813  1.00  0.00    -0.206 F 
ATOM     82  C   UNL A   1      46.553  34.555  28.407  1.00  0.00     0.040 A 
ATOM     83  C   UNL A   1      46.864  33.870  30.695  1.00  0.00     0.040 A 
ATOM     84  F   UNL A   1      46.420  31.656  31.329  1.00  0.00    -0.206 F 
ATOM     85  C   UNL A   1      46.916  34.861  29.718  1.00  0.00     0.006 A 
ENDBRANCH  61  78
ENDBRANCH  35  36
ENDBRANCH  27  30
ENDBRANCH  25  26
ENDBRANCH  24  25
ENDBRANCH  23  24
ENDBRANCH   1  23
TORSDOF 16
ENDMDL
MODEL 3
REMARK VINA RESULT:     -11.1      5.713      9.788
REMARK SMILES CCN(C[C@H](C)C(=O)NCCCCNC(=O)c1ccc(-c2c3nc(c(-c4c(F)cccc4F)c4ccc([nH]4)c(-c4c(F)cccc4F)c4nc(c(-c5c(F)cccc5F)c5ccc2[nH]5)C=C4)C=C3)cc1)c1ccc(C(=O)NC)nn1
REMARK SMILES IDX 10 1 9 2 7 3 8 4 5 6 6 7 4 8 3 9 2 10 1 11 71 12 72 13 80 14
REMARK SMILES IDX 73 15 79 16 74 17 75 18 76 19 77 20 78 21 11 23 12 24 13 25
REMARK SMILES IDX 14 26 15 27 16 29 17 30 18 31 70 32 19 33 69 34 20 35 21 36
REMARK SMILES IDX 22 37 63 38 23 39 68 40 62 41 64 42 24 43 67 44 61 45 60 46
REMARK SMILES IDX 25 48 51 49 34 50 50 51 35 52 38 53 49 54 65 55 36 56 37 57
REMARK SMILES IDX 48 59 66 60 39 61 26 62 27 63 32 64 28 65 29 66 31 67 33 68
REMARK SMILES IDX 30 69 52 70 53 71 58 72 54 73 55 74 57 75 59 76 56 77 40 78
REMARK SMILES IDX 41 79 46 80 42 81 43 82 45 83 47 84 44 85
REMARK H PARENT 9 5 77 22 14 28 64 47 38 58
REMARK Flexibility Score: inf
ROOT
ATOM      1  C   UNL A   1      32.721  29.733  25.180  1.00  0.00     0.116 C 
ENDROOT
BRANCH   1   2
ATOM      2  N   UNL A   1      32.932  28.337  25.501  1.00  0.00    -0.356 N 
ATOM      3  C   UNL A   1      32.788  27.208  24.760  1.00  0.00     0.224 C 
ATOM      4  O   UNL A   1      32.999  26.138  25.339  1.00  0.00    -0.275 OA
ATOM      5  H   UNL A   1      33.236  28.178  26.424  1.00  0.00     0.163 HD
BRANCH   3   6
ATOM      6  C   UNL A   1      32.443  27.237  23.276  1.00  0.00     0.095 C 
ATOM      7  C   UNL A   1      33.634  26.911  22.381  1.00  0.00     0.020 C 
BRANCH   6   8
ATOM      8  C   UNL A   1      31.167  26.411  23.052  1.00  0.00     0.131 C 
BRANCH   8   9
ATOM      9  N   UNL A   1      29.923  26.987  23.568  1.00  0.00    -0.355 N 
BRANCH   9  10
ATOM     10  C   UNL A   1      29.076  26.222  24.474  1.00  0.00     0.115 C 
ATOM     11  C   UNL A   1      29.883  25.593  25.600  1.00  0.00     0.027 C 
ENDBRANCH   9  10
BRANCH   9  12
ATOM     12  C   UNL A   1      29.389  28.068  22.889  1.00  0.00     0.151 A 
ATOM     13  C   UNL A   1      28.092  28.490  23.149  1.00  0.00     0.051 A 
ATOM     14  N   UNL A   1      30.146  28.787  22.042  1.00  0.00    -0.132 NA
ATOM     15  C   UNL A   1      27.600  29.670  22.578  1.00  0.00     0.040 A 
ATOM     16  N   UNL A   1      29.661  29.941  21.446  1.00  0.00    -0.143 NA
ATOM     17  C   UNL A   1      28.412  30.380  21.714  1.00  0.00     0.150 A 
BRANCH  17  18
ATOM     18  C   UNL A   1      28.078  31.708  21.113  1.00  0.00     0.271 C 
ATOM     19  O   UNL A   1      27.490  31.753  20.030  1.00  0.00    -0.267 OA
ATOM     20  N   UNL A   1      28.391  32.919  21.684  1.00  0.00    -0.354 N 
ATOM     21  C   UNL A   1      28.913  33.305  22.972  1.00  0.00     0.143 C 
ATOM     22  H   UNL A   1      28.221  33.684  21.087  1.00  0.00     0.163 HD
ENDBRANCH  17  18
ENDBRANCH   9  12
ENDBRANCH   8   9
ENDBRANCH   6   8
ENDBRANCH   3   6
ENDBRANCH   1   2
BRANCH   1  23
ATOM     23  C   UNL A   1      31.271  30.149  25.417  1.00  0.00     0.023 C 
BRANCH  23  24
ATOM     24  C   UNL A   1      31.103  31.516  26.086  1.00  0.00     0.023 C 
BRANCH  24  25
ATOM     25  C   UNL A   1      32.342  32.049  26.797  1.00  0.00     0.116 C 
BRANCH  25  26
ATOM     26  N   UNL A   1      32.188  33.417  27.270  1.00  0.00    -0.352 N 
ATOM     27  C   UNL A   1      32.995  34.121  28.135  1.00  0.00     0.251 C 
ATOM     28  H   UNL A   1      31.405  33.903  26.924  1.00  0.00     0.163 HD
ATOM     29  O   UNL A   1      32.680  35.234  28.520  1.00  0.00    -0.269 OA
BRANCH  27  30
ATOM     30  C   UNL A   1      34.237  33.484  28.621  1.00  0.00     0.039 A 
ATOM     31  C   UNL A   1      35.434  34.201  28.552  1.00  0.00     0.014 A 
ATOM     32  C   UNL A   1      34.200  32.209  29.189  1.00  0.00     0.014 A 
ATOM     33  C   UNL A   1      36.588  33.665  29.125  1.00  0.00     0.010 A 
ATOM     34  C   UNL A   1      35.334  31.708  29.817  1.00  0.00     0.010 A 
ATOM     35  C   UNL A   1      36.537  32.433  29.796  1.00  0.00    -0.014 A 
BRANCH  35  36
ATOM     36  C   UNL A   1      37.725  31.872  30.486  1.00  0.00     0.031 A 
ATOM     37  C   UNL A   1      38.540  30.804  29.813  1.00  0.00     0.074 A 
ATOM     38  C   UNL A   1      38.016  32.255  31.744  1.00  0.00     0.049 A 
ATOM     39  N   UNL A   1      39.523  30.088  30.292  1.00  0.00    -0.248 NA
ATOM     40  C   UNL A   1      38.177  30.476  28.423  1.00  0.00     0.031 C 
ATOM     41  C   UNL A   1      37.279  33.255  32.519  1.00  0.00     0.029 A 
ATOM     42  N   UNL A   1      39.000  31.831  32.600  1.00  0.00    -0.354 N 
ATOM     43  C   UNL A   1      39.880  29.211  29.275  1.00  0.00     0.074 A 
ATOM     44  C   UNL A   1      38.980  29.454  28.170  1.00  0.00     0.031 C 
ATOM     45  C   UNL A   1      37.843  33.375  33.731  1.00  0.00     0.029 A 
ATOM     46  C   UNL A   1      38.955  32.435  33.833  1.00  0.00     0.049 A 
ATOM     47  H   UNL A   1      39.675  31.157  32.355  1.00  0.00     0.167 HD
ATOM     48  C   UNL A   1      40.881  28.299  29.259  1.00  0.00     0.037 A 
ATOM     49  C   UNL A   1      39.716  32.241  34.928  1.00  0.00     0.037 A 
ATOM     50  C   UNL A   1      41.795  28.084  30.348  1.00  0.00     0.049 A 
ATOM     51  C   UNL A   1      40.821  31.221  34.883  1.00  0.00     0.074 A 
ATOM     52  C   UNL A   1      42.877  27.222  30.407  1.00  0.00     0.029 A 
ATOM     53  N   UNL A   1      41.738  28.741  31.567  1.00  0.00    -0.354 N 
ATOM     54  N   UNL A   1      41.180  30.435  33.898  1.00  0.00    -0.248 NA
ATOM     55  C   UNL A   1      41.627  31.064  36.102  1.00  0.00     0.031 C 
ATOM     56  C   UNL A   1      43.456  27.336  31.676  1.00  0.00     0.029 A 
ATOM     57  C   UNL A   1      42.759  28.296  32.390  1.00  0.00     0.049 A 
ATOM     58  H   UNL A   1      41.071  29.423  31.811  1.00  0.00     0.167 HD
ATOM     59  C   UNL A   1      42.272  29.714  34.365  1.00  0.00     0.074 A 
ATOM     60  C   UNL A   1      42.520  30.161  35.720  1.00  0.00     0.031 C 
ATOM     61  C   UNL A   1      43.004  28.769  33.727  1.00  0.00     0.037 A 
BRANCH  48  62
ATOM     62  C   UNL A   1      41.039  27.471  28.019  1.00  0.00     0.057 A 
ATOM     63  C   UNL A   1      41.810  27.909  26.934  1.00  0.00     0.134 A 
ATOM     64  C   UNL A   1      40.440  26.209  27.919  1.00  0.00     0.134 A 
ATOM     65  F   UNL A   1      42.398  29.114  26.962  1.00  0.00    -0.206 F 
ATOM     66  C   UNL A   1      41.960  27.132  25.784  1.00  0.00     0.040 A 
ATOM     67  C   UNL A   1      40.604  25.411  26.785  1.00  0.00     0.040 A 
ATOM     68  F   UNL A   1      39.693  25.728  28.924  1.00  0.00    -0.206 F 
ATOM     69  C   UNL A   1      41.361  25.875  25.711  1.00  0.00     0.006 A 
ENDBRANCH  48  62
BRANCH  49  70
ATOM     70  C   UNL A   1      39.475  33.039  36.155  1.00  0.00     0.057 A 
ATOM     71  C   UNL A   1      38.565  32.607  37.126  1.00  0.00     0.134 A 
ATOM     72  C   UNL A   1      40.132  34.255  36.381  1.00  0.00     0.134 A 
ATOM     73  F   UNL A   1      37.891  31.460  36.956  1.00  0.00    -0.206 F 
ATOM     74  C   UNL A   1      38.301  33.362  38.270  1.00  0.00     0.040 A 
ATOM     75  C   UNL A   1      39.895  35.009  37.531  1.00  0.00     0.040 A 
ATOM     76  F   UNL A   1      41.021  34.719  35.491  1.00  0.00    -0.206 F 
ATOM     77  C   UNL A   1      38.971  34.567  38.476  1.00  0.00     0.006 A 
ENDBRANCH  49  70
BRANCH  61  78
ATOM     78  C   UNL A   1      44.171  28.188  34.466  1.00  0.00     0.057 A 
ATOM     79  C   UNL A   1      45.437  28.783  34.435  1.00  0.00     0.134 A 
ATOM     80  C   UNL A   1      44.008  27.049  35.267  1.00  0.00     0.134 A 
ATOM     81  F   UNL A   1      45.660  29.868  33.677  1.00  0.00    -0.206 F 
ATOM     82  C   UNL A   1      46.506  28.259  35.164  1.00  0.00     0.040 A 
ATOM     83  C   UNL A   1      45.063  26.530  36.017  1.00  0.00     0.040 A 
ATOM     84  F   UNL A   1      42.817  26.437  35.345  1.00  0.00    -0.206 F 
ATOM     85  C   UNL A   1      46.317  27.133  35.964  1.00  0.00     0.006 A 
ENDBRANCH  61  78
ENDBRANCH  35  36
ENDBRANCH  27  30
ENDBRANCH  25  26
ENDBRANCH  24  25
ENDBRANCH  23  24
ENDBRANCH   1  23
TORSDOF 16
ENDMDL
