MODEL 1
REMARK VINA RESULT:     -12.0      0.000      0.000
REMARK SMILES CCCc1cc(OC(F)(F)F)cc2c1O[C@H](C(F)(F)F)C(C(=O)NCCCCNC(=O)c1ccc(-c3c4nc(c(-c5c(F)cccc5F)c5ccc([nH]5)c(-c5c(F)cccc5F)c5nc(c(-c6c(F)cccc6F)c6ccc3[nH]6)C=C5)C=C4)cc1)=C2
REMARK SMILES IDX 26 1 25 2 24 3 22 4 23 5 21 7 4 8 5 9 14 10 6 11 13 12 15 13
REMARK SMILES IDX 12 14 86 15 16 16 3 17 2 18 1 19 7 20 8 21 9 22 10 23 11 24
REMARK SMILES IDX 17 25 18 26 19 27 20 28 27 29 28 30 29 31 30 32 31 34 32 35
REMARK SMILES IDX 33 36 85 37 34 38 84 39 35 40 36 41 37 42 78 43 38 44 83 45
REMARK SMILES IDX 77 46 79 47 39 48 82 49 76 50 75 51 40 53 66 54 49 55 65 56
REMARK SMILES IDX 50 57 53 58 64 59 80 60 51 61 52 62 63 64 81 65 54 66 41 67
REMARK SMILES IDX 42 68 47 69 43 70 44 71 46 72 48 73 45 74 67 75 68 76 73 77
REMARK SMILES IDX 69 78 70 79 72 80 74 81 71 82 55 83 56 84 61 85 57 86 58 87
REMARK SMILES IDX 60 88 62 89 59 90
REMARK H PARENT 24 6 29 33 79 52 53 63
REMARK Flexibility Score: inf
ROOT
ATOM      1  C   UNL A   1      31.529  30.334  26.371  1.00  0.00     0.023 C 
ENDROOT
BRANCH   1   2
ATOM      2  C   UNL A   1      32.895  29.860  25.868  1.00  0.00     0.116 C 
BRANCH   2   3
ATOM      3  N   UNL A   1      32.878  29.707  24.427  1.00  0.00    -0.352 N 
ATOM      4  C   UNL A   1      32.957  28.618  23.618  1.00  0.00     0.251 C 
ATOM      5  O   UNL A   1      32.910  28.809  22.405  1.00  0.00    -0.270 OA
ATOM      6  H   UNL A   1      32.792  30.558  23.938  1.00  0.00     0.163 HD
BRANCH   4   7
ATOM      7  C   UNL A   1      32.984  27.220  24.134  1.00  0.00     0.067 C 
ATOM      8  C   UNL A   1      32.826  23.698  26.432  1.00  0.00    -0.002 A 
ATOM      9  C   UNL A   1      33.993  22.913  26.508  1.00  0.00     0.054 A 
ATOM     10  C   UNL A   1      32.837  24.838  25.612  1.00  0.00     0.131 A 
ATOM     11  C   UNL A   1      35.108  23.188  25.718  1.00  0.00     0.130 A 
ATOM     12  C   UNL A   1      33.966  25.141  24.847  1.00  0.00     0.021 A 
ATOM     13  O   UNL A   1      31.759  25.677  25.668  1.00  0.00    -0.475 OA
ATOM     14  C   UNL A   1      35.089  24.306  24.891  1.00  0.00     0.058 A 
ATOM     15  C   UNL A   1      34.039  26.397  24.116  1.00  0.00     0.025 C 
ATOM     16  C   UNL A   1      31.647  26.714  24.653  1.00  0.00     0.314 C 
BRANCH   8  17
ATOM     17  C   UNL A   1      31.619  23.306  27.258  1.00  0.00     0.039 C 
BRANCH  17  18
ATOM     18  C   UNL A   1      30.410  22.825  26.440  1.00  0.00     0.001 C 
ATOM     19  C   UNL A   1      29.146  22.571  27.252  1.00  0.00     0.004 C 
ENDBRANCH  17  18
ENDBRANCH   8  17
BRANCH  11  20
ATOM     20  O   UNL A   1      36.271  22.476  25.696  1.00  0.00    -0.406 OA
BRANCH  20  21
ATOM     21  C   UNL A   1      36.423  21.516  24.661  1.00  0.00     0.573 C 
ATOM     22  F   UNL A   1      35.297  20.787  24.511  1.00  0.00    -0.132 F 
ATOM     23  F   UNL A   1      36.740  22.105  23.488  1.00  0.00    -0.132 F 
ATOM     24  F   UNL A   1      37.426  20.676  24.996  1.00  0.00    -0.132 F 
ENDBRANCH  20  21
ENDBRANCH  11  20
BRANCH  16  25
ATOM     25  C   UNL A   1      30.737  26.224  23.505  1.00  0.00     0.429 C 
ATOM     26  F   UNL A   1      29.912  25.224  23.901  1.00  0.00    -0.167 F 
ATOM     27  F   UNL A   1      29.944  27.226  23.045  1.00  0.00    -0.167 F 
ATOM     28  F   UNL A   1      31.432  25.772  22.440  1.00  0.00    -0.167 F 
ENDBRANCH  16  25
ENDBRANCH   4   7
ENDBRANCH   2   3
ENDBRANCH   1   2
BRANCH   1  29
ATOM     29  C   UNL A   1      31.411  31.854  26.503  1.00  0.00     0.023 C 
BRANCH  29  30
ATOM     30  C   UNL A   1      32.667  32.540  27.024  1.00  0.00     0.116 C 
BRANCH  30  31
ATOM     31  N   UNL A   1      32.419  33.883  27.524  1.00  0.00    -0.352 N 
ATOM     32  C   UNL A   1      33.078  34.561  28.521  1.00  0.00     0.251 C 
ATOM     33  H   UNL A   1      31.682  34.371  27.091  1.00  0.00     0.163 HD
ATOM     34  O   UNL A   1      32.667  35.645  28.906  1.00  0.00    -0.269 OA
BRANCH  32  35
ATOM     35  C   UNL A   1      34.267  33.947  29.147  1.00  0.00     0.039 A 
ATOM     36  C   UNL A   1      34.078  32.923  30.078  1.00  0.00     0.014 A 
ATOM     37  C   UNL A   1      35.556  34.368  28.813  1.00  0.00     0.014 A 
ATOM     38  C   UNL A   1      35.188  32.296  30.642  1.00  0.00     0.010 A 
ATOM     39  C   UNL A   1      36.659  33.683  29.309  1.00  0.00     0.010 A 
ATOM     40  C   UNL A   1      36.487  32.654  30.245  1.00  0.00    -0.014 A 
BRANCH  40  41
ATOM     41  C   UNL A   1      37.671  31.978  30.829  1.00  0.00     0.031 A 
ATOM     42  C   UNL A   1      38.161  32.362  32.199  1.00  0.00     0.074 A 
ATOM     43  C   UNL A   1      38.319  31.038  30.117  1.00  0.00     0.049 A 
ATOM     44  N   UNL A   1      39.165  31.878  32.884  1.00  0.00    -0.248 NA
ATOM     45  C   UNL A   1      37.446  33.454  32.880  1.00  0.00     0.031 C 
ATOM     46  C   UNL A   1      37.977  30.621  28.755  1.00  0.00     0.029 A 
ATOM     47  N   UNL A   1      39.399  30.257  30.441  1.00  0.00    -0.354 N 
ATOM     48  C   UNL A   1      39.204  32.606  34.065  1.00  0.00     0.074 A 
ATOM     49  C   UNL A   1      38.171  33.613  33.976  1.00  0.00     0.031 C 
ATOM     50  C   UNL A   1      38.804  29.635  28.377  1.00  0.00     0.029 A 
ATOM     51  C   UNL A   1      39.754  29.371  29.453  1.00  0.00     0.049 A 
ATOM     52  H   UNL A   1      39.874  30.324  31.301  1.00  0.00     0.167 HD
ATOM     53  C   UNL A   1      40.007  32.434  35.142  1.00  0.00     0.037 A 
ATOM     54  C   UNL A   1      40.731  28.446  29.424  1.00  0.00     0.037 A 
ATOM     55  C   UNL A   1      41.023  31.418  35.234  1.00  0.00     0.049 A 
ATOM     56  C   UNL A   1      41.607  28.271  30.634  1.00  0.00     0.074 A 
ATOM     57  C   UNL A   1      41.854  31.123  36.299  1.00  0.00     0.029 A 
ATOM     58  N   UNL A   1      41.347  30.532  34.216  1.00  0.00    -0.354 N 
ATOM     59  N   UNL A   1      41.582  28.915  31.776  1.00  0.00    -0.248 NA
ATOM     60  C   UNL A   1      42.641  27.230  30.553  1.00  0.00     0.031 C 
ATOM     61  C   UNL A   1      42.715  30.092  35.910  1.00  0.00     0.029 A 
ATOM     62  C   UNL A   1      42.381  29.705  34.622  1.00  0.00     0.049 A 
ATOM     63  H   UNL A   1      40.907  30.498  33.337  1.00  0.00     0.167 HD
ATOM     64  C   UNL A   1      42.572  28.337  32.561  1.00  0.00     0.074 A 
ATOM     65  C   UNL A   1      43.163  27.278  31.770  1.00  0.00     0.031 C 
ATOM     66  C   UNL A   1      42.958  28.654  33.821  1.00  0.00     0.037 A 
BRANCH  53  67
ATOM     67  C   UNL A   1      39.813  33.363  36.307  1.00  0.00     0.057 A 
ATOM     68  C   UNL A   1      40.503  34.579  36.407  1.00  0.00     0.134 A 
ATOM     69  C   UNL A   1      38.909  33.051  37.330  1.00  0.00     0.134 A 
ATOM     70  F   UNL A   1      41.395  34.935  35.469  1.00  0.00    -0.206 F 
ATOM     71  C   UNL A   1      40.324  35.435  37.495  1.00  0.00     0.040 A 
ATOM     72  C   UNL A   1      38.698  33.913  38.407  1.00  0.00     0.040 A 
ATOM     73  F   UNL A   1      38.211  31.906  37.297  1.00  0.00    -0.206 F 
ATOM     74  C   UNL A   1      39.413  35.106  38.496  1.00  0.00     0.006 A 
ENDBRANCH  53  67
BRANCH  54  75
ATOM     75  C   UNL A   1      40.913  27.589  28.225  1.00  0.00     0.057 A 
ATOM     76  C   UNL A   1      41.747  27.985  27.172  1.00  0.00     0.134 A 
ATOM     77  C   UNL A   1      40.249  26.364  28.093  1.00  0.00     0.134 A 
ATOM     78  F   UNL A   1      42.398  29.156  27.231  1.00  0.00    -0.206 F 
ATOM     79  C   UNL A   1      41.893  27.209  26.021  1.00  0.00     0.040 A 
ATOM     80  C   UNL A   1      40.408  25.564  26.960  1.00  0.00     0.040 A 
ATOM     81  F   UNL A   1      39.443  25.921  29.070  1.00  0.00    -0.206 F 
ATOM     82  C   UNL A   1      41.224  25.991  25.915  1.00  0.00     0.006 A 
ENDBRANCH  54  75
BRANCH  66  83
ATOM     83  C   UNL A   1      44.047  27.819  34.432  1.00  0.00     0.057 A 
ATOM     84  C   UNL A   1      43.774  26.624  35.112  1.00  0.00     0.134 A 
ATOM     85  C   UNL A   1      45.388  28.209  34.327  1.00  0.00     0.134 A 
ATOM     86  F   UNL A   1      42.511  26.198  35.260  1.00  0.00    -0.206 F 
ATOM     87  C   UNL A   1      44.792  25.869  35.698  1.00  0.00     0.040 A 
ATOM     88  C   UNL A   1      46.417  27.446  34.879  1.00  0.00     0.040 A 
ATOM     89  F   UNL A   1      45.722  29.335  33.678  1.00  0.00    -0.206 F 
ATOM     90  C   UNL A   1      46.119  26.278  35.578  1.00  0.00     0.006 A 
ENDBRANCH  66  83
ENDBRANCH  40  41
ENDBRANCH  32  35
ENDBRANCH  30  31
ENDBRANCH  29  30
ENDBRANCH   1  29
TORSDOF 16
ENDMDL
MODEL 2
REMARK VINA RESULT:     -12.0      4.236      9.208
REMARK SMILES CCCc1cc(OC(F)(F)F)cc2c1O[C@H](C(F)(F)F)C(C(=O)NCCCCNC(=O)c1ccc(-c3c4nc(c(-c5c(F)cccc5F)c5ccc([nH]5)c(-c5c(F)cccc5F)c5nc(c(-c6c(F)cccc6F)c6ccc3[nH]6)C=C5)C=C4)cc1)=C2
REMARK SMILES IDX 26 1 25 2 24 3 22 4 23 5 21 7 4 8 5 9 14 10 6 11 13 12 15 13
REMARK SMILES IDX 12 14 86 15 16 16 3 17 2 18 1 19 7 20 8 21 9 22 10 23 11 24
REMARK SMILES IDX 17 25 18 26 19 27 20 28 27 29 28 30 29 31 30 32 31 34 32 35
REMARK SMILES IDX 33 36 85 37 34 38 84 39 35 40 36 41 37 42 78 43 38 44 83 45
REMARK SMILES IDX 77 46 79 47 39 48 82 49 76 50 75 51 40 53 66 54 49 55 65 56
REMARK SMILES IDX 50 57 53 58 64 59 80 60 51 61 52 62 63 64 81 65 54 66 41 67
REMARK SMILES IDX 42 68 47 69 43 70 44 71 46 72 48 73 45 74 67 75 68 76 73 77
REMARK SMILES IDX 69 78 70 79 72 80 74 81 71 82 55 83 56 84 61 85 57 86 58 87
REMARK SMILES IDX 60 88 62 89 59 90
REMARK H PARENT 24 6 29 33 79 52 53 63
REMARK Flexibility Score: inf
ROOT
ATOM      1  C   UNL A   1      39.273  22.319  26.406  1.00  0.00     0.023 C 
ENDROOT
BRANCH   1   2
ATOM      2  C   UNL A   1      38.095  23.213  26.011  1.00  0.00     0.116 C 
BRANCH   2   3
ATOM      3  N   UNL A   1      37.741  22.999  24.622  1.00  0.00    -0.352 N 
ATOM      4  C   UNL A   1      36.571  23.121  23.944  1.00  0.00     0.251 C 
ATOM      5  O   UNL A   1      36.584  22.867  22.742  1.00  0.00    -0.270 OA
ATOM      6  H   UNL A   1      38.497  22.709  24.061  1.00  0.00     0.163 HD
BRANCH   4   7
ATOM      7  C   UNL A   1      35.321  23.648  24.562  1.00  0.00     0.067 C 
ATOM      8  C   UNL A   1      31.374  24.758  25.513  1.00  0.00    -0.002 A 
ATOM      9  C   UNL A   1      31.104  26.128  25.688  1.00  0.00     0.054 A 
ATOM     10  C   UNL A   1      32.699  24.361  25.267  1.00  0.00     0.131 A 
ATOM     11  C   UNL A   1      32.127  27.074  25.721  1.00  0.00     0.130 A 
ATOM     12  C   UNL A   1      33.724  25.310  25.259  1.00  0.00     0.021 A 
ATOM     13  O   UNL A   1      32.926  23.053  24.941  1.00  0.00    -0.475 OA
ATOM     14  C   UNL A   1      33.437  26.657  25.504  1.00  0.00     0.058 A 
ATOM     15  C   UNL A   1      35.070  24.929  24.857  1.00  0.00     0.025 C 
ATOM     16  C   UNL A   1      34.303  22.580  24.930  1.00  0.00     0.314 C 
BRANCH   8  17
ATOM     17  C   UNL A   1      30.229  23.768  25.562  1.00  0.00     0.039 C 
BRANCH  17  18
ATOM     18  C   UNL A   1      30.306  22.754  26.714  1.00  0.00     0.001 C 
ATOM     19  C   UNL A   1      29.030  22.622  27.539  1.00  0.00     0.004 C 
ENDBRANCH  17  18
ENDBRANCH   8  17
BRANCH  11  20
ATOM     20  O   UNL A   1      31.975  28.416  25.913  1.00  0.00    -0.406 OA
BRANCH  20  21
ATOM     21  C   UNL A   1      32.043  28.891  27.248  1.00  0.00     0.573 C 
ATOM     22  F   UNL A   1      31.547  30.144  27.340  1.00  0.00    -0.132 F 
ATOM     23  F   UNL A   1      31.374  28.078  28.093  1.00  0.00    -0.132 F 
ATOM     24  F   UNL A   1      33.338  28.923  27.630  1.00  0.00    -0.132 F 
ENDBRANCH  20  21
ENDBRANCH  11  20
BRANCH  16  25
ATOM     25  C   UNL A   1      34.636  21.915  26.283  1.00  0.00     0.429 C 
ATOM     26  F   UNL A   1      35.659  21.031  26.179  1.00  0.00    -0.167 F 
ATOM     27  F   UNL A   1      35.011  22.839  27.206  1.00  0.00    -0.167 F 
ATOM     28  F   UNL A   1      33.587  21.253  26.816  1.00  0.00    -0.167 F 
ENDBRANCH  16  25
ENDBRANCH   4   7
ENDBRANCH   2   3
ENDBRANCH   1   2
BRANCH   1  29
ATOM     29  C   UNL A   1      39.323  20.990  25.650  1.00  0.00     0.023 C 
BRANCH  29  30
ATOM     30  C   UNL A   1      39.871  19.823  26.460  1.00  0.00     0.116 C 
BRANCH  30  31
ATOM     31  N   UNL A   1      41.067  19.235  25.880  1.00  0.00    -0.352 N 
ATOM     32  C   UNL A   1      42.324  19.778  25.776  1.00  0.00     0.251 C 
ATOM     33  H   UNL A   1      40.963  18.326  25.515  1.00  0.00     0.163 HD
ATOM     34  O   UNL A   1      43.198  19.196  25.149  1.00  0.00    -0.269 OA
BRANCH  32  35
ATOM     35  C   UNL A   1      42.598  21.090  26.397  1.00  0.00     0.039 A 
ATOM     36  C   UNL A   1      42.907  22.171  25.568  1.00  0.00     0.014 A 
ATOM     37  C   UNL A   1      42.541  21.257  27.783  1.00  0.00     0.014 A 
ATOM     38  C   UNL A   1      43.118  23.428  26.131  1.00  0.00     0.010 A 
ATOM     39  C   UNL A   1      42.663  22.528  28.333  1.00  0.00     0.010 A 
ATOM     40  C   UNL A   1      42.975  23.622  27.515  1.00  0.00    -0.014 A 
BRANCH  40  41
ATOM     41  C   UNL A   1      43.180  24.963  28.117  1.00  0.00     0.031 A 
ATOM     42  C   UNL A   1      44.561  25.405  28.521  1.00  0.00     0.074 A 
ATOM     43  C   UNL A   1      42.123  25.769  28.323  1.00  0.00     0.049 A 
ATOM     44  N   UNL A   1      44.944  26.540  29.047  1.00  0.00    -0.248 NA
ATOM     45  C   UNL A   1      45.652  24.434  28.336  1.00  0.00     0.031 C 
ATOM     46  C   UNL A   1      40.728  25.430  28.030  1.00  0.00     0.029 A 
ATOM     47  N   UNL A   1      42.055  27.044  28.824  1.00  0.00    -0.354 N 
ATOM     48  C   UNL A   1      46.310  26.417  29.259  1.00  0.00     0.074 A 
ATOM     49  C   UNL A   1      46.679  25.073  28.873  1.00  0.00     0.031 C 
ATOM     50  C   UNL A   1      39.950  26.484  28.318  1.00  0.00     0.029 A 
ATOM     51  C   UNL A   1      40.782  27.560  28.846  1.00  0.00     0.049 A 
ATOM     52  H   UNL A   1      42.845  27.543  29.137  1.00  0.00     0.167 HD
ATOM     53  C   UNL A   1      47.187  27.348  29.704  1.00  0.00     0.037 A 
ATOM     54  C   UNL A   1      40.340  28.769  29.240  1.00  0.00     0.037 A 
ATOM     55  C   UNL A   1      46.819  28.690  30.070  1.00  0.00     0.049 A 
ATOM     56  C   UNL A   1      41.334  29.786  29.728  1.00  0.00     0.074 A 
ATOM     57  C   UNL A   1      47.636  29.727  30.482  1.00  0.00     0.029 A 
ATOM     58  N   UNL A   1      45.521  29.180  30.070  1.00  0.00    -0.354 N 
ATOM     59  N   UNL A   1      42.636  29.683  29.848  1.00  0.00    -0.248 NA
ATOM     60  C   UNL A   1      40.796  31.096  30.122  1.00  0.00     0.031 C 
ATOM     61  C   UNL A   1      46.828  30.829  30.779  1.00  0.00     0.029 A 
ATOM     62  C   UNL A   1      45.513  30.498  30.495  1.00  0.00     0.049 A 
ATOM     63  H   UNL A   1      44.724  28.666  29.806  1.00  0.00     0.167 HD
ATOM     64  C   UNL A   1      43.076  30.920  30.302  1.00  0.00     0.074 A 
ATOM     65  C   UNL A   1      41.904  31.763  30.413  1.00  0.00     0.031 C 
ATOM     66  C   UNL A   1      44.336  31.323  30.600  1.00  0.00     0.037 A 
BRANCH  53  67
ATOM     67  C   UNL A   1      48.630  26.943  29.815  1.00  0.00     0.057 A 
ATOM     68  C   UNL A   1      49.532  27.117  28.755  1.00  0.00     0.134 A 
ATOM     69  C   UNL A   1      49.132  26.393  31.002  1.00  0.00     0.134 A 
ATOM     70  F   UNL A   1      49.116  27.625  27.584  1.00  0.00    -0.206 F 
ATOM     71  C   UNL A   1      50.869  26.731  28.861  1.00  0.00     0.040 A 
ATOM     72  C   UNL A   1      50.474  26.033  31.130  1.00  0.00     0.040 A 
ATOM     73  F   UNL A   1      48.327  26.203  32.057  1.00  0.00    -0.206 F 
ATOM     74  C   UNL A   1      51.346  26.194  30.055  1.00  0.00     0.006 A 
ENDBRANCH  53  67
BRANCH  54  75
ATOM     75  C   UNL A   1      38.894  29.097  29.159  1.00  0.00     0.057 A 
ATOM     76  C   UNL A   1      38.307  29.488  27.948  1.00  0.00     0.134 A 
ATOM     77  C   UNL A   1      38.067  29.044  30.287  1.00  0.00     0.134 A 
ATOM     78  F   UNL A   1      39.050  29.575  26.835  1.00  0.00    -0.206 F 
ATOM     79  C   UNL A   1      36.959  29.840  27.868  1.00  0.00     0.040 A 
ATOM     80  C   UNL A   1      36.711  29.365  30.215  1.00  0.00     0.040 A 
ATOM     81  F   UNL A   1      38.564  28.666  31.474  1.00  0.00    -0.206 F 
ATOM     82  C   UNL A   1      36.155  29.774  29.005  1.00  0.00     0.006 A 
ENDBRANCH  54  75
BRANCH  66  83
ATOM     83  C   UNL A   1      44.510  32.749  31.038  1.00  0.00     0.057 A 
ATOM     84  C   UNL A   1      44.723  33.788  30.121  1.00  0.00     0.134 A 
ATOM     85  C   UNL A   1      44.451  33.089  32.396  1.00  0.00     0.134 A 
ATOM     86  F   UNL A   1      44.802  33.531  28.808  1.00  0.00    -0.206 F 
ATOM     87  C   UNL A   1      44.910  35.106  30.543  1.00  0.00     0.040 A 
ATOM     88  C   UNL A   1      44.603  34.407  32.827  1.00  0.00     0.040 A 
ATOM     89  F   UNL A   1      44.237  32.147  33.326  1.00  0.00    -0.206 F 
ATOM     90  C   UNL A   1      44.845  35.418  31.899  1.00  0.00     0.006 A 
ENDBRANCH  66  83
ENDBRANCH  40  41
ENDBRANCH  32  35
ENDBRANCH  30  31
ENDBRANCH  29  30
ENDBRANCH   1  29
TORSDOF 16
ENDMDL
MODEL 3
REMARK VINA RESULT:     -12.0      1.165      1.665
REMARK SMILES CCCc1cc(OC(F)(F)F)cc2c1O[C@H](C(F)(F)F)C(C(=O)NCCCCNC(=O)c1ccc(-c3c4nc(c(-c5c(F)cccc5F)c5ccc([nH]5)c(-c5c(F)cccc5F)c5nc(c(-c6c(F)cccc6F)c6ccc3[nH]6)C=C5)C=C4)cc1)=C2
REMARK SMILES IDX 26 1 25 2 24 3 22 4 23 5 21 7 4 8 5 9 14 10 6 11 13 12 15 13
REMARK SMILES IDX 12 14 86 15 16 16 3 17 2 18 1 19 7 20 8 21 9 22 10 23 11 24
REMARK SMILES IDX 17 25 18 26 19 27 20 28 27 29 28 30 29 31 30 32 31 34 32 35
REMARK SMILES IDX 33 36 85 37 34 38 84 39 35 40 36 41 37 42 78 43 38 44 83 45
REMARK SMILES IDX 77 46 79 47 39 48 82 49 76 50 75 51 40 53 66 54 49 55 65 56
REMARK SMILES IDX 50 57 53 58 64 59 80 60 51 61 52 62 63 64 81 65 54 66 41 67
REMARK SMILES IDX 42 68 47 69 43 70 44 71 46 72 48 73 45 74 67 75 68 76 73 77
REMARK SMILES IDX 69 78 70 79 72 80 74 81 71 82 55 83 56 84 61 85 57 86 58 87
REMARK SMILES IDX 60 88 62 89 59 90
REMARK H PARENT 24 6 29 33 79 52 53 63
REMARK Flexibility Score: inf
ROOT
ATOM      1  C   UNL A   1      31.633  30.386  26.675  1.00  0.00     0.023 C 
ENDROOT
BRANCH   1   2
ATOM      2  C   UNL A   1      32.930  29.859  26.056  1.00  0.00     0.116 C 
BRANCH   2   3
ATOM      3  N   UNL A   1      32.797  29.755  24.617  1.00  0.00    -0.352 N 
ATOM      4  C   UNL A   1      32.835  28.696  23.766  1.00  0.00     0.251 C 
ATOM      5  O   UNL A   1      32.683  28.926  22.568  1.00  0.00    -0.270 OA
ATOM      6  H   UNL A   1      32.650  30.619  24.168  1.00  0.00     0.163 HD
BRANCH   4   7
ATOM      7  C   UNL A   1      32.939  27.283  24.227  1.00  0.00     0.067 C 
ATOM      8  C   UNL A   1      33.017  23.677  26.396  1.00  0.00    -0.002 A 
ATOM      9  C   UNL A   1      34.216  22.939  26.396  1.00  0.00     0.054 A 
ATOM     10  C   UNL A   1      32.948  24.845  25.619  1.00  0.00     0.131 A 
ATOM     11  C   UNL A   1      35.285  23.287  25.574  1.00  0.00     0.130 A 
ATOM     12  C   UNL A   1      34.032  25.222  24.822  1.00  0.00     0.021 A 
ATOM     13  O   UNL A   1      31.841  25.637  25.749  1.00  0.00    -0.475 OA
ATOM     14  C   UNL A   1      35.188  24.433  24.790  1.00  0.00     0.058 A 
ATOM     15  C   UNL A   1      34.025  26.505  24.136  1.00  0.00     0.025 C 
ATOM     16  C   UNL A   1      31.646  26.704  24.779  1.00  0.00     0.314 C 
BRANCH   8  17
ATOM     17  C   UNL A   1      31.861  23.206  27.254  1.00  0.00     0.039 C 
BRANCH  17  18
ATOM     18  C   UNL A   1      30.630  22.729  26.467  1.00  0.00     0.001 C 
ATOM     19  C   UNL A   1      29.346  22.628  27.283  1.00  0.00     0.004 C 
ENDBRANCH  17  18
ENDBRANCH   8  17
BRANCH  11  20
ATOM     20  O   UNL A   1      36.474  22.626  25.478  1.00  0.00    -0.406 OA
BRANCH  20  21
ATOM     21  C   UNL A   1      36.615  21.698  24.413  1.00  0.00     0.573 C 
ATOM     22  F   UNL A   1      35.609  20.798  24.421  1.00  0.00    -0.132 F 
ATOM     23  F   UNL A   1      36.651  22.324  23.218  1.00  0.00    -0.132 F 
ATOM     24  F   UNL A   1      37.778  21.029  24.574  1.00  0.00    -0.132 F 
ENDBRANCH  20  21
ENDBRANCH  11  20
BRANCH  16  25
ATOM     25  C   UNL A   1      30.710  26.219  23.651  1.00  0.00     0.429 C 
ATOM     26  F   UNL A   1      29.836  27.181  23.264  1.00  0.00    -0.167 F 
ATOM     27  F   UNL A   1      31.415  25.864  22.546  1.00  0.00    -0.167 F 
ATOM     28  F   UNL A   1      29.983  25.136  24.001  1.00  0.00    -0.167 F 
ENDBRANCH  16  25
ENDBRANCH   4   7
ENDBRANCH   2   3
ENDBRANCH   1   2
BRANCH   1  29
ATOM     29  C   UNL A   1      31.482  31.906  26.601  1.00  0.00     0.023 C 
BRANCH  29  30
ATOM     30  C   UNL A   1      32.734  32.683  26.986  1.00  0.00     0.116 C 
BRANCH  30  31
ATOM     31  N   UNL A   1      32.444  33.958  27.620  1.00  0.00    -0.352 N 
ATOM     32  C   UNL A   1      33.142  34.599  28.615  1.00  0.00     0.251 C 
ATOM     33  H   UNL A   1      31.640  34.425  27.293  1.00  0.00     0.163 HD
ATOM     34  O   UNL A   1      32.695  35.616  29.126  1.00  0.00    -0.269 OA
BRANCH  32  35
ATOM     35  C   UNL A   1      34.419  34.025  29.085  1.00  0.00     0.039 A 
ATOM     36  C   UNL A   1      34.384  33.029  30.063  1.00  0.00     0.014 A 
ATOM     37  C   UNL A   1      35.640  34.457  28.561  1.00  0.00     0.014 A 
ATOM     38  C   UNL A   1      35.574  32.438  30.484  1.00  0.00     0.010 A 
ATOM     39  C   UNL A   1      36.815  33.806  28.917  1.00  0.00     0.010 A 
ATOM     40  C   UNL A   1      36.797  32.805  29.897  1.00  0.00    -0.014 A 
BRANCH  40  41
ATOM     41  C   UNL A   1      38.065  32.166  30.329  1.00  0.00     0.031 A 
ATOM     42  C   UNL A   1      38.893  32.793  31.418  1.00  0.00     0.074 A 
ATOM     43  C   UNL A   1      38.482  31.039  29.723  1.00  0.00     0.049 A 
ATOM     44  N   UNL A   1      40.019  32.379  31.941  1.00  0.00    -0.248 NA
ATOM     45  C   UNL A   1      38.408  34.066  31.973  1.00  0.00     0.031 C 
ATOM     46  C   UNL A   1      37.798  30.370  28.614  1.00  0.00     0.029 A 
ATOM     47  N   UNL A   1      39.581  30.253  29.957  1.00  0.00    -0.354 N 
ATOM     48  C   UNL A   1      40.376  33.340  32.877  1.00  0.00     0.074 A 
ATOM     49  C   UNL A   1      39.388  34.393  32.801  1.00  0.00     0.031 C 
ATOM     50  C   UNL A   1      38.470  29.254  28.293  1.00  0.00     0.029 A 
ATOM     51  C   UNL A   1      39.648  29.145  29.148  1.00  0.00     0.049 A 
ATOM     52  H   UNL A   1      40.257  30.462  30.642  1.00  0.00     0.167 HD
ATOM     53  C   UNL A   1      41.415  33.333  33.746  1.00  0.00     0.037 A 
ATOM     54  C   UNL A   1      40.555  28.151  29.107  1.00  0.00     0.037 A 
ATOM     55  C   UNL A   1      42.386  32.274  33.831  1.00  0.00     0.049 A 
ATOM     56  C   UNL A   1      41.698  28.164  30.084  1.00  0.00     0.074 A 
ATOM     57  C   UNL A   1      43.445  32.143  34.711  1.00  0.00     0.029 A 
ATOM     58  N   UNL A   1      42.416  31.163  33.001  1.00  0.00    -0.354 N 
ATOM     59  N   UNL A   1      41.979  29.040  31.019  1.00  0.00    -0.248 NA
ATOM     60  C   UNL A   1      42.641  27.041  30.008  1.00  0.00     0.031 C 
ATOM     61  C   UNL A   1      44.146  30.979  34.381  1.00  0.00     0.029 A 
ATOM     62  C   UNL A   1      43.489  30.353  33.334  1.00  0.00     0.049 A 
ATOM     63  H   UNL A   1      41.770  30.978  32.282  1.00  0.00     0.167 HD
ATOM     64  C   UNL A   1      43.113  28.559  31.662  1.00  0.00     0.074 A 
ATOM     65  C   UNL A   1      43.452  27.304  31.023  1.00  0.00     0.031 C 
ATOM     66  C   UNL A   1      43.811  29.106  32.687  1.00  0.00     0.037 A 
BRANCH  53  67
ATOM     67  C   UNL A   1      41.549  34.507  34.675  1.00  0.00     0.057 A 
ATOM     68  C   UNL A   1      42.291  35.645  34.328  1.00  0.00     0.134 A 
ATOM     69  C   UNL A   1      40.911  34.511  35.922  1.00  0.00     0.134 A 
ATOM     70  F   UNL A   1      42.940  35.702  33.155  1.00  0.00    -0.206 F 
ATOM     71  C   UNL A   1      42.418  36.729  35.199  1.00  0.00     0.040 A 
ATOM     72  C   UNL A   1      41.005  35.602  36.787  1.00  0.00     0.040 A 
ATOM     73  F   UNL A   1      40.181  33.457  36.317  1.00  0.00    -0.206 F 
ATOM     74  C   UNL A   1      41.767  36.713  36.430  1.00  0.00     0.006 A 
ENDBRANCH  53  67
BRANCH  54  75
ATOM     75  C   UNL A   1      40.402  27.042  28.131  1.00  0.00     0.057 A 
ATOM     76  C   UNL A   1      39.629  25.913  28.432  1.00  0.00     0.134 A 
ATOM     77  C   UNL A   1      41.034  27.073  26.883  1.00  0.00     0.134 A 
ATOM     78  F   UNL A   1      39.011  25.816  29.619  1.00  0.00    -0.206 F 
ATOM     79  C   UNL A   1      39.512  24.846  27.541  1.00  0.00     0.040 A 
ATOM     80  C   UNL A   1      40.903  26.026  25.970  1.00  0.00     0.040 A 
ATOM     81  F   UNL A   1      41.780  28.130  26.527  1.00  0.00    -0.206 F 
ATOM     82  C   UNL A   1      40.148  24.903  26.302  1.00  0.00     0.006 A 
ENDBRANCH  54  75
BRANCH  66  83
ATOM     83  C   UNL A   1      44.988  28.327  33.203  1.00  0.00     0.057 A 
ATOM     84  C   UNL A   1      44.853  27.346  34.195  1.00  0.00     0.134 A 
ATOM     85  C   UNL A   1      46.272  28.554  32.690  1.00  0.00     0.134 A 
ATOM     86  F   UNL A   1      43.654  27.087  34.738  1.00  0.00    -0.206 F 
ATOM     87  C   UNL A   1      45.958  26.648  34.685  1.00  0.00     0.040 A 
ATOM     88  C   UNL A   1      47.379  27.839  33.148  1.00  0.00     0.040 A 
ATOM     89  F   UNL A   1      46.471  29.469  31.729  1.00  0.00    -0.206 F 
ATOM     90  C   UNL A   1      47.225  26.890  34.157  1.00  0.00     0.006 A 
ENDBRANCH  66  83
ENDBRANCH  40  41
ENDBRANCH  32  35
ENDBRANCH  30  31
ENDBRANCH  29  30
ENDBRANCH   1  29
TORSDOF 16
ENDMDL
