MODEL 1
REMARK VINA RESULT:      -8.8      0.000      0.000
REMARK SMILES CC[C@@](C)(NS(=O)(=O)c1ccc(F)c(Cl)c1)C(=O)NCCCCNC(=O)c1ccc(-c2c3nc(c(-c4c(F)cccc4F)c4ccc([nH]4)c(-c4c(F)cccc4F)c4nc(c(-c5c(F)cccc5F)c5ccc2[nH]5)C=C4)C=C3)cc1
REMARK SMILES IDX 21 1 20 2 19 3 17 4 18 5 3 7 4 8 2 9 1 10 5 11 6 13 7 14
REMARK SMILES IDX 8 15 9 16 10 17 16 18 11 19 14 20 12 21 15 22 13 23 22 24
REMARK SMILES IDX 23 25 24 26 25 27 26 29 27 30 28 31 80 32 29 33 79 34 30 35
REMARK SMILES IDX 31 36 32 37 73 38 33 39 78 40 72 41 74 42 34 43 77 44 71 45
REMARK SMILES IDX 70 46 35 48 61 49 44 50 60 51 45 52 48 53 59 54 75 55 46 56
REMARK SMILES IDX 47 57 58 59 76 60 49 61 36 62 37 63 42 64 38 65 39 66 41 67
REMARK SMILES IDX 43 68 40 69 62 70 63 71 68 72 64 73 65 74 67 75 69 76 66 77
REMARK SMILES IDX 50 78 51 79 56 80 52 81 53 82 55 83 57 84 54 85
REMARK H PARENT 19 6 5 12 24 28 74 47 48 58
REMARK Flexibility Score: inf
ROOT
ATOM      1  C   UNL A   1      46.024  21.329  25.179  1.00  0.00     0.023 C 
ENDROOT
BRANCH   1   2
ATOM      2  C   UNL A   1      45.828  22.836  25.414  1.00  0.00     0.116 C 
BRANCH   2   3
ATOM      3  N   UNL A   1      46.403  23.763  24.444  1.00  0.00    -0.354 N 
ATOM      4  C   UNL A   1      47.414  24.681  24.452  1.00  0.00     0.241 C 
ATOM      5  O   UNL A   1      47.893  24.880  23.325  1.00  0.00    -0.273 OA
ATOM      6  H   UNL A   1      45.952  23.713  23.569  1.00  0.00     0.163 HD
BRANCH   4   7
ATOM      7  C   UNL A   1      47.867  25.558  25.648  1.00  0.00     0.108 C 
ATOM      8  C   UNL A   1      48.506  24.722  26.758  1.00  0.00     0.040 C 
BRANCH   7   9
ATOM      9  C   UNL A   1      48.942  26.634  25.186  1.00  0.00     0.030 C 
ATOM     10  C   UNL A   1      50.425  26.380  25.378  1.00  0.00     0.006 C 
ENDBRANCH   7   9
BRANCH   7  11
ATOM     11  N   UNL A   1      46.835  26.497  26.184  1.00  0.00    -0.196 NA
ATOM     12  H   UNL A   1      47.386  27.269  26.559  1.00  0.00     0.142 HD
BRANCH  11  13
ATOM     13  S   UNL A   1      45.552  27.249  25.476  1.00  0.00     0.241 S 
ATOM     14  O   UNL A   1      45.955  27.728  24.183  1.00  0.00    -0.207 OA
ATOM     15  O   UNL A   1      44.501  26.254  25.585  1.00  0.00    -0.207 OA
BRANCH  13  16
ATOM     16  C   UNL A   1      44.988  28.623  26.457  1.00  0.00     0.084 A 
ATOM     17  C   UNL A   1      43.604  28.842  26.531  1.00  0.00     0.025 A 
ATOM     18  C   UNL A   1      45.841  29.520  27.092  1.00  0.00     0.045 A 
ATOM     19  C   UNL A   1      43.101  29.983  27.166  1.00  0.00     0.042 A 
ATOM     20  C   UNL A   1      45.347  30.698  27.655  1.00  0.00     0.078 A 
ATOM     21  C   UNL A   1      43.977  30.924  27.693  1.00  0.00     0.141 A 
ATOM     22  Cl  UNL A   1      46.455  31.890  28.219  1.00  0.00    -0.081 Cl
ATOM     23  F   UNL A   1      43.482  32.050  28.227  1.00  0.00    -0.205 F 
ENDBRANCH  13  16
ENDBRANCH  11  13
ENDBRANCH   7  11
ENDBRANCH   4   7
ENDBRANCH   2   3
ENDBRANCH   1   2
BRANCH   1  24
ATOM     24  C   UNL A   1      44.859  20.530  24.597  1.00  0.00     0.023 C 
BRANCH  24  25
ATOM     25  C   UNL A   1      44.311  19.446  25.513  1.00  0.00     0.116 C 
BRANCH  25  26
ATOM     26  N   UNL A   1      42.884  19.248  25.304  1.00  0.00    -0.352 N 
ATOM     27  C   UNL A   1      41.815  19.913  25.848  1.00  0.00     0.251 C 
ATOM     28  H   UNL A   1      42.651  18.526  24.676  1.00  0.00     0.163 HD
ATOM     29  O   UNL A   1      40.691  19.425  25.764  1.00  0.00    -0.269 OA
BRANCH  27  30
ATOM     30  C   UNL A   1      41.998  21.218  26.521  1.00  0.00     0.039 A 
ATOM     31  C   UNL A   1      42.108  22.375  25.743  1.00  0.00     0.014 A 
ATOM     32  C   UNL A   1      42.138  21.297  27.910  1.00  0.00     0.014 A 
ATOM     33  C   UNL A   1      42.339  23.608  26.359  1.00  0.00     0.010 A 
ATOM     34  C   UNL A   1      42.278  22.534  28.527  1.00  0.00     0.010 A 
ATOM     35  C   UNL A   1      42.418  23.696  27.757  1.00  0.00    -0.014 A 
BRANCH  35  36
ATOM     36  C   UNL A   1      42.725  24.979  28.434  1.00  0.00     0.031 A 
ATOM     37  C   UNL A   1      41.636  26.003  28.615  1.00  0.00     0.074 A 
ATOM     38  C   UNL A   1      43.982  25.245  28.832  1.00  0.00     0.049 A 
ATOM     39  N   UNL A   1      41.706  27.211  29.115  1.00  0.00    -0.248 NA
ATOM     40  C   UNL A   1      40.291  25.630  28.141  1.00  0.00     0.031 C 
ATOM     41  C   UNL A   1      45.130  24.353  28.665  1.00  0.00     0.029 A 
ATOM     42  N   UNL A   1      44.507  26.349  29.454  1.00  0.00    -0.354 N 
ATOM     43  C   UNL A   1      40.428  27.743  28.994  1.00  0.00     0.074 A 
ATOM     44  C   UNL A   1      39.617  26.755  28.319  1.00  0.00     0.031 C 
ATOM     45  C   UNL A   1      46.220  24.936  29.191  1.00  0.00     0.029 A 
ATOM     46  C   UNL A   1      45.854  26.253  29.701  1.00  0.00     0.049 A 
ATOM     47  H   UNL A   1      43.968  27.137  29.698  1.00  0.00     0.167 HD
ATOM     48  C   UNL A   1      39.963  28.936  29.434  1.00  0.00     0.037 A 
ATOM     49  C   UNL A   1      46.697  27.134  30.274  1.00  0.00     0.037 A 
ATOM     50  C   UNL A   1      40.767  29.901  30.136  1.00  0.00     0.049 A 
ATOM     51  C   UNL A   1      46.156  28.449  30.764  1.00  0.00     0.074 A 
ATOM     52  C   UNL A   1      40.385  31.114  30.678  1.00  0.00     0.029 A 
ATOM     53  N   UNL A   1      42.122  29.754  30.394  1.00  0.00    -0.354 N 
ATOM     54  N   UNL A   1      44.931  28.913  30.704  1.00  0.00    -0.248 NA
ATOM     55  C   UNL A   1      47.112  29.357  31.411  1.00  0.00     0.031 C 
ATOM     56  C   UNL A   1      41.518  31.720  31.230  1.00  0.00     0.029 A 
ATOM     57  C   UNL A   1      42.596  30.863  31.073  1.00  0.00     0.049 A 
ATOM     58  H   UNL A   1      42.667  28.975  30.132  1.00  0.00     0.167 HD
ATOM     59  C   UNL A   1      44.963  30.154  31.326  1.00  0.00     0.074 A 
ATOM     60  C   UNL A   1      46.326  30.362  31.771  1.00  0.00     0.031 C 
ATOM     61  C   UNL A   1      43.957  31.043  31.512  1.00  0.00     0.037 A 
BRANCH  48  62
ATOM     62  C   UNL A   1      38.518  29.254  29.176  1.00  0.00     0.057 A 
ATOM     63  C   UNL A   1      38.057  29.628  27.906  1.00  0.00     0.134 A 
ATOM     64  C   UNL A   1      37.569  29.168  30.205  1.00  0.00     0.134 A 
ATOM     65  F   UNL A   1      38.914  29.743  26.880  1.00  0.00    -0.206 F 
ATOM     66  C   UNL A   1      36.716  29.935  27.675  1.00  0.00     0.040 A 
ATOM     67  C   UNL A   1      36.220  29.444  29.978  1.00  0.00     0.040 A 
ATOM     68  F   UNL A   1      37.938  28.811  31.444  1.00  0.00    -0.206 F 
ATOM     69  C   UNL A   1      35.791  29.837  28.712  1.00  0.00     0.006 A 
ENDBRANCH  48  62
BRANCH  49  70
ATOM     70  C   UNL A   1      48.131  26.787  30.441  1.00  0.00     0.057 A 
ATOM     71  C   UNL A   1      49.083  27.176  29.491  1.00  0.00     0.134 A 
ATOM     72  C   UNL A   1      48.585  26.064  31.550  1.00  0.00     0.134 A 
ATOM     73  F   UNL A   1      48.707  27.857  28.399  1.00  0.00    -0.206 F 
ATOM     74  C   UNL A   1      50.432  26.844  29.629  1.00  0.00     0.040 A 
ATOM     75  C   UNL A   1      49.935  25.747  31.713  1.00  0.00     0.040 A 
ATOM     76  F   UNL A   1      47.725  25.668  32.500  1.00  0.00    -0.206 F 
ATOM     77  C   UNL A   1      50.861  26.132  30.746  1.00  0.00     0.006 A 
ENDBRANCH  49  70
BRANCH  61  78
ATOM     78  C   UNL A   1      44.286  32.304  32.255  1.00  0.00     0.057 A 
ATOM     79  C   UNL A   1      44.699  33.466  31.591  1.00  0.00     0.134 A 
ATOM     80  C   UNL A   1      44.146  32.367  33.647  1.00  0.00     0.134 A 
ATOM     81  F   UNL A   1      44.863  33.467  30.259  1.00  0.00    -0.206 F 
ATOM     82  C   UNL A   1      44.982  34.640  32.289  1.00  0.00     0.040 A 
ATOM     83  C   UNL A   1      44.400  33.543  34.353  1.00  0.00     0.040 A 
ATOM     84  F   UNL A   1      43.744  31.291  34.341  1.00  0.00    -0.206 F 
ATOM     85  C   UNL A   1      44.825  34.683  33.673  1.00  0.00     0.006 A 
ENDBRANCH  61  78
ENDBRANCH  35  36
ENDBRANCH  27  30
ENDBRANCH  25  26
ENDBRANCH  24  25
ENDBRANCH   1  24
TORSDOF 15
ENDMDL
MODEL 2
REMARK VINA RESULT:      -8.6      4.512      9.534
REMARK SMILES CC[C@@](C)(NS(=O)(=O)c1ccc(F)c(Cl)c1)C(=O)NCCCCNC(=O)c1ccc(-c2c3nc(c(-c4c(F)cccc4F)c4ccc([nH]4)c(-c4c(F)cccc4F)c4nc(c(-c5c(F)cccc5F)c5ccc2[nH]5)C=C4)C=C3)cc1
REMARK SMILES IDX 21 1 20 2 19 3 17 4 18 5 3 7 4 8 2 9 1 10 5 11 6 13 7 14
REMARK SMILES IDX 8 15 9 16 10 17 16 18 11 19 14 20 12 21 15 22 13 23 22 24
REMARK SMILES IDX 23 25 24 26 25 27 26 29 27 30 28 31 80 32 29 33 79 34 30 35
REMARK SMILES IDX 31 36 32 37 73 38 33 39 78 40 72 41 74 42 34 43 77 44 71 45
REMARK SMILES IDX 70 46 35 48 61 49 44 50 60 51 45 52 48 53 59 54 75 55 46 56
REMARK SMILES IDX 47 57 58 59 76 60 49 61 36 62 37 63 42 64 38 65 39 66 41 67
REMARK SMILES IDX 43 68 40 69 62 70 63 71 68 72 64 73 65 74 67 75 69 76 66 77
REMARK SMILES IDX 50 78 51 79 56 80 52 81 53 82 55 83 57 84 54 85
REMARK H PARENT 19 6 5 12 24 28 74 47 48 58
REMARK Flexibility Score: inf
ROOT
ATOM      1  C   UNL A   1      36.378  20.032  24.982  1.00  0.00     0.023 C 
ENDROOT
BRANCH   1   2
ATOM      2  C   UNL A   1      36.079  21.531  25.146  1.00  0.00     0.116 C 
BRANCH   2   3
ATOM      3  N   UNL A   1      35.545  22.255  23.997  1.00  0.00    -0.354 N 
ATOM      4  C   UNL A   1      34.335  22.788  23.655  1.00  0.00     0.241 C 
ATOM      5  O   UNL A   1      34.432  23.727  22.850  1.00  0.00    -0.273 OA
ATOM      6  H   UNL A   1      36.224  22.394  23.297  1.00  0.00     0.163 HD
BRANCH   4   7
ATOM      7  C   UNL A   1      32.935  22.241  24.037  1.00  0.00     0.108 C 
ATOM      8  C   UNL A   1      31.819  22.940  23.260  1.00  0.00     0.040 C 
BRANCH   7   9
ATOM      9  C   UNL A   1      32.830  20.686  23.721  1.00  0.00     0.030 C 
ATOM     10  C   UNL A   1      32.606  19.681  24.835  1.00  0.00     0.006 C 
ENDBRANCH   7   9
BRANCH   7  11
ATOM     11  N   UNL A   1      32.643  22.186  25.502  1.00  0.00    -0.196 NA
ATOM     12  H   UNL A   1      33.236  21.427  25.836  1.00  0.00     0.142 HD
BRANCH  11  13
ATOM     13  S   UNL A   1      32.758  23.317  26.693  1.00  0.00     0.241 S 
ATOM     14  O   UNL A   1      31.864  22.957  27.758  1.00  0.00    -0.207 OA
ATOM     15  O   UNL A   1      34.187  23.378  26.936  1.00  0.00    -0.207 OA
BRANCH  13  16
ATOM     16  C   UNL A   1      32.324  24.935  26.090  1.00  0.00     0.084 A 
ATOM     17  C   UNL A   1      30.965  25.282  26.084  1.00  0.00     0.025 A 
ATOM     18  C   UNL A   1      33.246  25.837  25.569  1.00  0.00     0.045 A 
ATOM     19  C   UNL A   1      30.542  26.478  25.494  1.00  0.00     0.042 A 
ATOM     20  C   UNL A   1      32.820  26.992  24.909  1.00  0.00     0.078 A 
ATOM     21  C   UNL A   1      31.469  27.311  24.877  1.00  0.00     0.141 A 
ATOM     22  Cl  UNL A   1      33.977  27.958  24.075  1.00  0.00    -0.081 Cl
ATOM     23  F   UNL A   1      31.039  28.413  24.247  1.00  0.00    -0.205 F 
ENDBRANCH  13  16
ENDBRANCH  11  13
ENDBRANCH   7  11
ENDBRANCH   4   7
ENDBRANCH   2   3
ENDBRANCH   1   2
BRANCH   1  24
ATOM     24  C   UNL A   1      37.819  19.607  24.707  1.00  0.00     0.023 C 
BRANCH  24  25
ATOM     25  C   UNL A   1      38.841  20.144  25.697  1.00  0.00     0.116 C 
BRANCH  25  26
ATOM     26  N   UNL A   1      39.993  19.261  25.801  1.00  0.00    -0.352 N 
ATOM     27  C   UNL A   1      41.311  19.557  26.040  1.00  0.00     0.251 C 
ATOM     28  H   UNL A   1      39.796  18.303  25.682  1.00  0.00     0.163 HD
ATOM     29  O   UNL A   1      42.172  18.711  25.819  1.00  0.00    -0.269 OA
BRANCH  27  30
ATOM     30  C   UNL A   1      41.704  20.880  26.574  1.00  0.00     0.039 A 
ATOM     31  C   UNL A   1      41.557  21.132  27.942  1.00  0.00     0.014 A 
ATOM     32  C   UNL A   1      42.144  21.897  25.722  1.00  0.00     0.014 A 
ATOM     33  C   UNL A   1      41.869  22.394  28.454  1.00  0.00     0.010 A 
ATOM     34  C   UNL A   1      42.539  23.123  26.246  1.00  0.00     0.010 A 
ATOM     35  C   UNL A   1      42.369  23.396  27.610  1.00  0.00    -0.014 A 
BRANCH  35  36
ATOM     36  C   UNL A   1      42.648  24.763  28.113  1.00  0.00     0.031 A 
ATOM     37  C   UNL A   1      44.052  25.136  28.508  1.00  0.00     0.074 A 
ATOM     38  C   UNL A   1      41.641  25.642  28.266  1.00  0.00     0.049 A 
ATOM     39  N   UNL A   1      44.499  26.248  29.035  1.00  0.00    -0.248 NA
ATOM     40  C   UNL A   1      45.090  24.109  28.315  1.00  0.00     0.031 C 
ATOM     41  C   UNL A   1      40.234  25.377  27.965  1.00  0.00     0.029 A 
ATOM     42  N   UNL A   1      41.647  26.935  28.721  1.00  0.00    -0.354 N 
ATOM     43  C   UNL A   1      45.856  26.043  29.253  1.00  0.00     0.074 A 
ATOM     44  C   UNL A   1      46.149  24.684  28.862  1.00  0.00     0.031 C 
ATOM     45  C   UNL A   1      39.515  26.482  28.224  1.00  0.00     0.029 A 
ATOM     46  C   UNL A   1      40.404  27.518  28.738  1.00  0.00     0.049 A 
ATOM     47  H   UNL A   1      42.465  27.401  29.010  1.00  0.00     0.167 HD
ATOM     48  C   UNL A   1      46.781  26.921  29.709  1.00  0.00     0.037 A 
ATOM     49  C   UNL A   1      40.028  28.751  29.129  1.00  0.00     0.037 A 
ATOM     50  C   UNL A   1      46.489  28.283  30.063  1.00  0.00     0.049 A 
ATOM     51  C   UNL A   1      41.075  29.711  29.622  1.00  0.00     0.074 A 
ATOM     52  C   UNL A   1      47.359  29.274  30.480  1.00  0.00     0.029 A 
ATOM     53  N   UNL A   1      45.221  28.846  30.039  1.00  0.00    -0.354 N 
ATOM     54  N   UNL A   1      42.366  29.527  29.761  1.00  0.00    -0.248 NA
ATOM     55  C   UNL A   1      40.615  31.052  30.004  1.00  0.00     0.031 C 
ATOM     56  C   UNL A   1      46.612  30.426  30.746  1.00  0.00     0.029 A 
ATOM     57  C   UNL A   1      45.283  30.166  30.449  1.00  0.00     0.049 A 
ATOM     58  H   UNL A   1      44.399  28.375  29.769  1.00  0.00     0.167 HD
ATOM     59  C   UNL A   1      42.876  30.734  30.220  1.00  0.00     0.074 A 
ATOM     60  C   UNL A   1      41.756  31.647  30.321  1.00  0.00     0.031 C 
ATOM     61  C   UNL A   1      44.154  31.058  30.533  1.00  0.00     0.037 A 
BRANCH  48  62
ATOM     62  C   UNL A   1      48.195  26.430  29.838  1.00  0.00     0.057 A 
ATOM     63  C   UNL A   1      49.126  26.571  28.798  1.00  0.00     0.134 A 
ATOM     64  C   UNL A   1      48.640  25.824  31.021  1.00  0.00     0.134 A 
ATOM     65  F   UNL A   1      48.762  27.129  27.634  1.00  0.00    -0.206 F 
ATOM     66  C   UNL A   1      50.434  26.101  28.918  1.00  0.00     0.040 A 
ATOM     67  C   UNL A   1      49.954  25.376  31.162  1.00  0.00     0.040 A 
ATOM     68  F   UNL A   1      47.806  25.660  32.058  1.00  0.00    -0.206 F 
ATOM     69  C   UNL A   1      50.854  25.507  30.106  1.00  0.00     0.006 A 
ENDBRANCH  48  62
BRANCH  49  70
ATOM     70  C   UNL A   1      38.601  29.154  29.040  1.00  0.00     0.057 A 
ATOM     71  C   UNL A   1      38.059  29.629  27.840  1.00  0.00     0.134 A 
ATOM     72  C   UNL A   1      37.747  29.071  30.146  1.00  0.00     0.134 A 
ATOM     73  F   UNL A   1      38.831  29.746  26.751  1.00  0.00    -0.206 F 
ATOM     74  C   UNL A   1      36.724  30.026  27.747  1.00  0.00     0.040 A 
ATOM     75  C   UNL A   1      36.403  29.441  30.060  1.00  0.00     0.040 A 
ATOM     76  F   UNL A   1      38.203  28.617  31.322  1.00  0.00    -0.206 F 
ATOM     77  C   UNL A   1      35.891  29.926  28.859  1.00  0.00     0.006 A 
ENDBRANCH  49  70
BRANCH  61  78
ATOM     78  C   UNL A   1      44.414  32.467  30.980  1.00  0.00     0.057 A 
ATOM     79  C   UNL A   1      44.403  32.825  32.333  1.00  0.00     0.134 A 
ATOM     80  C   UNL A   1      44.719  33.465  30.046  1.00  0.00     0.134 A 
ATOM     81  F   UNL A   1      44.106  31.918  33.276  1.00  0.00    -0.206 F 
ATOM     82  C   UNL A   1      44.667  34.134  32.741  1.00  0.00     0.040 A 
ATOM     83  C   UNL A   1      45.011  34.769  30.443  1.00  0.00     0.040 A 
ATOM     84  F   UNL A   1      44.755  33.183  28.735  1.00  0.00    -0.206 F 
ATOM     85  C   UNL A   1      44.979  35.108  31.794  1.00  0.00     0.006 A 
ENDBRANCH  61  78
ENDBRANCH  35  36
ENDBRANCH  27  30
ENDBRANCH  25  26
ENDBRANCH  24  25
ENDBRANCH   1  24
TORSDOF 15
ENDMDL
MODEL 3
REMARK VINA RESULT:      -8.6      4.945     10.086
REMARK SMILES CC[C@@](C)(NS(=O)(=O)c1ccc(F)c(Cl)c1)C(=O)NCCCCNC(=O)c1ccc(-c2c3nc(c(-c4c(F)cccc4F)c4ccc([nH]4)c(-c4c(F)cccc4F)c4nc(c(-c5c(F)cccc5F)c5ccc2[nH]5)C=C4)C=C3)cc1
REMARK SMILES IDX 21 1 20 2 19 3 17 4 18 5 3 7 4 8 2 9 1 10 5 11 6 13 7 14
REMARK SMILES IDX 8 15 9 16 10 17 16 18 11 19 14 20 12 21 15 22 13 23 22 24
REMARK SMILES IDX 23 25 24 26 25 27 26 29 27 30 28 31 80 32 29 33 79 34 30 35
REMARK SMILES IDX 31 36 32 37 73 38 33 39 78 40 72 41 74 42 34 43 77 44 71 45
REMARK SMILES IDX 70 46 35 48 61 49 44 50 60 51 45 52 48 53 59 54 75 55 46 56
REMARK SMILES IDX 47 57 58 59 76 60 49 61 36 62 37 63 42 64 38 65 39 66 41 67
REMARK SMILES IDX 43 68 40 69 62 70 63 71 68 72 64 73 65 74 67 75 69 76 66 77
REMARK SMILES IDX 50 78 51 79 56 80 52 81 53 82 55 83 57 84 54 85
REMARK H PARENT 19 6 5 12 24 28 74 47 48 58
REMARK Flexibility Score: inf
ROOT
ATOM      1  C   UNL A   1      33.134  28.473  24.730  1.00  0.00     0.023 C 
ENDROOT
BRANCH   1   2
ATOM      2  C   UNL A   1      32.595  27.187  24.084  1.00  0.00     0.116 C 
BRANCH   2   3
ATOM      3  N   UNL A   1      33.549  26.131  23.757  1.00  0.00    -0.354 N 
ATOM      4  C   UNL A   1      33.466  24.854  23.281  1.00  0.00     0.241 C 
ATOM      5  O   UNL A   1      34.493  24.495  22.684  1.00  0.00    -0.273 OA
ATOM      6  H   UNL A   1      34.481  26.409  23.918  1.00  0.00     0.163 HD
BRANCH   4   7
ATOM      7  C   UNL A   1      32.335  23.829  23.555  1.00  0.00     0.108 C 
ATOM      8  C   UNL A   1      30.969  24.359  23.120  1.00  0.00     0.040 C 
BRANCH   7   9
ATOM      9  C   UNL A   1      32.594  22.475  22.762  1.00  0.00     0.030 C 
ATOM     10  C   UNL A   1      32.391  21.131  23.435  1.00  0.00     0.006 C 
ENDBRANCH   7   9
BRANCH   7  11
ATOM     11  N   UNL A   1      32.298  23.267  24.940  1.00  0.00    -0.196 NA
ATOM     12  H   UNL A   1      32.402  22.263  24.793  1.00  0.00     0.142 HD
BRANCH  11  13
ATOM     13  S   UNL A   1      33.217  23.558  26.274  1.00  0.00     0.241 S 
ATOM     14  O   UNL A   1      33.257  24.974  26.506  1.00  0.00    -0.207 OA
ATOM     15  O   UNL A   1      32.627  22.678  27.265  1.00  0.00    -0.207 OA
BRANCH  13  16
ATOM     16  C   UNL A   1      34.879  22.955  26.056  1.00  0.00     0.084 A 
ATOM     17  C   UNL A   1      35.915  23.901  26.051  1.00  0.00     0.025 A 
ATOM     18  C   UNL A   1      35.192  21.620  25.827  1.00  0.00     0.045 A 
ATOM     19  C   UNL A   1      37.225  23.514  25.744  1.00  0.00     0.042 A 
ATOM     20  C   UNL A   1      36.481  21.244  25.443  1.00  0.00     0.078 A 
ATOM     21  C   UNL A   1      37.494  22.192  25.406  1.00  0.00     0.141 A 
ATOM     22  Cl  UNL A   1      36.769  19.622  24.941  1.00  0.00    -0.081 Cl
ATOM     23  F   UNL A   1      38.737  21.854  25.036  1.00  0.00    -0.205 F 
ENDBRANCH  13  16
ENDBRANCH  11  13
ENDBRANCH   7  11
ENDBRANCH   4   7
ENDBRANCH   2   3
ENDBRANCH   1   2
BRANCH   1  24
ATOM     24  C   UNL A   1      34.172  28.344  25.844  1.00  0.00     0.023 C 
BRANCH  24  25
ATOM     25  C   UNL A   1      33.628  28.560  27.248  1.00  0.00     0.116 C 
BRANCH  25  26
ATOM     26  N   UNL A   1      33.652  29.968  27.615  1.00  0.00    -0.352 N 
ATOM     27  C   UNL A   1      34.609  30.687  28.285  1.00  0.00     0.251 C 
ATOM     28  H   UNL A   1      32.859  30.485  27.339  1.00  0.00     0.163 HD
ATOM     29  O   UNL A   1      34.328  31.793  28.739  1.00  0.00    -0.269 OA
BRANCH  27  30
ATOM     30  C   UNL A   1      35.977  30.152  28.454  1.00  0.00     0.039 A 
ATOM     31  C   UNL A   1      36.344  29.595  29.683  1.00  0.00     0.014 A 
ATOM     32  C   UNL A   1      36.924  30.264  27.431  1.00  0.00     0.014 A 
ATOM     33  C   UNL A   1      37.649  29.137  29.878  1.00  0.00     0.010 A 
ATOM     34  C   UNL A   1      38.195  29.727  27.595  1.00  0.00     0.010 A 
ATOM     35  C   UNL A   1      38.582  29.193  28.832  1.00  0.00    -0.014 A 
BRANCH  35  36
ATOM     36  C   UNL A   1      39.991  28.774  29.028  1.00  0.00     0.031 A 
ATOM     37  C   UNL A   1      40.974  29.739  29.637  1.00  0.00     0.074 A 
ATOM     38  C   UNL A   1      40.396  27.560  28.614  1.00  0.00     0.049 A 
ATOM     39  N   UNL A   1      42.261  29.600  29.831  1.00  0.00    -0.248 NA
ATOM     40  C   UNL A   1      40.446  31.049  30.053  1.00  0.00     0.031 C 
ATOM     41  C   UNL A   1      39.546  26.560  27.965  1.00  0.00     0.029 A 
ATOM     42  N   UNL A   1      41.629  26.963  28.670  1.00  0.00    -0.354 N 
ATOM     43  C   UNL A   1      42.693  30.807  30.369  1.00  0.00     0.074 A 
ATOM     44  C   UNL A   1      41.548  31.687  30.412  1.00  0.00     0.031 C 
ATOM     45  C   UNL A   1      40.279  25.465  27.703  1.00  0.00     0.029 A 
ATOM     46  C   UNL A   1      41.653  25.699  28.134  1.00  0.00     0.049 A 
ATOM     47  H   UNL A   1      42.422  27.400  29.057  1.00  0.00     0.167 HD
ATOM     48  C   UNL A   1      43.927  31.140  30.816  1.00  0.00     0.037 A 
ATOM     49  C   UNL A   1      42.673  24.830  28.005  1.00  0.00     0.037 A 
ATOM     50  C   UNL A   1      45.054  30.247  30.802  1.00  0.00     0.049 A 
ATOM     51  C   UNL A   1      44.033  25.219  28.518  1.00  0.00     0.074 A 
ATOM     52  C   UNL A   1      46.333  30.461  31.283  1.00  0.00     0.029 A 
ATOM     53  N   UNL A   1      45.031  28.963  30.278  1.00  0.00    -0.354 N 
ATOM     54  N   UNL A   1      44.413  26.338  29.085  1.00  0.00    -0.248 NA
ATOM     55  C   UNL A   1      45.102  24.221  28.382  1.00  0.00     0.031 C 
ATOM     56  C   UNL A   1      47.096  29.320  31.014  1.00  0.00     0.029 A 
ATOM     57  C   UNL A   1      46.279  28.378  30.408  1.00  0.00     0.049 A 
ATOM     58  H   UNL A   1      44.244  28.532  29.872  1.00  0.00     0.167 HD
ATOM     59  C   UNL A   1      45.756  26.171  29.397  1.00  0.00     0.074 A 
ATOM     60  C   UNL A   1      46.118  24.835  28.969  1.00  0.00     0.031 C 
ATOM     61  C   UNL A   1      46.613  27.043  29.981  1.00  0.00     0.037 A 
BRANCH  48  62
ATOM     62  C   UNL A   1      44.112  32.526  31.366  1.00  0.00     0.057 A 
ATOM     63  C   UNL A   1      43.924  32.815  32.725  1.00  0.00     0.134 A 
ATOM     64  C   UNL A   1      44.501  33.583  30.532  1.00  0.00     0.134 A 
ATOM     65  F   UNL A   1      43.538  31.852  33.576  1.00  0.00    -0.206 F 
ATOM     66  C   UNL A   1      44.083  34.106  33.228  1.00  0.00     0.040 A 
ATOM     67  C   UNL A   1      44.692  34.873  31.029  1.00  0.00     0.040 A 
ATOM     68  F   UNL A   1      44.704  33.378  29.222  1.00  0.00    -0.206 F 
ATOM     69  C   UNL A   1      44.476  35.140  32.380  1.00  0.00     0.006 A 
ENDBRANCH  48  62
BRANCH  49  70
ATOM     70  C   UNL A   1      42.440  23.498  27.391  1.00  0.00     0.057 A 
ATOM     71  C   UNL A   1      42.090  22.393  28.175  1.00  0.00     0.134 A 
ATOM     72  C   UNL A   1      42.557  23.298  26.010  1.00  0.00     0.134 A 
ATOM     73  F   UNL A   1      41.979  22.518  29.505  1.00  0.00    -0.206 F 
ATOM     74  C   UNL A   1      41.883  21.132  27.612  1.00  0.00     0.040 A 
ATOM     75  C   UNL A   1      42.328  22.048  25.431  1.00  0.00     0.040 A 
ATOM     76  F   UNL A   1      42.882  24.318  25.203  1.00  0.00    -0.206 F 
ATOM     77  C   UNL A   1      41.996  20.960  26.235  1.00  0.00     0.006 A 
ENDBRANCH  49  70
BRANCH  61  78
ATOM     78  C   UNL A   1      48.015  26.567  30.223  1.00  0.00     0.057 A 
ATOM     79  C   UNL A   1      48.371  25.883  31.392  1.00  0.00     0.134 A 
ATOM     80  C   UNL A   1      49.009  26.758  29.255  1.00  0.00     0.134 A 
ATOM     81  F   UNL A   1      47.467  25.678  32.363  1.00  0.00    -0.206 F 
ATOM     82  C   UNL A   1      49.672  25.424  31.599  1.00  0.00     0.040 A 
ATOM     83  C   UNL A   1      50.306  26.281  29.439  1.00  0.00     0.040 A 
ATOM     84  F   UNL A   1      48.730  27.397  28.109  1.00  0.00    -0.206 F 
ATOM     85  C   UNL A   1      50.642  25.617  30.617  1.00  0.00     0.006 A 
ENDBRANCH  61  78
ENDBRANCH  35  36
ENDBRANCH  27  30
ENDBRANCH  25  26
ENDBRANCH  24  25
ENDBRANCH   1  24
TORSDOF 15
ENDMDL
