MODEL 1
REMARK VINA RESULT:     -11.1      0.000      0.000
REMARK SMILES CC(C)(C)[C@H](NS(=O)(=O)c1ccc(CC#N)cc1)C(=O)NCCCCNC(=O)c1ccc(-c2c3nc(c(-c4c(F)cccc4F)c4ccc([nH]4)c(-c4c(F)cccc4F)c4nc(c(-c5c(F)cccc5F)c5ccc2[nH]5)C=C4)C=C3)cc1
REMARK SMILES IDX 22 1 21 2 19 3 20 4 5 6 2 7 1 8 3 9 4 10 6 11 7 13 8 14 9 15
REMARK SMILES IDX 10 16 11 17 18 18 12 19 17 20 13 21 14 22 15 23 16 24 23 25
REMARK SMILES IDX 24 26 25 27 26 28 27 29 28 31 29 32 30 33 82 34 31 35 81 36
REMARK SMILES IDX 32 37 33 38 34 39 75 40 35 41 80 42 74 43 76 44 36 45 79 46
REMARK SMILES IDX 73 47 72 48 37 50 63 51 46 52 62 53 47 54 50 55 61 56 77 57
REMARK SMILES IDX 48 58 49 59 60 61 78 62 51 63 38 64 39 65 44 66 40 67 41 68
REMARK SMILES IDX 43 69 45 70 42 71 64 72 65 73 70 74 66 75 67 76 69 77 71 78
REMARK SMILES IDX 68 79 52 80 53 81 58 82 54 83 55 84 57 85 59 86 56 87
REMARK H PARENT 21 5 6 12 26 30 76 49 50 60
REMARK Flexibility Score: inf
ROOT
ATOM      1  C   UNL A   1      32.228  26.500  26.507  1.00  0.00     0.116 C 
ENDROOT
BRANCH   1   2
ATOM      2  N   UNL A   1      31.413  25.370  26.911  1.00  0.00    -0.355 N 
ATOM      3  C   UNL A   1      31.531  24.042  26.609  1.00  0.00     0.238 C 
ATOM      4  O   UNL A   1      30.779  23.260  27.198  1.00  0.00    -0.273 OA
ATOM      5  H   UNL A   1      30.654  25.594  27.496  1.00  0.00     0.163 HD
BRANCH   3   6
ATOM      6  C   UNL A   1      32.546  23.522  25.556  1.00  0.00     0.164 C 
BRANCH   6   7
ATOM      7  C   UNL A   1      33.925  23.036  26.141  1.00  0.00    -0.013 C 
ATOM      8  C   UNL A   1      33.964  22.839  27.670  1.00  0.00     0.013 C 
ATOM      9  C   UNL A   1      34.999  24.095  25.788  1.00  0.00     0.013 C 
ATOM     10  C   UNL A   1      34.420  21.718  25.498  1.00  0.00     0.013 C 
ENDBRANCH   6   7
BRANCH   6  11
ATOM     11  N   UNL A   1      32.606  24.551  24.491  1.00  0.00    -0.198 NA
ATOM     12  H   UNL A   1      33.570  24.544  24.160  1.00  0.00     0.142 HD
BRANCH  11  13
ATOM     13  S   UNL A   1      31.660  24.553  23.115  1.00  0.00     0.241 S 
ATOM     14  O   UNL A   1      32.594  24.739  22.027  1.00  0.00    -0.207 OA
ATOM     15  O   UNL A   1      30.764  23.421  23.148  1.00  0.00    -0.207 OA
BRANCH  13  16
ATOM     16  C   UNL A   1      30.654  26.012  23.214  1.00  0.00     0.082 A 
ATOM     17  C   UNL A   1      29.439  25.949  23.897  1.00  0.00     0.022 A 
ATOM     18  C   UNL A   1      30.984  27.147  22.469  1.00  0.00     0.022 A 
ATOM     19  C   UNL A   1      28.563  27.029  23.862  1.00  0.00     0.006 A 
ATOM     20  C   UNL A   1      30.087  28.218  22.409  1.00  0.00     0.006 A 
ATOM     21  C   UNL A   1      28.861  28.160  23.091  1.00  0.00    -0.034 A 
BRANCH  21  22
ATOM     22  C   UNL A   1      27.864  29.291  22.989  1.00  0.00     0.155 C 
BRANCH  22  23
ATOM     23  C   UNL A   1      28.023  30.083  21.702  1.00  0.00     0.067 C 
ATOM     24  N   UNL A   1      28.154  30.742  20.634  1.00  0.00    -0.198 NA
ENDBRANCH  22  23
ENDBRANCH  21  22
ENDBRANCH  13  16
ENDBRANCH  11  13
ENDBRANCH   6  11
ENDBRANCH   3   6
ENDBRANCH   1   2
BRANCH   1  25
ATOM     25  C   UNL A   1      31.612  27.837  26.905  1.00  0.00     0.023 C 
BRANCH  25  26
ATOM     26  C   UNL A   1      31.469  28.850  25.769  1.00  0.00     0.023 C 
BRANCH  26  27
ATOM     27  C   UNL A   1      32.566  29.907  25.682  1.00  0.00     0.116 C 
BRANCH  27  28
ATOM     28  N   UNL A   1      32.154  31.211  26.177  1.00  0.00    -0.352 N 
ATOM     29  C   UNL A   1      32.773  32.034  27.086  1.00  0.00     0.251 C 
ATOM     30  H   UNL A   1      31.308  31.554  25.807  1.00  0.00     0.163 HD
ATOM     31  O   UNL A   1      32.226  33.065  27.462  1.00  0.00    -0.269 OA
BRANCH  29  32
ATOM     32  C   UNL A   1      34.087  31.652  27.643  1.00  0.00     0.039 A 
ATOM     33  C   UNL A   1      35.030  32.655  27.885  1.00  0.00     0.014 A 
ATOM     34  C   UNL A   1      34.378  30.321  27.949  1.00  0.00     0.014 A 
ATOM     35  C   UNL A   1      36.235  32.333  28.511  1.00  0.00     0.010 A 
ATOM     36  C   UNL A   1      35.552  30.011  28.631  1.00  0.00     0.010 A 
ATOM     37  C   UNL A   1      36.487  31.016  28.926  1.00  0.00    -0.014 A 
BRANCH  37  38
ATOM     38  C   UNL A   1      37.713  30.672  29.688  1.00  0.00     0.031 A 
ATOM     39  C   UNL A   1      38.761  29.786  29.076  1.00  0.00     0.074 A 
ATOM     40  C   UNL A   1      37.845  31.093  30.962  1.00  0.00     0.049 A 
ATOM     41  N   UNL A   1      39.854  29.308  29.612  1.00  0.00    -0.248 NA
ATOM     42  C   UNL A   1      38.535  29.360  27.687  1.00  0.00     0.031 C 
ATOM     43  C   UNL A   1      36.876  31.916  31.687  1.00  0.00     0.029 A 
ATOM     44  N   UNL A   1      38.845  30.874  31.875  1.00  0.00    -0.354 N 
ATOM     45  C   UNL A   1      40.434  28.508  28.636  1.00  0.00     0.074 A 
ATOM     46  C   UNL A   1      39.552  28.533  27.489  1.00  0.00     0.031 C 
ATOM     47  C   UNL A   1      37.338  32.150  32.925  1.00  0.00     0.029 A 
ATOM     48  C   UNL A   1      38.617  31.468  33.093  1.00  0.00     0.049 A 
ATOM     49  H   UNL A   1      39.649  30.342  31.677  1.00  0.00     0.167 HD
ATOM     50  C   UNL A   1      41.605  27.830  28.684  1.00  0.00     0.037 A 
ATOM     51  C   UNL A   1      39.356  31.461  34.218  1.00  0.00     0.037 A 
ATOM     52  C   UNL A   1      42.501  27.837  29.810  1.00  0.00     0.049 A 
ATOM     53  C   UNL A   1      40.659  30.713  34.240  1.00  0.00     0.074 A 
ATOM     54  C   UNL A   1      43.745  27.242  29.926  1.00  0.00     0.029 A 
ATOM     55  N   UNL A   1      42.247  28.472  31.016  1.00  0.00    -0.354 N 
ATOM     56  N   UNL A   1      41.226  30.015  33.287  1.00  0.00    -0.248 NA
ATOM     57  C   UNL A   1      41.425  30.756  35.494  1.00  0.00     0.031 C 
ATOM     58  C   UNL A   1      44.231  27.489  31.214  1.00  0.00     0.029 A 
ATOM     59  C   UNL A   1      43.304  28.269  31.888  1.00  0.00     0.049 A 
ATOM     60  H   UNL A   1      41.436  28.990  31.222  1.00  0.00     0.167 HD
ATOM     61  C   UNL A   1      42.426  29.559  33.815  1.00  0.00     0.074 A 
ATOM     62  C   UNL A   1      42.509  30.065  35.169  1.00  0.00     0.031 C 
ATOM     63  C   UNL A   1      43.375  28.788  33.229  1.00  0.00     0.037 A 
BRANCH  50  64
ATOM     64  C   UNL A   1      41.987  27.028  27.476  1.00  0.00     0.057 A 
ATOM     65  C   UNL A   1      42.668  27.602  26.396  1.00  0.00     0.134 A 
ATOM     66  C   UNL A   1      41.693  25.661  27.404  1.00  0.00     0.134 A 
ATOM     67  F   UNL A   1      42.967  28.911  26.397  1.00  0.00    -0.206 F 
ATOM     68  C   UNL A   1      43.024  26.850  25.275  1.00  0.00     0.040 A 
ATOM     69  C   UNL A   1      42.064  24.892  26.300  1.00  0.00     0.040 A 
ATOM     70  F   UNL A   1      41.046  25.049  28.407  1.00  0.00    -0.206 F 
ATOM     71  C   UNL A   1      42.726  25.489  25.228  1.00  0.00     0.006 A 
ENDBRANCH  50  64
BRANCH  51  72
ATOM     72  C   UNL A   1      38.897  32.213  35.411  1.00  0.00     0.057 A 
ATOM     73  C   UNL A   1      38.213  31.567  36.446  1.00  0.00     0.134 A 
ATOM     74  C   UNL A   1      39.122  33.589  35.543  1.00  0.00     0.134 A 
ATOM     75  F   UNL A   1      37.953  30.254  36.366  1.00  0.00    -0.206 F 
ATOM     76  C   UNL A   1      37.756  32.263  37.566  1.00  0.00     0.040 A 
ATOM     77  C   UNL A   1      38.687  34.294  36.666  1.00  0.00     0.040 A 
ATOM     78  F   UNL A   1      39.778  34.263  34.587  1.00  0.00    -0.206 F 
ATOM     79  C   UNL A   1      37.996  33.631  37.680  1.00  0.00     0.006 A 
ENDBRANCH  51  72
BRANCH  63  80
ATOM     80  C   UNL A   1      44.597  28.474  34.038  1.00  0.00     0.057 A 
ATOM     81  C   UNL A   1      44.686  27.317  34.820  1.00  0.00     0.134 A 
ATOM     82  C   UNL A   1      45.710  29.323  34.004  1.00  0.00     0.134 A 
ATOM     83  F   UNL A   1      43.647  26.472  34.905  1.00  0.00    -0.206 F 
ATOM     84  C   UNL A   1      45.835  27.021  35.554  1.00  0.00     0.040 A 
ATOM     85  C   UNL A   1      46.873  29.028  34.716  1.00  0.00     0.040 A 
ATOM     86  F   UNL A   1      45.690  30.445  33.269  1.00  0.00    -0.206 F 
ATOM     87  C   UNL A   1      46.936  27.876  35.498  1.00  0.00     0.006 A 
ENDBRANCH  63  80
ENDBRANCH  37  38
ENDBRANCH  29  32
ENDBRANCH  27  28
ENDBRANCH  26  27
ENDBRANCH  25  26
ENDBRANCH   1  25
TORSDOF 17
ENDMDL
MODEL 2
REMARK VINA RESULT:     -11.0      4.016      8.914
REMARK SMILES CC(C)(C)[C@H](NS(=O)(=O)c1ccc(CC#N)cc1)C(=O)NCCCCNC(=O)c1ccc(-c2c3nc(c(-c4c(F)cccc4F)c4ccc([nH]4)c(-c4c(F)cccc4F)c4nc(c(-c5c(F)cccc5F)c5ccc2[nH]5)C=C4)C=C3)cc1
REMARK SMILES IDX 22 1 21 2 19 3 20 4 5 6 2 7 1 8 3 9 4 10 6 11 7 13 8 14 9 15
REMARK SMILES IDX 10 16 11 17 18 18 12 19 17 20 13 21 14 22 15 23 16 24 23 25
REMARK SMILES IDX 24 26 25 27 26 28 27 29 28 31 29 32 30 33 82 34 31 35 81 36
REMARK SMILES IDX 32 37 33 38 34 39 75 40 35 41 80 42 74 43 76 44 36 45 79 46
REMARK SMILES IDX 73 47 72 48 37 50 63 51 46 52 62 53 47 54 50 55 61 56 77 57
REMARK SMILES IDX 48 58 49 59 60 61 78 62 51 63 38 64 39 65 44 66 40 67 41 68
REMARK SMILES IDX 43 69 45 70 42 71 64 72 65 73 70 74 66 75 67 76 69 77 71 78
REMARK SMILES IDX 68 79 52 80 53 81 58 82 54 83 55 84 57 85 59 86 56 87
REMARK H PARENT 21 5 6 12 26 30 76 49 50 60
REMARK Flexibility Score: inf
ROOT
ATOM      1  C   UNL A   1      36.609  23.308  24.330  1.00  0.00     0.116 C 
ENDROOT
BRANCH   1   2
ATOM      2  N   UNL A   1      35.984  23.245  25.639  1.00  0.00    -0.355 N 
ATOM      3  C   UNL A   1      34.688  23.472  26.011  1.00  0.00     0.238 C 
ATOM      4  O   UNL A   1      34.384  23.216  27.180  1.00  0.00    -0.273 OA
ATOM      5  H   UNL A   1      36.588  23.000  26.376  1.00  0.00     0.163 HD
BRANCH   3   6
ATOM      6  C   UNL A   1      33.636  24.049  25.027  1.00  0.00     0.164 C 
BRANCH   6   7
ATOM      7  C   UNL A   1      33.017  25.434  25.450  1.00  0.00    -0.013 C 
ATOM      8  C   UNL A   1      34.005  26.441  26.071  1.00  0.00     0.013 C 
ATOM      9  C   UNL A   1      31.913  25.168  26.505  1.00  0.00     0.013 C 
ATOM     10  C   UNL A   1      32.302  26.156  24.282  1.00  0.00     0.013 C 
ENDBRANCH   6   7
BRANCH   6  11
ATOM     11  N   UNL A   1      32.677  22.954  24.751  1.00  0.00    -0.198 NA
ATOM     12  H   UNL A   1      31.764  23.313  25.031  1.00  0.00     0.142 HD
BRANCH  11  13
ATOM     13  S   UNL A   1      32.440  22.250  23.255  1.00  0.00     0.241 S 
ATOM     14  O   UNL A   1      31.040  22.463  22.965  1.00  0.00    -0.207 OA
ATOM     15  O   UNL A   1      33.471  22.697  22.347  1.00  0.00    -0.207 OA
BRANCH  13  16
ATOM     16  C   UNL A   1      32.681  20.507  23.491  1.00  0.00     0.082 A 
ATOM     17  C   UNL A   1      33.613  20.075  24.435  1.00  0.00     0.022 A 
ATOM     18  C   UNL A   1      32.085  19.590  22.620  1.00  0.00     0.022 A 
ATOM     19  C   UNL A   1      33.931  18.725  24.535  1.00  0.00     0.006 A 
ATOM     20  C   UNL A   1      32.430  18.237  22.701  1.00  0.00     0.006 A 
ATOM     21  C   UNL A   1      33.371  17.796  23.647  1.00  0.00    -0.034 A 
BRANCH  21  22
ATOM     22  C   UNL A   1      33.788  16.346  23.705  1.00  0.00     0.155 C 
BRANCH  22  23
ATOM     23  C   UNL A   1      34.838  16.092  24.774  1.00  0.00     0.067 C 
ATOM     24  N   UNL A   1      35.709  15.881  25.662  1.00  0.00    -0.198 NA
ENDBRANCH  22  23
ENDBRANCH  21  22
ENDBRANCH  13  16
ENDBRANCH  11  13
ENDBRANCH   6  11
ENDBRANCH   3   6
ENDBRANCH   1   2
BRANCH   1  25
ATOM     25  C   UNL A   1      37.049  21.938  23.827  1.00  0.00     0.023 C 
BRANCH  25  26
ATOM     26  C   UNL A   1      37.197  20.866  24.907  1.00  0.00     0.023 C 
BRANCH  26  27
ATOM     27  C   UNL A   1      38.400  21.022  25.834  1.00  0.00     0.116 C 
BRANCH  27  28
ATOM     28  N   UNL A   1      39.389  19.966  25.682  1.00  0.00    -0.352 N 
ATOM     29  C   UNL A   1      40.733  19.983  25.967  1.00  0.00     0.251 C 
ATOM     30  H   UNL A   1      39.046  19.116  25.321  1.00  0.00     0.163 HD
ATOM     31  O   UNL A   1      41.439  19.022  25.681  1.00  0.00    -0.269 OA
BRANCH  29  32
ATOM     32  C   UNL A   1      41.335  21.181  26.587  1.00  0.00     0.039 A 
ATOM     33  C   UNL A   1      41.888  22.159  25.758  1.00  0.00     0.014 A 
ATOM     34  C   UNL A   1      41.329  21.351  27.974  1.00  0.00     0.014 A 
ATOM     35  C   UNL A   1      42.364  23.348  26.313  1.00  0.00     0.010 A 
ATOM     36  C   UNL A   1      41.744  22.562  28.521  1.00  0.00     0.010 A 
ATOM     37  C   UNL A   1      42.256  23.575  27.695  1.00  0.00    -0.014 A 
BRANCH  37  38
ATOM     38  C   UNL A   1      42.655  24.873  28.293  1.00  0.00     0.031 A 
ATOM     39  C   UNL A   1      41.630  25.947  28.525  1.00  0.00     0.074 A 
ATOM     40  C   UNL A   1      43.955  25.114  28.555  1.00  0.00     0.049 A 
ATOM     41  N   UNL A   1      41.798  27.170  28.956  1.00  0.00    -0.248 NA
ATOM     42  C   UNL A   1      40.236  25.608  28.201  1.00  0.00     0.031 C 
ATOM     43  C   UNL A   1      45.054  24.173  28.330  1.00  0.00     0.029 A 
ATOM     44  N   UNL A   1      44.572  26.231  29.059  1.00  0.00    -0.354 N 
ATOM     45  C   UNL A   1      40.538  27.753  28.935  1.00  0.00     0.074 A 
ATOM     46  C   UNL A   1      39.622  26.764  28.410  1.00  0.00     0.031 C 
ATOM     47  C   UNL A   1      46.207  24.744  28.712  1.00  0.00     0.029 A 
ATOM     48  C   UNL A   1      45.935  26.100  29.178  1.00  0.00     0.049 A 
ATOM     49  H   UNL A   1      44.086  27.049  29.310  1.00  0.00     0.167 HD
ATOM     50  C   UNL A   1      40.174  28.995  29.335  1.00  0.00     0.037 A 
ATOM     51  C   UNL A   1      46.861  26.976  29.612  1.00  0.00     0.037 A 
ATOM     52  C   UNL A   1      41.078  29.965  29.893  1.00  0.00     0.049 A 
ATOM     53  C   UNL A   1      46.428  28.342  30.064  1.00  0.00     0.074 A 
ATOM     54  C   UNL A   1      40.791  31.222  30.396  1.00  0.00     0.029 A 
ATOM     55  N   UNL A   1      42.446  29.786  30.022  1.00  0.00    -0.354 N 
ATOM     56  N   UNL A   1      45.223  28.857  30.099  1.00  0.00    -0.248 NA
ATOM     57  C   UNL A   1      47.485  29.247  30.539  1.00  0.00     0.031 C 
ATOM     58  C   UNL A   1      41.991  31.817  30.800  1.00  0.00     0.029 A 
ATOM     59  C   UNL A   1      43.020  30.916  30.581  1.00  0.00     0.049 A 
ATOM     60  H   UNL A   1      42.937  28.976  29.755  1.00  0.00     0.167 HD
ATOM     61  C   UNL A   1      45.372  30.133  30.625  1.00  0.00     0.074 A 
ATOM     62  C   UNL A   1      46.782  30.312  30.901  1.00  0.00     0.031 C 
ATOM     63  C   UNL A   1      44.424  31.073  30.858  1.00  0.00     0.037 A 
BRANCH  50  64
ATOM     64  C   UNL A   1      38.729  29.370  29.188  1.00  0.00     0.057 A 
ATOM     65  C   UNL A   1      38.181  29.721  27.948  1.00  0.00     0.134 A 
ATOM     66  C   UNL A   1      37.871  29.353  30.294  1.00  0.00     0.134 A 
ATOM     67  F   UNL A   1      38.954  29.769  26.852  1.00  0.00    -0.206 F 
ATOM     68  C   UNL A   1      36.835  30.065  27.817  1.00  0.00     0.040 A 
ATOM     69  C   UNL A   1      36.518  29.673  30.172  1.00  0.00     0.040 A 
ATOM     70  F   UNL A   1      38.332  29.022  31.510  1.00  0.00    -0.206 F 
ATOM     71  C   UNL A   1      35.998  30.037  28.931  1.00  0.00     0.006 A 
ENDBRANCH  50  64
BRANCH  51  72
ATOM     72  C   UNL A   1      48.288  26.578  29.669  1.00  0.00     0.057 A 
ATOM     73  C   UNL A   1      49.160  26.883  28.619  1.00  0.00     0.134 A 
ATOM     74  C   UNL A   1      48.812  25.883  30.765  1.00  0.00     0.134 A 
ATOM     75  F   UNL A   1      48.710  27.532  27.535  1.00  0.00    -0.206 F 
ATOM     76  C   UNL A   1      50.501  26.498  28.647  1.00  0.00     0.040 A 
ATOM     77  C   UNL A   1      50.156  25.508  30.815  1.00  0.00     0.040 A 
ATOM     78  F   UNL A   1      48.028  25.567  31.806  1.00  0.00    -0.206 F 
ATOM     79  C   UNL A   1      51.003  25.811  29.751  1.00  0.00     0.006 A 
ENDBRANCH  51  72
BRANCH  63  80
ATOM     80  C   UNL A   1      44.878  32.364  31.470  1.00  0.00     0.057 A 
ATOM     81  C   UNL A   1      45.250  33.461  30.685  1.00  0.00     0.134 A 
ATOM     82  C   UNL A   1      44.905  32.521  32.861  1.00  0.00     0.134 A 
ATOM     83  F   UNL A   1      45.258  33.368  29.346  1.00  0.00    -0.206 F 
ATOM     84  C   UNL A   1      45.651  34.667  31.262  1.00  0.00     0.040 A 
ATOM     85  C   UNL A   1      45.282  33.728  33.450  1.00  0.00     0.040 A 
ATOM     86  F   UNL A   1      44.553  31.509  33.668  1.00  0.00    -0.206 F 
ATOM     87  C   UNL A   1      45.661  34.804  32.650  1.00  0.00     0.006 A 
ENDBRANCH  63  80
ENDBRANCH  37  38
ENDBRANCH  29  32
ENDBRANCH  27  28
ENDBRANCH  26  27
ENDBRANCH  25  26
ENDBRANCH   1  25
TORSDOF 17
ENDMDL
MODEL 3
REMARK VINA RESULT:     -10.9      2.431      4.303
REMARK SMILES CC(C)(C)[C@H](NS(=O)(=O)c1ccc(CC#N)cc1)C(=O)NCCCCNC(=O)c1ccc(-c2c3nc(c(-c4c(F)cccc4F)c4ccc([nH]4)c(-c4c(F)cccc4F)c4nc(c(-c5c(F)cccc5F)c5ccc2[nH]5)C=C4)C=C3)cc1
REMARK SMILES IDX 22 1 21 2 19 3 20 4 5 6 2 7 1 8 3 9 4 10 6 11 7 13 8 14 9 15
REMARK SMILES IDX 10 16 11 17 18 18 12 19 17 20 13 21 14 22 15 23 16 24 23 25
REMARK SMILES IDX 24 26 25 27 26 28 27 29 28 31 29 32 30 33 82 34 31 35 81 36
REMARK SMILES IDX 32 37 33 38 34 39 75 40 35 41 80 42 74 43 76 44 36 45 79 46
REMARK SMILES IDX 73 47 72 48 37 50 63 51 46 52 62 53 47 54 50 55 61 56 77 57
REMARK SMILES IDX 48 58 49 59 60 61 78 62 51 63 38 64 39 65 44 66 40 67 41 68
REMARK SMILES IDX 43 69 45 70 42 71 64 72 65 73 70 74 66 75 67 76 69 77 71 78
REMARK SMILES IDX 68 79 52 80 53 81 58 82 54 83 55 84 57 85 59 86 56 87
REMARK H PARENT 21 5 6 12 26 30 76 49 50 60
REMARK Flexibility Score: inf
ROOT
ATOM      1  C   UNL A   1      34.230  28.918  26.822  1.00  0.00     0.116 C 
ENDROOT
BRANCH   1   2
ATOM      2  N   UNL A   1      33.040  28.155  27.150  1.00  0.00    -0.355 N 
ATOM      3  C   UNL A   1      32.271  27.338  26.369  1.00  0.00     0.238 C 
ATOM      4  O   UNL A   1      31.381  26.693  26.933  1.00  0.00    -0.273 OA
ATOM      5  H   UNL A   1      32.739  28.239  28.083  1.00  0.00     0.163 HD
BRANCH   3   6
ATOM      6  C   UNL A   1      32.475  27.231  24.835  1.00  0.00     0.164 C 
BRANCH   6   7
ATOM      7  C   UNL A   1      31.549  28.168  23.971  1.00  0.00    -0.013 C 
ATOM      8  C   UNL A   1      31.067  29.453  24.673  1.00  0.00     0.013 C 
ATOM      9  C   UNL A   1      30.286  27.363  23.573  1.00  0.00     0.013 C 
ATOM     10  C   UNL A   1      32.203  28.594  22.635  1.00  0.00     0.013 C 
ENDBRANCH   6   7
BRANCH   6  11
ATOM     11  N   UNL A   1      32.441  25.786  24.509  1.00  0.00    -0.198 NA
ATOM     12  H   UNL A   1      31.704  25.681  23.811  1.00  0.00     0.142 HD
BRANCH  11  13
ATOM     13  S   UNL A   1      33.738  24.911  23.925  1.00  0.00     0.241 S 
ATOM     14  O   UNL A   1      33.919  25.382  22.569  1.00  0.00    -0.207 OA
ATOM     15  O   UNL A   1      34.816  24.954  24.884  1.00  0.00    -0.207 OA
BRANCH  13  16
ATOM     16  C   UNL A   1      33.191  23.224  23.838  1.00  0.00     0.082 A 
ATOM     17  C   UNL A   1      33.773  22.281  24.686  1.00  0.00     0.022 A 
ATOM     18  C   UNL A   1      32.330  22.815  22.817  1.00  0.00     0.022 A 
ATOM     19  C   UNL A   1      33.475  20.931  24.537  1.00  0.00     0.006 A 
ATOM     20  C   UNL A   1      32.056  21.453  22.648  1.00  0.00     0.006 A 
ATOM     21  C   UNL A   1      32.642  20.498  23.496  1.00  0.00    -0.034 A 
BRANCH  21  22
ATOM     22  C   UNL A   1      32.394  19.023  23.288  1.00  0.00     0.155 C 
BRANCH  22  23
ATOM     23  C   UNL A   1      32.404  18.248  24.596  1.00  0.00     0.067 C 
ATOM     24  N   UNL A   1      32.412  17.604  25.680  1.00  0.00    -0.198 NA
ENDBRANCH  22  23
ENDBRANCH  21  22
ENDBRANCH  13  16
ENDBRANCH  11  13
ENDBRANCH   6  11
ENDBRANCH   3   6
ENDBRANCH   1   2
BRANCH   1  25
ATOM     25  C   UNL A   1      34.342  30.203  27.633  1.00  0.00     0.023 C 
BRANCH  25  26
ATOM     26  C   UNL A   1      33.093  31.084  27.631  1.00  0.00     0.023 C 
BRANCH  26  27
ATOM     27  C   UNL A   1      33.211  32.401  26.868  1.00  0.00     0.116 C 
BRANCH  27  28
ATOM     28  N   UNL A   1      32.677  33.541  27.595  1.00  0.00    -0.352 N 
ATOM     29  C   UNL A   1      33.202  34.209  28.675  1.00  0.00     0.251 C 
ATOM     30  H   UNL A   1      31.814  33.884  27.267  1.00  0.00     0.163 HD
ATOM     31  O   UNL A   1      32.559  35.097  29.226  1.00  0.00    -0.269 OA
BRANCH  29  32
ATOM     32  C   UNL A   1      34.530  33.828  29.198  1.00  0.00     0.039 A 
ATOM     33  C   UNL A   1      34.596  33.020  30.336  1.00  0.00     0.014 A 
ATOM     34  C   UNL A   1      35.699  34.241  28.555  1.00  0.00     0.014 A 
ATOM     35  C   UNL A   1      35.835  32.558  30.783  1.00  0.00     0.010 A 
ATOM     36  C   UNL A   1      36.928  33.728  28.963  1.00  0.00     0.010 A 
ATOM     37  C   UNL A   1      37.005  32.875  30.075  1.00  0.00    -0.014 A 
BRANCH  37  38
ATOM     38  C   UNL A   1      38.319  32.307  30.469  1.00  0.00     0.031 A 
ATOM     39  C   UNL A   1      38.794  31.013  29.870  1.00  0.00     0.074 A 
ATOM     40  C   UNL A   1      39.048  32.916  31.424  1.00  0.00     0.049 A 
ATOM     41  N   UNL A   1      39.867  30.319  30.149  1.00  0.00    -0.248 NA
ATOM     42  C   UNL A   1      37.933  30.406  28.844  1.00  0.00     0.031 C 
ATOM     43  C   UNL A   1      38.674  34.150  32.118  1.00  0.00     0.029 A 
ATOM     44  N   UNL A   1      40.252  32.571  31.985  1.00  0.00    -0.354 N 
ATOM     45  C   UNL A   1      39.801  29.185  29.350  1.00  0.00     0.074 A 
ATOM     46  C   UNL A   1      38.562  29.264  28.605  1.00  0.00     0.031 C 
ATOM     47  C   UNL A   1      39.639  34.470  32.996  1.00  0.00     0.029 A 
ATOM     48  C   UNL A   1      40.680  33.449  32.951  1.00  0.00     0.049 A 
ATOM     49  H   UNL A   1      40.760  31.771  31.720  1.00  0.00     0.167 HD
ATOM     50  C   UNL A   1      40.700  28.179  29.232  1.00  0.00     0.037 A 
ATOM     51  C   UNL A   1      41.788  33.431  33.717  1.00  0.00     0.037 A 
ATOM     52  C   UNL A   1      41.949  28.121  29.944  1.00  0.00     0.049 A 
ATOM     53  C   UNL A   1      42.776  32.310  33.557  1.00  0.00     0.074 A 
ATOM     54  C   UNL A   1      42.959  27.181  29.836  1.00  0.00     0.029 A 
ATOM     55  N   UNL A   1      42.359  29.042  30.895  1.00  0.00    -0.354 N 
ATOM     56  N   UNL A   1      42.731  31.279  32.749  1.00  0.00    -0.248 NA
ATOM     57  C   UNL A   1      43.971  32.355  34.411  1.00  0.00     0.031 C 
ATOM     58  C   UNL A   1      43.967  27.515  30.746  1.00  0.00     0.029 A 
ATOM     59  C   UNL A   1      43.600  28.683  31.394  1.00  0.00     0.049 A 
ATOM     60  H   UNL A   1      41.845  29.833  31.174  1.00  0.00     0.167 HD
ATOM     61  C   UNL A   1      43.901  30.567  32.978  1.00  0.00     0.074 A 
ATOM     62  C   UNL A   1      44.639  31.289  33.994  1.00  0.00     0.031 C 
ATOM     63  C   UNL A   1      44.325  29.418  32.399  1.00  0.00     0.037 A 
BRANCH  50  64
ATOM     64  C   UNL A   1      40.363  27.061  28.292  1.00  0.00     0.057 A 
ATOM     65  C   UNL A   1      40.898  27.000  26.999  1.00  0.00     0.134 A 
ATOM     66  C   UNL A   1      39.517  26.020  28.693  1.00  0.00     0.134 A 
ATOM     67  F   UNL A   1      41.704  27.974  26.549  1.00  0.00    -0.206 F 
ATOM     68  C   UNL A   1      40.583  25.954  26.128  1.00  0.00     0.040 A 
ATOM     69  C   UNL A   1      39.214  24.957  27.841  1.00  0.00     0.040 A 
ATOM     70  F   UNL A   1      38.975  26.016  29.920  1.00  0.00    -0.206 F 
ATOM     71  C   UNL A   1      39.743  24.926  26.552  1.00  0.00     0.006 A 
ENDBRANCH  50  64
BRANCH  51  72
ATOM     72  C   UNL A   1      42.038  34.525  34.685  1.00  0.00     0.057 A 
ATOM     73  C   UNL A   1      41.657  34.398  36.025  1.00  0.00     0.134 A 
ATOM     74  C   UNL A   1      42.653  35.722  34.297  1.00  0.00     0.134 A 
ATOM     75  F   UNL A   1      41.048  33.282  36.450  1.00  0.00    -0.206 F 
ATOM     76  C   UNL A   1      41.866  35.426  36.945  1.00  0.00     0.040 A 
ATOM     77  C   UNL A   1      42.885  36.751  35.211  1.00  0.00     0.040 A 
ATOM     78  F   UNL A   1      43.046  35.901  33.028  1.00  0.00    -0.206 F 
ATOM     79  C   UNL A   1      42.485  36.607  36.539  1.00  0.00     0.006 A 
ENDBRANCH  51  72
BRANCH  63  80
ATOM     80  C   UNL A   1      45.661  28.889  32.826  1.00  0.00     0.057 A 
ATOM     81  C   UNL A   1      45.790  27.968  33.871  1.00  0.00     0.134 A 
ATOM     82  C   UNL A   1      46.828  29.280  32.156  1.00  0.00     0.134 A 
ATOM     83  F   UNL A   1      44.710  27.566  34.560  1.00  0.00    -0.206 F 
ATOM     84  C   UNL A   1      47.035  27.465  34.249  1.00  0.00     0.040 A 
ATOM     85  C   UNL A   1      48.076  28.767  32.510  1.00  0.00     0.040 A 
ATOM     86  F   UNL A   1      46.771  30.155  31.142  1.00  0.00    -0.206 F 
ATOM     87  C   UNL A   1      48.183  27.860  33.563  1.00  0.00     0.006 A 
ENDBRANCH  63  80
ENDBRANCH  37  38
ENDBRANCH  29  32
ENDBRANCH  27  28
ENDBRANCH  26  27
ENDBRANCH  25  26
ENDBRANCH   1  25
TORSDOF 17
ENDMDL
