MODEL 1
REMARK VINA RESULT:     -11.9      0.000      0.000
REMARK SMILES [NH3+][C@H]1C=C[C@H](C(=O)N2CCCc3c(C(=O)NCCCCNC(=O)c4ccc(-c5c6nc(c(-c7c(F)cccc7F)c7ccc([nH]7)c(-c7c(F)cccc7F)c7nc(c(-c8c(F)cccc8F)c8ccc5[nH]8)C=C7)C=C6)cc4)cccc32)C1
REMARK SMILES IDX 18 1 17 2 16 3 14 4 15 5 13 7 8 8 9 9 81 10 10 11 12 12
REMARK SMILES IDX 80 13 11 14 79 15 78 16 6 17 7 18 5 19 2 20 3 21 82 22 4 23
REMARK SMILES IDX 1 24 19 28 20 29 21 30 22 31 23 33 24 34 25 35 77 36 26 37
REMARK SMILES IDX 76 38 27 39 28 40 29 41 70 42 30 43 75 44 69 45 71 46 31 47
REMARK SMILES IDX 74 48 68 49 67 50 32 52 58 53 41 54 57 55 42 56 45 57 56 58
REMARK SMILES IDX 72 59 43 60 44 61 55 63 73 64 46 65 33 66 34 67 39 68 35 69
REMARK SMILES IDX 36 70 38 71 40 72 37 73 59 74 60 75 65 76 61 77 62 78 64 79
REMARK SMILES IDX 66 80 63 81 47 82 48 83 53 84 49 85 50 86 52 87 54 88 51 89
REMARK H PARENT 16 6 1 25 1 26 1 27 21 32 71 51 45 62
REMARK Flexibility Score: inf
ROOT
ATOM      1  C   UNL A   1      32.907  29.441  24.965  1.00  0.00     0.023 C 
ENDROOT
BRANCH   1   2
ATOM      2  C   UNL A   1      31.418  29.190  25.242  1.00  0.00     0.116 C 
BRANCH   2   3
ATOM      3  N   UNL A   1      30.710  28.935  24.005  1.00  0.00    -0.352 N 
ATOM      4  C   UNL A   1      30.664  27.985  23.024  1.00  0.00     0.251 C 
ATOM      5  O   UNL A   1      29.853  28.268  22.130  1.00  0.00    -0.269 OA
ATOM      6  H   UNL A   1      30.073  29.661  23.814  1.00  0.00     0.163 HD
BRANCH   4   7
ATOM      7  C   UNL A   1      31.400  26.670  22.895  1.00  0.00     0.045 A 
ATOM      8  N   UNL A   1      32.918  23.568  24.466  1.00  0.00    -0.312 N 
ATOM      9  C   UNL A   1      32.173  23.562  25.716  1.00  0.00     0.126 C 
ATOM     10  C   UNL A   1      32.603  24.602  23.513  1.00  0.00     0.048 A 
ATOM     11  C   UNL A   1      32.133  24.955  26.294  1.00  0.00     0.027 C 
ATOM     12  C   UNL A   1      31.782  25.714  23.875  1.00  0.00    -0.011 A 
ATOM     13  C   UNL A   1      33.074  24.487  22.200  1.00  0.00     0.027 A 
ATOM     14  C   UNL A   1      31.411  25.862  25.316  1.00  0.00     0.040 C 
ATOM     15  C   UNL A   1      32.715  25.413  21.235  1.00  0.00     0.003 A 
ATOM     16  C   UNL A   1      31.881  26.472  21.579  1.00  0.00     0.014 A 
BRANCH   8  17
ATOM     17  C   UNL A   1      34.009  22.721  24.283  1.00  0.00     0.234 C 
ATOM     18  O   UNL A   1      33.884  21.496  24.186  1.00  0.00    -0.274 OA
BRANCH  17  19
ATOM     19  C   UNL A   1      35.425  23.326  24.295  1.00  0.00     0.108 C 
ATOM     20  C   UNL A   1      37.292  22.373  25.573  1.00  0.00     0.205 C 
ATOM     21  C   UNL A   1      36.846  23.682  26.129  1.00  0.00     0.033 C 
ATOM     22  C   UNL A   1      36.554  22.285  24.230  1.00  0.00     0.087 C 
ATOM     23  C   UNL A   1      35.806  24.190  25.455  1.00  0.00    -0.012 C 
BRANCH  20  24
ATOM     24  N   UNL A   1      38.732  22.311  25.426  1.00  0.00    -0.352 N 
ATOM     25  H   UNL A   1      39.122  23.251  25.488  1.00  0.00     0.345 HD
ATOM     26  H   UNL A   1      38.964  21.907  24.518  1.00  0.00     0.345 HD
ATOM     27  H   UNL A   1      39.125  21.731  26.166  1.00  0.00     0.345 HD
ENDBRANCH  20  24
ENDBRANCH  17  19
ENDBRANCH   8  17
ENDBRANCH   4   7
ENDBRANCH   2   3
ENDBRANCH   1   2
BRANCH   1  28
ATOM     28  C   UNL A   1      33.885  28.659  25.828  1.00  0.00     0.023 C 
BRANCH  28  29
ATOM     29  C   UNL A   1      33.637  28.794  27.319  1.00  0.00     0.116 C 
BRANCH  29  30
ATOM     30  N   UNL A   1      33.702  30.164  27.815  1.00  0.00    -0.352 N 
ATOM     31  C   UNL A   1      34.799  30.818  28.338  1.00  0.00     0.251 C 
ATOM     32  H   UNL A   1      32.866  30.682  27.773  1.00  0.00     0.163 HD
ATOM     33  O   UNL A   1      34.719  31.952  28.769  1.00  0.00    -0.269 OA
BRANCH  31  34
ATOM     34  C   UNL A   1      36.068  30.063  28.418  1.00  0.00     0.039 A 
ATOM     35  C   UNL A   1      36.962  30.138  27.349  1.00  0.00     0.014 A 
ATOM     36  C   UNL A   1      36.424  29.426  29.608  1.00  0.00     0.014 A 
ATOM     37  C   UNL A   1      38.261  29.656  27.513  1.00  0.00     0.010 A 
ATOM     38  C   UNL A   1      37.741  29.034  29.800  1.00  0.00     0.010 A 
ATOM     39  C   UNL A   1      38.674  29.152  28.757  1.00  0.00    -0.014 A 
BRANCH  39  40
ATOM     40  C   UNL A   1      40.079  28.747  29.002  1.00  0.00     0.031 A 
ATOM     41  C   UNL A   1      41.025  29.707  29.663  1.00  0.00     0.074 A 
ATOM     42  C   UNL A   1      40.524  27.559  28.547  1.00  0.00     0.049 A 
ATOM     43  N   UNL A   1      42.309  29.583  29.883  1.00  0.00    -0.248 NA
ATOM     44  C   UNL A   1      40.462  30.995  30.096  1.00  0.00     0.031 C 
ATOM     45  C   UNL A   1      39.721  26.568  27.828  1.00  0.00     0.029 A 
ATOM     46  N   UNL A   1      41.770  26.988  28.618  1.00  0.00    -0.354 N 
ATOM     47  C   UNL A   1      42.709  30.786  30.449  1.00  0.00     0.074 A 
ATOM     48  C   UNL A   1      41.546  31.645  30.488  1.00  0.00     0.031 C 
ATOM     49  C   UNL A   1      40.485  25.497  27.554  1.00  0.00     0.029 A 
ATOM     50  C   UNL A   1      41.836  25.739  28.050  1.00  0.00     0.049 A 
ATOM     51  H   UNL A   1      42.543  27.432  29.035  1.00  0.00     0.167 HD
ATOM     52  C   UNL A   1      43.929  31.135  30.920  1.00  0.00     0.037 A 
ATOM     53  C   UNL A   1      42.872  24.885  27.949  1.00  0.00     0.037 A 
ATOM     54  C   UNL A   1      45.069  30.260  30.929  1.00  0.00     0.049 A 
ATOM     55  C   UNL A   1      44.206  25.277  28.517  1.00  0.00     0.074 A 
ATOM     56  C   UNL A   1      46.325  30.484  31.466  1.00  0.00     0.029 A 
ATOM     57  N   UNL A   1      45.087  28.986  30.381  1.00  0.00    -0.354 N 
ATOM     58  N   UNL A   1      44.553  26.388  29.118  1.00  0.00    -0.248 NA
ATOM     59  C   UNL A   1      45.291  24.292  28.398  1.00  0.00     0.031 C 
ATOM     60  C   UNL A   1      47.112  29.354  31.217  1.00  0.00     0.029 A 
ATOM     61  C   UNL A   1      46.337  28.416  30.554  1.00  0.00     0.049 A 
ATOM     62  H   UNL A   1      44.325  28.552  29.935  1.00  0.00     0.167 HD
ATOM     63  C   UNL A   1      45.886  26.230  29.471  1.00  0.00     0.074 A 
ATOM     64  C   UNL A   1      46.283  24.910  29.023  1.00  0.00     0.031 C 
ATOM     65  C   UNL A   1      46.709  27.098  30.108  1.00  0.00     0.037 A 
BRANCH  52  66
ATOM     66  C   UNL A   1      44.075  32.520  31.473  1.00  0.00     0.057 A 
ATOM     67  C   UNL A   1      43.831  32.805  32.823  1.00  0.00     0.134 A 
ATOM     68  C   UNL A   1      44.457  33.583  30.646  1.00  0.00     0.134 A 
ATOM     69  F   UNL A   1      43.443  31.833  33.663  1.00  0.00    -0.206 F 
ATOM     70  C   UNL A   1      43.927  34.104  33.324  1.00  0.00     0.040 A 
ATOM     71  C   UNL A   1      44.583  34.882  31.141  1.00  0.00     0.040 A 
ATOM     72  F   UNL A   1      44.707  33.378  29.344  1.00  0.00    -0.206 F 
ATOM     73  C   UNL A   1      44.308  35.147  32.481  1.00  0.00     0.006 A 
ENDBRANCH  52  66
BRANCH  53  74
ATOM     74  C   UNL A   1      42.674  23.553  27.328  1.00  0.00     0.057 A 
ATOM     75  C   UNL A   1      42.305  22.450  28.106  1.00  0.00     0.134 A 
ATOM     76  C   UNL A   1      42.840  23.348  25.953  1.00  0.00     0.134 A 
ATOM     77  F   UNL A   1      42.148  22.583  29.432  1.00  0.00    -0.206 F 
ATOM     78  C   UNL A   1      42.121  21.186  27.544  1.00  0.00     0.040 A 
ATOM     79  C   UNL A   1      42.641  22.093  25.375  1.00  0.00     0.040 A 
ATOM     80  F   UNL A   1      43.185  24.367  25.154  1.00  0.00    -0.206 F 
ATOM     81  C   UNL A   1      42.284  21.007  26.172  1.00  0.00     0.006 A 
ENDBRANCH  53  74
BRANCH  65  82
ATOM     82  C   UNL A   1      48.107  26.638  30.384  1.00  0.00     0.057 A 
ATOM     83  C   UNL A   1      49.164  26.935  29.516  1.00  0.00     0.134 A 
ATOM     84  C   UNL A   1      48.404  25.930  31.555  1.00  0.00     0.134 A 
ATOM     85  F   UNL A   1      48.938  27.599  28.373  1.00  0.00    -0.206 F 
ATOM     86  C   UNL A   1      50.469  26.528  29.796  1.00  0.00     0.040 A 
ATOM     87  C   UNL A   1      49.708  25.536  31.856  1.00  0.00     0.040 A 
ATOM     88  F   UNL A   1      47.435  25.620  32.429  1.00  0.00    -0.206 F 
ATOM     89  C   UNL A   1      50.745  25.833  30.972  1.00  0.00     0.006 A 
ENDBRANCH  65  82
ENDBRANCH  39  40
ENDBRANCH  31  34
ENDBRANCH  29  30
ENDBRANCH  28  29
ENDBRANCH   1  28
TORSDOF 14
ENDMDL
MODEL 2
REMARK VINA RESULT:     -11.8      3.520      4.741
REMARK SMILES [NH3+][C@H]1C=C[C@H](C(=O)N2CCCc3c(C(=O)NCCCCNC(=O)c4ccc(-c5c6nc(c(-c7c(F)cccc7F)c7ccc([nH]7)c(-c7c(F)cccc7F)c7nc(c(-c8c(F)cccc8F)c8ccc5[nH]8)C=C7)C=C6)cc4)cccc32)C1
REMARK SMILES IDX 18 1 17 2 16 3 14 4 15 5 13 7 8 8 9 9 81 10 10 11 12 12
REMARK SMILES IDX 80 13 11 14 79 15 78 16 6 17 7 18 5 19 2 20 3 21 82 22 4 23
REMARK SMILES IDX 1 24 19 28 20 29 21 30 22 31 23 33 24 34 25 35 77 36 26 37
REMARK SMILES IDX 76 38 27 39 28 40 29 41 70 42 30 43 75 44 69 45 71 46 31 47
REMARK SMILES IDX 74 48 68 49 67 50 32 52 58 53 41 54 57 55 42 56 45 57 56 58
REMARK SMILES IDX 72 59 43 60 44 61 55 63 73 64 46 65 33 66 34 67 39 68 35 69
REMARK SMILES IDX 36 70 38 71 40 72 37 73 59 74 60 75 65 76 61 77 62 78 64 79
REMARK SMILES IDX 66 80 63 81 47 82 48 83 53 84 49 85 50 86 52 87 54 88 51 89
REMARK H PARENT 16 6 1 25 1 26 1 27 21 32 71 51 45 62
REMARK Flexibility Score: inf
ROOT
ATOM      1  C   UNL A   1      31.937  30.247  26.865  1.00  0.00     0.023 C 
ENDROOT
BRANCH   1   2
ATOM      2  C   UNL A   1      33.285  30.006  26.173  1.00  0.00     0.116 C 
BRANCH   2   3
ATOM      3  N   UNL A   1      33.089  29.739  24.763  1.00  0.00    -0.352 N 
ATOM      4  C   UNL A   1      32.551  28.768  23.967  1.00  0.00     0.251 C 
ATOM      5  O   UNL A   1      32.659  29.033  22.760  1.00  0.00    -0.269 OA
ATOM      6  H   UNL A   1      33.449  30.475  24.217  1.00  0.00     0.163 HD
BRANCH   4   7
ATOM      7  C   UNL A   1      31.836  27.485  24.327  1.00  0.00     0.045 A 
ATOM      8  N   UNL A   1      31.856  24.012  25.855  1.00  0.00    -0.312 N 
ATOM      9  C   UNL A   1      33.021  24.151  26.714  1.00  0.00     0.126 C 
ATOM     10  C   UNL A   1      31.452  25.168  25.096  1.00  0.00     0.048 A 
ATOM     11  C   UNL A   1      34.138  24.825  25.955  1.00  0.00     0.027 C 
ATOM     12  C   UNL A   1      32.295  26.317  24.996  1.00  0.00    -0.011 A 
ATOM     13  C   UNL A   1      30.192  25.178  24.486  1.00  0.00     0.027 A 
ATOM     14  C   UNL A   1      33.679  26.212  25.552  1.00  0.00     0.040 C 
ATOM     15  C   UNL A   1      29.733  26.307  23.826  1.00  0.00     0.003 A 
ATOM     16  C   UNL A   1      30.538  27.440  23.767  1.00  0.00     0.014 A 
BRANCH   8  17
ATOM     17  C   UNL A   1      31.273  22.764  25.641  1.00  0.00     0.234 C 
ATOM     18  O   UNL A   1      30.227  22.421  26.202  1.00  0.00    -0.274 OA
BRANCH  17  19
ATOM     19  C   UNL A   1      32.008  21.747  24.748  1.00  0.00     0.108 C 
ATOM     20  C   UNL A   1      34.307  20.994  25.166  1.00  0.00     0.205 C 
ATOM     21  C   UNL A   1      34.210  21.837  23.940  1.00  0.00     0.033 C 
ATOM     22  C   UNL A   1      32.841  20.716  25.525  1.00  0.00     0.087 C 
ATOM     23  C   UNL A   1      32.963  22.277  23.727  1.00  0.00    -0.012 C 
BRANCH  20  24
ATOM     24  N   UNL A   1      35.066  19.783  24.931  1.00  0.00    -0.352 N 
ATOM     25  H   UNL A   1      35.003  19.528  23.946  1.00  0.00     0.345 HD
ATOM     26  H   UNL A   1      34.687  19.028  25.502  1.00  0.00     0.345 HD
ATOM     27  H   UNL A   1      36.042  19.940  25.179  1.00  0.00     0.345 HD
ENDBRANCH  20  24
ENDBRANCH  17  19
ENDBRANCH   8  17
ENDBRANCH   4   7
ENDBRANCH   2   3
ENDBRANCH   1   2
BRANCH   1  28
ATOM     28  C   UNL A   1      31.375  31.656  26.757  1.00  0.00     0.023 C 
BRANCH  28  29
ATOM     29  C   UNL A   1      32.431  32.728  26.560  1.00  0.00     0.116 C 
BRANCH  29  30
ATOM     30  N   UNL A   1      32.283  33.884  27.435  1.00  0.00    -0.352 N 
ATOM     31  C   UNL A   1      33.130  34.286  28.448  1.00  0.00     0.251 C 
ATOM     32  H   UNL A   1      31.486  34.443  27.288  1.00  0.00     0.163 HD
ATOM     33  O   UNL A   1      32.875  35.246  29.149  1.00  0.00    -0.269 OA
BRANCH  31  34
ATOM     34  C   UNL A   1      34.334  33.464  28.696  1.00  0.00     0.039 A 
ATOM     35  C   UNL A   1      35.586  34.082  28.673  1.00  0.00     0.014 A 
ATOM     36  C   UNL A   1      34.197  32.136  29.102  1.00  0.00     0.014 A 
ATOM     37  C   UNL A   1      36.695  33.389  29.158  1.00  0.00     0.010 A 
ATOM     38  C   UNL A   1      35.282  31.485  29.671  1.00  0.00     0.010 A 
ATOM     39  C   UNL A   1      36.540  32.108  29.711  1.00  0.00    -0.014 A 
BRANCH  39  40
ATOM     40  C   UNL A   1      37.674  31.395  30.347  1.00  0.00     0.031 A 
ATOM     41  C   UNL A   1      38.027  31.686  31.778  1.00  0.00     0.074 A 
ATOM     42  C   UNL A   1      38.440  30.563  29.615  1.00  0.00     0.049 A 
ATOM     43  N   UNL A   1      39.032  31.243  32.487  1.00  0.00    -0.248 NA
ATOM     44  C   UNL A   1      37.157  32.635  32.492  1.00  0.00     0.031 C 
ATOM     45  C   UNL A   1      38.243  30.251  28.197  1.00  0.00     0.029 A 
ATOM     46  N   UNL A   1      39.546  29.831  29.965  1.00  0.00    -0.354 N 
ATOM     47  C   UNL A   1      38.932  31.882  33.716  1.00  0.00     0.074 A 
ATOM     48  C   UNL A   1      37.803  32.782  33.637  1.00  0.00     0.031 C 
ATOM     49  C   UNL A   1      39.176  29.366  27.808  1.00  0.00     0.029 A 
ATOM     50  C   UNL A   1      40.053  29.073  28.937  1.00  0.00     0.049 A 
ATOM     51  H   UNL A   1      39.941  29.849  30.867  1.00  0.00     0.167 HD
ATOM     52  C   UNL A   1      39.695  31.713  34.822  1.00  0.00     0.037 A 
ATOM     53  C   UNL A   1      41.103  28.231  28.914  1.00  0.00     0.037 A 
ATOM     54  C   UNL A   1      40.782  30.778  34.915  1.00  0.00     0.049 A 
ATOM     55  C   UNL A   1      41.909  28.028  30.165  1.00  0.00     0.074 A 
ATOM     56  C   UNL A   1      41.559  30.465  36.017  1.00  0.00     0.029 A 
ATOM     57  N   UNL A   1      41.240  29.998  33.865  1.00  0.00    -0.354 N 
ATOM     58  N   UNL A   1      41.758  28.581  31.344  1.00  0.00    -0.248 NA
ATOM     59  C   UNL A   1      43.028  27.078  30.085  1.00  0.00     0.031 C 
ATOM     60  C   UNL A   1      42.507  29.514  35.624  1.00  0.00     0.029 A 
ATOM     61  C   UNL A   1      42.299  29.213  34.287  1.00  0.00     0.049 A 
ATOM     62  H   UNL A   1      40.868  30.002  32.953  1.00  0.00     0.167 HD
ATOM     63  C   UNL A   1      42.744  28.031  32.151  1.00  0.00     0.074 A 
ATOM     64  C   UNL A   1      43.483  27.093  31.329  1.00  0.00     0.031 C 
ATOM     65  C   UNL A   1      43.015  28.280  33.456  1.00  0.00     0.037 A 
BRANCH  52  66
ATOM     66  C   UNL A   1      39.360  32.556  36.016  1.00  0.00     0.057 A 
ATOM     67  C   UNL A   1      39.943  33.814  36.217  1.00  0.00     0.134 A 
ATOM     68  C   UNL A   1      38.451  32.101  36.979  1.00  0.00     0.134 A 
ATOM     69  F   UNL A   1      40.836  34.297  35.340  1.00  0.00    -0.206 F 
ATOM     70  C   UNL A   1      39.660  34.576  37.352  1.00  0.00     0.040 A 
ATOM     71  C   UNL A   1      38.141  32.865  38.104  1.00  0.00     0.040 A 
ATOM     72  F   UNL A   1      37.858  30.906  36.845  1.00  0.00    -0.206 F 
ATOM     73  C   UNL A   1      38.752  34.103  38.298  1.00  0.00     0.006 A 
ENDBRANCH  52  66
BRANCH  53  74
ATOM     74  C   UNL A   1      41.421  27.478  27.677  1.00  0.00     0.057 A 
ATOM     75  C   UNL A   1      40.904  26.193  27.471  1.00  0.00     0.134 A 
ATOM     76  C   UNL A   1      42.235  28.016  26.674  1.00  0.00     0.134 A 
ATOM     77  F   UNL A   1      40.130  25.620  28.405  1.00  0.00    -0.206 F 
ATOM     78  C   UNL A   1      41.196  25.464  26.318  1.00  0.00     0.040 A 
ATOM     79  C   UNL A   1      42.520  27.305  25.508  1.00  0.00     0.040 A 
ATOM     80  F   UNL A   1      42.754  29.245  26.811  1.00  0.00    -0.206 F 
ATOM     81  C   UNL A   1      42.002  26.023  25.329  1.00  0.00     0.006 A 
ENDBRANCH  53  74
BRANCH  65  82
ATOM     82  C   UNL A   1      44.135  27.506  34.081  1.00  0.00     0.057 A 
ATOM     83  C   UNL A   1      45.441  28.007  34.123  1.00  0.00     0.134 A 
ATOM     84  C   UNL A   1      43.892  26.267  34.687  1.00  0.00     0.134 A 
ATOM     85  F   UNL A   1      45.737  29.182  33.548  1.00  0.00    -0.206 F 
ATOM     86  C   UNL A   1      46.473  27.294  34.735  1.00  0.00     0.040 A 
ATOM     87  C   UNL A   1      44.911  25.554  35.319  1.00  0.00     0.040 A 
ATOM     88  F   UNL A   1      42.660  25.737  34.684  1.00  0.00    -0.206 F 
ATOM     89  C   UNL A   1      46.208  26.067  35.340  1.00  0.00     0.006 A 
ENDBRANCH  65  82
ENDBRANCH  39  40
ENDBRANCH  31  34
ENDBRANCH  29  30
ENDBRANCH  28  29
ENDBRANCH   1  28
TORSDOF 14
ENDMDL
MODEL 3
REMARK VINA RESULT:     -11.8      4.048      8.786
REMARK SMILES [NH3+][C@H]1C=C[C@H](C(=O)N2CCCc3c(C(=O)NCCCCNC(=O)c4ccc(-c5c6nc(c(-c7c(F)cccc7F)c7ccc([nH]7)c(-c7c(F)cccc7F)c7nc(c(-c8c(F)cccc8F)c8ccc5[nH]8)C=C7)C=C6)cc4)cccc32)C1
REMARK SMILES IDX 18 1 17 2 16 3 14 4 15 5 13 7 8 8 9 9 81 10 10 11 12 12
REMARK SMILES IDX 80 13 11 14 79 15 78 16 6 17 7 18 5 19 2 20 3 21 82 22 4 23
REMARK SMILES IDX 1 24 19 28 20 29 21 30 22 31 23 33 24 34 25 35 77 36 26 37
REMARK SMILES IDX 76 38 27 39 28 40 29 41 70 42 30 43 75 44 69 45 71 46 31 47
REMARK SMILES IDX 74 48 68 49 67 50 32 52 58 53 41 54 57 55 42 56 45 57 56 58
REMARK SMILES IDX 72 59 43 60 44 61 55 63 73 64 46 65 33 66 34 67 39 68 35 69
REMARK SMILES IDX 36 70 38 71 40 72 37 73 59 74 60 75 65 76 61 77 62 78 64 79
REMARK SMILES IDX 66 80 63 81 47 82 48 83 53 84 49 85 50 86 52 87 54 88 51 89
REMARK H PARENT 16 6 1 25 1 26 1 27 21 32 71 51 45 62
REMARK Flexibility Score: inf
ROOT
ATOM      1  C   UNL A   1      37.269  22.318  24.368  1.00  0.00     0.023 C 
ENDROOT
BRANCH   1   2
ATOM      2  C   UNL A   1      37.291  21.066  25.255  1.00  0.00     0.116 C 
BRANCH   2   3
ATOM      3  N   UNL A   1      36.166  20.208  24.947  1.00  0.00    -0.352 N 
ATOM      4  C   UNL A   1      34.807  20.206  25.086  1.00  0.00     0.251 C 
ATOM      5  O   UNL A   1      34.288  19.169  24.644  1.00  0.00    -0.269 OA
ATOM      6  H   UNL A   1      36.471  19.382  24.507  1.00  0.00     0.163 HD
BRANCH   4   7
ATOM      7  C   UNL A   1      33.874  21.259  25.640  1.00  0.00     0.045 A 
ATOM      8  N   UNL A   1      31.403  24.090  25.110  1.00  0.00    -0.312 N 
ATOM      9  C   UNL A   1      30.999  23.782  23.747  1.00  0.00     0.126 C 
ATOM     10  C   UNL A   1      32.340  23.194  25.740  1.00  0.00     0.048 A 
ATOM     11  C   UNL A   1      32.215  23.460  22.913  1.00  0.00     0.027 C 
ATOM     12  C   UNL A   1      33.031  22.198  24.984  1.00  0.00    -0.011 A 
ATOM     13  C   UNL A   1      32.539  23.276  27.123  1.00  0.00     0.027 A 
ATOM     14  C   UNL A   1      32.887  22.232  23.496  1.00  0.00     0.040 C 
ATOM     15  C   UNL A   1      33.361  22.373  27.775  1.00  0.00     0.003 A 
ATOM     16  C   UNL A   1      34.000  21.376  27.044  1.00  0.00     0.014 A 
BRANCH   8  17
ATOM     17  C   UNL A   1      31.039  25.295  25.706  1.00  0.00     0.234 C 
ATOM     18  O   UNL A   1      30.034  25.402  26.418  1.00  0.00    -0.274 OA
BRANCH  17  19
ATOM     19  C   UNL A   1      31.867  26.556  25.393  1.00  0.00     0.108 C 
ATOM     20  C   UNL A   1      32.386  27.299  23.111  1.00  0.00     0.205 C 
ATOM     21  C   UNL A   1      33.599  26.814  23.830  1.00  0.00     0.033 C 
ATOM     22  C   UNL A   1      31.326  27.386  24.218  1.00  0.00     0.087 C 
ATOM     23  C   UNL A   1      33.314  26.377  25.063  1.00  0.00    -0.012 C 
BRANCH  20  24
ATOM     24  N   UNL A   1      32.617  28.571  22.456  1.00  0.00    -0.352 N 
ATOM     25  H   UNL A   1      31.909  28.717  21.736  1.00  0.00     0.345 HD
ATOM     26  H   UNL A   1      33.542  28.568  22.026  1.00  0.00     0.345 HD
ATOM     27  H   UNL A   1      32.564  29.322  23.143  1.00  0.00     0.345 HD
ENDBRANCH  20  24
ENDBRANCH  17  19
ENDBRANCH   8  17
ENDBRANCH   4   7
ENDBRANCH   2   3
ENDBRANCH   1   2
BRANCH   1  28
ATOM     28  C   UNL A   1      36.823  23.606  25.045  1.00  0.00     0.023 C 
BRANCH  28  29
ATOM     29  C   UNL A   1      37.704  24.029  26.206  1.00  0.00     0.116 C 
BRANCH  29  30
ATOM     30  N   UNL A   1      39.131  23.835  25.978  1.00  0.00    -0.352 N 
ATOM     31  C   UNL A   1      40.175  24.564  26.512  1.00  0.00     0.251 C 
ATOM     32  H   UNL A   1      39.379  23.099  25.373  1.00  0.00     0.163 HD
ATOM     33  O   UNL A   1      41.330  24.338  26.207  1.00  0.00    -0.269 OA
BRANCH  31  34
ATOM     34  C   UNL A   1      39.833  25.679  27.421  1.00  0.00     0.039 A 
ATOM     35  C   UNL A   1      39.167  25.392  28.614  1.00  0.00     0.014 A 
ATOM     36  C   UNL A   1      40.314  26.962  27.158  1.00  0.00     0.014 A 
ATOM     37  C   UNL A   1      39.072  26.379  29.595  1.00  0.00     0.010 A 
ATOM     38  C   UNL A   1      40.302  27.911  28.170  1.00  0.00     0.010 A 
ATOM     39  C   UNL A   1      39.688  27.627  29.400  1.00  0.00    -0.014 A 
BRANCH  39  40
ATOM     40  C   UNL A   1      39.712  28.654  30.470  1.00  0.00     0.031 A 
ATOM     41  C   UNL A   1      38.741  29.799  30.423  1.00  0.00     0.074 A 
ATOM     42  C   UNL A   1      40.662  28.607  31.424  1.00  0.00     0.049 A 
ATOM     43  N   UNL A   1      38.658  30.844  31.204  1.00  0.00    -0.248 NA
ATOM     44  C   UNL A   1      37.761  29.788  29.325  1.00  0.00     0.031 C 
ATOM     45  C   UNL A   1      41.705  27.586  31.538  1.00  0.00     0.029 A 
ATOM     46  N   UNL A   1      40.907  29.450  32.479  1.00  0.00    -0.354 N 
ATOM     47  C   UNL A   1      37.641  31.627  30.675  1.00  0.00     0.074 A 
ATOM     48  C   UNL A   1      37.175  30.965  29.476  1.00  0.00     0.031 C 
ATOM     49  C   UNL A   1      42.455  27.843  32.623  1.00  0.00     0.029 A 
ATOM     50  C   UNL A   1      41.967  29.061  33.260  1.00  0.00     0.049 A 
ATOM     51  H   UNL A   1      40.373  30.258  32.658  1.00  0.00     0.167 HD
ATOM     52  C   UNL A   1      37.122  32.780  31.158  1.00  0.00     0.037 A 
ATOM     53  C   UNL A   1      42.481  29.623  34.370  1.00  0.00     0.037 A 
ATOM     54  C   UNL A   1      37.551  33.407  32.377  1.00  0.00     0.049 A 
ATOM     55  C   UNL A   1      41.862  30.880  34.912  1.00  0.00     0.074 A 
ATOM     56  C   UNL A   1      37.029  34.527  33.001  1.00  0.00     0.029 A 
ATOM     57  N   UNL A   1      38.602  32.961  33.163  1.00  0.00    -0.354 N 
ATOM     58  N   UNL A   1      40.851  31.570  34.444  1.00  0.00    -0.248 NA
ATOM     59  C   UNL A   1      42.451  31.433  36.140  1.00  0.00     0.031 C 
ATOM     60  C   UNL A   1      37.785  34.775  34.153  1.00  0.00     0.029 A 
ATOM     61  C   UNL A   1      38.756  33.791  34.261  1.00  0.00     0.049 A 
ATOM     62  H   UNL A   1      39.158  32.172  32.970  1.00  0.00     0.167 HD
ATOM     63  C   UNL A   1      40.666  32.622  35.330  1.00  0.00     0.074 A 
ATOM     64  C   UNL A   1      41.665  32.475  36.369  1.00  0.00     0.031 C 
ATOM     65  C   UNL A   1      39.751  33.622  35.288  1.00  0.00     0.037 A 
BRANCH  52  66
ATOM     66  C   UNL A   1      36.025  33.420  30.361  1.00  0.00     0.057 A 
ATOM     67  C   UNL A   1      36.284  34.107  29.168  1.00  0.00     0.134 A 
ATOM     68  C   UNL A   1      34.696  33.354  30.795  1.00  0.00     0.134 A 
ATOM     69  F   UNL A   1      37.539  34.222  28.709  1.00  0.00    -0.206 F 
ATOM     70  C   UNL A   1      35.264  34.737  28.453  1.00  0.00     0.040 A 
ATOM     71  C   UNL A   1      33.664  33.957  30.076  1.00  0.00     0.040 A 
ATOM     72  F   UNL A   1      34.380  32.710  31.929  1.00  0.00    -0.206 F 
ATOM     73  C   UNL A   1      33.948  34.660  28.905  1.00  0.00     0.006 A 
ENDBRANCH  52  66
BRANCH  53  74
ATOM     74  C   UNL A   1      43.614  28.973  35.073  1.00  0.00     0.057 A 
ATOM     75  C   UNL A   1      43.383  28.071  36.118  1.00  0.00     0.134 A 
ATOM     76  C   UNL A   1      44.944  29.226  34.719  1.00  0.00     0.134 A 
ATOM     77  F   UNL A   1      42.129  27.802  36.511  1.00  0.00    -0.206 F 
ATOM     78  C   UNL A   1      44.433  27.454  36.797  1.00  0.00     0.040 A 
ATOM     79  C   UNL A   1      46.004  28.601  35.378  1.00  0.00     0.040 A 
ATOM     80  F   UNL A   1      45.230  30.074  33.721  1.00  0.00    -0.206 F 
ATOM     81  C   UNL A   1      45.749  27.714  36.423  1.00  0.00     0.006 A 
ENDBRANCH  53  74
BRANCH  65  82
ATOM     82  C   UNL A   1      39.771  34.613  36.410  1.00  0.00     0.057 A 
ATOM     83  C   UNL A   1      39.056  34.399  37.594  1.00  0.00     0.134 A 
ATOM     84  C   UNL A   1      40.550  35.774  36.320  1.00  0.00     0.134 A 
ATOM     85  F   UNL A   1      38.281  33.313  37.733  1.00  0.00    -0.206 F 
ATOM     86  C   UNL A   1      39.104  35.313  38.647  1.00  0.00     0.040 A 
ATOM     87  C   UNL A   1      40.622  36.685  37.374  1.00  0.00     0.040 A 
ATOM     88  F   UNL A   1      41.262  36.033  35.213  1.00  0.00    -0.206 F 
ATOM     89  C   UNL A   1      39.894  36.457  38.541  1.00  0.00     0.006 A 
ENDBRANCH  65  82
ENDBRANCH  39  40
ENDBRANCH  31  34
ENDBRANCH  29  30
ENDBRANCH  28  29
ENDBRANCH   1  28
TORSDOF 14
ENDMDL
