MODEL 1
REMARK VINA RESULT:     -12.3      0.000      0.000
REMARK SMILES Cc1c(CC(=O)NCCCCNC(=O)c2ccc(-c3c4nc(c(-c5c(F)cccc5F)c5ccc([nH]5)c(-c5c(F)cccc5F)c5nc(c(-c6c(F)cccc6F)c6ccc3[nH]6)C=C5)C=C4)cc2)c2ccccc2n1C(=O)c1ccc(Cl)cc1
REMARK SMILES IDX 9 1 8 2 7 3 5 4 6 5 4 7 3 8 1 9 2 10 75 11 69 12 74 13 70 14
REMARK SMILES IDX 73 15 71 16 72 17 76 18 77 19 78 20 79 21 84 22 80 23 83 24
REMARK SMILES IDX 81 25 82 26 10 27 11 28 12 29 13 30 14 32 15 33 16 34 68 35
REMARK SMILES IDX 17 36 67 37 18 38 19 39 20 40 61 41 21 42 66 43 60 44 62 45
REMARK SMILES IDX 22 46 65 47 59 48 58 49 23 51 49 52 32 53 48 54 33 55 36 56
REMARK SMILES IDX 47 57 63 58 34 59 35 60 46 62 64 63 37 64 24 65 25 66 30 67
REMARK SMILES IDX 26 68 27 69 29 70 31 71 28 72 50 73 51 74 56 75 52 76 53 77
REMARK SMILES IDX 55 78 57 79 54 80 38 81 39 82 44 83 40 84 41 85 43 86 45 87
REMARK SMILES IDX 42 88
REMARK H PARENT 7 6 12 31 62 50 36 61
REMARK Flexibility Score: inf
ROOT
ATOM      1  C   UNL A   1      32.501  27.833  27.038  1.00  0.00     0.023 C 
ENDROOT
BRANCH   1   2
ATOM      2  C   UNL A   1      31.795  26.812  26.147  1.00  0.00     0.116 C 
BRANCH   2   3
ATOM      3  N   UNL A   1      31.366  25.647  26.890  1.00  0.00    -0.356 N 
ATOM      4  C   UNL A   1      31.201  24.370  26.432  1.00  0.00     0.224 C 
ATOM      5  O   UNL A   1      30.832  23.505  27.228  1.00  0.00    -0.275 OA
ATOM      6  H   UNL A   1      31.168  25.792  27.844  1.00  0.00     0.163 HD
BRANCH   4   7
ATOM      7  C   UNL A   1      31.521  24.037  24.981  1.00  0.00     0.138 C 
BRANCH   7   8
ATOM      8  C   UNL A   1      32.811  23.281  24.818  1.00  0.00    -0.010 A 
ATOM      9  C   UNL A   1      34.513  25.241  24.841  1.00  0.00     0.065 C 
ATOM     10  C   UNL A   1      34.095  23.805  24.741  1.00  0.00     0.028 A 
ATOM     11  N   UNL A   1      34.993  22.760  24.474  1.00  0.00    -0.280 N 
ATOM     12  C   UNL A   1      32.930  21.865  24.743  1.00  0.00     0.004 A 
ATOM     13  C   UNL A   1      34.289  21.554  24.621  1.00  0.00     0.056 A 
ATOM     14  C   UNL A   1      31.979  20.820  24.791  1.00  0.00     0.010 A 
ATOM     15  C   UNL A   1      34.699  20.203  24.638  1.00  0.00     0.027 A 
ATOM     16  C   UNL A   1      32.390  19.491  24.727  1.00  0.00     0.001 A 
ATOM     17  C   UNL A   1      33.739  19.187  24.665  1.00  0.00     0.002 A 
BRANCH  11  18
ATOM     18  C   UNL A   1      36.365  22.924  24.108  1.00  0.00     0.262 C 
ATOM     19  O   UNL A   1      36.640  23.308  22.981  1.00  0.00    -0.268 OA
BRANCH  18  20
ATOM     20  C   UNL A   1      37.517  22.665  24.991  1.00  0.00     0.040 A 
ATOM     21  C   UNL A   1      38.154  21.421  25.001  1.00  0.00     0.015 A 
ATOM     22  C   UNL A   1      37.950  23.700  25.827  1.00  0.00     0.015 A 
ATOM     23  C   UNL A   1      39.171  21.183  25.930  1.00  0.00     0.021 A 
ATOM     24  C   UNL A   1      38.974  23.461  26.743  1.00  0.00     0.021 A 
ATOM     25  C   UNL A   1      39.565  22.198  26.805  1.00  0.00     0.041 A 
ATOM     26  Cl  UNL A   1      40.777  21.883  27.985  1.00  0.00    -0.084 Cl
ENDBRANCH  18  20
ENDBRANCH  11  18
ENDBRANCH   7   8
ENDBRANCH   4   7
ENDBRANCH   2   3
ENDBRANCH   1   2
BRANCH   1  27
ATOM     27  C   UNL A   1      33.521  28.711  26.300  1.00  0.00     0.023 C 
BRANCH  27  28
ATOM     28  C   UNL A   1      34.941  28.635  26.867  1.00  0.00     0.116 C 
BRANCH  28  29
ATOM     29  N   UNL A   1      35.123  29.421  28.070  1.00  0.00    -0.352 N 
ATOM     30  C   UNL A   1      36.203  29.793  28.818  1.00  0.00     0.251 C 
ATOM     31  H   UNL A   1      34.274  29.764  28.431  1.00  0.00     0.163 HD
ATOM     32  O   UNL A   1      35.991  30.623  29.705  1.00  0.00    -0.269 OA
BRANCH  30  33
ATOM     33  C   UNL A   1      37.567  29.217  28.691  1.00  0.00     0.039 A 
ATOM     34  C   UNL A   1      38.184  28.377  29.618  1.00  0.00     0.014 A 
ATOM     35  C   UNL A   1      38.306  29.643  27.571  1.00  0.00     0.014 A 
ATOM     36  C   UNL A   1      39.530  28.072  29.501  1.00  0.00     0.010 A 
ATOM     37  C   UNL A   1      39.650  29.327  27.436  1.00  0.00     0.010 A 
ATOM     38  C   UNL A   1      40.271  28.593  28.439  1.00  0.00    -0.014 A 
BRANCH  38  39
ATOM     39  C   UNL A   1      41.683  28.240  28.363  1.00  0.00     0.031 A 
ATOM     40  C   UNL A   1      41.938  26.921  27.718  1.00  0.00     0.074 A 
ATOM     41  C   UNL A   1      42.662  29.078  28.760  1.00  0.00     0.049 A 
ATOM     42  N   UNL A   1      42.497  25.874  28.230  1.00  0.00    -0.248 NA
ATOM     43  C   UNL A   1      41.360  26.693  26.382  1.00  0.00     0.031 C 
ATOM     44  C   UNL A   1      42.537  30.478  29.177  1.00  0.00     0.029 A 
ATOM     45  N   UNL A   1      44.009  28.877  28.787  1.00  0.00    -0.354 N 
ATOM     46  C   UNL A   1      42.522  24.918  27.215  1.00  0.00     0.074 A 
ATOM     47  C   UNL A   1      41.672  25.415  26.167  1.00  0.00     0.031 C 
ATOM     48  C   UNL A   1      43.760  31.056  29.184  1.00  0.00     0.029 A 
ATOM     49  C   UNL A   1      44.761  30.041  28.908  1.00  0.00     0.049 A 
ATOM     50  H   UNL A   1      44.415  27.983  28.726  1.00  0.00     0.167 HD
ATOM     51  C   UNL A   1      43.438  23.912  27.217  1.00  0.00     0.037 A 
ATOM     52  C   UNL A   1      46.102  30.161  28.735  1.00  0.00     0.037 A 
ATOM     53  C   UNL A   1      43.958  23.689  28.542  1.00  0.00     0.049 A 
ATOM     54  C   UNL A   1      46.690  28.804  28.835  1.00  0.00     0.074 A 
ATOM     55  C   UNL A   1      43.424  23.293  29.752  1.00  0.00     0.029 A 
ATOM     56  N   UNL A   1      45.192  24.214  28.834  1.00  0.00    -0.354 N 
ATOM     57  N   UNL A   1      46.754  28.123  29.943  1.00  0.00    -0.248 NA
ATOM     58  C   UNL A   1      46.793  28.023  27.612  1.00  0.00     0.031 C 
ATOM     59  C   UNL A   1      44.150  24.031  30.736  1.00  0.00     0.029 A 
ATOM     60  C   UNL A   1      45.118  24.786  30.074  1.00  0.00     0.049 A 
ATOM     61  H   UNL A   1      45.987  24.184  28.254  1.00  0.00     0.167 HD
ATOM     62  C   UNL A   1      46.456  26.821  29.571  1.00  0.00     0.074 A 
ATOM     63  C   UNL A   1      46.578  26.804  28.113  1.00  0.00     0.031 C 
ATOM     64  C   UNL A   1      45.863  25.962  30.450  1.00  0.00     0.037 A 
BRANCH  51  65
ATOM     65  C   UNL A   1      44.184  23.456  25.979  1.00  0.00     0.057 A 
ATOM     66  C   UNL A   1      45.112  24.246  25.270  1.00  0.00     0.134 A 
ATOM     67  C   UNL A   1      44.243  22.077  25.694  1.00  0.00     0.134 A 
ATOM     68  F   UNL A   1      45.210  25.569  25.429  1.00  0.00    -0.206 F 
ATOM     69  C   UNL A   1      46.075  23.703  24.414  1.00  0.00     0.040 A 
ATOM     70  C   UNL A   1      45.232  21.519  24.876  1.00  0.00     0.040 A 
ATOM     71  F   UNL A   1      43.402  21.215  26.285  1.00  0.00    -0.206 F 
ATOM     72  C   UNL A   1      46.166  22.332  24.249  1.00  0.00     0.006 A 
ENDBRANCH  51  65
BRANCH  52  73
ATOM     73  C   UNL A   1      46.874  31.305  28.200  1.00  0.00     0.057 A 
ATOM     74  C   UNL A   1      47.676  32.099  29.037  1.00  0.00     0.134 A 
ATOM     75  C   UNL A   1      46.624  31.820  26.919  1.00  0.00     0.134 A 
ATOM     76  F   UNL A   1      47.913  31.743  30.307  1.00  0.00    -0.206 F 
ATOM     77  C   UNL A   1      48.190  33.337  28.631  1.00  0.00     0.040 A 
ATOM     78  C   UNL A   1      47.128  33.061  26.501  1.00  0.00     0.040 A 
ATOM     79  F   UNL A   1      45.832  31.160  26.062  1.00  0.00    -0.206 F 
ATOM     80  C   UNL A   1      47.905  33.827  27.364  1.00  0.00     0.006 A 
ENDBRANCH  52  73
BRANCH  64  81
ATOM     81  C   UNL A   1      45.784  26.392  31.888  1.00  0.00     0.057 A 
ATOM     82  C   UNL A   1      46.775  25.956  32.773  1.00  0.00     0.134 A 
ATOM     83  C   UNL A   1      44.714  27.114  32.437  1.00  0.00     0.134 A 
ATOM     84  F   UNL A   1      47.799  25.211  32.327  1.00  0.00    -0.206 F 
ATOM     85  C   UNL A   1      46.718  26.239  34.139  1.00  0.00     0.040 A 
ATOM     86  C   UNL A   1      44.663  27.434  33.798  1.00  0.00     0.040 A 
ATOM     87  F   UNL A   1      43.668  27.484  31.688  1.00  0.00    -0.206 F 
ATOM     88  C   UNL A   1      45.667  26.993  34.653  1.00  0.00     0.006 A 
ENDBRANCH  64  81
ENDBRANCH  38  39
ENDBRANCH  30  33
ENDBRANCH  28  29
ENDBRANCH  27  28
ENDBRANCH   1  27
TORSDOF 14
ENDMDL
MODEL 2
REMARK VINA RESULT:     -11.9      1.771      5.740
REMARK SMILES Cc1c(CC(=O)NCCCCNC(=O)c2ccc(-c3c4nc(c(-c5c(F)cccc5F)c5ccc([nH]5)c(-c5c(F)cccc5F)c5nc(c(-c6c(F)cccc6F)c6ccc3[nH]6)C=C5)C=C4)cc2)c2ccccc2n1C(=O)c1ccc(Cl)cc1
REMARK SMILES IDX 9 1 8 2 7 3 5 4 6 5 4 7 3 8 1 9 2 10 75 11 69 12 74 13 70 14
REMARK SMILES IDX 73 15 71 16 72 17 76 18 77 19 78 20 79 21 84 22 80 23 83 24
REMARK SMILES IDX 81 25 82 26 10 27 11 28 12 29 13 30 14 32 15 33 16 34 68 35
REMARK SMILES IDX 17 36 67 37 18 38 19 39 20 40 61 41 21 42 66 43 60 44 62 45
REMARK SMILES IDX 22 46 65 47 59 48 58 49 23 51 49 52 32 53 48 54 33 55 36 56
REMARK SMILES IDX 47 57 63 58 34 59 35 60 46 62 64 63 37 64 24 65 25 66 30 67
REMARK SMILES IDX 26 68 27 69 29 70 31 71 28 72 50 73 51 74 56 75 52 76 53 77
REMARK SMILES IDX 55 78 57 79 54 80 38 81 39 82 44 83 40 84 41 85 43 86 45 87
REMARK SMILES IDX 42 88
REMARK H PARENT 7 6 12 31 62 50 36 61
REMARK Flexibility Score: inf
ROOT
ATOM      1  C   UNL A   1      31.458  27.877  26.820  1.00  0.00     0.023 C 
ENDROOT
BRANCH   1   2
ATOM      2  C   UNL A   1      31.100  26.641  25.997  1.00  0.00     0.116 C 
BRANCH   2   3
ATOM      3  N   UNL A   1      30.965  25.459  26.820  1.00  0.00    -0.356 N 
ATOM      4  C   UNL A   1      31.102  24.152  26.445  1.00  0.00     0.224 C 
ATOM      5  O   UNL A   1      30.956  23.278  27.302  1.00  0.00    -0.275 OA
ATOM      6  H   UNL A   1      30.748  25.616  27.768  1.00  0.00     0.163 HD
BRANCH   4   7
ATOM      7  C   UNL A   1      31.477  23.809  25.010  1.00  0.00     0.138 C 
BRANCH   7   8
ATOM      8  C   UNL A   1      32.816  23.134  24.894  1.00  0.00    -0.010 A 
ATOM      9  C   UNL A   1      34.393  25.193  24.999  1.00  0.00     0.065 C 
ATOM     10  C   UNL A   1      34.068  23.736  24.872  1.00  0.00     0.028 A 
ATOM     11  N   UNL A   1      35.038  22.749  24.634  1.00  0.00    -0.280 N 
ATOM     12  C   UNL A   1      33.024  21.729  24.813  1.00  0.00     0.004 A 
ATOM     13  C   UNL A   1      34.403  21.502  24.743  1.00  0.00     0.056 A 
ATOM     14  C   UNL A   1      32.138  20.628  24.816  1.00  0.00     0.010 A 
ATOM     15  C   UNL A   1      34.895  20.178  24.767  1.00  0.00     0.027 A 
ATOM     16  C   UNL A   1      32.632  19.326  24.758  1.00  0.00     0.001 A 
ATOM     17  C   UNL A   1      33.998  19.106  24.748  1.00  0.00     0.002 A 
BRANCH  11  18
ATOM     18  C   UNL A   1      36.411  23.000  24.324  1.00  0.00     0.262 C 
ATOM     19  O   UNL A   1      36.716  23.324  23.186  1.00  0.00    -0.268 OA
BRANCH  18  20
ATOM     20  C   UNL A   1      37.529  22.902  25.280  1.00  0.00     0.040 A 
ATOM     21  C   UNL A   1      37.895  23.990  26.078  1.00  0.00     0.015 A 
ATOM     22  C   UNL A   1      38.223  21.690  25.359  1.00  0.00     0.015 A 
ATOM     23  C   UNL A   1      39.028  23.891  26.890  1.00  0.00     0.021 A 
ATOM     24  C   UNL A   1      39.345  21.591  26.181  1.00  0.00     0.021 A 
ATOM     25  C   UNL A   1      39.754  22.699  26.926  1.00  0.00     0.041 A 
ATOM     26  Cl  UNL A   1      41.181  22.598  27.882  1.00  0.00    -0.084 Cl
ENDBRANCH  18  20
ENDBRANCH  11  18
ENDBRANCH   7   8
ENDBRANCH   4   7
ENDBRANCH   2   3
ENDBRANCH   1   2
BRANCH   1  27
ATOM     27  C   UNL A   1      32.768  28.556  26.397  1.00  0.00     0.023 C 
BRANCH  27  28
ATOM     28  C   UNL A   1      33.652  28.996  27.566  1.00  0.00     0.116 C 
BRANCH  28  29
ATOM     29  N   UNL A   1      33.877  30.426  27.611  1.00  0.00    -0.352 N 
ATOM     30  C   UNL A   1      34.975  31.219  27.784  1.00  0.00     0.251 C 
ATOM     31  H   UNL A   1      33.049  30.944  27.489  1.00  0.00     0.163 HD
ATOM     32  O   UNL A   1      34.810  32.426  27.593  1.00  0.00    -0.269 OA
BRANCH  30  33
ATOM     33  C   UNL A   1      36.302  30.746  28.255  1.00  0.00     0.039 A 
ATOM     34  C   UNL A   1      37.300  31.547  28.810  1.00  0.00     0.014 A 
ATOM     35  C   UNL A   1      36.578  29.383  28.030  1.00  0.00     0.014 A 
ATOM     36  C   UNL A   1      38.573  31.038  29.018  1.00  0.00     0.010 A 
ATOM     37  C   UNL A   1      37.844  28.862  28.253  1.00  0.00     0.010 A 
ATOM     38  C   UNL A   1      38.853  29.712  28.688  1.00  0.00    -0.014 A 
BRANCH  38  39
ATOM     39  C   UNL A   1      40.207  29.229  28.927  1.00  0.00     0.031 A 
ATOM     40  C   UNL A   1      40.533  29.047  30.371  1.00  0.00     0.074 A 
ATOM     41  C   UNL A   1      41.046  28.893  27.926  1.00  0.00     0.049 A 
ATOM     42  N   UNL A   1      41.448  29.639  31.066  1.00  0.00    -0.248 NA
ATOM     43  C   UNL A   1      39.624  28.211  31.174  1.00  0.00     0.031 C 
ATOM     44  C   UNL A   1      40.748  28.802  26.494  1.00  0.00     0.029 A 
ATOM     45  N   UNL A   1      42.338  28.470  27.991  1.00  0.00    -0.354 N 
ATOM     46  C   UNL A   1      41.361  29.102  32.350  1.00  0.00     0.074 A 
ATOM     47  C   UNL A   1      40.131  28.360  32.398  1.00  0.00     0.031 C 
ATOM     48  C   UNL A   1      41.744  28.133  25.869  1.00  0.00     0.029 A 
ATOM     49  C   UNL A   1      42.806  27.871  26.825  1.00  0.00     0.049 A 
ATOM     50  H   UNL A   1      42.895  28.577  28.795  1.00  0.00     0.167 HD
ATOM     51  C   UNL A   1      42.432  29.107  33.189  1.00  0.00     0.037 A 
ATOM     52  C   UNL A   1      43.956  27.166  26.681  1.00  0.00     0.037 A 
ATOM     53  C   UNL A   1      43.387  30.115  32.805  1.00  0.00     0.049 A 
ATOM     54  C   UNL A   1      44.836  27.504  27.824  1.00  0.00     0.074 A 
ATOM     55  C   UNL A   1      43.374  31.493  32.707  1.00  0.00     0.029 A 
ATOM     56  N   UNL A   1      44.496  29.704  32.110  1.00  0.00    -0.354 N 
ATOM     57  N   UNL A   1      45.404  28.665  27.981  1.00  0.00    -0.248 NA
ATOM     58  C   UNL A   1      44.715  26.698  29.029  1.00  0.00     0.031 C 
ATOM     59  C   UNL A   1      44.190  31.790  31.575  1.00  0.00     0.029 A 
ATOM     60  C   UNL A   1      44.698  30.587  31.085  1.00  0.00     0.049 A 
ATOM     61  H   UNL A   1      45.048  28.913  32.313  1.00  0.00     0.167 HD
ATOM     62  C   UNL A   1      45.306  28.923  29.340  1.00  0.00     0.074 A 
ATOM     63  C   UNL A   1      44.954  27.640  29.947  1.00  0.00     0.031 C 
ATOM     64  C   UNL A   1      45.237  30.205  29.804  1.00  0.00     0.037 A 
BRANCH  51  65
ATOM     65  C   UNL A   1      42.824  27.926  34.055  1.00  0.00     0.057 A 
ATOM     66  C   UNL A   1      43.423  26.744  33.570  1.00  0.00     0.134 A 
ATOM     67  C   UNL A   1      42.929  28.113  35.448  1.00  0.00     0.134 A 
ATOM     68  F   UNL A   1      43.434  26.416  32.274  1.00  0.00    -0.206 F 
ATOM     69  C   UNL A   1      44.141  25.867  34.387  1.00  0.00     0.040 A 
ATOM     70  C   UNL A   1      43.684  27.264  36.266  1.00  0.00     0.040 A 
ATOM     71  F   UNL A   1      42.385  29.186  36.042  1.00  0.00    -0.206 F 
ATOM     72  C   UNL A   1      44.312  26.148  35.731  1.00  0.00     0.006 A 
ENDBRANCH  51  65
BRANCH  52  73
ATOM     73  C   UNL A   1      44.235  26.007  25.802  1.00  0.00     0.057 A 
ATOM     74  C   UNL A   1      43.317  24.950  25.677  1.00  0.00     0.134 A 
ATOM     75  C   UNL A   1      45.518  25.772  25.288  1.00  0.00     0.134 A 
ATOM     76  F   UNL A   1      42.088  25.036  26.204  1.00  0.00    -0.206 F 
ATOM     77  C   UNL A   1      43.658  23.726  25.089  1.00  0.00     0.040 A 
ATOM     78  C   UNL A   1      45.875  24.549  24.701  1.00  0.00     0.040 A 
ATOM     79  F   UNL A   1      46.478  26.701  25.400  1.00  0.00    -0.206 F 
ATOM     80  C   UNL A   1      44.945  23.518  24.610  1.00  0.00     0.006 A 
ENDBRANCH  52  73
BRANCH  64  81
ATOM     81  C   UNL A   1      45.529  31.309  28.827  1.00  0.00     0.057 A 
ATOM     82  C   UNL A   1      44.479  31.821  28.060  1.00  0.00     0.134 A 
ATOM     83  C   UNL A   1      46.816  31.792  28.546  1.00  0.00     0.134 A 
ATOM     84  F   UNL A   1      43.229  31.362  28.233  1.00  0.00    -0.206 F 
ATOM     85  C   UNL A   1      44.691  32.782  27.069  1.00  0.00     0.040 A 
ATOM     86  C   UNL A   1      47.038  32.780  27.581  1.00  0.00     0.040 A 
ATOM     87  F   UNL A   1      47.896  31.289  29.157  1.00  0.00    -0.206 F 
ATOM     88  C   UNL A   1      45.972  33.275  26.837  1.00  0.00     0.006 A 
ENDBRANCH  64  81
ENDBRANCH  38  39
ENDBRANCH  30  33
ENDBRANCH  28  29
ENDBRANCH  27  28
ENDBRANCH   1  27
TORSDOF 14
ENDMDL
MODEL 3
REMARK VINA RESULT:     -11.8      1.725      2.994
REMARK SMILES Cc1c(CC(=O)NCCCCNC(=O)c2ccc(-c3c4nc(c(-c5c(F)cccc5F)c5ccc([nH]5)c(-c5c(F)cccc5F)c5nc(c(-c6c(F)cccc6F)c6ccc3[nH]6)C=C5)C=C4)cc2)c2ccccc2n1C(=O)c1ccc(Cl)cc1
REMARK SMILES IDX 9 1 8 2 7 3 5 4 6 5 4 7 3 8 1 9 2 10 75 11 69 12 74 13 70 14
REMARK SMILES IDX 73 15 71 16 72 17 76 18 77 19 78 20 79 21 84 22 80 23 83 24
REMARK SMILES IDX 81 25 82 26 10 27 11 28 12 29 13 30 14 32 15 33 16 34 68 35
REMARK SMILES IDX 17 36 67 37 18 38 19 39 20 40 61 41 21 42 66 43 60 44 62 45
REMARK SMILES IDX 22 46 65 47 59 48 58 49 23 51 49 52 32 53 48 54 33 55 36 56
REMARK SMILES IDX 47 57 63 58 34 59 35 60 46 62 64 63 37 64 24 65 25 66 30 67
REMARK SMILES IDX 26 68 27 69 29 70 31 71 28 72 50 73 51 74 56 75 52 76 53 77
REMARK SMILES IDX 55 78 57 79 54 80 38 81 39 82 44 83 40 84 41 85 43 86 45 87
REMARK SMILES IDX 42 88
REMARK H PARENT 7 6 12 31 62 50 36 61
REMARK Flexibility Score: inf
ROOT
ATOM      1  C   UNL A   1      32.365  29.687  27.168  1.00  0.00     0.023 C 
ENDROOT
BRANCH   1   2
ATOM      2  C   UNL A   1      31.821  28.356  26.655  1.00  0.00     0.116 C 
BRANCH   2   3
ATOM      3  N   UNL A   1      32.297  28.050  25.323  1.00  0.00    -0.356 N 
ATOM      4  C   UNL A   1      32.739  26.851  24.841  1.00  0.00     0.224 C 
ATOM      5  O   UNL A   1      33.100  26.788  23.664  1.00  0.00    -0.275 OA
ATOM      6  H   UNL A   1      32.304  28.801  24.685  1.00  0.00     0.163 HD
BRANCH   4   7
ATOM      7  C   UNL A   1      32.729  25.621  25.740  1.00  0.00     0.138 C 
BRANCH   7   8
ATOM      8  C   UNL A   1      33.138  24.363  25.025  1.00  0.00    -0.010 A 
ATOM      9  C   UNL A   1      30.892  23.710  23.898  1.00  0.00     0.065 C 
ATOM     10  C   UNL A   1      32.339  23.534  24.248  1.00  0.00     0.028 A 
ATOM     11  N   UNL A   1      33.090  22.411  23.867  1.00  0.00    -0.280 N 
ATOM     12  C   UNL A   1      34.451  23.817  25.007  1.00  0.00     0.004 A 
ATOM     13  C   UNL A   1      34.427  22.663  24.216  1.00  0.00     0.056 A 
ATOM     14  C   UNL A   1      35.670  24.235  25.590  1.00  0.00     0.010 A 
ATOM     15  C   UNL A   1      35.632  21.982  23.938  1.00  0.00     0.027 A 
ATOM     16  C   UNL A   1      36.839  23.509  25.373  1.00  0.00     0.001 A 
ATOM     17  C   UNL A   1      36.821  22.401  24.543  1.00  0.00     0.002 A 
BRANCH  11  18
ATOM     18  C   UNL A   1      32.561  21.234  23.253  1.00  0.00     0.262 C 
ATOM     19  O   UNL A   1      32.051  21.316  22.145  1.00  0.00    -0.268 OA
BRANCH  18  20
ATOM     20  C   UNL A   1      32.574  19.885  23.850  1.00  0.00     0.040 A 
ATOM     21  C   UNL A   1      32.635  19.709  25.235  1.00  0.00     0.015 A 
ATOM     22  C   UNL A   1      32.534  18.784  22.987  1.00  0.00     0.015 A 
ATOM     23  C   UNL A   1      32.755  18.417  25.754  1.00  0.00     0.021 A 
ATOM     24  C   UNL A   1      32.641  17.496  23.511  1.00  0.00     0.021 A 
ATOM     25  C   UNL A   1      32.773  17.319  24.889  1.00  0.00     0.041 A 
ATOM     26  Cl  UNL A   1      32.980  15.735  25.527  1.00  0.00    -0.084 Cl
ENDBRANCH  18  20
ENDBRANCH  11  18
ENDBRANCH   7   8
ENDBRANCH   4   7
ENDBRANCH   2   3
ENDBRANCH   1   2
BRANCH   1  27
ATOM     27  C   UNL A   1      33.782  30.018  26.679  1.00  0.00     0.023 C 
BRANCH  27  28
ATOM     28  C   UNL A   1      34.893  29.268  27.418  1.00  0.00     0.116 C 
BRANCH  28  29
ATOM     29  N   UNL A   1      35.138  29.773  28.753  1.00  0.00    -0.352 N 
ATOM     30  C   UNL A   1      36.245  29.895  29.543  1.00  0.00     0.251 C 
ATOM     31  H   UNL A   1      34.320  30.104  29.190  1.00  0.00     0.163 HD
ATOM     32  O   UNL A   1      36.101  30.540  30.585  1.00  0.00    -0.269 OA
BRANCH  30  33
ATOM     33  C   UNL A   1      37.556  29.248  29.280  1.00  0.00     0.039 A 
ATOM     34  C   UNL A   1      38.178  28.310  30.102  1.00  0.00     0.014 A 
ATOM     35  C   UNL A   1      38.242  29.706  28.139  1.00  0.00     0.014 A 
ATOM     36  C   UNL A   1      39.491  27.933  29.867  1.00  0.00     0.010 A 
ATOM     37  C   UNL A   1      39.550  29.320  27.886  1.00  0.00     0.010 A 
ATOM     38  C   UNL A   1      40.189  28.481  28.790  1.00  0.00    -0.014 A 
BRANCH  38  39
ATOM     39  C   UNL A   1      41.567  28.050  28.589  1.00  0.00     0.031 A 
ATOM     40  C   UNL A   1      41.688  26.728  27.909  1.00  0.00     0.074 A 
ATOM     41  C   UNL A   1      42.623  28.824  28.909  1.00  0.00     0.049 A 
ATOM     42  N   UNL A   1      42.227  25.643  28.359  1.00  0.00    -0.248 NA
ATOM     43  C   UNL A   1      40.985  26.556  26.626  1.00  0.00     0.031 C 
ATOM     44  C   UNL A   1      42.616  30.221  29.351  1.00  0.00     0.029 A 
ATOM     45  N   UNL A   1      43.953  28.546  28.817  1.00  0.00    -0.354 N 
ATOM     46  C   UNL A   1      42.109  24.704  27.335  1.00  0.00     0.074 A 
ATOM     47  C   UNL A   1      41.203  25.266  26.370  1.00  0.00     0.031 C 
ATOM     48  C   UNL A   1      43.866  30.729  29.258  1.00  0.00     0.029 A 
ATOM     49  C   UNL A   1      44.780  29.663  28.886  1.00  0.00     0.049 A 
ATOM     50  H   UNL A   1      44.300  27.631  28.711  1.00  0.00     0.167 HD
ATOM     51  C   UNL A   1      42.962  23.648  27.246  1.00  0.00     0.037 A 
ATOM     52  C   UNL A   1      46.106  29.709  28.599  1.00  0.00     0.037 A 
ATOM     53  C   UNL A   1      43.580  23.373  28.519  1.00  0.00     0.049 A 
ATOM     54  C   UNL A   1      46.620  28.320  28.632  1.00  0.00     0.074 A 
ATOM     55  C   UNL A   1      43.130  22.989  29.766  1.00  0.00     0.029 A 
ATOM     56  N   UNL A   1      44.863  23.822  28.709  1.00  0.00    -0.354 N 
ATOM     57  N   UNL A   1      46.739  27.618  29.722  1.00  0.00    -0.248 NA
ATOM     58  C   UNL A   1      46.573  27.554  27.396  1.00  0.00     0.031 C 
ATOM     59  C   UNL A   1      43.979  23.668  30.691  1.00  0.00     0.029 A 
ATOM     60  C   UNL A   1      44.929  24.378  29.957  1.00  0.00     0.049 A 
ATOM     61  H   UNL A   1      45.603  23.757  28.061  1.00  0.00     0.167 HD
ATOM     62  C   UNL A   1      46.335  26.341  29.363  1.00  0.00     0.074 A 
ATOM     63  C   UNL A   1      46.331  26.341  27.900  1.00  0.00     0.031 C 
ATOM     64  C   UNL A   1      45.770  25.503  30.280  1.00  0.00     0.037 A 
BRANCH  51  65
ATOM     65  C   UNL A   1      43.572  23.170  25.943  1.00  0.00     0.057 A 
ATOM     66  C   UNL A   1      44.395  23.957  25.111  1.00  0.00     0.134 A 
ATOM     67  C   UNL A   1      43.627  21.785  25.690  1.00  0.00     0.134 A 
ATOM     68  F   UNL A   1      44.481  25.286  25.223  1.00  0.00    -0.206 F 
ATOM     69  C   UNL A   1      45.265  23.407  24.166  1.00  0.00     0.040 A 
ATOM     70  C   UNL A   1      44.529  21.222  24.779  1.00  0.00     0.040 A 
ATOM     71  F   UNL A   1      42.879  20.924  26.397  1.00  0.00    -0.206 F 
ATOM     72  C   UNL A   1      45.367  22.034  24.028  1.00  0.00     0.006 A 
ENDBRANCH  51  65
BRANCH  52  73
ATOM     73  C   UNL A   1      46.894  30.816  28.011  1.00  0.00     0.057 A 
ATOM     74  C   UNL A   1      47.954  31.410  28.717  1.00  0.00     0.134 A 
ATOM     75  C   UNL A   1      46.452  31.504  26.872  1.00  0.00     0.134 A 
ATOM     76  F   UNL A   1      48.403  30.881  29.864  1.00  0.00    -0.206 F 
ATOM     77  C   UNL A   1      48.532  32.623  28.322  1.00  0.00     0.040 A 
ATOM     78  C   UNL A   1      47.018  32.722  26.468  1.00  0.00     0.040 A 
ATOM     79  F   UNL A   1      45.415  31.043  26.158  1.00  0.00    -0.206 F 
ATOM     80  C   UNL A   1      48.056  33.289  27.201  1.00  0.00     0.006 A 
ENDBRANCH  52  73
BRANCH  64  81
ATOM     81  C   UNL A   1      45.841  25.913  31.725  1.00  0.00     0.057 A 
ATOM     82  C   UNL A   1      44.761  26.609  32.277  1.00  0.00     0.134 A 
ATOM     83  C   UNL A   1      46.972  25.745  32.537  1.00  0.00     0.134 A 
ATOM     84  F   UNL A   1      43.668  26.858  31.538  1.00  0.00    -0.206 F 
ATOM     85  C   UNL A   1      44.794  27.101  33.583  1.00  0.00     0.040 A 
ATOM     86  C   UNL A   1      47.003  26.202  33.859  1.00  0.00     0.040 A 
ATOM     87  F   UNL A   1      48.091  25.182  32.064  1.00  0.00    -0.206 F 
ATOM     88  C   UNL A   1      45.912  26.885  34.384  1.00  0.00     0.006 A 
ENDBRANCH  64  81
ENDBRANCH  38  39
ENDBRANCH  30  33
ENDBRANCH  28  29
ENDBRANCH  27  28
ENDBRANCH   1  27
TORSDOF 14
ENDMDL
