MODEL 1
REMARK VINA RESULT:     -10.7      0.000      0.000
REMARK SMILES C[C@H](C[NH3+])S[C@H](C)c1ccc(C(=O)NCCCCNC(=O)c2ccc(-c3c4nc(c(-c5c(F)cccc5F)c5ccc([nH]5)c(-c5c(F)cccc5F)c5nc(c(-c6c(F)cccc6F)c6ccc3[nH]6)C=C5)C=C4)cc2)o1
REMARK SMILES IDX 15 1 14 2 12 3 13 4 11 6 8 7 9 8 76 9 10 10 6 11 7 12 5 13
REMARK SMILES IDX 2 14 1 15 3 16 4 17 16 21 17 22 18 23 19 24 20 25 21 27
REMARK SMILES IDX 22 28 23 29 75 30 24 31 74 32 25 33 26 34 27 35 68 36 28 37
REMARK SMILES IDX 73 38 67 39 69 40 29 41 72 42 66 43 65 44 30 46 56 47 39 48
REMARK SMILES IDX 55 49 40 50 43 51 54 52 70 53 41 54 42 55 53 57 71 58 44 59
REMARK SMILES IDX 31 60 32 61 37 62 33 63 34 64 36 65 38 66 35 67 57 68 58 69
REMARK SMILES IDX 63 70 59 71 60 72 62 73 64 74 61 75 45 76 46 77 51 78 47 79
REMARK SMILES IDX 48 80 50 81 52 82 49 83
REMARK H PARENT 14 5 4 18 4 19 4 20 19 26 69 45 43 56
REMARK Flexibility Score: inf
ROOT
ATOM      1  C   UNL A   1      32.789  29.782  26.424  1.00  0.00     0.116 C 
ENDROOT
BRANCH   1   2
ATOM      2  N   UNL A   1      33.556  29.382  25.260  1.00  0.00    -0.349 N 
ATOM      3  C   UNL A   1      33.221  28.546  24.217  1.00  0.00     0.286 C 
ATOM      4  O   UNL A   1      34.145  28.202  23.478  1.00  0.00    -0.266 OA
ATOM      5  H   UNL A   1      34.460  29.769  25.206  1.00  0.00     0.163 HD
BRANCH   3   6
ATOM      6  C   UNL A   1      31.850  28.112  24.023  1.00  0.00     0.191 A 
ATOM      7  C   UNL A   1      29.800  28.342  23.207  1.00  0.00     0.117 A 
ATOM      8  C   UNL A   1      29.792  27.197  23.977  1.00  0.00     0.047 A 
ATOM      9  O   UNL A   1      31.042  28.904  23.245  1.00  0.00    -0.455 OA
ATOM     10  C   UNL A   1      31.095  27.057  24.507  1.00  0.00     0.056 A 
BRANCH   7  11
ATOM     11  C   UNL A   1      28.738  29.046  22.420  1.00  0.00     0.110 C 
ATOM     12  C   UNL A   1      27.484  29.390  23.217  1.00  0.00     0.028 C 
BRANCH  11  13
ATOM     13  S   UNL A   1      29.429  30.484  21.495  1.00  0.00    -0.142 SA
BRANCH  13  14
ATOM     14  C   UNL A   1      28.202  31.831  21.814  1.00  0.00     0.099 C 
ATOM     15  C   UNL A   1      27.787  32.384  20.446  1.00  0.00     0.025 C 
BRANCH  14  16
ATOM     16  C   UNL A   1      28.721  32.962  22.727  1.00  0.00     0.273 C 
BRANCH  16  17
ATOM     17  N   UNL A   1      29.520  32.492  23.863  1.00  0.00    -0.357 N 
ATOM     18  H   UNL A   1      28.945  31.902  24.463  1.00  0.00     0.344 HD
ATOM     19  H   UNL A   1      29.856  33.294  24.397  1.00  0.00     0.344 HD
ATOM     20  H   UNL A   1      30.316  31.955  23.519  1.00  0.00     0.344 HD
ENDBRANCH  16  17
ENDBRANCH  14  16
ENDBRANCH  13  14
ENDBRANCH  11  13
ENDBRANCH   7  11
ENDBRANCH   3   6
ENDBRANCH   1   2
BRANCH   1  21
ATOM     21  C   UNL A   1      31.757  30.855  26.086  1.00  0.00     0.023 C 
BRANCH  21  22
ATOM     22  C   UNL A   1      31.575  31.946  27.142  1.00  0.00     0.023 C 
BRANCH  22  23
ATOM     23  C   UNL A   1      32.779  32.857  27.372  1.00  0.00     0.116 C 
BRANCH  23  24
ATOM     24  N   UNL A   1      32.424  34.241  27.654  1.00  0.00    -0.352 N 
ATOM     25  C   UNL A   1      32.990  35.113  28.556  1.00  0.00     0.251 C 
ATOM     26  H   UNL A   1      31.676  34.603  27.126  1.00  0.00     0.163 HD
ATOM     27  O   UNL A   1      32.518  36.234  28.720  1.00  0.00    -0.269 OA
BRANCH  25  28
ATOM     28  C   UNL A   1      34.143  34.670  29.363  1.00  0.00     0.039 A 
ATOM     29  C   UNL A   1      33.915  34.185  30.654  1.00  0.00     0.014 A 
ATOM     30  C   UNL A   1      35.429  34.665  28.819  1.00  0.00     0.014 A 
ATOM     31  C   UNL A   1      34.962  33.592  31.360  1.00  0.00     0.010 A 
ATOM     32  C   UNL A   1      36.457  34.019  29.499  1.00  0.00     0.010 A 
ATOM     33  C   UNL A   1      36.226  33.451  30.763  1.00  0.00    -0.014 A 
BRANCH  33  34
ATOM     34  C   UNL A   1      37.302  32.658  31.404  1.00  0.00     0.031 A 
ATOM     35  C   UNL A   1      37.885  33.092  32.716  1.00  0.00     0.074 A 
ATOM     36  C   UNL A   1      37.826  31.605  30.747  1.00  0.00     0.049 A 
ATOM     37  N   UNL A   1      38.918  32.613  33.360  1.00  0.00    -0.248 NA
ATOM     38  C   UNL A   1      37.237  34.235  33.380  1.00  0.00     0.031 C 
ATOM     39  C   UNL A   1      37.375  31.108  29.444  1.00  0.00     0.029 A 
ATOM     40  N   UNL A   1      38.871  30.775  31.071  1.00  0.00    -0.354 N 
ATOM     41  C   UNL A   1      39.053  33.400  34.496  1.00  0.00     0.074 A 
ATOM     42  C   UNL A   1      38.022  34.415  34.432  1.00  0.00     0.031 C 
ATOM     43  C   UNL A   1      38.131  30.058  29.087  1.00  0.00     0.029 A 
ATOM     44  C   UNL A   1      39.146  29.833  30.110  1.00  0.00     0.049 A 
ATOM     45  H   UNL A   1      39.373  30.848  31.914  1.00  0.00     0.167 HD
ATOM     46  C   UNL A   1      39.945  33.276  35.507  1.00  0.00     0.037 A 
ATOM     47  C   UNL A   1      40.121  28.908  30.047  1.00  0.00     0.037 A 
ATOM     48  C   UNL A   1      40.954  32.254  35.577  1.00  0.00     0.049 A 
ATOM     49  C   UNL A   1      41.119  28.814  31.167  1.00  0.00     0.074 A 
ATOM     50  C   UNL A   1      41.854  32.000  36.598  1.00  0.00     0.029 A 
ATOM     51  N   UNL A   1      41.201  31.318  34.584  1.00  0.00    -0.354 N 
ATOM     52  N   UNL A   1      41.194  29.523  32.267  1.00  0.00    -0.248 NA
ATOM     53  C   UNL A   1      42.172  27.797  31.034  1.00  0.00     0.031 C 
ATOM     54  C   UNL A   1      42.674  30.938  36.203  1.00  0.00     0.029 A 
ATOM     55  C   UNL A   1      42.261  30.506  34.953  1.00  0.00     0.049 A 
ATOM     56  H   UNL A   1      40.699  31.243  33.742  1.00  0.00     0.167 HD
ATOM     57  C   UNL A   1      42.291  29.031  32.962  1.00  0.00     0.074 A 
ATOM     58  C   UNL A   1      42.839  27.950  32.169  1.00  0.00     0.031 C 
ATOM     59  C   UNL A   1      42.799  29.439  34.150  1.00  0.00     0.037 A 
BRANCH  46  60
ATOM     60  C   UNL A   1      39.866  34.274  36.623  1.00  0.00     0.057 A 
ATOM     61  C   UNL A   1      40.518  35.511  36.552  1.00  0.00     0.134 A 
ATOM     62  C   UNL A   1      39.097  34.012  37.764  1.00  0.00     0.134 A 
ATOM     63  F   UNL A   1      41.279  35.818  35.490  1.00  0.00    -0.206 F 
ATOM     64  C   UNL A   1      40.426  36.445  37.584  1.00  0.00     0.040 A 
ATOM     65  C   UNL A   1      38.978  34.949  38.793  1.00  0.00     0.040 A 
ATOM     66  F   UNL A   1      38.443  32.848  37.893  1.00  0.00    -0.206 F 
ATOM     67  C   UNL A   1      39.648  36.167  38.706  1.00  0.00     0.006 A 
ENDBRANCH  46  60
BRANCH  47  68
ATOM     68  C   UNL A   1      40.209  27.996  28.880  1.00  0.00     0.057 A 
ATOM     69  C   UNL A   1      40.949  28.349  27.745  1.00  0.00     0.134 A 
ATOM     70  C   UNL A   1      39.554  26.758  28.865  1.00  0.00     0.134 A 
ATOM     71  F   UNL A   1      41.581  29.529  27.694  1.00  0.00    -0.206 F 
ATOM     72  C   UNL A   1      41.021  27.511  26.632  1.00  0.00     0.040 A 
ATOM     73  C   UNL A   1      39.636  25.901  27.766  1.00  0.00     0.040 A 
ATOM     74  F   UNL A   1      38.833  26.361  29.924  1.00  0.00    -0.206 F 
ATOM     75  C   UNL A   1      40.366  26.281  26.642  1.00  0.00     0.006 A 
ENDBRANCH  47  68
BRANCH  59  76
ATOM     76  C   UNL A   1      44.004  28.712  34.665  1.00  0.00     0.057 A 
ATOM     77  C   UNL A   1      43.884  27.546  35.432  1.00  0.00     0.134 A 
ATOM     78  C   UNL A   1      45.295  29.154  34.355  1.00  0.00     0.134 A 
ATOM     79  F   UNL A   1      42.672  27.081  35.775  1.00  0.00    -0.206 F 
ATOM     80  C   UNL A   1      45.007  26.853  35.883  1.00  0.00     0.040 A 
ATOM     81  C   UNL A   1      46.427  28.457  34.782  1.00  0.00     0.040 A 
ATOM     82  F   UNL A   1      45.478  30.262  33.619  1.00  0.00    -0.206 F 
ATOM     83  C   UNL A   1      46.283  27.304  35.551  1.00  0.00     0.006 A 
ENDBRANCH  59  76
ENDBRANCH  33  34
ENDBRANCH  25  28
ENDBRANCH  23  24
ENDBRANCH  22  23
ENDBRANCH  21  22
ENDBRANCH   1  21
TORSDOF 16
ENDMDL
MODEL 2
REMARK VINA RESULT:     -10.4      5.141      9.509
REMARK SMILES C[C@H](C[NH3+])S[C@H](C)c1ccc(C(=O)NCCCCNC(=O)c2ccc(-c3c4nc(c(-c5c(F)cccc5F)c5ccc([nH]5)c(-c5c(F)cccc5F)c5nc(c(-c6c(F)cccc6F)c6ccc3[nH]6)C=C5)C=C4)cc2)o1
REMARK SMILES IDX 15 1 14 2 12 3 13 4 11 6 8 7 9 8 76 9 10 10 6 11 7 12 5 13
REMARK SMILES IDX 2 14 1 15 3 16 4 17 16 21 17 22 18 23 19 24 20 25 21 27
REMARK SMILES IDX 22 28 23 29 75 30 24 31 74 32 25 33 26 34 27 35 68 36 28 37
REMARK SMILES IDX 73 38 67 39 69 40 29 41 72 42 66 43 65 44 30 46 56 47 39 48
REMARK SMILES IDX 55 49 40 50 43 51 54 52 70 53 41 54 42 55 53 57 71 58 44 59
REMARK SMILES IDX 31 60 32 61 37 62 33 63 34 64 36 65 38 66 35 67 57 68 58 69
REMARK SMILES IDX 63 70 59 71 60 72 62 73 64 74 61 75 45 76 46 77 51 78 47 79
REMARK SMILES IDX 48 80 50 81 52 82 49 83
REMARK H PARENT 14 5 4 18 4 19 4 20 19 26 69 45 43 56
REMARK Flexibility Score: inf
ROOT
ATOM      1  C   UNL A   1      36.452  23.188  25.640  1.00  0.00     0.116 C 
ENDROOT
BRANCH   1   2
ATOM      2  N   UNL A   1      35.108  22.829  26.047  1.00  0.00    -0.349 N 
ATOM      3  C   UNL A   1      33.893  23.361  25.673  1.00  0.00     0.286 C 
ATOM      4  O   UNL A   1      32.919  23.016  26.346  1.00  0.00    -0.266 OA
ATOM      5  H   UNL A   1      35.054  22.088  26.693  1.00  0.00     0.163 HD
BRANCH   3   6
ATOM      6  C   UNL A   1      33.793  24.271  24.548  1.00  0.00     0.191 A 
ATOM      7  C   UNL A   1      33.661  26.294  23.646  1.00  0.00     0.117 A 
ATOM      8  C   UNL A   1      33.566  25.392  22.606  1.00  0.00     0.047 A 
ATOM      9  O   UNL A   1      33.785  25.617  24.823  1.00  0.00    -0.455 OA
ATOM     10  C   UNL A   1      33.638  24.102  23.183  1.00  0.00     0.056 A 
BRANCH   7  11
ATOM     11  C   UNL A   1      33.616  27.790  23.701  1.00  0.00     0.110 C 
ATOM     12  C   UNL A   1      34.077  28.484  22.424  1.00  0.00     0.028 C 
BRANCH  11  13
ATOM     13  S   UNL A   1      31.980  28.391  24.305  1.00  0.00    -0.142 SA
BRANCH  13  14
ATOM     14  C   UNL A   1      32.270  28.694  26.106  1.00  0.00     0.099 C 
ATOM     15  C   UNL A   1      33.779  28.900  26.283  1.00  0.00     0.025 C 
BRANCH  14  16
ATOM     16  C   UNL A   1      31.759  27.569  27.032  1.00  0.00     0.273 C 
BRANCH  16  17
ATOM     17  N   UNL A   1      31.170  28.051  28.285  1.00  0.00    -0.357 N 
ATOM     18  H   UNL A   1      30.460  28.754  28.078  1.00  0.00     0.344 HD
ATOM     19  H   UNL A   1      31.899  28.465  28.866  1.00  0.00     0.344 HD
ATOM     20  H   UNL A   1      30.741  27.271  28.782  1.00  0.00     0.344 HD
ENDBRANCH  16  17
ENDBRANCH  14  16
ENDBRANCH  13  14
ENDBRANCH  11  13
ENDBRANCH   7  11
ENDBRANCH   3   6
ENDBRANCH   1   2
BRANCH   1  21
ATOM     21  C   UNL A   1      36.956  22.309  24.496  1.00  0.00     0.023 C 
BRANCH  21  22
ATOM     22  C   UNL A   1      37.587  20.982  24.918  1.00  0.00     0.023 C 
BRANCH  22  23
ATOM     23  C   UNL A   1      38.858  21.088  25.759  1.00  0.00     0.116 C 
BRANCH  23  24
ATOM     24  N   UNL A   1      39.720  19.917  25.671  1.00  0.00    -0.352 N 
ATOM     25  C   UNL A   1      41.046  19.790  26.017  1.00  0.00     0.251 C 
ATOM     26  H   UNL A   1      39.295  19.104  25.316  1.00  0.00     0.163 HD
ATOM     27  O   UNL A   1      41.647  18.741  25.810  1.00  0.00    -0.269 OA
BRANCH  25  28
ATOM     28  C   UNL A   1      41.755  20.949  26.596  1.00  0.00     0.039 A 
ATOM     29  C   UNL A   1      42.397  21.843  25.737  1.00  0.00     0.014 A 
ATOM     30  C   UNL A   1      41.720  21.186  27.973  1.00  0.00     0.014 A 
ATOM     31  C   UNL A   1      42.911  23.037  26.247  1.00  0.00     0.010 A 
ATOM     32  C   UNL A   1      42.178  22.402  28.469  1.00  0.00     0.010 A 
ATOM     33  C   UNL A   1      42.751  23.350  27.606  1.00  0.00    -0.014 A 
BRANCH  33  34
ATOM     34  C   UNL A   1      43.110  24.686  28.141  1.00  0.00     0.031 A 
ATOM     35  C   UNL A   1      42.047  25.717  28.380  1.00  0.00     0.074 A 
ATOM     36  C   UNL A   1      44.409  25.001  28.310  1.00  0.00     0.049 A 
ATOM     37  N   UNL A   1      42.178  26.977  28.710  1.00  0.00    -0.248 NA
ATOM     38  C   UNL A   1      40.653  25.282  28.199  1.00  0.00     0.031 C 
ATOM     39  C   UNL A   1      45.539  24.100  28.071  1.00  0.00     0.029 A 
ATOM     40  N   UNL A   1      45.002  26.178  28.698  1.00  0.00    -0.354 N 
ATOM     41  C   UNL A   1      40.888  27.488  28.762  1.00  0.00     0.074 A 
ATOM     42  C   UNL A   1      39.991  26.413  28.390  1.00  0.00     0.031 C 
ATOM     43  C   UNL A   1      46.685  24.752  28.326  1.00  0.00     0.029 A 
ATOM     44  C   UNL A   1      46.375  26.127  28.702  1.00  0.00     0.049 A 
ATOM     45  H   UNL A   1      44.492  26.980  28.950  1.00  0.00     0.167 HD
ATOM     46  C   UNL A   1      40.489  28.735  29.106  1.00  0.00     0.037 A 
ATOM     47  C   UNL A   1      47.284  27.087  28.957  1.00  0.00     0.037 A 
ATOM     48  C   UNL A   1      41.381  29.794  29.496  1.00  0.00     0.049 A 
ATOM     49  C   UNL A   1      46.815  28.471  29.303  1.00  0.00     0.074 A 
ATOM     50  C   UNL A   1      41.067  31.068  29.936  1.00  0.00     0.029 A 
ATOM     51  N   UNL A   1      42.765  29.704  29.488  1.00  0.00    -0.354 N 
ATOM     52  N   UNL A   1      45.589  28.924  29.413  1.00  0.00    -0.248 NA
ATOM     53  C   UNL A   1      47.853  29.481  29.553  1.00  0.00     0.031 C 
ATOM     54  C   UNL A   1      42.261  31.763  30.152  1.00  0.00     0.029 A 
ATOM     55  C   UNL A   1      43.319  30.910  29.884  1.00  0.00     0.049 A 
ATOM     56  H   UNL A   1      43.277  28.902  29.238  1.00  0.00     0.167 HD
ATOM     57  C   UNL A   1      45.708  30.264  29.758  1.00  0.00     0.074 A 
ATOM     58  C   UNL A   1      47.125  30.546  29.857  1.00  0.00     0.031 C 
ATOM     59  C   UNL A   1      44.731  31.178  29.970  1.00  0.00     0.037 A 
BRANCH  46  60
ATOM     60  C   UNL A   1      39.017  29.021  29.078  1.00  0.00     0.057 A 
ATOM     61  C   UNL A   1      38.228  28.933  30.232  1.00  0.00     0.134 A 
ATOM     62  C   UNL A   1      38.389  29.428  27.895  1.00  0.00     0.134 A 
ATOM     63  F   UNL A   1      38.768  28.537  31.396  1.00  0.00    -0.206 F 
ATOM     64  C   UNL A   1      36.863  29.218  30.206  1.00  0.00     0.040 A 
ATOM     65  C   UNL A   1      37.029  29.740  27.861  1.00  0.00     0.040 A 
ATOM     66  F   UNL A   1      39.089  29.538  26.755  1.00  0.00    -0.206 F 
ATOM     67  C   UNL A   1      36.261  29.631  29.019  1.00  0.00     0.006 A 
ENDBRANCH  46  60
BRANCH  47  68
ATOM     68  C   UNL A   1      48.734  26.776  28.890  1.00  0.00     0.057 A 
ATOM     69  C   UNL A   1      49.436  26.876  27.684  1.00  0.00     0.134 A 
ATOM     70  C   UNL A   1      49.449  26.367  30.023  1.00  0.00     0.134 A 
ATOM     71  F   UNL A   1      48.800  27.243  26.563  1.00  0.00    -0.206 F 
ATOM     72  C   UNL A   1      50.794  26.565  27.602  1.00  0.00     0.040 A 
ATOM     73  C   UNL A   1      50.812  26.074  29.959  1.00  0.00     0.040 A 
ATOM     74  F   UNL A   1      48.833  26.257  31.209  1.00  0.00    -0.206 F 
ATOM     75  C   UNL A   1      51.487  26.166  28.743  1.00  0.00     0.006 A 
ENDBRANCH  47  68
BRANCH  59  76
ATOM     76  C   UNL A   1      45.161  32.566  30.336  1.00  0.00     0.057 A 
ATOM     77  C   UNL A   1      45.319  33.564  29.367  1.00  0.00     0.134 A 
ATOM     78  C   UNL A   1      45.376  32.921  31.673  1.00  0.00     0.134 A 
ATOM     79  F   UNL A   1      45.142  33.281  28.066  1.00  0.00    -0.206 F 
ATOM     80  C   UNL A   1      45.688  34.864  29.713  1.00  0.00     0.040 A 
ATOM     81  C   UNL A   1      45.724  34.223  32.035  1.00  0.00     0.040 A 
ATOM     82  F   UNL A   1      45.236  32.012  32.651  1.00  0.00    -0.206 F 
ATOM     83  C   UNL A   1      45.884  35.198  31.052  1.00  0.00     0.006 A 
ENDBRANCH  59  76
ENDBRANCH  33  34
ENDBRANCH  25  28
ENDBRANCH  23  24
ENDBRANCH  22  23
ENDBRANCH  21  22
ENDBRANCH   1  21
TORSDOF 16
ENDMDL
MODEL 3
REMARK VINA RESULT:     -10.4      4.667      6.900
REMARK SMILES C[C@H](C[NH3+])S[C@H](C)c1ccc(C(=O)NCCCCNC(=O)c2ccc(-c3c4nc(c(-c5c(F)cccc5F)c5ccc([nH]5)c(-c5c(F)cccc5F)c5nc(c(-c6c(F)cccc6F)c6ccc3[nH]6)C=C5)C=C4)cc2)o1
REMARK SMILES IDX 15 1 14 2 12 3 13 4 11 6 8 7 9 8 76 9 10 10 6 11 7 12 5 13
REMARK SMILES IDX 2 14 1 15 3 16 4 17 16 21 17 22 18 23 19 24 20 25 21 27
REMARK SMILES IDX 22 28 23 29 75 30 24 31 74 32 25 33 26 34 27 35 68 36 28 37
REMARK SMILES IDX 73 38 67 39 69 40 29 41 72 42 66 43 65 44 30 46 56 47 39 48
REMARK SMILES IDX 55 49 40 50 43 51 54 52 70 53 41 54 42 55 53 57 71 58 44 59
REMARK SMILES IDX 31 60 32 61 37 62 33 63 34 64 36 65 38 66 35 67 57 68 58 69
REMARK SMILES IDX 63 70 59 71 60 72 62 73 64 74 61 75 45 76 46 77 51 78 47 79
REMARK SMILES IDX 48 80 50 81 52 82 49 83
REMARK H PARENT 14 5 4 18 4 19 4 20 19 26 69 45 43 56
REMARK Flexibility Score: inf
ROOT
ATOM      1  C   UNL A   1      31.479  27.718  24.521  1.00  0.00     0.116 C 
ENDROOT
BRANCH   1   2
ATOM      2  N   UNL A   1      32.096  27.568  23.218  1.00  0.00    -0.349 N 
ATOM      3  C   UNL A   1      33.213  26.856  22.839  1.00  0.00     0.286 C 
ATOM      4  O   UNL A   1      33.646  27.086  21.707  1.00  0.00    -0.266 OA
ATOM      5  H   UNL A   1      31.646  28.052  22.488  1.00  0.00     0.163 HD
BRANCH   3   6
ATOM      6  C   UNL A   1      33.824  25.895  23.738  1.00  0.00     0.191 A 
ATOM      7  C   UNL A   1      34.795  23.953  24.194  1.00  0.00     0.117 A 
ATOM      8  C   UNL A   1      34.648  24.613  25.397  1.00  0.00     0.047 A 
ATOM      9  O   UNL A   1      34.285  24.723  23.191  1.00  0.00    -0.455 OA
ATOM     10  C   UNL A   1      34.018  25.845  25.108  1.00  0.00     0.056 A 
BRANCH   7  11
ATOM     11  C   UNL A   1      35.349  22.610  23.832  1.00  0.00     0.110 C 
ATOM     12  C   UNL A   1      36.856  22.474  24.026  1.00  0.00     0.028 C 
BRANCH  11  13
ATOM     13  S   UNL A   1      34.389  21.251  24.627  1.00  0.00    -0.142 SA
BRANCH  13  14
ATOM     14  C   UNL A   1      32.662  21.540  24.035  1.00  0.00     0.099 C 
ATOM     15  C   UNL A   1      31.764  21.558  25.277  1.00  0.00     0.025 C 
BRANCH  14  16
ATOM     16  C   UNL A   1      32.156  20.502  23.010  1.00  0.00     0.273 C 
BRANCH  16  17
ATOM     17  N   UNL A   1      31.773  21.077  21.717  1.00  0.00    -0.357 N 
ATOM     18  H   UNL A   1      32.609  21.387  21.222  1.00  0.00     0.344 HD
ATOM     19  H   UNL A   1      31.155  21.874  21.870  1.00  0.00     0.344 HD
ATOM     20  H   UNL A   1      31.289  20.373  21.161  1.00  0.00     0.344 HD
ENDBRANCH  16  17
ENDBRANCH  14  16
ENDBRANCH  13  14
ENDBRANCH  11  13
ENDBRANCH   7  11
ENDBRANCH   3   6
ENDBRANCH   1   2
BRANCH   1  21
ATOM     21  C   UNL A   1      32.020  28.932  25.273  1.00  0.00     0.023 C 
BRANCH  21  22
ATOM     22  C   UNL A   1      32.291  28.715  26.762  1.00  0.00     0.023 C 
BRANCH  22  23
ATOM     23  C   UNL A   1      33.704  29.048  27.236  1.00  0.00     0.116 C 
BRANCH  23  24
ATOM     24  N   UNL A   1      33.805  30.323  27.933  1.00  0.00    -0.352 N 
ATOM     25  C   UNL A   1      34.882  30.863  28.599  1.00  0.00     0.251 C 
ATOM     26  H   UNL A   1      32.991  30.876  27.926  1.00  0.00     0.163 HD
ATOM     27  O   UNL A   1      34.775  31.928  29.199  1.00  0.00    -0.269 OA
BRANCH  25  28
ATOM     28  C   UNL A   1      36.159  30.123  28.626  1.00  0.00     0.039 A 
ATOM     29  C   UNL A   1      37.029  30.240  27.540  1.00  0.00     0.014 A 
ATOM     30  C   UNL A   1      36.522  29.378  29.751  1.00  0.00     0.014 A 
ATOM     31  C   UNL A   1      38.313  29.700  27.626  1.00  0.00     0.010 A 
ATOM     32  C   UNL A   1      37.822  28.893  29.859  1.00  0.00     0.010 A 
ATOM     33  C   UNL A   1      38.738  29.076  28.810  1.00  0.00    -0.014 A 
BRANCH  33  34
ATOM     34  C   UNL A   1      40.149  28.665  29.007  1.00  0.00     0.031 A 
ATOM     35  C   UNL A   1      41.162  29.651  29.510  1.00  0.00     0.074 A 
ATOM     36  C   UNL A   1      40.535  27.431  28.629  1.00  0.00     0.049 A 
ATOM     37  N   UNL A   1      42.460  29.520  29.615  1.00  0.00    -0.248 NA
ATOM     38  C   UNL A   1      40.651  30.966  29.927  1.00  0.00     0.031 C 
ATOM     39  C   UNL A   1      39.654  26.395  28.085  1.00  0.00     0.029 A 
ATOM     40  N   UNL A   1      41.777  26.844  28.620  1.00  0.00    -0.354 N 
ATOM     41  C   UNL A   1      42.923  30.738  30.095  1.00  0.00     0.074 A 
ATOM     42  C   UNL A   1      41.772  31.609  30.222  1.00  0.00     0.031 C 
ATOM     43  C   UNL A   1      40.379  25.301  27.805  1.00  0.00     0.029 A 
ATOM     44  C   UNL A   1      41.781  25.570  28.107  1.00  0.00     0.049 A 
ATOM     45  H   UNL A   1      42.587  27.294  28.952  1.00  0.00     0.167 HD
ATOM     46  C   UNL A   1      44.190  31.091  30.416  1.00  0.00     0.037 A 
ATOM     47  C   UNL A   1      42.801  24.722  27.881  1.00  0.00     0.037 A 
ATOM     48  C   UNL A   1      45.327  30.217  30.309  1.00  0.00     0.049 A 
ATOM     49  C   UNL A   1      44.202  25.151  28.215  1.00  0.00     0.074 A 
ATOM     50  C   UNL A   1      46.638  30.458  30.682  1.00  0.00     0.029 A 
ATOM     51  N   UNL A   1      45.290  28.933  29.784  1.00  0.00    -0.354 N 
ATOM     52  N   UNL A   1      44.617  26.282  28.730  1.00  0.00    -0.248 NA
ATOM     53  C   UNL A   1      45.277  24.190  27.929  1.00  0.00     0.031 C 
ATOM     54  C   UNL A   1      47.402  29.337  30.343  1.00  0.00     0.029 A 
ATOM     55  C   UNL A   1      46.562  28.382  29.794  1.00  0.00     0.049 A 
ATOM     56  H   UNL A   1      44.482  28.482  29.453  1.00  0.00     0.167 HD
ATOM     57  C   UNL A   1      45.996  26.165  28.843  1.00  0.00     0.074 A 
ATOM     58  C   UNL A   1      46.345  24.844  28.360  1.00  0.00     0.031 C 
ATOM     59  C   UNL A   1      46.893  27.070  29.303  1.00  0.00     0.037 A 
BRANCH  46  60
ATOM     60  C   UNL A   1      44.412  32.487  30.918  1.00  0.00     0.057 A 
ATOM     61  C   UNL A   1      44.668  33.551  30.044  1.00  0.00     0.134 A 
ATOM     62  C   UNL A   1      44.329  32.777  32.285  1.00  0.00     0.134 A 
ATOM     63  F   UNL A   1      44.771  33.336  28.723  1.00  0.00    -0.206 F 
ATOM     64  C   UNL A   1      44.855  34.851  30.513  1.00  0.00     0.040 A 
ATOM     65  C   UNL A   1      44.490  34.078  32.765  1.00  0.00     0.040 A 
ATOM     66  F   UNL A   1      44.081  31.803  33.175  1.00  0.00    -0.206 F 
ATOM     67  C   UNL A   1      44.758  35.118  31.878  1.00  0.00     0.006 A 
ENDBRANCH  46  60
BRANCH  47  68
ATOM     68  C   UNL A   1      42.541  23.380  27.303  1.00  0.00     0.057 A 
ATOM     69  C   UNL A   1      42.191  22.300  28.121  1.00  0.00     0.134 A 
ATOM     70  C   UNL A   1      42.641  23.143  25.927  1.00  0.00     0.134 A 
ATOM     71  F   UNL A   1      42.099  22.462  29.448  1.00  0.00    -0.206 F 
ATOM     72  C   UNL A   1      41.966  21.028  27.593  1.00  0.00     0.040 A 
ATOM     73  C   UNL A   1      42.398  21.880  25.383  1.00  0.00     0.040 A 
ATOM     74  F   UNL A   1      42.969  24.138  25.090  1.00  0.00    -0.206 F 
ATOM     75  C   UNL A   1      42.066  20.816  26.220  1.00  0.00     0.006 A 
ENDBRANCH  47  68
BRANCH  59  76
ATOM     76  C   UNL A   1      48.335  26.661  29.311  1.00  0.00     0.057 A 
ATOM     77  C   UNL A   1      49.185  26.949  28.236  1.00  0.00     0.134 A 
ATOM     78  C   UNL A   1      48.891  26.015  30.422  1.00  0.00     0.134 A 
ATOM     79  F   UNL A   1      48.707  27.554  27.137  1.00  0.00    -0.206 F 
ATOM     80  C   UNL A   1      50.534  26.597  28.260  1.00  0.00     0.040 A 
ATOM     81  C   UNL A   1      50.244  25.676  30.467  1.00  0.00     0.040 A 
ATOM     82  F   UNL A   1      48.130  25.715  31.487  1.00  0.00    -0.206 F 
ATOM     83  C   UNL A   1      51.069  25.965  29.381  1.00  0.00     0.006 A 
ENDBRANCH  59  76
ENDBRANCH  33  34
ENDBRANCH  25  28
ENDBRANCH  23  24
ENDBRANCH  22  23
ENDBRANCH  21  22
ENDBRANCH   1  21
TORSDOF 16
ENDMDL
