MODEL 1
REMARK VINA RESULT:     -12.3      0.000      0.000
REMARK SMILES Cc1c(CC(=O)N[C@H](CO)C(=O)NCCCCNC(=O)c2ccc(-c3c4nc(c(-c5c(F)cccc5F)c5ccc([nH]5)c(-c5c(F)cccc5F)c5nc(c(-c6c(F)cccc6F)c6ccc3[nH]6)C=C5)C=C4)cc2)cc(-c2ccc(S(C)(=O)=O)cc2)n1-c1ccc(F)cc1
REMARK SMILES IDX 14 1 13 2 11 3 12 4 8 6 7 7 5 8 6 9 4 11 3 12 1 13 2 14
REMARK SMILES IDX 87 15 75 16 76 17 88 18 89 19 94 20 90 21 93 22 91 23 92 24
REMARK SMILES IDX 77 25 78 26 86 27 79 28 85 29 80 30 81 31 82 32 83 33 84 34
REMARK SMILES IDX 9 35 10 36 15 38 16 39 17 40 18 41 19 42 20 44 21 45 22 46
REMARK SMILES IDX 74 47 23 48 73 49 24 50 25 51 26 52 67 53 27 54 72 55 66 56
REMARK SMILES IDX 68 57 28 58 71 59 65 60 64 61 29 63 55 64 38 65 54 66 39 67
REMARK SMILES IDX 42 68 53 69 69 70 40 71 41 72 52 74 70 75 43 76 30 77 31 78
REMARK SMILES IDX 36 79 32 80 33 81 35 82 37 83 34 84 56 85 57 86 62 87 58 88
REMARK SMILES IDX 59 89 61 90 63 91 60 92 44 93 45 94 50 95 46 96 47 97 49 98
REMARK SMILES IDX 51 99 48 100
REMARK H PARENT 13 5 7 10 10 37 18 43 68 62 42 73
REMARK Flexibility Score: inf
ROOT
ATOM      1  C   UNL A   1      31.292  26.274  25.780  1.00  0.00     0.116 C 
ENDROOT
BRANCH   1   2
ATOM      2  N   UNL A   1      30.182  26.724  24.884  1.00  0.00    -0.354 N 
ATOM      3  C   UNL A   1      29.798  27.218  23.678  1.00  0.00     0.244 C 
ATOM      4  O   UNL A   1      28.563  27.059  23.552  1.00  0.00    -0.273 OA
ATOM      5  H   UNL A   1      29.354  26.608  25.403  1.00  0.00     0.163 HD
BRANCH   3   6
ATOM      6  C   UNL A   1      30.503  28.038  22.494  1.00  0.00     0.197 C 
BRANCH   6   7
ATOM      7  N   UNL A   1      31.929  28.341  22.348  1.00  0.00    -0.342 N 
ATOM      8  C   UNL A   1      32.942  27.494  22.709  1.00  0.00     0.225 C 
ATOM      9  O   UNL A   1      33.955  27.946  23.238  1.00  0.00    -0.275 OA
ATOM     10  H   UNL A   1      32.176  29.214  21.965  1.00  0.00     0.164 HD
BRANCH   8  11
ATOM     11  C   UNL A   1      32.806  26.064  22.284  1.00  0.00     0.137 C 
BRANCH  11  12
ATOM     12  C   UNL A   1      33.452  24.995  23.110  1.00  0.00    -0.017 A 
ATOM     13  C   UNL A   1      31.427  23.418  23.202  1.00  0.00     0.065 C 
ATOM     14  C   UNL A   1      32.844  23.808  23.474  1.00  0.00     0.024 A 
ATOM     15  N   UNL A   1      33.737  23.059  24.232  1.00  0.00    -0.314 N 
ATOM     16  C   UNL A   1      34.687  25.009  23.823  1.00  0.00     0.033 A 
ATOM     17  C   UNL A   1      34.918  23.776  24.389  1.00  0.00     0.053 A 
BRANCH  15  18
ATOM     18  C   UNL A   1      33.503  21.770  24.753  1.00  0.00     0.046 A 
ATOM     19  C   UNL A   1      33.302  20.695  23.876  1.00  0.00     0.029 A 
ATOM     20  C   UNL A   1      33.426  21.603  26.138  1.00  0.00     0.029 A 
ATOM     21  C   UNL A   1      33.025  19.438  24.402  1.00  0.00     0.041 A 
ATOM     22  C   UNL A   1      33.143  20.344  26.652  1.00  0.00     0.041 A 
ATOM     23  C   UNL A   1      32.946  19.276  25.782  1.00  0.00     0.123 A 
ATOM     24  F   UNL A   1      32.666  18.068  26.285  1.00  0.00    -0.207 F 
ENDBRANCH  15  18
BRANCH  17  25
ATOM     25  C   UNL A   1      36.201  23.237  24.877  1.00  0.00    -0.001 A 
ATOM     26  C   UNL A   1      36.665  22.017  24.358  1.00  0.00     0.011 A 
ATOM     27  C   UNL A   1      37.002  23.922  25.803  1.00  0.00     0.011 A 
ATOM     28  C   UNL A   1      37.864  21.455  24.798  1.00  0.00     0.021 A 
ATOM     29  C   UNL A   1      38.206  23.358  26.258  1.00  0.00     0.021 A 
ATOM     30  C   UNL A   1      38.618  22.115  25.768  1.00  0.00     0.067 A 
BRANCH  30  31
ATOM     31  S   UNL A   1      40.122  21.353  26.335  1.00  0.00     0.175 S 
ATOM     32  C   UNL A   1      39.910  19.631  25.954  1.00  0.00     0.163 C 
ATOM     33  O   UNL A   1      41.192  21.872  25.518  1.00  0.00    -0.224 OA
ATOM     34  O   UNL A   1      40.156  21.472  27.788  1.00  0.00    -0.224 OA
ENDBRANCH  30  31
ENDBRANCH  17  25
ENDBRANCH  11  12
ENDBRANCH   8  11
ENDBRANCH   6   7
BRANCH   6  35
ATOM     35  C   UNL A   1      29.709  29.283  21.927  1.00  0.00     0.191 C 
BRANCH  35  36
ATOM     36  O   UNL A   1      30.334  30.541  22.095  1.00  0.00    -0.394 OA
ATOM     37  H   UNL A   1      29.734  31.243  21.796  1.00  0.00     0.210 HD
ENDBRANCH  35  36
ENDBRANCH   6  35
ENDBRANCH   3   6
ENDBRANCH   1   2
BRANCH   1  38
ATOM     38  C   UNL A   1      31.616  27.227  26.967  1.00  0.00     0.023 C 
BRANCH  38  39
ATOM     39  C   UNL A   1      32.822  28.225  26.891  1.00  0.00     0.023 C 
BRANCH  39  40
ATOM     40  C   UNL A   1      32.683  29.531  26.077  1.00  0.00     0.116 C 
BRANCH  40  41
ATOM     41  N   UNL A   1      32.643  30.742  26.910  1.00  0.00    -0.352 N 
ATOM     42  C   UNL A   1      33.564  31.512  27.605  1.00  0.00     0.251 C 
ATOM     43  H   UNL A   1      31.729  31.099  26.996  1.00  0.00     0.163 HD
ATOM     44  O   UNL A   1      33.124  32.532  28.146  1.00  0.00    -0.269 OA
BRANCH  42  45
ATOM     45  C   UNL A   1      35.039  31.230  27.761  1.00  0.00     0.039 A 
ATOM     46  C   UNL A   1      35.530  29.914  27.702  1.00  0.00     0.014 A 
ATOM     47  C   UNL A   1      35.970  32.173  28.143  1.00  0.00     0.014 A 
ATOM     48  C   UNL A   1      36.896  29.557  28.040  1.00  0.00     0.010 A 
ATOM     49  C   UNL A   1      37.339  31.802  28.453  1.00  0.00     0.010 A 
ATOM     50  C   UNL A   1      37.868  30.471  28.523  1.00  0.00    -0.014 A 
BRANCH  50  51
ATOM     51  C   UNL A   1      39.077  29.855  29.523  1.00  0.00     0.031 A 
ATOM     52  C   UNL A   1      38.437  29.742  30.899  1.00  0.00     0.074 A 
ATOM     53  C   UNL A   1      40.464  29.811  29.815  1.00  0.00     0.049 A 
ATOM     54  N   UNL A   1      38.816  30.645  31.753  1.00  0.00    -0.248 NA
ATOM     55  C   UNL A   1      37.091  29.235  31.170  1.00  0.00     0.031 C 
ATOM     56  C   UNL A   1      41.051  29.042  30.988  1.00  0.00     0.029 A 
ATOM     57  N   UNL A   1      41.654  30.400  29.339  1.00  0.00    -0.354 N 
ATOM     58  C   UNL A   1      37.647  31.273  32.050  1.00  0.00     0.074 A 
ATOM     59  C   UNL A   1      36.599  30.281  31.847  1.00  0.00     0.031 C 
ATOM     60  C   UNL A   1      42.394  29.187  31.103  1.00  0.00     0.029 A 
ATOM     61  C   UNL A   1      42.870  30.099  30.082  1.00  0.00     0.049 A 
ATOM     62  H   UNL A   1      41.663  30.983  28.546  1.00  0.00     0.167 HD
ATOM     63  C   UNL A   1      37.610  32.629  32.091  1.00  0.00     0.037 A 
ATOM     64  C   UNL A   1      44.131  30.662  29.999  1.00  0.00     0.037 A 
ATOM     65  C   UNL A   1      38.745  33.299  31.441  1.00  0.00     0.049 A 
ATOM     66  C   UNL A   1      43.802  32.105  30.173  1.00  0.00     0.074 A 
ATOM     67  C   UNL A   1      39.399  33.170  30.233  1.00  0.00     0.029 A 
ATOM     68  N   UNL A   1      39.598  34.157  32.113  1.00  0.00    -0.354 N 
ATOM     69  N   UNL A   1      43.750  32.733  31.317  1.00  0.00    -0.248 NA
ATOM     70  C   UNL A   1      43.531  32.897  28.983  1.00  0.00     0.031 C 
ATOM     71  C   UNL A   1      40.234  34.273  30.015  1.00  0.00     0.029 A 
ATOM     72  C   UNL A   1      40.717  34.403  31.298  1.00  0.00     0.049 A 
ATOM     73  H   UNL A   1      39.448  34.531  33.012  1.00  0.00     0.167 HD
ATOM     74  C   UNL A   1      43.057  33.887  31.009  1.00  0.00     0.074 A 
ATOM     75  C   UNL A   1      43.148  34.027  29.565  1.00  0.00     0.031 C 
ATOM     76  C   UNL A   1      42.055  34.301  31.833  1.00  0.00     0.037 A 
BRANCH  63  77
ATOM     77  C   UNL A   1      36.447  33.374  32.659  1.00  0.00     0.057 A 
ATOM     78  C   UNL A   1      36.207  33.506  34.040  1.00  0.00     0.134 A 
ATOM     79  C   UNL A   1      35.665  34.188  31.826  1.00  0.00     0.134 A 
ATOM     80  F   UNL A   1      36.905  32.831  34.962  1.00  0.00    -0.206 F 
ATOM     81  C   UNL A   1      35.295  34.420  34.557  1.00  0.00     0.040 A 
ATOM     82  C   UNL A   1      34.810  35.164  32.337  1.00  0.00     0.040 A 
ATOM     83  F   UNL A   1      35.747  34.113  30.489  1.00  0.00    -0.206 F 
ATOM     84  C   UNL A   1      34.634  35.291  33.707  1.00  0.00     0.006 A 
ENDBRANCH  63  77
BRANCH  64  85
ATOM     85  C   UNL A   1      45.632  30.498  30.299  1.00  0.00     0.057 A 
ATOM     86  C   UNL A   1      46.334  30.267  31.487  1.00  0.00     0.134 A 
ATOM     87  C   UNL A   1      46.492  30.649  29.165  1.00  0.00     0.134 A 
ATOM     88  F   UNL A   1      45.689  30.125  32.653  1.00  0.00    -0.206 F 
ATOM     89  C   UNL A   1      47.761  30.182  31.527  1.00  0.00     0.040 A 
ATOM     90  C   UNL A   1      47.895  30.596  29.192  1.00  0.00     0.040 A 
ATOM     91  F   UNL A   1      45.969  30.837  27.942  1.00  0.00    -0.206 F 
ATOM     92  C   UNL A   1      48.545  30.344  30.382  1.00  0.00     0.006 A 
ENDBRANCH  64  85
BRANCH  76  93
ATOM     93  C   UNL A   1      42.284  34.198  33.290  1.00  0.00     0.057 A 
ATOM     94  C   UNL A   1      42.672  35.359  33.955  1.00  0.00     0.134 A 
ATOM     95  C   UNL A   1      41.917  33.085  34.054  1.00  0.00     0.134 A 
ATOM     96  F   UNL A   1      43.043  36.447  33.262  1.00  0.00    -0.206 F 
ATOM     97  C   UNL A   1      42.597  35.448  35.341  1.00  0.00     0.040 A 
ATOM     98  C   UNL A   1      41.805  33.172  35.438  1.00  0.00     0.040 A 
ATOM     99  F   UNL A   1      41.539  31.939  33.470  1.00  0.00    -0.206 F 
ATOM    100  C   UNL A   1      42.128  34.364  36.083  1.00  0.00     0.006 A 
ENDBRANCH  76  93
ENDBRANCH  50  51
ENDBRANCH  42  45
ENDBRANCH  40  41
ENDBRANCH  39  40
ENDBRANCH  38  39
ENDBRANCH   1  38
TORSDOF 19
ENDMDL
MODEL 2
REMARK VINA RESULT:     -12.0      2.495      4.013
REMARK SMILES Cc1c(CC(=O)N[C@H](CO)C(=O)NCCCCNC(=O)c2ccc(-c3c4nc(c(-c5c(F)cccc5F)c5ccc([nH]5)c(-c5c(F)cccc5F)c5nc(c(-c6c(F)cccc6F)c6ccc3[nH]6)C=C5)C=C4)cc2)cc(-c2ccc(S(C)(=O)=O)cc2)n1-c1ccc(F)cc1
REMARK SMILES IDX 14 1 13 2 11 3 12 4 8 6 7 7 5 8 6 9 4 11 3 12 1 13 2 14
REMARK SMILES IDX 87 15 75 16 76 17 88 18 89 19 94 20 90 21 93 22 91 23 92 24
REMARK SMILES IDX 77 25 78 26 86 27 79 28 85 29 80 30 81 31 82 32 83 33 84 34
REMARK SMILES IDX 9 35 10 36 15 38 16 39 17 40 18 41 19 42 20 44 21 45 22 46
REMARK SMILES IDX 74 47 23 48 73 49 24 50 25 51 26 52 67 53 27 54 72 55 66 56
REMARK SMILES IDX 68 57 28 58 71 59 65 60 64 61 29 63 55 64 38 65 54 66 39 67
REMARK SMILES IDX 42 68 53 69 69 70 40 71 41 72 52 74 70 75 43 76 30 77 31 78
REMARK SMILES IDX 36 79 32 80 33 81 35 82 37 83 34 84 56 85 57 86 62 87 58 88
REMARK SMILES IDX 59 89 61 90 63 91 60 92 44 93 45 94 50 95 46 96 47 97 49 98
REMARK SMILES IDX 51 99 48 100
REMARK H PARENT 13 5 7 10 10 37 18 43 68 62 42 73
REMARK Flexibility Score: inf
ROOT
ATOM      1  C   UNL A   1      31.851  27.935  27.643  1.00  0.00     0.116 C 
ENDROOT
BRANCH   1   2
ATOM      2  N   UNL A   1      30.942  26.991  26.920  1.00  0.00    -0.354 N 
ATOM      3  C   UNL A   1      30.491  26.498  25.737  1.00  0.00     0.244 C 
ATOM      4  O   UNL A   1      29.868  25.435  25.955  1.00  0.00    -0.273 OA
ATOM      5  H   UNL A   1      30.447  26.507  27.620  1.00  0.00     0.163 HD
BRANCH   3   6
ATOM      6  C   UNL A   1      30.459  27.007  24.217  1.00  0.00     0.197 C 
BRANCH   6   7
ATOM      7  N   UNL A   1      31.393  27.930  23.568  1.00  0.00    -0.342 N 
ATOM      8  C   UNL A   1      32.683  27.619  23.232  1.00  0.00     0.225 C 
ATOM      9  O   UNL A   1      33.571  28.455  23.382  1.00  0.00    -0.275 OA
ATOM     10  H   UNL A   1      31.072  28.837  23.360  1.00  0.00     0.164 HD
BRANCH   8  11
ATOM     11  C   UNL A   1      32.900  26.305  22.546  1.00  0.00     0.137 C 
BRANCH  11  12
ATOM     12  C   UNL A   1      33.511  25.175  23.315  1.00  0.00    -0.017 A 
ATOM     13  C   UNL A   1      31.433  23.665  23.337  1.00  0.00     0.065 C 
ATOM     14  C   UNL A   1      32.863  23.993  23.622  1.00  0.00     0.024 A 
ATOM     15  N   UNL A   1      33.732  23.177  24.338  1.00  0.00    -0.314 N 
ATOM     16  C   UNL A   1      34.748  25.111  24.022  1.00  0.00     0.033 A 
ATOM     17  C   UNL A   1      34.938  23.844  24.526  1.00  0.00     0.053 A 
BRANCH  15  18
ATOM     18  C   UNL A   1      33.455  21.872  24.795  1.00  0.00     0.046 A 
ATOM     19  C   UNL A   1      33.429  21.611  26.172  1.00  0.00     0.029 A 
ATOM     20  C   UNL A   1      33.261  20.853  23.858  1.00  0.00     0.029 A 
ATOM     21  C   UNL A   1      33.201  20.310  26.608  1.00  0.00     0.041 A 
ATOM     22  C   UNL A   1      33.040  19.557  24.305  1.00  0.00     0.041 A 
ATOM     23  C   UNL A   1      33.012  19.298  25.672  1.00  0.00     0.123 A 
ATOM     24  F   UNL A   1      32.806  18.046  26.095  1.00  0.00    -0.207 F 
ENDBRANCH  15  18
BRANCH  17  25
ATOM     25  C   UNL A   1      36.203  23.238  24.980  1.00  0.00    -0.001 A 
ATOM     26  C   UNL A   1      36.966  23.907  25.950  1.00  0.00     0.011 A 
ATOM     27  C   UNL A   1      36.648  21.990  24.518  1.00  0.00     0.011 A 
ATOM     28  C   UNL A   1      38.178  23.386  26.402  1.00  0.00     0.021 A 
ATOM     29  C   UNL A   1      37.872  21.462  24.961  1.00  0.00     0.021 A 
ATOM     30  C   UNL A   1      38.641  22.176  25.884  1.00  0.00     0.067 A 
BRANCH  30  31
ATOM     31  S   UNL A   1      40.209  21.556  26.453  1.00  0.00     0.175 S 
ATOM     32  C   UNL A   1      40.637  22.625  27.806  1.00  0.00     0.163 C 
ATOM     33  O   UNL A   1      39.975  20.232  26.976  1.00  0.00    -0.224 OA
ATOM     34  O   UNL A   1      41.185  21.789  25.395  1.00  0.00    -0.224 OA
ENDBRANCH  30  31
ENDBRANCH  17  25
ENDBRANCH  11  12
ENDBRANCH   8  11
ENDBRANCH   6   7
BRANCH   6  35
ATOM     35  C   UNL A   1      29.031  27.287  23.597  1.00  0.00     0.191 C 
BRANCH  35  36
ATOM     36  O   UNL A   1      28.033  26.328  23.887  1.00  0.00    -0.394 OA
ATOM     37  H   UNL A   1      27.290  26.438  23.274  1.00  0.00     0.210 HD
ENDBRANCH  35  36
ENDBRANCH   6  35
ENDBRANCH   3   6
ENDBRANCH   1   2
BRANCH   1  38
ATOM     38  C   UNL A   1      32.143  29.273  26.904  1.00  0.00     0.023 C 
BRANCH  38  39
ATOM     39  C   UNL A   1      33.553  29.950  26.996  1.00  0.00     0.023 C 
BRANCH  39  40
ATOM     40  C   UNL A   1      33.660  31.443  27.383  1.00  0.00     0.116 C 
BRANCH  40  41
ATOM     41  N   UNL A   1      34.122  31.661  28.763  1.00  0.00    -0.352 N 
ATOM     42  C   UNL A   1      35.306  31.489  29.462  1.00  0.00     0.251 C 
ATOM     43  H   UNL A   1      33.407  32.022  29.335  1.00  0.00     0.163 HD
ATOM     44  O   UNL A   1      35.305  31.871  30.637  1.00  0.00    -0.269 OA
BRANCH  42  45
ATOM     45  C   UNL A   1      36.587  30.891  28.933  1.00  0.00     0.039 A 
ATOM     46  C   UNL A   1      36.568  29.706  28.177  1.00  0.00     0.014 A 
ATOM     47  C   UNL A   1      37.847  31.327  29.284  1.00  0.00     0.014 A 
ATOM     48  C   UNL A   1      37.768  28.975  27.810  1.00  0.00     0.010 A 
ATOM     49  C   UNL A   1      39.038  30.598  28.887  1.00  0.00     0.010 A 
ATOM     50  C   UNL A   1      39.079  29.330  28.219  1.00  0.00    -0.014 A 
BRANCH  50  51
ATOM     51  C   UNL A   1      40.207  28.085  28.363  1.00  0.00     0.031 A 
ATOM     52  C   UNL A   1      40.045  27.564  29.784  1.00  0.00     0.074 A 
ATOM     53  C   UNL A   1      41.484  27.595  27.989  1.00  0.00     0.049 A 
ATOM     54  N   UNL A   1      40.993  27.909  30.603  1.00  0.00    -0.248 NA
ATOM     55  C   UNL A   1      38.770  27.325  30.460  1.00  0.00     0.031 C 
ATOM     56  C   UNL A   1      42.068  26.291  28.510  1.00  0.00     0.029 A 
ATOM     57  N   UNL A   1      42.591  28.027  27.230  1.00  0.00    -0.354 N 
ATOM     58  C   UNL A   1      40.317  28.613  31.549  1.00  0.00     0.074 A 
ATOM     59  C   UNL A   1      38.962  28.077  31.553  1.00  0.00     0.031 C 
ATOM     60  C   UNL A   1      43.324  26.051  28.060  1.00  0.00     0.029 A 
ATOM     61  C   UNL A   1      43.764  27.164  27.243  1.00  0.00     0.049 A 
ATOM     62  H   UNL A   1      42.572  28.868  26.718  1.00  0.00     0.167 HD
ATOM     63  C   UNL A   1      40.821  29.794  31.989  1.00  0.00     0.037 A 
ATOM     64  C   UNL A   1      45.048  27.393  26.779  1.00  0.00     0.037 A 
ATOM     65  C   UNL A   1      41.856  30.384  31.128  1.00  0.00     0.049 A 
ATOM     66  C   UNL A   1      45.374  28.664  27.485  1.00  0.00     0.074 A 
ATOM     67  C   UNL A   1      41.990  30.620  29.775  1.00  0.00     0.029 A 
ATOM     68  N   UNL A   1      43.140  30.653  31.571  1.00  0.00    -0.354 N 
ATOM     69  N   UNL A   1      45.935  28.749  28.661  1.00  0.00    -0.248 NA
ATOM     70  C   UNL A   1      45.068  29.920  26.818  1.00  0.00     0.031 C 
ATOM     71  C   UNL A   1      43.070  31.479  29.539  1.00  0.00     0.029 A 
ATOM     72  C   UNL A   1      43.945  30.943  30.456  1.00  0.00     0.049 A 
ATOM     73  H   UNL A   1      43.439  30.642  32.509  1.00  0.00     0.167 HD
ATOM     74  C   UNL A   1      45.681  30.055  29.034  1.00  0.00     0.074 A 
ATOM     75  C   UNL A   1      45.356  30.760  27.805  1.00  0.00     0.031 C 
ATOM     76  C   UNL A   1      45.234  30.312  30.294  1.00  0.00     0.037 A 
BRANCH  63  77
ATOM     77  C   UNL A   1      40.281  30.487  33.196  1.00  0.00     0.057 A 
ATOM     78  C   UNL A   1      40.510  30.046  34.513  1.00  0.00     0.134 A 
ATOM     79  C   UNL A   1      39.712  31.764  33.073  1.00  0.00     0.134 A 
ATOM     80  F   UNL A   1      41.088  28.871  34.790  1.00  0.00    -0.206 F 
ATOM     81  C   UNL A   1      40.244  30.838  35.625  1.00  0.00     0.040 A 
ATOM     82  C   UNL A   1      39.519  32.596  34.174  1.00  0.00     0.040 A 
ATOM     83  F   UNL A   1      39.382  32.276  31.878  1.00  0.00    -0.206 F 
ATOM     84  C   UNL A   1      39.799  32.139  35.455  1.00  0.00     0.006 A 
ENDBRANCH  63  77
BRANCH  64  85
ATOM     85  C   UNL A   1      46.380  26.767  26.328  1.00  0.00     0.057 A 
ATOM     86  C   UNL A   1      47.296  25.935  26.980  1.00  0.00     0.134 A 
ATOM     87  C   UNL A   1      46.797  27.128  25.007  1.00  0.00     0.134 A 
ATOM     88  F   UNL A   1      47.079  25.518  28.235  1.00  0.00    -0.206 F 
ATOM     89  C   UNL A   1      48.508  25.497  26.357  1.00  0.00     0.040 A 
ATOM     90  C   UNL A   1      47.996  26.730  24.392  1.00  0.00     0.040 A 
ATOM     91  F   UNL A   1      46.007  27.891  24.235  1.00  0.00    -0.206 F 
ATOM     92  C   UNL A   1      48.860  25.891  25.064  1.00  0.00     0.006 A 
ENDBRANCH  64  85
BRANCH  76  93
ATOM     93  C   UNL A   1      45.855  29.559  31.405  1.00  0.00     0.057 A 
ATOM     94  C   UNL A   1      46.860  30.203  32.125  1.00  0.00     0.134 A 
ATOM     95  C   UNL A   1      45.344  28.357  31.906  1.00  0.00     0.134 A 
ATOM     96  F   UNL A   1      47.388  31.353  31.676  1.00  0.00    -0.206 F 
ATOM     97  C   UNL A   1      47.272  29.722  33.363  1.00  0.00     0.040 A 
ATOM     98  C   UNL A   1      45.722  27.885  33.159  1.00  0.00     0.040 A 
ATOM     99  F   UNL A   1      44.380  27.691  31.255  1.00  0.00    -0.206 F 
ATOM    100  C   UNL A   1      46.676  28.581  33.899  1.00  0.00     0.006 A 
ENDBRANCH  76  93
ENDBRANCH  50  51
ENDBRANCH  42  45
ENDBRANCH  40  41
ENDBRANCH  39  40
ENDBRANCH  38  39
ENDBRANCH   1  38
TORSDOF 19
ENDMDL
MODEL 3
REMARK VINA RESULT:     -11.4      3.416      7.113
REMARK SMILES Cc1c(CC(=O)N[C@H](CO)C(=O)NCCCCNC(=O)c2ccc(-c3c4nc(c(-c5c(F)cccc5F)c5ccc([nH]5)c(-c5c(F)cccc5F)c5nc(c(-c6c(F)cccc6F)c6ccc3[nH]6)C=C5)C=C4)cc2)cc(-c2ccc(S(C)(=O)=O)cc2)n1-c1ccc(F)cc1
REMARK SMILES IDX 14 1 13 2 11 3 12 4 8 6 7 7 5 8 6 9 4 11 3 12 1 13 2 14
REMARK SMILES IDX 87 15 75 16 76 17 88 18 89 19 94 20 90 21 93 22 91 23 92 24
REMARK SMILES IDX 77 25 78 26 86 27 79 28 85 29 80 30 81 31 82 32 83 33 84 34
REMARK SMILES IDX 9 35 10 36 15 38 16 39 17 40 18 41 19 42 20 44 21 45 22 46
REMARK SMILES IDX 74 47 23 48 73 49 24 50 25 51 26 52 67 53 27 54 72 55 66 56
REMARK SMILES IDX 68 57 28 58 71 59 65 60 64 61 29 63 55 64 38 65 54 66 39 67
REMARK SMILES IDX 42 68 53 69 69 70 40 71 41 72 52 74 70 75 43 76 30 77 31 78
REMARK SMILES IDX 36 79 32 80 33 81 35 82 37 83 34 84 56 85 57 86 62 87 58 88
REMARK SMILES IDX 59 89 61 90 63 91 60 92 44 93 45 94 50 95 46 96 47 97 49 98
REMARK SMILES IDX 51 99 48 100
REMARK H PARENT 13 5 7 10 10 37 18 43 68 62 42 73
REMARK Flexibility Score: inf
ROOT
ATOM      1  C   UNL A   1      36.579  21.834  24.354  1.00  0.00     0.116 C 
ENDROOT
BRANCH   1   2
ATOM      2  N   UNL A   1      35.543  21.532  25.390  1.00  0.00    -0.354 N 
ATOM      3  C   UNL A   1      34.418  20.853  25.738  1.00  0.00     0.244 C 
ATOM      4  O   UNL A   1      34.282  20.908  26.980  1.00  0.00    -0.273 OA
ATOM      5  H   UNL A   1      35.787  22.070  26.178  1.00  0.00     0.163 HD
BRANCH   3   6
ATOM      6  C   UNL A   1      33.214  20.145  24.951  1.00  0.00     0.197 C 
BRANCH   6   7
ATOM      7  N   UNL A   1      31.785  20.454  25.048  1.00  0.00    -0.342 N 
ATOM      8  C   UNL A   1      31.269  21.720  25.122  1.00  0.00     0.225 C 
ATOM      9  O   UNL A   1      30.315  21.947  25.863  1.00  0.00    -0.275 OA
ATOM     10  H   UNL A   1      31.153  19.699  25.063  1.00  0.00     0.164 HD
BRANCH   8  11
ATOM     11  C   UNL A   1      31.816  22.725  24.155  1.00  0.00     0.137 C 
BRANCH  11  12
ATOM     12  C   UNL A   1      31.562  24.181  24.400  1.00  0.00    -0.017 A 
ATOM     13  C   UNL A   1      33.556  24.575  25.970  1.00  0.00     0.065 C 
ATOM     14  C   UNL A   1      32.366  24.999  25.172  1.00  0.00     0.024 A 
ATOM     15  N   UNL A   1      31.831  26.282  25.173  1.00  0.00    -0.314 N 
ATOM     16  C   UNL A   1      30.428  24.980  24.075  1.00  0.00     0.033 A 
ATOM     17  C   UNL A   1      30.659  26.291  24.426  1.00  0.00     0.053 A 
BRANCH  15  18
ATOM     18  C   UNL A   1      32.387  27.409  25.813  1.00  0.00     0.046 A 
ATOM     19  C   UNL A   1      33.569  27.975  25.318  1.00  0.00     0.029 A 
ATOM     20  C   UNL A   1      31.768  27.909  26.963  1.00  0.00     0.029 A 
ATOM     21  C   UNL A   1      34.132  29.057  25.985  1.00  0.00     0.041 A 
ATOM     22  C   UNL A   1      32.342  28.986  27.625  1.00  0.00     0.041 A 
ATOM     23  C   UNL A   1      33.515  29.549  27.132  1.00  0.00     0.123 A 
ATOM     24  F   UNL A   1      34.067  30.582  27.780  1.00  0.00    -0.207 F 
ENDBRANCH  15  18
BRANCH  17  25
ATOM     25  C   UNL A   1      29.944  27.490  23.949  1.00  0.00    -0.001 A 
ATOM     26  C   UNL A   1      30.630  28.714  23.901  1.00  0.00     0.011 A 
ATOM     27  C   UNL A   1      28.618  27.443  23.491  1.00  0.00     0.011 A 
ATOM     28  C   UNL A   1      29.996  29.881  23.474  1.00  0.00     0.021 A 
ATOM     29  C   UNL A   1      27.970  28.615  23.068  1.00  0.00     0.021 A 
ATOM     30  C   UNL A   1      28.657  29.832  23.084  1.00  0.00     0.067 A 
BRANCH  30  31
ATOM     31  S   UNL A   1      27.866  31.344  22.581  1.00  0.00     0.175 S 
ATOM     32  C   UNL A   1      29.164  32.555  22.633  1.00  0.00     0.163 C 
ATOM     33  O   UNL A   1      27.460  31.171  21.207  1.00  0.00    -0.224 OA
ATOM     34  O   UNL A   1      26.901  31.702  23.614  1.00  0.00    -0.224 OA
ENDBRANCH  30  31
ENDBRANCH  17  25
ENDBRANCH  11  12
ENDBRANCH   8  11
ENDBRANCH   6   7
BRANCH   6  35
ATOM     35  C   UNL A   1      33.332  18.582  24.738  1.00  0.00     0.191 C 
BRANCH  35  36
ATOM     36  O   UNL A   1      34.601  18.017  25.005  1.00  0.00    -0.394 OA
ATOM     37  H   UNL A   1      35.003  18.469  25.763  1.00  0.00     0.210 HD
ENDBRANCH  35  36
ENDBRANCH   6  35
ENDBRANCH   3   6
ENDBRANCH   1   2
BRANCH   1  38
ATOM     38  C   UNL A   1      37.882  22.494  24.890  1.00  0.00     0.023 C 
BRANCH  38  39
ATOM     39  C   UNL A   1      37.821  23.664  25.930  1.00  0.00     0.023 C 
BRANCH  39  40
ATOM     40  C   UNL A   1      39.070  23.999  26.778  1.00  0.00     0.116 C 
BRANCH  40  41
ATOM     41  N   UNL A   1      39.987  24.947  26.127  1.00  0.00    -0.352 N 
ATOM     42  C   UNL A   1      40.580  26.155  26.457  1.00  0.00     0.251 C 
ATOM     43  H   UNL A   1      40.246  24.645  25.226  1.00  0.00     0.163 HD
ATOM     44  O   UNL A   1      41.373  26.617  25.630  1.00  0.00    -0.269 OA
BRANCH  42  45
ATOM     45  C   UNL A   1      40.358  26.953  27.719  1.00  0.00     0.039 A 
ATOM     46  C   UNL A   1      41.401  27.707  28.287  1.00  0.00     0.014 A 
ATOM     47  C   UNL A   1      39.222  26.871  28.497  1.00  0.00     0.014 A 
ATOM     48  C   UNL A   1      41.313  28.330  29.595  1.00  0.00     0.010 A 
ATOM     49  C   UNL A   1      39.141  27.523  29.791  1.00  0.00     0.010 A 
ATOM     50  C   UNL A   1      40.204  28.204  30.471  1.00  0.00    -0.014 A 
BRANCH  50  51
ATOM     51  C   UNL A   1      40.510  28.321  32.125  1.00  0.00     0.031 A 
ATOM     52  C   UNL A   1      39.188  28.750  32.745  1.00  0.00     0.074 A 
ATOM     53  C   UNL A   1      41.452  28.642  33.134  1.00  0.00     0.049 A 
ATOM     54  N   UNL A   1      39.140  29.992  33.123  1.00  0.00    -0.248 NA
ATOM     55  C   UNL A   1      37.873  28.212  32.396  1.00  0.00     0.031 C 
ATOM     56  C   UNL A   1      41.136  28.603  34.621  1.00  0.00     0.029 A 
ATOM     57  N   UNL A   1      42.773  29.132  33.218  1.00  0.00    -0.354 N 
ATOM     58  C   UNL A   1      38.124  30.487  32.367  1.00  0.00     0.074 A 
ATOM     59  C   UNL A   1      37.247  29.357  32.091  1.00  0.00     0.031 C 
ATOM     60  C   UNL A   1      42.173  29.002  35.399  1.00  0.00     0.029 A 
ATOM     61  C   UNL A   1      43.279  29.408  34.556  1.00  0.00     0.049 A 
ATOM     62  H   UNL A   1      43.323  29.279  32.416  1.00  0.00     0.167 HD
ATOM     63  C   UNL A   1      38.276  31.684  31.747  1.00  0.00     0.037 A 
ATOM     64  C   UNL A   1      44.427  30.067  34.959  1.00  0.00     0.037 A 
ATOM     65  C   UNL A   1      39.664  32.156  31.644  1.00  0.00     0.049 A 
ATOM     66  C   UNL A   1      44.281  31.353  34.222  1.00  0.00     0.074 A 
ATOM     67  C   UNL A   1      40.864  31.595  31.257  1.00  0.00     0.029 A 
ATOM     68  N   UNL A   1      40.095  33.353  32.190  1.00  0.00    -0.354 N 
ATOM     69  N   UNL A   1      43.678  32.418  34.678  1.00  0.00    -0.248 NA
ATOM     70  C   UNL A   1      44.865  31.455  32.893  1.00  0.00     0.031 C 
ATOM     71  C   UNL A   1      41.828  32.594  31.075  1.00  0.00     0.029 A 
ATOM     72  C   UNL A   1      41.501  33.375  32.161  1.00  0.00     0.049 A 
ATOM     73  H   UNL A   1      39.516  34.067  32.540  1.00  0.00     0.167 HD
ATOM     74  C   UNL A   1      43.472  33.172  33.539  1.00  0.00     0.074 A 
ATOM     75  C   UNL A   1      44.395  32.647  32.546  1.00  0.00     0.031 C 
ATOM     76  C   UNL A   1      42.255  33.748  33.335  1.00  0.00     0.037 A 
BRANCH  63  77
ATOM     77  C   UNL A   1      37.127  32.406  31.124  1.00  0.00     0.057 A 
ATOM     78  C   UNL A   1      36.717  32.212  29.791  1.00  0.00     0.134 A 
ATOM     79  C   UNL A   1      36.248  33.146  31.929  1.00  0.00     0.134 A 
ATOM     80  F   UNL A   1      37.427  31.489  28.916  1.00  0.00    -0.206 F 
ATOM     81  C   UNL A   1      35.496  32.673  29.309  1.00  0.00     0.040 A 
ATOM     82  C   UNL A   1      34.988  33.540  31.479  1.00  0.00     0.040 A 
ATOM     83  F   UNL A   1      36.549  33.460  33.198  1.00  0.00    -0.206 F 
ATOM     84  C   UNL A   1      34.604  33.291  30.169  1.00  0.00     0.006 A 
ENDBRANCH  63  77
BRANCH  64  85
ATOM     85  C   UNL A   1      45.439  30.305  36.094  1.00  0.00     0.057 A 
ATOM     86  C   UNL A   1      46.832  30.187  36.152  1.00  0.00     0.134 A 
ATOM     87  C   UNL A   1      44.858  30.677  37.349  1.00  0.00     0.134 A 
ATOM     88  F   UNL A   1      47.539  29.822  35.074  1.00  0.00    -0.206 F 
ATOM     89  C   UNL A   1      47.570  30.434  37.353  1.00  0.00     0.040 A 
ATOM     90  C   UNL A   1      45.566  30.895  38.543  1.00  0.00     0.040 A 
ATOM     91  F   UNL A   1      43.534  30.870  37.448  1.00  0.00    -0.206 F 
ATOM     92  C   UNL A   1      46.941  30.789  38.548  1.00  0.00     0.006 A 
ENDBRANCH  64  85
BRANCH  76  93
ATOM     93  C   UNL A   1      41.588  34.365  34.502  1.00  0.00     0.057 A 
ATOM     94  C   UNL A   1      41.705  35.746  34.644  1.00  0.00     0.134 A 
ATOM     95  C   UNL A   1      40.677  33.686  35.318  1.00  0.00     0.134 A 
ATOM     96  F   UNL A   1      42.575  36.435  33.889  1.00  0.00    -0.206 F 
ATOM     97  C   UNL A   1      40.865  36.450  35.500  1.00  0.00     0.040 A 
ATOM     98  C   UNL A   1      39.807  34.383  36.153  1.00  0.00     0.040 A 
ATOM     99  F   UNL A   1      40.524  32.358  35.230  1.00  0.00    -0.206 F 
ATOM    100  C   UNL A   1      39.889  35.771  36.230  1.00  0.00     0.006 A 
ENDBRANCH  76  93
ENDBRANCH  50  51
ENDBRANCH  42  45
ENDBRANCH  40  41
ENDBRANCH  39  40
ENDBRANCH  38  39
ENDBRANCH   1  38
TORSDOF 19
ENDMDL
