MODEL 1
REMARK VINA RESULT:     -12.1      0.000      0.000
REMARK SMILES COC(=O)c1ccc(Cl)c(-c2ccc(F)cc2C(=O)NCCCCNC(=O)c2ccc(-c3c4nc(c(-c5c(F)cccc5F)c5ccc([nH]5)c(-c5c(F)cccc5F)c5nc(c(-c6c(F)cccc6F)c6ccc3[nH]6)C=C5)C=C4)cc2)c1
REMARK SMILES IDX 22 1 21 2 20 3 18 4 19 5 17 7 11 8 12 9 13 10 16 11 14 12
REMARK SMILES IDX 15 13 10 14 5 15 6 16 82 17 7 18 8 19 9 20 3 21 4 22 2 23
REMARK SMILES IDX 1 24 23 25 24 26 25 27 26 28 27 30 28 31 29 32 81 33 30 34
REMARK SMILES IDX 80 35 31 36 32 37 33 38 74 39 34 40 79 41 73 42 75 43 35 44
REMARK SMILES IDX 78 45 72 46 71 47 36 49 62 50 45 51 61 52 46 53 49 54 60 55
REMARK SMILES IDX 76 56 47 57 48 58 59 60 77 61 50 62 37 63 38 64 43 65 39 66
REMARK SMILES IDX 40 67 42 68 44 69 41 70 63 71 64 72 69 73 65 74 66 75 68 76
REMARK SMILES IDX 70 77 67 78 51 79 52 80 57 81 53 82 54 83 56 84 58 85 55 86
REMARK H PARENT 20 6 25 29 75 48 49 59
REMARK Flexibility Score: inf
ROOT
ATOM      1  C   UNL A   1      32.135  30.206  27.195  1.00  0.00     0.023 C 
ENDROOT
BRANCH   1   2
ATOM      2  C   UNL A   1      31.841  29.012  26.300  1.00  0.00     0.116 C 
BRANCH   2   3
ATOM      3  N   UNL A   1      32.446  29.018  24.994  1.00  0.00    -0.352 N 
ATOM      4  C   UNL A   1      31.857  28.970  23.753  1.00  0.00     0.252 C 
ATOM      5  O   UNL A   1      32.593  29.108  22.774  1.00  0.00    -0.269 OA
ATOM      6  H   UNL A   1      33.429  29.063  24.989  1.00  0.00     0.163 HD
BRANCH   4   7
ATOM      7  C   UNL A   1      30.409  28.678  23.501  1.00  0.00     0.050 A 
ATOM      8  C   UNL A   1      29.751  27.422  23.580  1.00  0.00    -0.004 A 
ATOM      9  C   UNL A   1      28.343  27.397  23.423  1.00  0.00     0.012 A 
ATOM     10  C   UNL A   1      27.606  28.559  23.190  1.00  0.00     0.040 A 
ATOM     11  C   UNL A   1      29.642  29.842  23.284  1.00  0.00     0.053 A 
ATOM     12  C   UNL A   1      28.263  29.771  23.126  1.00  0.00     0.124 A 
ATOM     13  F   UNL A   1      27.561  30.893  22.926  1.00  0.00    -0.207 F 
BRANCH   8  14
ATOM     14  C   UNL A   1      30.417  26.135  23.865  1.00  0.00     0.002 A 
ATOM     15  C   UNL A   1      31.001  24.408  25.486  1.00  0.00     0.060 A 
ATOM     16  C   UNL A   1      31.839  23.785  24.556  1.00  0.00     0.017 A 
ATOM     17  C   UNL A   1      30.276  25.555  25.137  1.00  0.00     0.026 A 
ATOM     18  C   UNL A   1      31.942  24.307  23.268  1.00  0.00     0.022 A 
ATOM     19  C   UNL A   1      31.237  25.467  22.921  1.00  0.00     0.048 A 
ATOM     20  Cl  UNL A   1      31.520  26.099  21.331  1.00  0.00    -0.084 Cl
BRANCH  15  21
ATOM     21  C   UNL A   1      30.890  23.922  26.876  1.00  0.00     0.337 C 
ATOM     22  O   UNL A   1      31.832  23.509  27.524  1.00  0.00    -0.246 OA
BRANCH  21  23
ATOM     23  O   UNL A   1      29.580  23.896  27.228  1.00  0.00    -0.465 OA
ATOM     24  C   UNL A   1      29.079  22.576  27.432  1.00  0.00     0.282 C 
ENDBRANCH  21  23
ENDBRANCH  15  21
ENDBRANCH   8  14
ENDBRANCH   4   7
ENDBRANCH   2   3
ENDBRANCH   1   2
BRANCH   1  25
ATOM     25  C   UNL A   1      31.419  31.520  26.884  1.00  0.00     0.023 C 
BRANCH  25  26
ATOM     26  C   UNL A   1      32.255  32.740  26.499  1.00  0.00     0.116 C 
BRANCH  26  27
ATOM     27  N   UNL A   1      32.152  33.878  27.397  1.00  0.00    -0.352 N 
ATOM     28  C   UNL A   1      33.009  34.331  28.376  1.00  0.00     0.251 C 
ATOM     29  H   UNL A   1      31.335  34.415  27.287  1.00  0.00     0.163 HD
ATOM     30  O   UNL A   1      32.736  35.373  28.969  1.00  0.00    -0.269 OA
BRANCH  28  31
ATOM     31  C   UNL A   1      34.213  33.557  28.778  1.00  0.00     0.039 A 
ATOM     32  C   UNL A   1      35.465  34.179  28.670  1.00  0.00     0.014 A 
ATOM     33  C   UNL A   1      34.139  32.253  29.269  1.00  0.00     0.014 A 
ATOM     34  C   UNL A   1      36.613  33.541  29.152  1.00  0.00     0.010 A 
ATOM     35  C   UNL A   1      35.272  31.641  29.809  1.00  0.00     0.010 A 
ATOM     36  C   UNL A   1      36.515  32.289  29.777  1.00  0.00    -0.014 A 
BRANCH  36  37
ATOM     37  C   UNL A   1      37.678  31.678  30.472  1.00  0.00     0.031 A 
ATOM     38  C   UNL A   1      38.522  30.637  29.794  1.00  0.00     0.074 A 
ATOM     39  C   UNL A   1      37.906  31.992  31.764  1.00  0.00     0.049 A 
ATOM     40  N   UNL A   1      39.524  29.945  30.275  1.00  0.00    -0.248 NA
ATOM     41  C   UNL A   1      38.178  30.305  28.402  1.00  0.00     0.031 C 
ATOM     42  C   UNL A   1      37.104  32.926  32.558  1.00  0.00     0.029 A 
ATOM     43  N   UNL A   1      38.859  31.545  32.644  1.00  0.00    -0.354 N 
ATOM     44  C   UNL A   1      39.919  29.088  29.257  1.00  0.00     0.074 A 
ATOM     45  C   UNL A   1      39.026  29.319  28.141  1.00  0.00     0.031 C 
ATOM     46  C   UNL A   1      37.602  32.985  33.804  1.00  0.00     0.029 A 
ATOM     47  C   UNL A   1      38.743  32.082  33.904  1.00  0.00     0.049 A 
ATOM     48  H   UNL A   1      39.561  30.900  32.397  1.00  0.00     0.167 HD
ATOM     49  C   UNL A   1      40.943  28.203  29.249  1.00  0.00     0.037 A 
ATOM     50  C   UNL A   1      39.472  31.871  35.016  1.00  0.00     0.037 A 
ATOM     51  C   UNL A   1      41.852  28.004  30.347  1.00  0.00     0.049 A 
ATOM     52  C   UNL A   1      40.644  30.935  34.959  1.00  0.00     0.074 A 
ATOM     53  C   UNL A   1      42.972  27.193  30.402  1.00  0.00     0.029 A 
ATOM     54  N   UNL A   1      41.746  28.625  31.582  1.00  0.00    -0.354 N 
ATOM     55  N   UNL A   1      41.059  30.198  33.959  1.00  0.00    -0.248 NA
ATOM     56  C   UNL A   1      41.461  30.813  36.176  1.00  0.00     0.031 C 
ATOM     57  C   UNL A   1      43.528  27.299  31.680  1.00  0.00     0.029 A 
ATOM     58  C   UNL A   1      42.776  28.207  32.408  1.00  0.00     0.049 A 
ATOM     59  H   UNL A   1      41.044  29.268  31.835  1.00  0.00     0.167 HD
ATOM     60  C   UNL A   1      42.195  29.543  34.414  1.00  0.00     0.074 A 
ATOM     61  C   UNL A   1      42.412  29.979  35.778  1.00  0.00     0.031 C 
ATOM     62  C   UNL A   1      42.984  28.658  33.759  1.00  0.00     0.037 A 
BRANCH  49  63
ATOM     63  C   UNL A   1      41.164  27.391  28.006  1.00  0.00     0.057 A 
ATOM     64  C   UNL A   1      41.964  27.877  26.965  1.00  0.00     0.134 A 
ATOM     65  C   UNL A   1      40.513  26.168  27.805  1.00  0.00     0.134 A 
ATOM     66  F   UNL A   1      42.611  29.046  27.090  1.00  0.00    -0.206 F 
ATOM     67  C   UNL A   1      42.097  27.183  25.761  1.00  0.00     0.040 A 
ATOM     68  C   UNL A   1      40.655  25.454  26.615  1.00  0.00     0.040 A 
ATOM     69  F   UNL A   1      39.738  25.645  28.767  1.00  0.00    -0.206 F 
ATOM     70  C   UNL A   1      41.441  25.966  25.585  1.00  0.00     0.006 A 
ENDBRANCH  49  63
BRANCH  50  71
ATOM     71  C   UNL A   1      39.136  32.601  36.265  1.00  0.00     0.057 A 
ATOM     72  C   UNL A   1      39.662  33.870  36.536  1.00  0.00     0.134 A 
ATOM     73  C   UNL A   1      38.298  32.030  37.230  1.00  0.00     0.134 A 
ATOM     74  F   UNL A   1      40.480  34.465  35.656  1.00  0.00    -0.206 F 
ATOM     75  C   UNL A   1      39.375  34.539  37.726  1.00  0.00     0.040 A 
ATOM     76  C   UNL A   1      37.986  32.697  38.414  1.00  0.00     0.040 A 
ATOM     77  F   UNL A   1      37.752  30.823  37.018  1.00  0.00    -0.206 F 
ATOM     78  C   UNL A   1      38.531  33.954  38.668  1.00  0.00     0.006 A 
ENDBRANCH  50  71
BRANCH  62  79
ATOM     79  C   UNL A   1      44.172  28.116  34.494  1.00  0.00     0.057 A 
ATOM     80  C   UNL A   1      45.412  28.761  34.417  1.00  0.00     0.134 A 
ATOM     81  C   UNL A   1      44.104  26.921  35.219  1.00  0.00     0.134 A 
ATOM     82  F   UNL A   1      45.545  29.906  33.730  1.00  0.00    -0.206 F 
ATOM     83  C   UNL A   1      46.550  28.228  35.026  1.00  0.00     0.040 A 
ATOM     84  C   UNL A   1      45.229  26.389  35.850  1.00  0.00     0.040 A 
ATOM     85  F   UNL A   1      42.942  26.262  35.337  1.00  0.00    -0.206 F 
ATOM     86  C   UNL A   1      46.458  27.039  35.747  1.00  0.00     0.006 A 
ENDBRANCH  62  79
ENDBRANCH  36  37
ENDBRANCH  28  31
ENDBRANCH  26  27
ENDBRANCH  25  26
ENDBRANCH   1  25
TORSDOF 14
ENDMDL
MODEL 2
REMARK VINA RESULT:     -12.1      0.477      6.202
REMARK SMILES COC(=O)c1ccc(Cl)c(-c2ccc(F)cc2C(=O)NCCCCNC(=O)c2ccc(-c3c4nc(c(-c5c(F)cccc5F)c5ccc([nH]5)c(-c5c(F)cccc5F)c5nc(c(-c6c(F)cccc6F)c6ccc3[nH]6)C=C5)C=C4)cc2)c1
REMARK SMILES IDX 22 1 21 2 20 3 18 4 19 5 17 7 11 8 12 9 13 10 16 11 14 12
REMARK SMILES IDX 15 13 10 14 5 15 6 16 82 17 7 18 8 19 9 20 3 21 4 22 2 23
REMARK SMILES IDX 1 24 23 25 24 26 25 27 26 28 27 30 28 31 29 32 81 33 30 34
REMARK SMILES IDX 80 35 31 36 32 37 33 38 74 39 34 40 79 41 73 42 75 43 35 44
REMARK SMILES IDX 78 45 72 46 71 47 36 49 62 50 45 51 61 52 46 53 49 54 60 55
REMARK SMILES IDX 76 56 47 57 48 58 59 60 77 61 50 62 37 63 38 64 43 65 39 66
REMARK SMILES IDX 40 67 42 68 44 69 41 70 63 71 64 72 69 73 65 74 66 75 68 76
REMARK SMILES IDX 70 77 67 78 51 79 52 80 57 81 53 82 54 83 56 84 58 85 55 86
REMARK H PARENT 20 6 25 29 75 48 49 59
REMARK Flexibility Score: inf
ROOT
ATOM      1  C   UNL A   1      32.102  30.248  27.149  1.00  0.00     0.023 C 
ENDROOT
BRANCH   1   2
ATOM      2  C   UNL A   1      31.786  29.057  26.258  1.00  0.00     0.116 C 
BRANCH   2   3
ATOM      3  N   UNL A   1      32.379  29.056  24.946  1.00  0.00    -0.352 N 
ATOM      4  C   UNL A   1      31.778  28.992  23.711  1.00  0.00     0.252 C 
ATOM      5  O   UNL A   1      32.504  29.126  22.724  1.00  0.00    -0.269 OA
ATOM      6  H   UNL A   1      33.362  29.108  24.931  1.00  0.00     0.163 HD
BRANCH   4   7
ATOM      7  C   UNL A   1      30.330  28.686  23.476  1.00  0.00     0.050 A 
ATOM      8  C   UNL A   1      29.682  27.427  23.575  1.00  0.00    -0.004 A 
ATOM      9  C   UNL A   1      28.273  27.390  23.432  1.00  0.00     0.012 A 
ATOM     10  C   UNL A   1      27.525  28.543  23.192  1.00  0.00     0.040 A 
ATOM     11  C   UNL A   1      29.553  29.842  23.251  1.00  0.00     0.053 A 
ATOM     12  C   UNL A   1      28.173  29.759  23.107  1.00  0.00     0.124 A 
ATOM     13  F   UNL A   1      27.461  30.874  22.900  1.00  0.00    -0.207 F 
BRANCH   8  14
ATOM     14  C   UNL A   1      30.360  26.148  23.870  1.00  0.00     0.002 A 
ATOM     15  C   UNL A   1      30.960  24.438  25.504  1.00  0.00     0.060 A 
ATOM     16  C   UNL A   1      31.804  23.816  24.578  1.00  0.00     0.017 A 
ATOM     17  C   UNL A   1      30.224  25.575  25.146  1.00  0.00     0.026 A 
ATOM     18  C   UNL A   1      31.902  24.330  23.286  1.00  0.00     0.022 A 
ATOM     19  C   UNL A   1      31.186  25.481  22.932  1.00  0.00     0.048 A 
ATOM     20  Cl  UNL A   1      31.463  26.103  21.337  1.00  0.00    -0.084 Cl
BRANCH  15  21
ATOM     21  C   UNL A   1      30.853  23.961  26.897  1.00  0.00     0.337 C 
ATOM     22  O   UNL A   1      31.806  23.621  27.569  1.00  0.00    -0.246 OA
BRANCH  21  23
ATOM     23  O   UNL A   1      29.541  23.849  27.223  1.00  0.00    -0.465 OA
ATOM     24  C   UNL A   1      29.083  22.498  27.257  1.00  0.00     0.282 C 
ENDBRANCH  21  23
ENDBRANCH  15  21
ENDBRANCH   8  14
ENDBRANCH   4   7
ENDBRANCH   2   3
ENDBRANCH   1   2
BRANCH   1  25
ATOM     25  C   UNL A   1      31.397  31.570  26.845  1.00  0.00     0.023 C 
BRANCH  25  26
ATOM     26  C   UNL A   1      32.242  32.777  26.436  1.00  0.00     0.116 C 
BRANCH  26  27
ATOM     27  N   UNL A   1      32.215  33.900  27.358  1.00  0.00    -0.352 N 
ATOM     28  C   UNL A   1      33.112  34.286  28.331  1.00  0.00     0.251 C 
ATOM     29  H   UNL A   1      31.426  34.482  27.274  1.00  0.00     0.163 HD
ATOM     30  O   UNL A   1      32.905  35.328  28.949  1.00  0.00    -0.269 OA
BRANCH  28  31
ATOM     31  C   UNL A   1      34.278  33.441  28.697  1.00  0.00     0.039 A 
ATOM     32  C   UNL A   1      35.556  34.011  28.623  1.00  0.00     0.014 A 
ATOM     33  C   UNL A   1      34.144  32.117  29.120  1.00  0.00     0.014 A 
ATOM     34  C   UNL A   1      36.673  33.300  29.076  1.00  0.00     0.010 A 
ATOM     35  C   UNL A   1      35.247  31.429  29.632  1.00  0.00     0.010 A 
ATOM     36  C   UNL A   1      36.517  32.023  29.637  1.00  0.00    -0.014 A 
BRANCH  36  37
ATOM     37  C   UNL A   1      37.649  31.327  30.303  1.00  0.00     0.031 A 
ATOM     38  C   UNL A   1      38.005  31.628  31.731  1.00  0.00     0.074 A 
ATOM     39  C   UNL A   1      38.424  30.497  29.576  1.00  0.00     0.049 A 
ATOM     40  N   UNL A   1      39.004  31.173  32.445  1.00  0.00    -0.248 NA
ATOM     41  C   UNL A   1      37.146  32.587  32.443  1.00  0.00     0.031 C 
ATOM     42  C   UNL A   1      38.231  30.190  28.156  1.00  0.00     0.029 A 
ATOM     43  N   UNL A   1      39.542  29.779  29.920  1.00  0.00    -0.354 N 
ATOM     44  C   UNL A   1      38.906  31.801  33.680  1.00  0.00     0.074 A 
ATOM     45  C   UNL A   1      37.771  32.697  33.608  1.00  0.00     0.031 C 
ATOM     46  C   UNL A   1      39.193  29.344  27.753  1.00  0.00     0.029 A 
ATOM     47  C   UNL A   1      40.081  29.064  28.876  1.00  0.00     0.049 A 
ATOM     48  H   UNL A   1      39.923  29.776  30.827  1.00  0.00     0.167 HD
ATOM     49  C   UNL A   1      39.681  31.631  34.776  1.00  0.00     0.037 A 
ATOM     50  C   UNL A   1      41.169  28.271  28.828  1.00  0.00     0.037 A 
ATOM     51  C   UNL A   1      40.786  30.711  34.854  1.00  0.00     0.049 A 
ATOM     52  C   UNL A   1      41.971  28.048  30.077  1.00  0.00     0.074 A 
ATOM     53  C   UNL A   1      41.576  30.406  35.948  1.00  0.00     0.029 A 
ATOM     54  N   UNL A   1      41.253  29.947  33.797  1.00  0.00    -0.354 N 
ATOM     55  N   UNL A   1      41.810  28.582  31.263  1.00  0.00    -0.248 NA
ATOM     56  C   UNL A   1      43.093  27.101  29.990  1.00  0.00     0.031 C 
ATOM     57  C   UNL A   1      42.542  29.479  35.547  1.00  0.00     0.029 A 
ATOM     58  C   UNL A   1      42.327  29.178  34.211  1.00  0.00     0.049 A 
ATOM     59  H   UNL A   1      40.877  29.949  32.886  1.00  0.00     0.167 HD
ATOM     60  C   UNL A   1      42.792  28.021  32.069  1.00  0.00     0.074 A 
ATOM     61  C   UNL A   1      43.537  27.097  31.239  1.00  0.00     0.031 C 
ATOM     62  C   UNL A   1      43.052  28.255  33.377  1.00  0.00     0.037 A 
BRANCH  49  63
ATOM     63  C   UNL A   1      39.356  32.435  36.001  1.00  0.00     0.057 A 
ATOM     64  C   UNL A   1      38.404  31.984  36.923  1.00  0.00     0.134 A 
ATOM     65  C   UNL A   1      39.923  33.697  36.220  1.00  0.00     0.134 A 
ATOM     66  F   UNL A   1      37.818  30.787  36.768  1.00  0.00    -0.206 F 
ATOM     67  C   UNL A   1      38.015  32.766  38.012  1.00  0.00     0.040 A 
ATOM     68  C   UNL A   1      39.558  34.479  37.316  1.00  0.00     0.040 A 
ATOM     69  F   UNL A   1      40.846  34.182  35.377  1.00  0.00    -0.206 F 
ATOM     70  C   UNL A   1      38.594  34.018  38.211  1.00  0.00     0.006 A 
ENDBRANCH  49  63
BRANCH  50  71
ATOM     71  C   UNL A   1      41.530  27.597  27.556  1.00  0.00     0.057 A 
ATOM     72  C   UNL A   1      41.113  26.289  27.277  1.00  0.00     0.134 A 
ATOM     73  C   UNL A   1      42.327  28.238  26.600  1.00  0.00     0.134 A 
ATOM     74  F   UNL A   1      40.358  25.617  28.157  1.00  0.00    -0.206 F 
ATOM     75  C   UNL A   1      41.484  25.642  26.097  1.00  0.00     0.040 A 
ATOM     76  C   UNL A   1      42.687  27.610  25.408  1.00  0.00     0.040 A 
ATOM     77  F   UNL A   1      42.744  29.496  26.806  1.00  0.00    -0.206 F 
ATOM     78  C   UNL A   1      42.270  26.305  25.157  1.00  0.00     0.006 A 
ENDBRANCH  50  71
BRANCH  62  79
ATOM     79  C   UNL A   1      44.172  27.485  34.007  1.00  0.00     0.057 A 
ATOM     80  C   UNL A   1      45.479  27.988  33.992  1.00  0.00     0.134 A 
ATOM     81  C   UNL A   1      43.970  26.218  34.564  1.00  0.00     0.134 A 
ATOM     82  F   UNL A   1      45.740  29.194  33.464  1.00  0.00    -0.206 F 
ATOM     83  C   UNL A   1      46.549  27.251  34.500  1.00  0.00     0.040 A 
ATOM     84  C   UNL A   1      45.029  25.479  35.094  1.00  0.00     0.040 A 
ATOM     85  F   UNL A   1      42.739  25.687  34.616  1.00  0.00    -0.206 F 
ATOM     86  C   UNL A   1      46.324  25.993  35.054  1.00  0.00     0.006 A 
ENDBRANCH  62  79
ENDBRANCH  36  37
ENDBRANCH  28  31
ENDBRANCH  26  27
ENDBRANCH  25  26
ENDBRANCH   1  25
TORSDOF 14
ENDMDL
MODEL 3
REMARK VINA RESULT:     -12.0      4.235      7.313
REMARK SMILES COC(=O)c1ccc(Cl)c(-c2ccc(F)cc2C(=O)NCCCCNC(=O)c2ccc(-c3c4nc(c(-c5c(F)cccc5F)c5ccc([nH]5)c(-c5c(F)cccc5F)c5nc(c(-c6c(F)cccc6F)c6ccc3[nH]6)C=C5)C=C4)cc2)c1
REMARK SMILES IDX 22 1 21 2 20 3 18 4 19 5 17 7 11 8 12 9 13 10 16 11 14 12
REMARK SMILES IDX 15 13 10 14 5 15 6 16 82 17 7 18 8 19 9 20 3 21 4 22 2 23
REMARK SMILES IDX 1 24 23 25 24 26 25 27 26 28 27 30 28 31 29 32 81 33 30 34
REMARK SMILES IDX 80 35 31 36 32 37 33 38 74 39 34 40 79 41 73 42 75 43 35 44
REMARK SMILES IDX 78 45 72 46 71 47 36 49 62 50 45 51 61 52 46 53 49 54 60 55
REMARK SMILES IDX 76 56 47 57 48 58 59 60 77 61 50 62 37 63 38 64 43 65 39 66
REMARK SMILES IDX 40 67 42 68 44 69 41 70 63 71 64 72 69 73 65 74 66 75 68 76
REMARK SMILES IDX 70 77 67 78 51 79 52 80 57 81 53 82 54 83 56 84 58 85 55 86
REMARK H PARENT 20 6 25 29 75 48 49 59
REMARK Flexibility Score: inf
ROOT
ATOM      1  C   UNL A   1      34.567  25.086  25.037  1.00  0.00     0.023 C 
ENDROOT
BRANCH   1   2
ATOM      2  C   UNL A   1      33.587  25.237  23.883  1.00  0.00     0.116 C 
BRANCH   2   3
ATOM      3  N   UNL A   1      33.715  26.422  23.077  1.00  0.00    -0.352 N 
ATOM      4  C   UNL A   1      33.661  27.746  23.446  1.00  0.00     0.252 C 
ATOM      5  O   UNL A   1      33.919  28.583  22.579  1.00  0.00    -0.269 OA
ATOM      6  H   UNL A   1      33.863  26.262  22.117  1.00  0.00     0.163 HD
BRANCH   4   7
ATOM      7  C   UNL A   1      33.230  28.244  24.792  1.00  0.00     0.050 A 
ATOM      8  C   UNL A   1      31.913  28.288  25.320  1.00  0.00    -0.004 A 
ATOM      9  C   UNL A   1      31.750  28.685  26.671  1.00  0.00     0.012 A 
ATOM     10  C   UNL A   1      32.836  29.033  27.474  1.00  0.00     0.040 A 
ATOM     11  C   UNL A   1      34.316  28.582  25.627  1.00  0.00     0.053 A 
ATOM     12  C   UNL A   1      34.110  28.975  26.944  1.00  0.00     0.124 A 
ATOM     13  F   UNL A   1      35.160  29.285  27.715  1.00  0.00    -0.207 F 
BRANCH   8  14
ATOM     14  C   UNL A   1      30.693  27.902  24.582  1.00  0.00     0.002 A 
ATOM     15  C   UNL A   1      28.859  28.546  23.108  1.00  0.00     0.060 A 
ATOM     16  C   UNL A   1      28.234  27.311  23.307  1.00  0.00     0.017 A 
ATOM     17  C   UNL A   1      30.089  28.829  23.717  1.00  0.00     0.026 A 
ATOM     18  C   UNL A   1      28.849  26.352  24.109  1.00  0.00     0.022 A 
ATOM     19  C   UNL A   1      30.067  26.639  24.739  1.00  0.00     0.048 A 
ATOM     20  Cl  UNL A   1      30.694  25.423  25.804  1.00  0.00    -0.084 Cl
BRANCH  15  21
ATOM     21  C   UNL A   1      28.230  29.612  22.304  1.00  0.00     0.337 C 
ATOM     22  O   UNL A   1      28.627  29.954  21.207  1.00  0.00    -0.246 OA
BRANCH  21  23
ATOM     23  O   UNL A   1      27.258  30.204  23.043  1.00  0.00    -0.465 OA
ATOM     24  C   UNL A   1      27.606  31.515  23.484  1.00  0.00     0.282 C 
ENDBRANCH  21  23
ENDBRANCH  15  21
ENDBRANCH   8  14
ENDBRANCH   4   7
ENDBRANCH   2   3
ENDBRANCH   1   2
BRANCH   1  25
ATOM     25  C   UNL A   1      35.531  23.900  24.999  1.00  0.00     0.023 C 
BRANCH  25  26
ATOM     26  C   UNL A   1      36.512  23.714  26.157  1.00  0.00     0.116 C 
BRANCH  26  27
ATOM     27  N   UNL A   1      37.501  22.665  25.976  1.00  0.00    -0.352 N 
ATOM     28  C   UNL A   1      38.845  22.636  26.276  1.00  0.00     0.251 C 
ATOM     29  H   UNL A   1      37.153  21.837  25.573  1.00  0.00     0.163 HD
ATOM     30  O   UNL A   1      39.473  21.595  26.092  1.00  0.00    -0.269 OA
BRANCH  28  31
ATOM     31  C   UNL A   1      39.566  23.847  26.748  1.00  0.00     0.039 A 
ATOM     32  C   UNL A   1      39.968  24.791  25.793  1.00  0.00     0.014 A 
ATOM     33  C   UNL A   1      39.839  24.082  28.097  1.00  0.00     0.014 A 
ATOM     34  C   UNL A   1      40.536  26.005  26.196  1.00  0.00     0.010 A 
ATOM     35  C   UNL A   1      40.346  25.317  28.506  1.00  0.00     0.010 A 
ATOM     36  C   UNL A   1      40.677  26.299  27.561  1.00  0.00    -0.014 A 
BRANCH  36  37
ATOM     37  C   UNL A   1      41.091  27.650  28.022  1.00  0.00     0.031 A 
ATOM     38  C   UNL A   1      42.540  28.042  28.058  1.00  0.00     0.074 A 
ATOM     39  C   UNL A   1      40.154  28.488  28.512  1.00  0.00     0.049 A 
ATOM     40  N   UNL A   1      43.085  29.148  28.500  1.00  0.00    -0.248 NA
ATOM     41  C   UNL A   1      43.509  27.054  27.558  1.00  0.00     0.031 C 
ATOM     42  C   UNL A   1      38.723  28.188  28.610  1.00  0.00     0.029 A 
ATOM     43  N   UNL A   1      40.265  29.749  29.042  1.00  0.00    -0.354 N 
ATOM     44  C   UNL A   1      44.456  28.982  28.351  1.00  0.00     0.074 A 
ATOM     45  C   UNL A   1      44.664  27.656  27.810  1.00  0.00     0.031 C 
ATOM     46  C   UNL A   1      38.090  29.237  29.161  1.00  0.00     0.029 A 
ATOM     47  C   UNL A   1      39.069  30.273  29.473  1.00  0.00     0.049 A 
ATOM     48  H   UNL A   1      41.119  30.233  29.109  1.00  0.00     0.167 HD
ATOM     49  C   UNL A   1      45.446  29.864  28.624  1.00  0.00     0.037 A 
ATOM     50  C   UNL A   1      38.789  31.456  30.054  1.00  0.00     0.037 A 
ATOM     51  C   UNL A   1      45.231  31.196  29.127  1.00  0.00     0.049 A 
ATOM     52  C   UNL A   1      39.899  32.441  30.283  1.00  0.00     0.074 A 
ATOM     53  C   UNL A   1      46.165  32.192  29.353  1.00  0.00     0.029 A 
ATOM     54  N   UNL A   1      43.996  31.718  29.478  1.00  0.00    -0.354 N 
ATOM     55  N   UNL A   1      41.181  32.303  30.052  1.00  0.00    -0.248 NA
ATOM     56  C   UNL A   1      39.525  33.752  30.835  1.00  0.00     0.031 C 
ATOM     57  C   UNL A   1      45.500  33.307  29.870  1.00  0.00     0.029 A 
ATOM     58  C   UNL A   1      44.146  33.018  29.928  1.00  0.00     0.049 A 
ATOM     59  H   UNL A   1      43.139  31.236  29.416  1.00  0.00     0.167 HD
ATOM     60  C   UNL A   1      41.764  33.512  30.407  1.00  0.00     0.074 A 
ATOM     61  C   UNL A   1      40.694  34.377  30.858  1.00  0.00     0.031 C 
ATOM     62  C   UNL A   1      43.069  33.869  30.364  1.00  0.00     0.037 A 
BRANCH  49  63
ATOM     63  C   UNL A   1      46.861  29.438  28.364  1.00  0.00     0.057 A 
ATOM     64  C   UNL A   1      47.435  29.592  27.096  1.00  0.00     0.134 A 
ATOM     65  C   UNL A   1      47.624  28.794  29.346  1.00  0.00     0.134 A 
ATOM     66  F   UNL A   1      46.755  30.193  26.108  1.00  0.00    -0.206 F 
ATOM     67  C   UNL A   1      48.712  29.107  26.810  1.00  0.00     0.040 A 
ATOM     68  C   UNL A   1      48.910  28.324  29.078  1.00  0.00     0.040 A 
ATOM     69  F   UNL A   1      47.134  28.623  30.583  1.00  0.00    -0.206 F 
ATOM     70  C   UNL A   1      49.454  28.472  27.804  1.00  0.00     0.006 A 
ENDBRANCH  49  63
BRANCH  50  71
ATOM     71  C   UNL A   1      37.388  31.784  30.416  1.00  0.00     0.057 A 
ATOM     72  C   UNL A   1      36.492  32.306  29.475  1.00  0.00     0.134 A 
ATOM     73  C   UNL A   1      36.921  31.607  31.723  1.00  0.00     0.134 A 
ATOM     74  F   UNL A   1      36.883  32.510  28.209  1.00  0.00    -0.206 F 
ATOM     75  C   UNL A   1      35.185  32.650  29.824  1.00  0.00     0.040 A 
ATOM     76  C   UNL A   1      35.611  31.926  32.081  1.00  0.00     0.040 A 
ATOM     77  F   UNL A   1      37.729  31.097  32.664  1.00  0.00    -0.206 F 
ATOM     78  C   UNL A   1      34.740  32.456  31.131  1.00  0.00     0.006 A 
ENDBRANCH  50  71
BRANCH  62  79
ATOM     79  C   UNL A   1      43.419  35.262  30.792  1.00  0.00     0.057 A 
ATOM     80  C   UNL A   1      43.483  36.300  29.855  1.00  0.00     0.134 A 
ATOM     81  C   UNL A   1      43.760  35.559  32.116  1.00  0.00     0.134 A 
ATOM     82  F   UNL A   1      43.177  36.078  28.568  1.00  0.00    -0.206 F 
ATOM     83  C   UNL A   1      43.886  37.586  30.219  1.00  0.00     0.040 A 
ATOM     84  C   UNL A   1      44.144  36.846  32.497  1.00  0.00     0.040 A 
ATOM     85  F   UNL A   1      43.708  34.609  33.062  1.00  0.00    -0.206 F 
ATOM     86  C   UNL A   1      44.216  37.861  31.544  1.00  0.00     0.006 A 
ENDBRANCH  62  79
ENDBRANCH  36  37
ENDBRANCH  28  31
ENDBRANCH  26  27
ENDBRANCH  25  26
ENDBRANCH   1  25
TORSDOF 14
ENDMDL
