MODEL 1
REMARK VINA RESULT:     -13.5      0.000      0.000
REMARK SMILES COc1ccc2[nH]cc([C@H](C(=O)NCCCCNC(=O)c3ccc(-c4c5nc(c(-c6c(F)cccc6F)c6ccc([nH]6)c(-c6c(F)cccc6F)c6nc(c(-c7c(F)cccc7F)c7ccc4[nH]7)C=C6)C=C5)cc3)[NH+]3CC[NH+](Cc4cccc5ccccc45)CC3)c2c1
REMARK SMILES IDX 15 1 14 2 13 3 11 4 12 5 10 7 9 8 3 9 4 10 93 11 5 12 92 13
REMARK SMILES IDX 6 14 7 15 8 16 2 18 1 19 75 20 76 21 91 22 77 24 90 25 78 26
REMARK SMILES IDX 79 28 80 29 81 30 89 31 82 32 84 33 88 34 83 35 85 36 87 37
REMARK SMILES IDX 86 38 16 39 17 40 18 41 19 42 20 44 21 45 22 46 74 47 23 48
REMARK SMILES IDX 73 49 24 50 25 51 26 52 67 53 27 54 72 55 66 56 68 57 28 58
REMARK SMILES IDX 71 59 65 60 64 61 29 63 55 64 38 65 54 66 39 67 42 68 53 69
REMARK SMILES IDX 69 70 40 71 41 72 52 74 70 75 43 76 30 77 31 78 36 79 32 80
REMARK SMILES IDX 33 81 35 82 37 83 34 84 56 85 57 86 62 87 58 88 59 89 61 90
REMARK SMILES IDX 63 91 60 92 44 93 45 94 50 95 46 96 47 97 49 98 51 99 48 100
REMARK H PARENT 13 6 7 17 75 23 78 27 18 43 68 62 42 73
REMARK Flexibility Score: inf
ROOT
ATOM      1  C   UNL A   1      36.817  20.747  24.656  1.00  0.00     0.023 C 
ENDROOT
BRANCH   1   2
ATOM      2  C   UNL A   1      36.612  21.807  25.733  1.00  0.00     0.116 C 
BRANCH   2   3
ATOM      3  N   UNL A   1      35.377  21.587  26.455  1.00  0.00    -0.351 N 
ATOM      4  C   UNL A   1      34.087  21.735  26.041  1.00  0.00     0.283 C 
ATOM      5  O   UNL A   1      33.239  21.425  26.881  1.00  0.00    -0.268 OA
ATOM      6  H   UNL A   1      35.485  21.285  27.385  1.00  0.00     0.163 HD
BRANCH   4   7
ATOM      7  C   UNL A   1      33.770  22.308  24.639  1.00  0.00     0.308 C 
BRANCH   7   8
ATOM      8  C   UNL A   1      33.076  21.312  23.713  1.00  0.00     0.045 A 
ATOM      9  C   UNL A   1      33.725  17.589  24.333  1.00  0.00     0.119 A 
ATOM     10  C   UNL A   1      32.996  17.117  23.246  1.00  0.00     0.048 A 
ATOM     11  C   UNL A   1      33.779  18.950  24.620  1.00  0.00     0.057 A 
ATOM     12  C   UNL A   1      32.304  18.005  22.412  1.00  0.00     0.030 A 
ATOM     13  C   UNL A   1      33.144  19.872  23.761  1.00  0.00     0.013 A 
ATOM     14  C   UNL A   1      32.398  19.374  22.694  1.00  0.00     0.046 A 
ATOM     15  N   UNL A   1      31.814  20.455  22.075  1.00  0.00    -0.361 N 
ATOM     16  C   UNL A   1      32.224  21.620  22.666  1.00  0.00     0.094 A 
ATOM     17  H   UNL A   1      31.191  20.398  21.315  1.00  0.00     0.166 HD
BRANCH   9  18
ATOM     18  O   UNL A   1      34.390  16.765  25.200  1.00  0.00    -0.497 OA
ATOM     19  C   UNL A   1      33.694  15.541  25.411  1.00  0.00     0.278 C 
ENDBRANCH   9  18
ENDBRANCH   7   8
BRANCH   7  20
ATOM     20  N   UNL A   1      32.992  23.557  24.677  1.00  0.00    -0.312 N 
ATOM     21  C   UNL A   1      31.543  23.430  24.796  1.00  0.00     0.325 C 
ATOM     22  C   UNL A   1      33.549  24.655  25.480  1.00  0.00     0.325 C 
ATOM     23  H   UNL A   1      33.128  23.859  23.712  1.00  0.00     0.349 HD
ATOM     24  C   UNL A   1      30.900  23.751  26.152  1.00  0.00     0.324 C 
ATOM     25  C   UNL A   1      32.792  25.085  26.777  1.00  0.00     0.324 C 
ATOM     26  N   UNL A   1      31.323  25.008  26.765  1.00  0.00    -0.322 N 
ATOM     27  H   UNL A   1      31.045  25.004  27.746  1.00  0.00     0.348 HD
BRANCH  26  28
ATOM     28  C   UNL A   1      30.571  26.202  26.343  1.00  0.00     0.300 C 
BRANCH  28  29
ATOM     29  C   UNL A   1      31.360  27.478  26.106  1.00  0.00     0.014 A 
ATOM     30  C   UNL A   1      31.614  28.288  27.231  1.00  0.00     0.010 A 
ATOM     31  C   UNL A   1      31.966  27.803  24.859  1.00  0.00    -0.010 A 
ATOM     32  C   UNL A   1      32.571  29.290  27.184  1.00  0.00     0.001 A 
ATOM     33  C   UNL A   1      33.028  28.738  24.862  1.00  0.00    -0.018 A 
ATOM     34  C   UNL A   1      31.619  27.212  23.617  1.00  0.00     0.009 A 
ATOM     35  C   UNL A   1      33.316  29.470  26.023  1.00  0.00     0.009 A 
ATOM     36  C   UNL A   1      33.813  28.907  23.709  1.00  0.00     0.009 A 
ATOM     37  C   UNL A   1      32.384  27.424  22.466  1.00  0.00     0.001 A 
ATOM     38  C   UNL A   1      33.507  28.236  22.525  1.00  0.00     0.001 A 
ENDBRANCH  28  29
ENDBRANCH  26  28
ENDBRANCH   7  20
ENDBRANCH   4   7
ENDBRANCH   2   3
ENDBRANCH   1   2
BRANCH   1  39
ATOM     39  C   UNL A   1      37.892  19.707  24.987  1.00  0.00     0.023 C 
BRANCH  39  40
ATOM     40  C   UNL A   1      39.089  20.251  25.761  1.00  0.00     0.116 C 
BRANCH  40  41
ATOM     41  N   UNL A   1      40.149  19.261  25.877  1.00  0.00    -0.352 N 
ATOM     42  C   UNL A   1      41.486  19.471  26.107  1.00  0.00     0.251 C 
ATOM     43  H   UNL A   1      39.872  18.321  25.780  1.00  0.00     0.163 HD
ATOM     44  O   UNL A   1      42.306  18.572  25.951  1.00  0.00    -0.269 OA
BRANCH  42  45
ATOM     45  C   UNL A   1      41.922  20.808  26.550  1.00  0.00     0.039 A 
ATOM     46  C   UNL A   1      42.377  21.741  25.619  1.00  0.00     0.014 A 
ATOM     47  C   UNL A   1      41.825  21.142  27.903  1.00  0.00     0.014 A 
ATOM     48  C   UNL A   1      42.678  23.037  26.042  1.00  0.00     0.010 A 
ATOM     49  C   UNL A   1      42.044  22.449  28.307  1.00  0.00     0.010 A 
ATOM     50  C   UNL A   1      42.482  23.409  27.384  1.00  0.00    -0.014 A 
BRANCH  50  51
ATOM     51  C   UNL A   1      42.745  24.785  27.870  1.00  0.00     0.031 A 
ATOM     52  C   UNL A   1      44.135  25.161  28.303  1.00  0.00     0.074 A 
ATOM     53  C   UNL A   1      41.726  25.652  28.020  1.00  0.00     0.049 A 
ATOM     54  N   UNL A   1      44.553  26.249  28.895  1.00  0.00    -0.248 NA
ATOM     55  C   UNL A   1      45.190  24.160  28.072  1.00  0.00     0.031 C 
ATOM     56  C   UNL A   1      40.328  25.389  27.677  1.00  0.00     0.029 A 
ATOM     57  N   UNL A   1      41.709  26.928  28.526  1.00  0.00    -0.354 N 
ATOM     58  C   UNL A   1      45.908  26.055  29.125  1.00  0.00     0.074 A 
ATOM     59  C   UNL A   1      46.231  24.723  28.665  1.00  0.00     0.031 C 
ATOM     60  C   UNL A   1      39.592  26.474  27.967  1.00  0.00     0.029 A 
ATOM     61  C   UNL A   1      40.457  27.491  28.558  1.00  0.00     0.049 A 
ATOM     62  H   UNL A   1      42.519  27.395  28.835  1.00  0.00     0.167 HD
ATOM     63  C   UNL A   1      46.809  26.919  29.650  1.00  0.00     0.037 A 
ATOM     64  C   UNL A   1      40.051  28.687  29.028  1.00  0.00     0.037 A 
ATOM     65  C   UNL A   1      46.485  28.251  30.083  1.00  0.00     0.049 A 
ATOM     66  C   UNL A   1      41.069  29.623  29.623  1.00  0.00     0.074 A 
ATOM     67  C   UNL A   1      47.332  29.225  30.582  1.00  0.00     0.029 A 
ATOM     68  N   UNL A   1      45.210  28.797  30.069  1.00  0.00    -0.354 N 
ATOM     69  N   UNL A   1      42.359  29.451  29.779  1.00  0.00    -0.248 NA
ATOM     70  C   UNL A   1      40.574  30.922  30.101  1.00  0.00     0.031 C 
ATOM     71  C   UNL A   1      46.562  30.344  30.913  1.00  0.00     0.029 A 
ATOM     72  C   UNL A   1      45.245  30.089  30.566  1.00  0.00     0.049 A 
ATOM     73  H   UNL A   1      44.401  28.334  29.753  1.00  0.00     0.167 HD
ATOM     74  C   UNL A   1      42.836  30.633  30.332  1.00  0.00     0.074 A 
ATOM     75  C   UNL A   1      41.697  31.515  30.482  1.00  0.00     0.031 C 
ATOM     76  C   UNL A   1      44.105  30.962  30.680  1.00  0.00     0.037 A 
BRANCH  63  77
ATOM     77  C   UNL A   1      48.229  26.447  29.776  1.00  0.00     0.057 A 
ATOM     78  C   UNL A   1      49.178  26.679  28.770  1.00  0.00     0.134 A 
ATOM     79  C   UNL A   1      48.663  25.779  30.929  1.00  0.00     0.134 A 
ATOM     80  F   UNL A   1      48.827  27.302  27.634  1.00  0.00    -0.206 F 
ATOM     81  C   UNL A   1      50.496  26.237  28.892  1.00  0.00     0.040 A 
ATOM     82  C   UNL A   1      49.987  25.360  31.075  1.00  0.00     0.040 A 
ATOM     83  F   UNL A   1      47.811  25.530  31.934  1.00  0.00    -0.206 F 
ATOM     84  C   UNL A   1      50.905  25.580  30.051  1.00  0.00     0.006 A 
ENDBRANCH  63  77
BRANCH  64  85
ATOM     85  C   UNL A   1      38.622  29.080  28.936  1.00  0.00     0.057 A 
ATOM     86  C   UNL A   1      38.091  29.588  27.744  1.00  0.00     0.134 A 
ATOM     87  C   UNL A   1      37.757  28.975  30.032  1.00  0.00     0.134 A 
ATOM     88  F   UNL A   1      38.873  29.728  26.663  1.00  0.00    -0.206 F 
ATOM     89  C   UNL A   1      36.760  30.000  27.651  1.00  0.00     0.040 A 
ATOM     90  C   UNL A   1      36.418  29.359  29.946  1.00  0.00     0.040 A 
ATOM     91  F   UNL A   1      38.200  28.487  31.200  1.00  0.00    -0.206 F 
ATOM     92  C   UNL A   1      35.919  29.882  28.755  1.00  0.00     0.006 A 
ENDBRANCH  64  85
BRANCH  76  93
ATOM     93  C   UNL A   1      44.347  32.352  31.191  1.00  0.00     0.057 A 
ATOM     94  C   UNL A   1      44.323  32.660  32.556  1.00  0.00     0.134 A 
ATOM     95  C   UNL A   1      44.676  33.383  30.300  1.00  0.00     0.134 A 
ATOM     96  F   UNL A   1      44.004  31.721  33.460  1.00  0.00    -0.206 F 
ATOM     97  C   UNL A   1      44.601  33.949  33.016  1.00  0.00     0.040 A 
ATOM     98  C   UNL A   1      44.983  34.666  30.749  1.00  0.00     0.040 A 
ATOM     99  F   UNL A   1      44.725  33.151  28.979  1.00  0.00    -0.206 F 
ATOM    100  C   UNL A   1      44.943  34.953  32.112  1.00  0.00     0.006 A 
ENDBRANCH  76  93
ENDBRANCH  50  51
ENDBRANCH  42  45
ENDBRANCH  40  41
ENDBRANCH  39  40
ENDBRANCH   1  39
TORSDOF 16
ENDMDL
MODEL 2
REMARK VINA RESULT:     -13.3      3.272      8.766
REMARK SMILES COc1ccc2[nH]cc([C@H](C(=O)NCCCCNC(=O)c3ccc(-c4c5nc(c(-c6c(F)cccc6F)c6ccc([nH]6)c(-c6c(F)cccc6F)c6nc(c(-c7c(F)cccc7F)c7ccc4[nH]7)C=C6)C=C5)cc3)[NH+]3CC[NH+](Cc4cccc5ccccc45)CC3)c2c1
REMARK SMILES IDX 15 1 14 2 13 3 11 4 12 5 10 7 9 8 3 9 4 10 93 11 5 12 92 13
REMARK SMILES IDX 6 14 7 15 8 16 2 18 1 19 75 20 76 21 91 22 77 24 90 25 78 26
REMARK SMILES IDX 79 28 80 29 81 30 89 31 82 32 84 33 88 34 83 35 85 36 87 37
REMARK SMILES IDX 86 38 16 39 17 40 18 41 19 42 20 44 21 45 22 46 74 47 23 48
REMARK SMILES IDX 73 49 24 50 25 51 26 52 67 53 27 54 72 55 66 56 68 57 28 58
REMARK SMILES IDX 71 59 65 60 64 61 29 63 55 64 38 65 54 66 39 67 42 68 53 69
REMARK SMILES IDX 69 70 40 71 41 72 52 74 70 75 43 76 30 77 31 78 36 79 32 80
REMARK SMILES IDX 33 81 35 82 37 83 34 84 56 85 57 86 62 87 58 88 59 89 61 90
REMARK SMILES IDX 63 91 60 92 44 93 45 94 50 95 46 96 47 97 49 98 51 99 48 100
REMARK H PARENT 13 6 7 17 75 23 78 27 18 43 68 62 42 73
REMARK Flexibility Score: inf
ROOT
ATOM      1  C   UNL A   1      33.438  29.127  23.638  1.00  0.00     0.023 C 
ENDROOT
BRANCH   1   2
ATOM      2  C   UNL A   1      34.076  27.851  23.100  1.00  0.00     0.116 C 
BRANCH   2   3
ATOM      3  N   UNL A   1      33.235  27.227  22.101  1.00  0.00    -0.351 N 
ATOM      4  C   UNL A   1      32.000  26.665  22.228  1.00  0.00     0.283 C 
ATOM      5  O   UNL A   1      31.513  26.249  21.174  1.00  0.00    -0.268 OA
ATOM      6  H   UNL A   1      33.611  27.206  21.192  1.00  0.00     0.163 HD
BRANCH   4   7
ATOM      7  C   UNL A   1      31.335  26.531  23.619  1.00  0.00     0.308 C 
BRANCH   7   8
ATOM      8  C   UNL A   1      29.840  26.841  23.615  1.00  0.00     0.045 A 
ATOM      9  C   UNL A   1      28.772  30.341  22.486  1.00  0.00     0.119 A 
ATOM     10  C   UNL A   1      27.412  30.178  22.730  1.00  0.00     0.048 A 
ATOM     11  C   UNL A   1      29.664  29.291  22.689  1.00  0.00     0.057 A 
ATOM     12  C   UNL A   1      26.911  28.955  23.192  1.00  0.00     0.030 A 
ATOM     13  C   UNL A   1      29.197  28.067  23.213  1.00  0.00     0.013 A 
ATOM     14  C   UNL A   1      27.827  27.920  23.424  1.00  0.00     0.046 A 
ATOM     15  N   UNL A   1      27.623  26.626  23.845  1.00  0.00    -0.361 N 
ATOM     16  C   UNL A   1      28.821  25.975  23.977  1.00  0.00     0.094 A 
ATOM     17  H   UNL A   1      26.742  26.226  24.024  1.00  0.00     0.166 HD
BRANCH   9  18
ATOM     18  O   UNL A   1      29.311  31.502  22.002  1.00  0.00    -0.497 OA
ATOM     19  C   UNL A   1      28.803  32.647  22.679  1.00  0.00     0.278 C 
ENDBRANCH   9  18
ENDBRANCH   7   8
BRANCH   7  20
ATOM     20  N   UNL A   1      31.556  25.221  24.254  1.00  0.00    -0.312 N 
ATOM     21  C   UNL A   1      32.155  24.179  23.426  1.00  0.00     0.325 C 
ATOM     22  C   UNL A   1      32.067  25.236  25.631  1.00  0.00     0.325 C 
ATOM     23  H   UNL A   1      30.586  24.924  24.350  1.00  0.00     0.349 HD
ATOM     24  C   UNL A   1      33.627  23.820  23.671  1.00  0.00     0.324 C 
ATOM     25  C   UNL A   1      33.515  24.711  25.894  1.00  0.00     0.324 C 
ATOM     26  N   UNL A   1      33.993  23.593  25.067  1.00  0.00    -0.322 N 
ATOM     27  H   UNL A   1      35.010  23.615  25.146  1.00  0.00     0.348 HD
BRANCH  26  28
ATOM     28  C   UNL A   1      33.778  22.223  25.563  1.00  0.00     0.300 C 
BRANCH  28  29
ATOM     29  C   UNL A   1      34.703  21.137  25.043  1.00  0.00     0.014 A 
ATOM     30  C   UNL A   1      36.088  21.375  25.150  1.00  0.00     0.010 A 
ATOM     31  C   UNL A   1      34.245  19.862  24.607  1.00  0.00    -0.010 A 
ATOM     32  C   UNL A   1      37.002  20.343  25.000  1.00  0.00     0.001 A 
ATOM     33  C   UNL A   1      35.175  18.795  24.586  1.00  0.00    -0.018 A 
ATOM     34  C   UNL A   1      32.905  19.568  24.245  1.00  0.00     0.009 A 
ATOM     35  C   UNL A   1      36.540  19.049  24.781  1.00  0.00     0.009 A 
ATOM     36  C   UNL A   1      34.722  17.478  24.401  1.00  0.00     0.009 A 
ATOM     37  C   UNL A   1      32.478  18.256  24.021  1.00  0.00     0.001 A 
ATOM     38  C   UNL A   1      33.379  17.207  24.143  1.00  0.00     0.001 A 
ENDBRANCH  28  29
ENDBRANCH  26  28
ENDBRANCH   7  20
ENDBRANCH   4   7
ENDBRANCH   2   3
ENDBRANCH   1   2
BRANCH   1  39
ATOM     39  C   UNL A   1      32.889  29.009  25.063  1.00  0.00     0.023 C 
BRANCH  39  40
ATOM     40  C   UNL A   1      33.921  29.230  26.164  1.00  0.00     0.116 C 
BRANCH  40  41
ATOM     41  N   UNL A   1      33.854  30.581  26.702  1.00  0.00    -0.352 N 
ATOM     42  C   UNL A   1      34.617  31.137  27.698  1.00  0.00     0.251 C 
ATOM     43  H   UNL A   1      33.175  31.170  26.300  1.00  0.00     0.163 HD
ATOM     44  O   UNL A   1      34.305  32.205  28.216  1.00  0.00    -0.269 OA
BRANCH  42  45
ATOM     45  C   UNL A   1      35.830  30.423  28.137  1.00  0.00     0.039 A 
ATOM     46  C   UNL A   1      37.010  30.530  27.402  1.00  0.00     0.014 A 
ATOM     47  C   UNL A   1      35.794  29.684  29.321  1.00  0.00     0.014 A 
ATOM     48  C   UNL A   1      38.177  29.940  27.893  1.00  0.00     0.010 A 
ATOM     49  C   UNL A   1      36.969  29.171  29.850  1.00  0.00     0.010 A 
ATOM     50  C   UNL A   1      38.171  29.284  29.136  1.00  0.00    -0.014 A 
BRANCH  50  51
ATOM     51  C   UNL A   1      39.394  28.682  29.719  1.00  0.00     0.031 A 
ATOM     52  C   UNL A   1      40.017  29.307  30.936  1.00  0.00     0.074 A 
ATOM     53  C   UNL A   1      39.998  27.650  29.099  1.00  0.00     0.049 A 
ATOM     54  N   UNL A   1      41.158  29.039  31.515  1.00  0.00    -0.248 NA
ATOM     55  C   UNL A   1      39.271  30.411  31.563  1.00  0.00     0.031 C 
ATOM     56  C   UNL A   1      39.514  26.986  27.887  1.00  0.00     0.029 A 
ATOM     57  N   UNL A   1      41.166  26.994  29.393  1.00  0.00    -0.354 N 
ATOM     58  C   UNL A   1      41.275  29.950  32.556  1.00  0.00     0.074 A 
ATOM     59  C   UNL A   1      40.120  30.817  32.494  1.00  0.00     0.031 C 
ATOM     60  C   UNL A   1      40.370  26.007  27.551  1.00  0.00     0.029 A 
ATOM     61  C   UNL A   1      41.484  26.005  28.495  1.00  0.00     0.049 A 
ATOM     62  H   UNL A   1      41.723  27.211  30.175  1.00  0.00     0.167 HD
ATOM     63  C   UNL A   1      42.246  30.040  33.496  1.00  0.00     0.037 A 
ATOM     64  C   UNL A   1      42.562  25.199  28.431  1.00  0.00     0.037 A 
ATOM     65  C   UNL A   1      43.379  29.157  33.565  1.00  0.00     0.049 A 
ATOM     66  C   UNL A   1      43.636  25.329  29.477  1.00  0.00     0.074 A 
ATOM     67  C   UNL A   1      44.393  29.129  34.506  1.00  0.00     0.029 A 
ATOM     68  N   UNL A   1      43.648  28.146  32.655  1.00  0.00    -0.354 N 
ATOM     69  N   UNL A   1      43.705  26.155  30.494  1.00  0.00    -0.248 NA
ATOM     70  C   UNL A   1      44.779  24.411  29.371  1.00  0.00     0.031 C 
ATOM     71  C   UNL A   1      45.300  28.131  34.140  1.00  0.00     0.029 A 
ATOM     72  C   UNL A   1      44.822  27.499  33.004  1.00  0.00     0.049 A 
ATOM     73  H   UNL A   1      43.089  27.923  31.877  1.00  0.00     0.167 HD
ATOM     74  C   UNL A   1      44.873  25.828  31.170  1.00  0.00     0.074 A 
ATOM     75  C   UNL A   1      45.481  24.727  30.451  1.00  0.00     0.031 C 
ATOM     76  C   UNL A   1      45.395  26.385  32.291  1.00  0.00     0.037 A 
BRANCH  63  77
ATOM     77  C   UNL A   1      42.115  31.125  34.525  1.00  0.00     0.057 A 
ATOM     78  C   UNL A   1      41.410  30.931  35.721  1.00  0.00     0.134 A 
ATOM     79  C   UNL A   1      42.726  32.372  34.333  1.00  0.00     0.134 A 
ATOM     80  F   UNL A   1      40.791  29.765  35.963  1.00  0.00    -0.206 F 
ATOM     81  C   UNL A   1      41.291  31.944  36.673  1.00  0.00     0.040 A 
ATOM     82  C   UNL A   1      42.640  33.382  35.292  1.00  0.00     0.040 A 
ATOM     83  F   UNL A   1      43.423  32.625  33.215  1.00  0.00    -0.206 F 
ATOM     84  C   UNL A   1      41.913  33.173  36.462  1.00  0.00     0.006 A 
ENDBRANCH  63  77
BRANCH  64  85
ATOM     85  C   UNL A   1      42.672  24.182  27.354  1.00  0.00     0.057 A 
ATOM     86  C   UNL A   1      43.251  24.500  26.120  1.00  0.00     0.134 A 
ATOM     87  C   UNL A   1      42.189  22.878  27.521  1.00  0.00     0.134 A 
ATOM     88  F   UNL A   1      43.718  25.736  25.893  1.00  0.00    -0.206 F 
ATOM     89  C   UNL A   1      43.326  23.568  25.084  1.00  0.00     0.040 A 
ATOM     90  C   UNL A   1      42.280  21.929  26.502  1.00  0.00     0.040 A 
ATOM     91  F   UNL A   1      41.630  22.506  28.682  1.00  0.00    -0.206 F 
ATOM     92  C   UNL A   1      42.842  22.276  25.275  1.00  0.00     0.006 A 
ENDBRANCH  64  85
BRANCH  76  93
ATOM     93  C   UNL A   1      46.646  25.776  32.853  1.00  0.00     0.057 A 
ATOM     94  C   UNL A   1      46.614  24.762  33.817  1.00  0.00     0.134 A 
ATOM     95  C   UNL A   1      47.900  26.168  32.367  1.00  0.00     0.134 A 
ATOM     96  F   UNL A   1      45.445  24.348  34.332  1.00  0.00    -0.206 F 
ATOM     97  C   UNL A   1      47.787  24.172  34.291  1.00  0.00     0.040 A 
ATOM     98  C   UNL A   1      49.077  25.566  32.811  1.00  0.00     0.040 A 
ATOM     99  F   UNL A   1      48.000  27.128  31.434  1.00  0.00    -0.206 F 
ATOM    100  C   UNL A   1      49.022  24.566  33.779  1.00  0.00     0.006 A 
ENDBRANCH  76  93
ENDBRANCH  50  51
ENDBRANCH  42  45
ENDBRANCH  40  41
ENDBRANCH  39  40
ENDBRANCH   1  39
TORSDOF 16
ENDMDL
MODEL 3
REMARK VINA RESULT:     -13.3      1.095      6.052
REMARK SMILES COc1ccc2[nH]cc([C@H](C(=O)NCCCCNC(=O)c3ccc(-c4c5nc(c(-c6c(F)cccc6F)c6ccc([nH]6)c(-c6c(F)cccc6F)c6nc(c(-c7c(F)cccc7F)c7ccc4[nH]7)C=C6)C=C5)cc3)[NH+]3CC[NH+](Cc4cccc5ccccc45)CC3)c2c1
REMARK SMILES IDX 15 1 14 2 13 3 11 4 12 5 10 7 9 8 3 9 4 10 93 11 5 12 92 13
REMARK SMILES IDX 6 14 7 15 8 16 2 18 1 19 75 20 76 21 91 22 77 24 90 25 78 26
REMARK SMILES IDX 79 28 80 29 81 30 89 31 82 32 84 33 88 34 83 35 85 36 87 37
REMARK SMILES IDX 86 38 16 39 17 40 18 41 19 42 20 44 21 45 22 46 74 47 23 48
REMARK SMILES IDX 73 49 24 50 25 51 26 52 67 53 27 54 72 55 66 56 68 57 28 58
REMARK SMILES IDX 71 59 65 60 64 61 29 63 55 64 38 65 54 66 39 67 42 68 53 69
REMARK SMILES IDX 69 70 40 71 41 72 52 74 70 75 43 76 30 77 31 78 36 79 32 80
REMARK SMILES IDX 33 81 35 82 37 83 34 84 56 85 57 86 62 87 58 88 59 89 61 90
REMARK SMILES IDX 63 91 60 92 44 93 45 94 50 95 46 96 47 97 49 98 51 99 48 100
REMARK H PARENT 13 6 7 17 75 23 78 27 18 43 68 62 42 73
REMARK Flexibility Score: inf
ROOT
ATOM      1  C   UNL A   1      36.974  21.198  24.568  1.00  0.00     0.023 C 
ENDROOT
BRANCH   1   2
ATOM      2  C   UNL A   1      36.587  22.207  25.645  1.00  0.00     0.116 C 
BRANCH   2   3
ATOM      3  N   UNL A   1      35.433  21.756  26.393  1.00  0.00    -0.351 N 
ATOM      4  C   UNL A   1      34.130  21.655  26.007  1.00  0.00     0.283 C 
ATOM      5  O   UNL A   1      33.375  21.190  26.864  1.00  0.00    -0.268 OA
ATOM      6  H   UNL A   1      35.616  21.482  27.320  1.00  0.00     0.163 HD
BRANCH   4   7
ATOM      7  C   UNL A   1      33.679  22.154  24.613  1.00  0.00     0.308 C 
BRANCH   7   8
ATOM      8  C   UNL A   1      33.078  21.059  23.735  1.00  0.00     0.045 A 
ATOM      9  C   UNL A   1      34.388  17.494  24.225  1.00  0.00     0.119 A 
ATOM     10  C   UNL A   1      33.650  16.912  23.200  1.00  0.00     0.048 A 
ATOM     11  C   UNL A   1      34.242  18.845  24.531  1.00  0.00     0.057 A 
ATOM     12  C   UNL A   1      32.747  17.674  22.448  1.00  0.00     0.030 A 
ATOM     13  C   UNL A   1      33.387  19.651  23.750  1.00  0.00     0.013 A 
ATOM     14  C   UNL A   1      32.638  19.039  22.746  1.00  0.00     0.046 A 
ATOM     15  N   UNL A   1      31.829  20.009  22.202  1.00  0.00    -0.361 N 
ATOM     16  C   UNL A   1      32.093  21.225  22.775  1.00  0.00     0.094 A 
ATOM     17  H   UNL A   1      31.157  19.852  21.501  1.00  0.00     0.166 HD
BRANCH   9  18
ATOM     18  O   UNL A   1      35.257  16.790  25.013  1.00  0.00    -0.497 OA
ATOM     19  C   UNL A   1      34.765  15.489  25.318  1.00  0.00     0.278 C 
ENDBRANCH   9  18
ENDBRANCH   7   8
BRANCH   7  20
ATOM     20  N   UNL A   1      32.750  23.295  24.669  1.00  0.00    -0.312 N 
ATOM     21  C   UNL A   1      31.328  22.985  24.761  1.00  0.00     0.325 C 
ATOM     22  C   UNL A   1      33.155  24.431  25.509  1.00  0.00     0.325 C 
ATOM     23  H   UNL A   1      32.861  23.637  23.715  1.00  0.00     0.349 HD
ATOM     24  C   UNL A   1      30.631  23.186  26.113  1.00  0.00     0.324 C 
ATOM     25  C   UNL A   1      32.332  24.728  26.803  1.00  0.00     0.324 C 
ATOM     26  N   UNL A   1      30.885  24.469  26.764  1.00  0.00    -0.322 N 
ATOM     27  H   UNL A   1      30.596  24.403  27.740  1.00  0.00     0.348 HD
BRANCH  26  28
ATOM     28  C   UNL A   1      29.995  25.571  26.361  1.00  0.00     0.300 C 
BRANCH  28  29
ATOM     29  C   UNL A   1      30.530  26.566  25.346  1.00  0.00     0.014 A 
ATOM     30  C   UNL A   1      30.268  26.294  23.988  1.00  0.00     0.010 A 
ATOM     31  C   UNL A   1      31.133  27.804  25.707  1.00  0.00    -0.010 A 
ATOM     32  C   UNL A   1      30.432  27.274  23.021  1.00  0.00     0.001 A 
ATOM     33  C   UNL A   1      31.172  28.831  24.734  1.00  0.00    -0.018 A 
ATOM     34  C   UNL A   1      31.649  28.103  26.994  1.00  0.00     0.009 A 
ATOM     35  C   UNL A   1      30.822  28.553  23.404  1.00  0.00     0.009 A 
ATOM     36  C   UNL A   1      31.530  30.136  25.110  1.00  0.00     0.009 A 
ATOM     37  C   UNL A   1      32.043  29.399  27.341  1.00  0.00     0.001 A 
ATOM     38  C   UNL A   1      31.941  30.424  26.412  1.00  0.00     0.001 A 
ENDBRANCH  28  29
ENDBRANCH  26  28
ENDBRANCH   7  20
ENDBRANCH   4   7
ENDBRANCH   2   3
ENDBRANCH   1   2
BRANCH   1  39
ATOM     39  C   UNL A   1      37.850  20.044  25.066  1.00  0.00     0.023 C 
BRANCH  39  40
ATOM     40  C   UNL A   1      39.148  20.474  25.740  1.00  0.00     0.116 C 
BRANCH  40  41
ATOM     41  N   UNL A   1      40.085  19.366  25.859  1.00  0.00    -0.352 N 
ATOM     42  C   UNL A   1      41.438  19.419  26.085  1.00  0.00     0.251 C 
ATOM     43  H   UNL A   1      39.699  18.465  25.768  1.00  0.00     0.163 HD
ATOM     44  O   UNL A   1      42.147  18.429  25.932  1.00  0.00    -0.269 OA
BRANCH  42  45
ATOM     45  C   UNL A   1      42.030  20.697  26.522  1.00  0.00     0.039 A 
ATOM     46  C   UNL A   1      42.528  21.596  25.579  1.00  0.00     0.014 A 
ATOM     47  C   UNL A   1      42.037  21.015  27.882  1.00  0.00     0.014 A 
ATOM     48  C   UNL A   1      42.980  22.848  26.002  1.00  0.00     0.010 A 
ATOM     49  C   UNL A   1      42.406  22.287  28.290  1.00  0.00     0.010 A 
ATOM     50  C   UNL A   1      42.892  23.213  27.356  1.00  0.00    -0.014 A 
BRANCH  50  51
ATOM     51  C   UNL A   1      43.318  24.547  27.845  1.00  0.00     0.031 A 
ATOM     52  C   UNL A   1      42.277  25.586  28.158  1.00  0.00     0.074 A 
ATOM     53  C   UNL A   1      44.628  24.857  27.903  1.00  0.00     0.049 A 
ATOM     54  N   UNL A   1      42.428  26.851  28.451  1.00  0.00    -0.248 NA
ATOM     55  C   UNL A   1      40.872  25.148  28.097  1.00  0.00     0.031 C 
ATOM     56  C   UNL A   1      45.730  23.950  27.582  1.00  0.00     0.029 A 
ATOM     57  N   UNL A   1      45.251  26.034  28.233  1.00  0.00    -0.354 N 
ATOM     58  C   UNL A   1      41.144  27.362  28.587  1.00  0.00     0.074 A 
ATOM     59  C   UNL A   1      40.225  26.287  28.285  1.00  0.00     0.031 C 
ATOM     60  C   UNL A   1      46.895  24.599  27.745  1.00  0.00     0.029 A 
ATOM     61  C   UNL A   1      46.620  25.978  28.137  1.00  0.00     0.049 A 
ATOM     62  H   UNL A   1      44.763  26.842  28.512  1.00  0.00     0.167 HD
ATOM     63  C   UNL A   1      40.765  28.608  28.954  1.00  0.00     0.037 A 
ATOM     64  C   UNL A   1      47.547  26.937  28.328  1.00  0.00     0.037 A 
ATOM     65  C   UNL A   1      41.685  29.665  29.276  1.00  0.00     0.049 A 
ATOM     66  C   UNL A   1      47.099  28.319  28.719  1.00  0.00     0.074 A 
ATOM     67  C   UNL A   1      41.406  30.949  29.708  1.00  0.00     0.029 A 
ATOM     68  N   UNL A   1      43.066  29.559  29.198  1.00  0.00    -0.354 N 
ATOM     69  N   UNL A   1      45.883  28.775  28.904  1.00  0.00    -0.248 NA
ATOM     70  C   UNL A   1      48.154  29.321  28.934  1.00  0.00     0.031 C 
ATOM     71  C   UNL A   1      42.616  31.634  29.849  1.00  0.00     0.029 A 
ATOM     72  C   UNL A   1      43.652  30.760  29.560  1.00  0.00     0.049 A 
ATOM     73  H   UNL A   1      43.556  28.749  28.926  1.00  0.00     0.167 HD
ATOM     74  C   UNL A   1      46.029  30.099  29.297  1.00  0.00     0.074 A 
ATOM     75  C   UNL A   1      47.450  30.374  29.327  1.00  0.00     0.031 C 
ATOM     76  C   UNL A   1      45.071  31.005  29.612  1.00  0.00     0.037 A 
BRANCH  63  77
ATOM     77  C   UNL A   1      39.292  28.889  29.033  1.00  0.00     0.057 A 
ATOM     78  C   UNL A   1      38.565  28.701  30.216  1.00  0.00     0.134 A 
ATOM     79  C   UNL A   1      38.595  29.381  27.921  1.00  0.00     0.134 A 
ATOM     80  F   UNL A   1      39.167  28.221  31.316  1.00  0.00    -0.206 F 
ATOM     81  C   UNL A   1      37.195  28.962  30.283  1.00  0.00     0.040 A 
ATOM     82  C   UNL A   1      37.232  29.676  27.985  1.00  0.00     0.040 A 
ATOM     83  F   UNL A   1      39.230  29.592  26.757  1.00  0.00    -0.206 F 
ATOM     84  C   UNL A   1      36.526  29.458  29.165  1.00  0.00     0.006 A 
ENDBRANCH  63  77
BRANCH  64  85
ATOM     85  C   UNL A   1      48.990  26.621  28.176  1.00  0.00     0.057 A 
ATOM     86  C   UNL A   1      49.762  26.235  29.279  1.00  0.00     0.134 A 
ATOM     87  C   UNL A   1      49.638  26.712  26.938  1.00  0.00     0.134 A 
ATOM     88  F   UNL A   1      49.203  26.145  30.495  1.00  0.00    -0.206 F 
ATOM     89  C   UNL A   1      51.128  25.975  29.162  1.00  0.00     0.040 A 
ATOM     90  C   UNL A   1      50.997  26.429  26.802  1.00  0.00     0.040 A 
ATOM     91  F   UNL A   1      48.954  27.068  25.841  1.00  0.00    -0.206 F 
ATOM     92  C   UNL A   1      51.749  26.068  27.919  1.00  0.00     0.006 A 
ENDBRANCH  64  85
BRANCH  76  93
ATOM     93  C   UNL A   1      45.521  32.357  30.083  1.00  0.00     0.057 A 
ATOM     94  C   UNL A   1      45.685  33.436  29.206  1.00  0.00     0.134 A 
ATOM     95  C   UNL A   1      45.728  32.595  31.448  1.00  0.00     0.134 A 
ATOM     96  F   UNL A   1      45.514  33.272  27.885  1.00  0.00    -0.206 F 
ATOM     97  C   UNL A   1      46.057  34.700  29.670  1.00  0.00     0.040 A 
ATOM     98  C   UNL A   1      46.071  33.859  31.927  1.00  0.00     0.040 A 
ATOM     99  F   UNL A   1      45.578  31.605  32.342  1.00  0.00    -0.206 F 
ATOM    100  C   UNL A   1      46.239  34.916  31.034  1.00  0.00     0.006 A 
ENDBRANCH  76  93
ENDBRANCH  50  51
ENDBRANCH  42  45
ENDBRANCH  40  41
ENDBRANCH  39  40
ENDBRANCH   1  39
TORSDOF 16
ENDMDL
