MODEL 1
REMARK VINA RESULT:     -11.5      0.000      0.000
REMARK SMILES CC(C)[C@H](NC(=O)[C@H](C)NC(=O)CNC(=O)OCc1ccccc1)C(=O)NCCCCNC(=O)c1ccc(-c2c3nc(c(-c4c(F)cccc4F)c4ccc([nH]4)c(-c4c(F)cccc4F)c4nc(c(-c5c(F)cccc5F)c5ccc2[nH]5)C=C4)C=C3)cc1
REMARK SMILES IDX 25 1 26 2 27 3 4 5 2 6 1 7 3 8 5 9 6 10 7 12 8 13 9 14 10 15
REMARK SMILES IDX 11 16 12 18 13 19 14 20 15 21 16 23 17 24 18 25 19 26 20 27
REMARK SMILES IDX 24 28 21 29 23 30 22 31 28 32 29 33 30 34 31 35 32 36 33 37
REMARK SMILES IDX 34 39 35 40 36 41 88 42 37 43 87 44 38 45 39 46 40 47 81 48
REMARK SMILES IDX 41 49 86 50 80 51 82 52 42 53 85 54 79 55 78 56 43 58 69 59
REMARK SMILES IDX 52 60 68 61 53 62 56 63 67 64 83 65 54 66 55 67 66 69 84 70
REMARK SMILES IDX 57 71 44 72 45 73 50 74 46 75 47 76 49 77 51 78 48 79 70 80
REMARK SMILES IDX 71 81 76 82 72 83 73 84 75 85 77 86 74 87 58 88 59 89 64 90
REMARK SMILES IDX 60 91 61 92 63 93 65 94 62 95
REMARK H PARENT 27 4 5 11 10 17 14 22 32 38 82 57 56 68
REMARK Flexibility Score: inf
ROOT
ATOM      1  C   UNL A   1      34.086  23.771  22.906  1.00  0.00     0.242 C 
ATOM      2  O   UNL A   1      33.822  23.321  21.787  1.00  0.00    -0.273 OA
ATOM      3  N   UNL A   1      33.950  25.113  23.091  1.00  0.00    -0.354 N 
ATOM      4  H   UNL A   1      33.805  25.636  22.269  1.00  0.00     0.163 HD
ENDROOT
BRANCH   1   5
ATOM      5  C   UNL A   1      34.460  22.834  24.075  1.00  0.00     0.173 C 
BRANCH   5   6
ATOM      6  C   UNL A   1      35.916  22.261  23.960  1.00  0.00     0.015 C 
ATOM      7  C   UNL A   1      37.048  23.292  24.006  1.00  0.00     0.010 C 
ATOM      8  C   UNL A   1      36.234  21.106  24.924  1.00  0.00     0.010 C 
ENDBRANCH   5   6
BRANCH   5   9
ATOM      9  N   UNL A   1      33.401  21.829  24.336  1.00  0.00    -0.342 N 
ATOM     10  C   UNL A   1      32.660  21.549  25.457  1.00  0.00     0.242 C 
ATOM     11  H   UNL A   1      33.192  21.257  23.562  1.00  0.00     0.164 HD
ATOM     12  O   UNL A   1      31.802  20.668  25.350  1.00  0.00    -0.273 OA
BRANCH  10  13
ATOM     13  C   UNL A   1      32.711  22.446  26.722  1.00  0.00     0.168 C 
ATOM     14  C   UNL A   1      33.802  21.871  27.609  1.00  0.00     0.041 C 
BRANCH  13  15
ATOM     15  N   UNL A   1      31.359  22.524  27.266  1.00  0.00    -0.343 N 
ATOM     16  C   UNL A   1      30.251  23.272  27.080  1.00  0.00     0.240 C 
ATOM     17  H   UNL A   1      31.215  21.843  27.961  1.00  0.00     0.164 HD
ATOM     18  O   UNL A   1      29.234  22.840  27.639  1.00  0.00    -0.273 OA
BRANCH  16  19
ATOM     19  C   UNL A   1      30.130  24.439  26.108  1.00  0.00     0.219 C 
BRANCH  19  20
ATOM     20  N   UNL A   1      30.501  24.195  24.737  1.00  0.00    -0.312 N 
ATOM     21  C   UNL A   1      30.571  25.134  23.760  1.00  0.00     0.407 C 
ATOM     22  H   UNL A   1      30.721  23.268  24.487  1.00  0.00     0.167 HD
ATOM     23  O   UNL A   1      30.884  24.851  22.611  1.00  0.00    -0.225 OA
BRANCH  21  24
ATOM     24  O   UNL A   1      30.203  26.359  24.203  1.00  0.00    -0.445 OA
BRANCH  24  25
ATOM     25  C   UNL A   1      28.868  26.764  23.888  1.00  0.00     0.270 C 
BRANCH  25  26
ATOM     26  C   UNL A   1      28.830  28.073  23.144  1.00  0.00    -0.011 A 
ATOM     27  C   UNL A   1      27.643  28.797  22.963  1.00  0.00     0.007 A 
ATOM     28  C   UNL A   1      30.031  28.622  22.674  1.00  0.00     0.007 A 
ATOM     29  C   UNL A   1      27.652  30.043  22.345  1.00  0.00     0.000 A 
ATOM     30  C   UNL A   1      30.038  29.866  22.046  1.00  0.00     0.000 A 
ATOM     31  C   UNL A   1      28.850  30.579  21.888  1.00  0.00     0.000 A 
ENDBRANCH  25  26
ENDBRANCH  24  25
ENDBRANCH  21  24
ENDBRANCH  19  20
ENDBRANCH  16  19
ENDBRANCH  13  15
ENDBRANCH  10  13
ENDBRANCH   5   9
ENDBRANCH   1   5
BRANCH   3  32
ATOM     32  C   UNL A   1      33.989  25.888  24.315  1.00  0.00     0.116 C 
BRANCH  32  33
ATOM     33  C   UNL A   1      33.701  27.376  24.129  1.00  0.00     0.023 C 
BRANCH  33  34
ATOM     34  C   UNL A   1      33.085  28.067  25.347  1.00  0.00     0.023 C 
BRANCH  34  35
ATOM     35  C   UNL A   1      34.106  28.590  26.342  1.00  0.00     0.116 C 
BRANCH  35  36
ATOM     36  N   UNL A   1      33.866  29.982  26.685  1.00  0.00    -0.352 N 
ATOM     37  C   UNL A   1      34.545  30.774  27.569  1.00  0.00     0.251 C 
ATOM     38  H   UNL A   1      33.113  30.412  26.218  1.00  0.00     0.163 HD
ATOM     39  O   UNL A   1      34.092  31.863  27.903  1.00  0.00    -0.269 OA
BRANCH  37  40
ATOM     40  C   UNL A   1      35.819  30.288  28.121  1.00  0.00     0.039 A 
ATOM     41  C   UNL A   1      35.815  29.648  29.359  1.00  0.00     0.014 A 
ATOM     42  C   UNL A   1      37.007  30.447  27.399  1.00  0.00     0.014 A 
ATOM     43  C   UNL A   1      37.008  29.141  29.865  1.00  0.00     0.010 A 
ATOM     44  C   UNL A   1      38.173  29.851  27.856  1.00  0.00     0.010 A 
ATOM     45  C   UNL A   1      38.191  29.222  29.109  1.00  0.00    -0.014 A 
BRANCH  45  46
ATOM     46  C   UNL A   1      39.467  28.697  29.642  1.00  0.00     0.031 A 
ATOM     47  C   UNL A   1      40.090  29.339  30.852  1.00  0.00     0.074 A 
ATOM     48  C   UNL A   1      40.075  27.670  29.019  1.00  0.00     0.049 A 
ATOM     49  N   UNL A   1      41.205  29.034  31.466  1.00  0.00    -0.248 NA
ATOM     50  C   UNL A   1      39.384  30.493  31.433  1.00  0.00     0.031 C 
ATOM     51  C   UNL A   1      39.594  27.013  27.802  1.00  0.00     0.029 A 
ATOM     52  N   UNL A   1      41.230  26.999  29.326  1.00  0.00    -0.354 N 
ATOM     53  C   UNL A   1      41.337  29.966  32.488  1.00  0.00     0.074 A 
ATOM     54  C   UNL A   1      40.229  30.886  32.374  1.00  0.00     0.031 C 
ATOM     55  C   UNL A   1      40.430  26.010  27.485  1.00  0.00     0.029 A 
ATOM     56  C   UNL A   1      41.521  25.980  28.452  1.00  0.00     0.049 A 
ATOM     57  H   UNL A   1      41.797  27.226  30.098  1.00  0.00     0.167 HD
ATOM     58  C   UNL A   1      42.284  30.032  33.453  1.00  0.00     0.037 A 
ATOM     59  C   UNL A   1      42.556  25.120  28.437  1.00  0.00     0.037 A 
ATOM     60  C   UNL A   1      43.367  29.095  33.574  1.00  0.00     0.049 A 
ATOM     61  C   UNL A   1      43.585  25.204  29.531  1.00  0.00     0.074 A 
ATOM     62  C   UNL A   1      44.343  29.028  34.551  1.00  0.00     0.029 A 
ATOM     63  N   UNL A   1      43.617  28.058  32.686  1.00  0.00    -0.354 N 
ATOM     64  N   UNL A   1      43.654  26.039  30.540  1.00  0.00    -0.248 NA
ATOM     65  C   UNL A   1      44.671  24.217  29.493  1.00  0.00     0.031 C 
ATOM     66  C   UNL A   1      45.216  27.985  34.225  1.00  0.00     0.029 A 
ATOM     67  C   UNL A   1      44.746  27.361  33.079  1.00  0.00     0.049 A 
ATOM     68  H   UNL A   1      43.072  27.850  31.893  1.00  0.00     0.167 HD
ATOM     69  C   UNL A   1      44.770  25.658  31.274  1.00  0.00     0.074 A 
ATOM     70  C   UNL A   1      45.333  24.504  30.603  1.00  0.00     0.031 C 
ATOM     71  C   UNL A   1      45.285  26.210  32.401  1.00  0.00     0.037 A 
BRANCH  58  72
ATOM     72  C   UNL A   1      42.188  31.151  34.449  1.00  0.00     0.057 A 
ATOM     73  C   UNL A   1      41.462  31.025  35.641  1.00  0.00     0.134 A 
ATOM     74  C   UNL A   1      42.861  32.360  34.231  1.00  0.00     0.134 A 
ATOM     75  F   UNL A   1      40.779  29.901  35.907  1.00  0.00    -0.206 F 
ATOM     76  C   UNL A   1      41.390  32.067  36.568  1.00  0.00     0.040 A 
ATOM     77  C   UNL A   1      42.823  33.397  35.163  1.00  0.00     0.040 A 
ATOM     78  F   UNL A   1      43.577  32.549  33.112  1.00  0.00    -0.206 F 
ATOM     79  C   UNL A   1      42.080  33.254  36.334  1.00  0.00     0.006 A 
ENDBRANCH  58  72
BRANCH  59  80
ATOM     80  C   UNL A   1      42.660  24.094  27.368  1.00  0.00     0.057 A 
ATOM     81  C   UNL A   1      42.161  22.799  27.552  1.00  0.00     0.134 A 
ATOM     82  C   UNL A   1      43.279  24.377  26.145  1.00  0.00     0.134 A 
ATOM     83  F   UNL A   1      41.569  22.461  28.706  1.00  0.00    -0.206 F 
ATOM     84  C   UNL A   1      42.301  21.814  26.572  1.00  0.00     0.040 A 
ATOM     85  C   UNL A   1      43.398  23.412  25.144  1.00  0.00     0.040 A 
ATOM     86  F   UNL A   1      43.768  25.602  25.900  1.00  0.00    -0.206 F 
ATOM     87  C   UNL A   1      42.919  22.122  25.361  1.00  0.00     0.006 A 
ENDBRANCH  59  80
BRANCH  71  88
ATOM     88  C   UNL A   1      46.487  25.541  33.001  1.00  0.00     0.057 A 
ATOM     89  C   UNL A   1      47.794  25.864  32.609  1.00  0.00     0.134 A 
ATOM     90  C   UNL A   1      46.334  24.574  34.003  1.00  0.00     0.134 A 
ATOM     91  F   UNL A   1      48.009  26.776  31.648  1.00  0.00    -0.206 F 
ATOM     92  C   UNL A   1      48.901  25.221  33.163  1.00  0.00     0.040 A 
ATOM     93  C   UNL A   1      47.435  23.949  34.590  1.00  0.00     0.040 A 
ATOM     94  F   UNL A   1      45.112  24.228  34.436  1.00  0.00    -0.206 F 
ATOM     95  C   UNL A   1      48.722  24.264  34.161  1.00  0.00     0.006 A 
ENDBRANCH  71  88
ENDBRANCH  45  46
ENDBRANCH  37  40
ENDBRANCH  35  36
ENDBRANCH  34  35
ENDBRANCH  33  34
ENDBRANCH  32  33
ENDBRANCH   3  32
TORSDOF 20
ENDMDL
MODEL 2
REMARK VINA RESULT:     -11.1      0.524      6.017
REMARK SMILES CC(C)[C@H](NC(=O)[C@H](C)NC(=O)CNC(=O)OCc1ccccc1)C(=O)NCCCCNC(=O)c1ccc(-c2c3nc(c(-c4c(F)cccc4F)c4ccc([nH]4)c(-c4c(F)cccc4F)c4nc(c(-c5c(F)cccc5F)c5ccc2[nH]5)C=C4)C=C3)cc1
REMARK SMILES IDX 25 1 26 2 27 3 4 5 2 6 1 7 3 8 5 9 6 10 7 12 8 13 9 14 10 15
REMARK SMILES IDX 11 16 12 18 13 19 14 20 15 21 16 23 17 24 18 25 19 26 20 27
REMARK SMILES IDX 24 28 21 29 23 30 22 31 28 32 29 33 30 34 31 35 32 36 33 37
REMARK SMILES IDX 34 39 35 40 36 41 88 42 37 43 87 44 38 45 39 46 40 47 81 48
REMARK SMILES IDX 41 49 86 50 80 51 82 52 42 53 85 54 79 55 78 56 43 58 69 59
REMARK SMILES IDX 52 60 68 61 53 62 56 63 67 64 83 65 54 66 55 67 66 69 84 70
REMARK SMILES IDX 57 71 44 72 45 73 50 74 46 75 47 76 49 77 51 78 48 79 70 80
REMARK SMILES IDX 71 81 76 82 72 83 73 84 75 85 77 86 74 87 58 88 59 89 64 90
REMARK SMILES IDX 60 91 61 92 63 93 65 94 62 95
REMARK H PARENT 27 4 5 11 10 17 14 22 32 38 82 57 56 68
REMARK Flexibility Score: inf
ROOT
ATOM      1  C   UNL A   1      34.025  23.747  22.918  1.00  0.00     0.242 C 
ATOM      2  O   UNL A   1      33.705  23.342  21.797  1.00  0.00    -0.273 OA
ATOM      3  N   UNL A   1      33.916  25.083  23.157  1.00  0.00    -0.354 N 
ATOM      4  H   UNL A   1      33.741  25.637  22.362  1.00  0.00     0.163 HD
ENDROOT
BRANCH   1   5
ATOM      5  C   UNL A   1      34.440  22.764  24.034  1.00  0.00     0.173 C 
BRANCH   5   6
ATOM      6  C   UNL A   1      35.897  22.210  23.854  1.00  0.00     0.015 C 
ATOM      7  C   UNL A   1      36.998  23.262  23.691  1.00  0.00     0.010 C 
ATOM      8  C   UNL A   1      36.328  21.174  24.904  1.00  0.00     0.010 C 
ENDBRANCH   5   6
BRANCH   5   9
ATOM      9  N   UNL A   1      33.397  21.738  24.279  1.00  0.00    -0.342 N 
ATOM     10  C   UNL A   1      32.679  21.413  25.403  1.00  0.00     0.242 C 
ATOM     11  H   UNL A   1      33.181  21.189  23.491  1.00  0.00     0.164 HD
ATOM     12  O   UNL A   1      31.829  20.525  25.282  1.00  0.00    -0.273 OA
BRANCH  10  13
ATOM     13  C   UNL A   1      32.742  22.268  26.696  1.00  0.00     0.168 C 
ATOM     14  C   UNL A   1      33.815  21.640  27.570  1.00  0.00     0.041 C 
BRANCH  13  15
ATOM     15  N   UNL A   1      31.389  22.358  27.236  1.00  0.00    -0.343 N 
ATOM     16  C   UNL A   1      30.306  23.149  27.085  1.00  0.00     0.240 C 
ATOM     17  H   UNL A   1      31.219  21.645  27.892  1.00  0.00     0.164 HD
ATOM     18  O   UNL A   1      29.272  22.719  27.613  1.00  0.00    -0.273 OA
BRANCH  16  19
ATOM     19  C   UNL A   1      30.229  24.371  26.177  1.00  0.00     0.219 C 
BRANCH  19  20
ATOM     20  N   UNL A   1      30.582  24.185  24.792  1.00  0.00    -0.312 N 
ATOM     21  C   UNL A   1      30.474  25.124  23.819  1.00  0.00     0.407 C 
ATOM     22  H   UNL A   1      30.930  23.303  24.530  1.00  0.00     0.167 HD
ATOM     23  O   UNL A   1      30.784  24.891  22.657  1.00  0.00    -0.225 OA
BRANCH  21  24
ATOM     24  O   UNL A   1      29.941  26.279  24.281  1.00  0.00    -0.445 OA
BRANCH  24  25
ATOM     25  C   UNL A   1      28.688  26.664  23.709  1.00  0.00     0.270 C 
BRANCH  25  26
ATOM     26  C   UNL A   1      28.649  28.128  23.358  1.00  0.00    -0.011 A 
ATOM     27  C   UNL A   1      27.448  28.801  23.088  1.00  0.00     0.007 A 
ATOM     28  C   UNL A   1      29.843  28.861  23.365  1.00  0.00     0.007 A 
ATOM     29  C   UNL A   1      27.434  30.172  22.849  1.00  0.00     0.000 A 
ATOM     30  C   UNL A   1      29.830  30.233  23.115  1.00  0.00     0.000 A 
ATOM     31  C   UNL A   1      28.625  30.888  22.865  1.00  0.00     0.000 A 
ENDBRANCH  25  26
ENDBRANCH  24  25
ENDBRANCH  21  24
ENDBRANCH  19  20
ENDBRANCH  16  19
ENDBRANCH  13  15
ENDBRANCH  10  13
ENDBRANCH   5   9
ENDBRANCH   1   5
BRANCH   3  32
ATOM     32  C   UNL A   1      34.021  25.812  24.404  1.00  0.00     0.116 C 
BRANCH  32  33
ATOM     33  C   UNL A   1      33.528  27.256  24.335  1.00  0.00     0.023 C 
BRANCH  33  34
ATOM     34  C   UNL A   1      33.131  27.864  25.681  1.00  0.00     0.023 C 
BRANCH  34  35
ATOM     35  C   UNL A   1      34.276  28.541  26.415  1.00  0.00     0.116 C 
BRANCH  35  36
ATOM     36  N   UNL A   1      33.971  29.926  26.733  1.00  0.00    -0.352 N 
ATOM     37  C   UNL A   1      34.599  30.757  27.619  1.00  0.00     0.251 C 
ATOM     38  H   UNL A   1      33.212  30.318  26.245  1.00  0.00     0.163 HD
ATOM     39  O   UNL A   1      34.096  31.831  27.929  1.00  0.00    -0.269 OA
BRANCH  37  40
ATOM     40  C   UNL A   1      35.880  30.331  28.204  1.00  0.00     0.039 A 
ATOM     41  C   UNL A   1      35.870  29.628  29.407  1.00  0.00     0.014 A 
ATOM     42  C   UNL A   1      37.084  30.609  27.546  1.00  0.00     0.014 A 
ATOM     43  C   UNL A   1      37.074  29.178  29.940  1.00  0.00     0.010 A 
ATOM     44  C   UNL A   1      38.268  30.072  28.026  1.00  0.00     0.010 A 
ATOM     45  C   UNL A   1      38.278  29.380  29.244  1.00  0.00    -0.014 A 
BRANCH  45  46
ATOM     46  C   UNL A   1      39.565  28.916  29.808  1.00  0.00     0.031 A 
ATOM     47  C   UNL A   1      40.287  27.762  29.168  1.00  0.00     0.074 A 
ATOM     48  C   UNL A   1      40.061  29.512  30.909  1.00  0.00     0.049 A 
ATOM     49  N   UNL A   1      41.418  27.201  29.514  1.00  0.00    -0.248 NA
ATOM     50  C   UNL A   1      39.641  27.135  28.002  1.00  0.00     0.031 C 
ATOM     51  C   UNL A   1      39.414  30.598  31.649  1.00  0.00     0.029 A 
ATOM     52  N   UNL A   1      41.225  29.288  31.596  1.00  0.00    -0.354 N 
ATOM     53  C   UNL A   1      41.605  26.152  28.624  1.00  0.00     0.074 A 
ATOM     54  C   UNL A   1      40.446  26.110  27.763  1.00  0.00     0.031 C 
ATOM     55  C   UNL A   1      40.207  30.968  32.668  1.00  0.00     0.029 A 
ATOM     56  C   UNL A   1      41.396  30.123  32.674  1.00  0.00     0.049 A 
ATOM     57  H   UNL A   1      41.876  28.594  31.342  1.00  0.00     0.167 HD
ATOM     58  C   UNL A   1      42.664  25.316  28.514  1.00  0.00     0.037 A 
ATOM     59  C   UNL A   1      42.402  30.193  33.565  1.00  0.00     0.037 A 
ATOM     60  C   UNL A   1      43.826  25.386  29.358  1.00  0.00     0.049 A 
ATOM     61  C   UNL A   1      43.574  29.264  33.411  1.00  0.00     0.074 A 
ATOM     62  C   UNL A   1      44.984  24.633  29.292  1.00  0.00     0.029 A 
ATOM     63  N   UNL A   1      43.977  26.262  30.423  1.00  0.00    -0.354 N 
ATOM     64  N   UNL A   1      43.778  28.329  32.512  1.00  0.00    -0.248 NA
ATOM     65  C   UNL A   1      44.664  29.409  34.383  1.00  0.00     0.031 C 
ATOM     66  C   UNL A   1      45.813  25.015  30.351  1.00  0.00     0.029 A 
ATOM     67  C   UNL A   1      45.199  26.051  31.038  1.00  0.00     0.049 A 
ATOM     68  H   UNL A   1      43.313  26.933  30.701  1.00  0.00     0.167 HD
ATOM     69  C   UNL A   1      45.030  27.799  32.792  1.00  0.00     0.074 A 
ATOM     70  C   UNL A   1      45.546  28.531  33.931  1.00  0.00     0.031 C 
ATOM     71  C   UNL A   1      45.697  26.797  32.165  1.00  0.00     0.037 A 
BRANCH  58  72
ATOM     72  C   UNL A   1      42.612  24.261  27.448  1.00  0.00     0.057 A 
ATOM     73  C   UNL A   1      43.034  24.510  26.134  1.00  0.00     0.134 A 
ATOM     74  C   UNL A   1      42.169  22.967  27.746  1.00  0.00     0.134 A 
ATOM     75  F   UNL A   1      43.454  25.733  25.774  1.00  0.00    -0.206 F 
ATOM     76  C   UNL A   1      42.995  23.518  25.153  1.00  0.00     0.040 A 
ATOM     77  C   UNL A   1      42.155  21.958  26.783  1.00  0.00     0.040 A 
ATOM     78  F   UNL A   1      41.753  22.657  28.984  1.00  0.00    -0.206 F 
ATOM     79  C   UNL A   1      42.563  22.234  25.479  1.00  0.00     0.006 A 
ENDBRANCH  58  72
BRANCH  59  80
ATOM     80  C   UNL A   1      42.356  31.188  34.666  1.00  0.00     0.057 A 
ATOM     81  C   UNL A   1      42.871  32.480  34.500  1.00  0.00     0.134 A 
ATOM     82  C   UNL A   1      41.816  30.868  35.917  1.00  0.00     0.134 A 
ATOM     83  F   UNL A   1      43.415  32.845  33.330  1.00  0.00    -0.206 F 
ATOM     84  C   UNL A   1      42.880  33.405  35.546  1.00  0.00     0.040 A 
ATOM     85  C   UNL A   1      41.789  31.793  36.962  1.00  0.00     0.040 A 
ATOM     86  F   UNL A   1      41.295  29.652  36.138  1.00  0.00    -0.206 F 
ATOM     87  C   UNL A   1      42.333  33.062  36.781  1.00  0.00     0.006 A 
ENDBRANCH  59  80
BRANCH  71  88
ATOM     88  C   UNL A   1      47.072  26.472  32.670  1.00  0.00     0.057 A 
ATOM     89  C   UNL A   1      48.213  27.144  32.213  1.00  0.00     0.134 A 
ATOM     90  C   UNL A   1      47.253  25.482  33.645  1.00  0.00     0.134 A 
ATOM     91  F   UNL A   1      48.110  28.097  31.272  1.00  0.00    -0.206 F 
ATOM     92  C   UNL A   1      49.487  26.818  32.678  1.00  0.00     0.040 A 
ATOM     93  C   UNL A   1      48.519  25.170  34.144  1.00  0.00     0.040 A 
ATOM     94  F   UNL A   1      46.202  24.808  34.137  1.00  0.00    -0.206 F 
ATOM     95  C   UNL A   1      49.641  25.831  33.651  1.00  0.00     0.006 A 
ENDBRANCH  71  88
ENDBRANCH  45  46
ENDBRANCH  37  40
ENDBRANCH  35  36
ENDBRANCH  34  35
ENDBRANCH  33  34
ENDBRANCH  32  33
ENDBRANCH   3  32
TORSDOF 20
ENDMDL
MODEL 3
REMARK VINA RESULT:     -11.1      1.820      6.189
REMARK SMILES CC(C)[C@H](NC(=O)[C@H](C)NC(=O)CNC(=O)OCc1ccccc1)C(=O)NCCCCNC(=O)c1ccc(-c2c3nc(c(-c4c(F)cccc4F)c4ccc([nH]4)c(-c4c(F)cccc4F)c4nc(c(-c5c(F)cccc5F)c5ccc2[nH]5)C=C4)C=C3)cc1
REMARK SMILES IDX 25 1 26 2 27 3 4 5 2 6 1 7 3 8 5 9 6 10 7 12 8 13 9 14 10 15
REMARK SMILES IDX 11 16 12 18 13 19 14 20 15 21 16 23 17 24 18 25 19 26 20 27
REMARK SMILES IDX 24 28 21 29 23 30 22 31 28 32 29 33 30 34 31 35 32 36 33 37
REMARK SMILES IDX 34 39 35 40 36 41 88 42 37 43 87 44 38 45 39 46 40 47 81 48
REMARK SMILES IDX 41 49 86 50 80 51 82 52 42 53 85 54 79 55 78 56 43 58 69 59
REMARK SMILES IDX 52 60 68 61 53 62 56 63 67 64 83 65 54 66 55 67 66 69 84 70
REMARK SMILES IDX 57 71 44 72 45 73 50 74 46 75 47 76 49 77 51 78 48 79 70 80
REMARK SMILES IDX 71 81 76 82 72 83 73 84 75 85 77 86 74 87 58 88 59 89 64 90
REMARK SMILES IDX 60 91 61 92 63 93 65 94 62 95
REMARK H PARENT 27 4 5 11 10 17 14 22 32 38 82 57 56 68
REMARK Flexibility Score: inf
ROOT
ATOM      1  C   UNL A   1      34.049  23.868  23.098  1.00  0.00     0.242 C 
ATOM      2  O   UNL A   1      33.700  23.552  21.957  1.00  0.00    -0.273 OA
ATOM      3  N   UNL A   1      33.957  25.183  23.440  1.00  0.00    -0.354 N 
ATOM      4  H   UNL A   1      33.769  25.797  22.694  1.00  0.00     0.163 HD
ENDROOT
BRANCH   1   5
ATOM      5  C   UNL A   1      34.480  22.800  24.127  1.00  0.00     0.173 C 
BRANCH   5   6
ATOM      6  C   UNL A   1      35.921  22.239  23.862  1.00  0.00     0.015 C 
ATOM      7  C   UNL A   1      37.037  23.282  23.752  1.00  0.00     0.010 C 
ATOM      8  C   UNL A   1      36.361  21.114  24.812  1.00  0.00     0.010 C 
ENDBRANCH   5   6
BRANCH   5   9
ATOM      9  N   UNL A   1      33.427  21.776  24.330  1.00  0.00    -0.342 N 
ATOM     10  C   UNL A   1      32.657  21.457  25.421  1.00  0.00     0.242 C 
ATOM     11  H   UNL A   1      33.248  21.221  23.536  1.00  0.00     0.164 HD
ATOM     12  O   UNL A   1      31.814  20.569  25.266  1.00  0.00    -0.273 OA
BRANCH  10  13
ATOM     13  C   UNL A   1      32.659  22.321  26.710  1.00  0.00     0.168 C 
ATOM     14  C   UNL A   1      33.743  21.746  27.607  1.00  0.00     0.041 C 
BRANCH  13  15
ATOM     15  N   UNL A   1      31.294  22.355  27.224  1.00  0.00    -0.343 N 
ATOM     16  C   UNL A   1      30.187  23.110  27.064  1.00  0.00     0.240 C 
ATOM     17  H   UNL A   1      31.137  21.627  27.867  1.00  0.00     0.164 HD
ATOM     18  O   UNL A   1      29.159  22.636  27.565  1.00  0.00    -0.273 OA
BRANCH  16  19
ATOM     19  C   UNL A   1      30.083  24.342  26.173  1.00  0.00     0.219 C 
BRANCH  19  20
ATOM     20  N   UNL A   1      30.474  24.191  24.793  1.00  0.00    -0.312 N 
ATOM     21  C   UNL A   1      30.436  25.168  23.853  1.00  0.00     0.407 C 
ATOM     22  H   UNL A   1      30.796  23.305  24.510  1.00  0.00     0.167 HD
ATOM     23  O   UNL A   1      30.776  24.965  22.694  1.00  0.00    -0.225 OA
BRANCH  21  24
ATOM     24  O   UNL A   1      29.935  26.327  24.341  1.00  0.00    -0.445 OA
BRANCH  24  25
ATOM     25  C   UNL A   1      28.649  26.711  23.846  1.00  0.00     0.270 C 
BRANCH  25  26
ATOM     26  C   UNL A   1      28.684  28.040  23.139  1.00  0.00    -0.011 A 
ATOM     27  C   UNL A   1      27.555  28.866  23.043  1.00  0.00     0.007 A 
ATOM     28  C   UNL A   1      29.901  28.501  22.619  1.00  0.00     0.007 A 
ATOM     29  C   UNL A   1      27.638  30.126  22.458  1.00  0.00     0.000 A 
ATOM     30  C   UNL A   1      29.982  29.760  22.025  1.00  0.00     0.000 A 
ATOM     31  C   UNL A   1      28.852  30.574  21.951  1.00  0.00     0.000 A 
ENDBRANCH  25  26
ENDBRANCH  24  25
ENDBRANCH  21  24
ENDBRANCH  19  20
ENDBRANCH  16  19
ENDBRANCH  13  15
ENDBRANCH  10  13
ENDBRANCH   5   9
ENDBRANCH   1   5
BRANCH   3  32
ATOM     32  C   UNL A   1      34.096  25.814  24.737  1.00  0.00     0.116 C 
BRANCH  32  33
ATOM     33  C   UNL A   1      33.164  27.003  24.964  1.00  0.00     0.023 C 
BRANCH  33  34
ATOM     34  C   UNL A   1      33.222  27.606  26.368  1.00  0.00     0.023 C 
BRANCH  34  35
ATOM     35  C   UNL A   1      34.444  28.472  26.618  1.00  0.00     0.116 C 
BRANCH  35  36
ATOM     36  N   UNL A   1      34.090  29.749  27.216  1.00  0.00    -0.352 N 
ATOM     37  C   UNL A   1      34.805  30.504  28.104  1.00  0.00     0.251 C 
ATOM     38  H   UNL A   1      33.219  30.119  26.945  1.00  0.00     0.163 HD
ATOM     39  O   UNL A   1      34.282  31.453  28.677  1.00  0.00    -0.269 OA
BRANCH  37  40
ATOM     40  C   UNL A   1      36.208  30.146  28.369  1.00  0.00     0.039 A 
ATOM     41  C   UNL A   1      36.540  29.599  29.607  1.00  0.00     0.014 A 
ATOM     42  C   UNL A   1      37.182  30.333  27.382  1.00  0.00     0.014 A 
ATOM     43  C   UNL A   1      37.855  29.212  29.847  1.00  0.00     0.010 A 
ATOM     44  C   UNL A   1      38.466  29.853  27.587  1.00  0.00     0.010 A 
ATOM     45  C   UNL A   1      38.822  29.318  28.833  1.00  0.00    -0.014 A 
BRANCH  45  46
ATOM     46  C   UNL A   1      40.226  28.921  29.081  1.00  0.00     0.031 A 
ATOM     47  C   UNL A   1      40.706  27.565  28.640  1.00  0.00     0.074 A 
ATOM     48  C   UNL A   1      41.050  29.765  29.729  1.00  0.00     0.049 A 
ATOM     49  N   UNL A   1      41.891  27.026  28.772  1.00  0.00    -0.248 NA
ATOM     50  C   UNL A   1      39.719  26.686  27.991  1.00  0.00     0.031 C 
ATOM     51  C   UNL A   1      40.674  31.078  30.257  1.00  0.00     0.029 A 
ATOM     52  N   UNL A   1      42.377  29.643  30.051  1.00  0.00    -0.354 N 
ATOM     53  C   UNL A   1      41.783  25.747  28.240  1.00  0.00     0.074 A 
ATOM     54  C   UNL A   1      40.407  25.564  27.843  1.00  0.00     0.031 C 
ATOM     55  C   UNL A   1      41.755  31.655  30.808  1.00  0.00     0.029 A 
ATOM     56  C   UNL A   1      42.885  30.740  30.706  1.00  0.00     0.049 A 
ATOM     57  H   UNL A   1      42.913  28.847  29.836  1.00  0.00     0.167 HD
ATOM     58  C   UNL A   1      42.754  24.818  28.071  1.00  0.00     0.037 A 
ATOM     59  C   UNL A   1      44.126  30.973  31.169  1.00  0.00     0.037 A 
ATOM     60  C   UNL A   1      44.127  25.023  28.443  1.00  0.00     0.049 A 
ATOM     61  C   UNL A   1      45.190  29.932  30.953  1.00  0.00     0.074 A 
ATOM     62  C   UNL A   1      45.205  24.176  28.256  1.00  0.00     0.029 A 
ATOM     63  N   UNL A   1      44.613  26.156  29.080  1.00  0.00    -0.354 N 
ATOM     64  N   UNL A   1      45.094  28.758  30.374  1.00  0.00    -0.248 NA
ATOM     65  C   UNL A   1      46.537  30.253  31.440  1.00  0.00     0.031 C 
ATOM     66  C   UNL A   1      46.332  24.773  28.829  1.00  0.00     0.029 A 
ATOM     67  C   UNL A   1      45.970  26.020  29.315  1.00  0.00     0.049 A 
ATOM     68  H   UNL A   1      44.071  26.940  29.328  1.00  0.00     0.167 HD
ATOM     69  C   UNL A   1      46.373  28.217  30.399  1.00  0.00     0.074 A 
ATOM     70  C   UNL A   1      47.228  29.200  31.032  1.00  0.00     0.031 C 
ATOM     71  C   UNL A   1      46.804  27.015  29.940  1.00  0.00     0.037 A 
BRANCH  58  72
ATOM     72  C   UNL A   1      42.363  23.505  27.459  1.00  0.00     0.057 A 
ATOM     73  C   UNL A   1      42.399  23.290  26.074  1.00  0.00     0.134 A 
ATOM     74  C   UNL A   1      41.980  22.427  28.266  1.00  0.00     0.134 A 
ATOM     75  F   UNL A   1      42.741  24.284  25.239  1.00  0.00    -0.206 F 
ATOM     76  C   UNL A   1      42.047  22.060  25.514  1.00  0.00     0.040 A 
ATOM     77  C   UNL A   1      41.655  21.184  27.722  1.00  0.00     0.040 A 
ATOM     78  F   UNL A   1      41.924  22.561  29.600  1.00  0.00    -0.206 F 
ATOM     79  C   UNL A   1      41.683  21.000  26.341  1.00  0.00     0.006 A 
ENDBRANCH  58  72
BRANCH  59  80
ATOM     80  C   UNL A   1      44.437  32.250  31.861  1.00  0.00     0.057 A 
ATOM     81  C   UNL A   1      44.898  33.367  31.154  1.00  0.00     0.134 A 
ATOM     82  C   UNL A   1      44.301  32.379  33.249  1.00  0.00     0.134 A 
ATOM     83  F   UNL A   1      45.063  33.304  29.825  1.00  0.00    -0.206 F 
ATOM     84  C   UNL A   1      45.242  34.554  31.804  1.00  0.00     0.040 A 
ATOM     85  C   UNL A   1      44.611  33.569  33.908  1.00  0.00     0.040 A 
ATOM     86  F   UNL A   1      43.853  31.349  33.983  1.00  0.00    -0.206 F 
ATOM     87  C   UNL A   1      45.095  34.658  33.186  1.00  0.00     0.006 A 
ENDBRANCH  59  80
BRANCH  71  88
ATOM     88  C   UNL A   1      48.271  26.723  30.064  1.00  0.00     0.057 A 
ATOM     89  C   UNL A   1      48.804  26.035  31.163  1.00  0.00     0.134 A 
ATOM     90  C   UNL A   1      49.160  27.119  29.056  1.00  0.00     0.134 A 
ATOM     91  F   UNL A   1      48.008  25.637  32.167  1.00  0.00    -0.206 F 
ATOM     92  C   UNL A   1      50.173  25.787  31.273  1.00  0.00     0.040 A 
ATOM     93  C   UNL A   1      50.526  26.846  29.138  1.00  0.00     0.040 A 
ATOM     94  F   UNL A   1      48.715  27.769  27.970  1.00  0.00    -0.206 F 
ATOM     95  C   UNL A   1      51.037  26.188  30.255  1.00  0.00     0.006 A 
ENDBRANCH  71  88
ENDBRANCH  45  46
ENDBRANCH  37  40
ENDBRANCH  35  36
ENDBRANCH  34  35
ENDBRANCH  33  34
ENDBRANCH  32  33
ENDBRANCH   3  32
TORSDOF 20
ENDMDL
