MODEL 1
REMARK VINA RESULT:     -12.9      0.000      0.000
REMARK SMILES C[C@@H]1C(C(=O)NCCCCNC(=O)c2ccc(-c3c4nc(c(-c5c(F)cccc5F)c5ccc([nH]5)c(-c5c(F)cccc5F)c5nc(c(-c6c(F)cccc6F)c6ccc3[nH]6)C=C5)C=C4)cc2)=NC2=C1C(=O)C[C@H](c1ccccc1)C2
REMARK SMILES IDX 9 1 8 2 7 3 6 4 4 5 5 6 3 8 1 9 2 10 70 11 68 12 69 13 71 14
REMARK SMILES IDX 81 15 72 16 73 17 74 18 75 19 76 20 80 21 77 22 79 23 78 24
REMARK SMILES IDX 10 25 11 26 12 27 13 29 14 30 15 31 67 32 16 33 66 34 17 35
REMARK SMILES IDX 18 36 19 37 60 38 20 39 65 40 59 41 61 42 21 43 64 44 58 45
REMARK SMILES IDX 57 46 22 48 48 49 31 50 47 51 32 52 35 53 46 54 62 55 33 56
REMARK SMILES IDX 34 57 45 59 63 60 36 61 23 62 24 63 29 64 25 65 26 66 28 67
REMARK SMILES IDX 30 68 27 69 49 70 50 71 55 72 51 73 52 74 54 75 56 76 53 77
REMARK SMILES IDX 37 78 38 79 43 80 39 81 40 82 42 83 44 84 41 85
REMARK H PARENT 6 7 11 28 61 47 35 58
REMARK Flexibility Score: inf
ROOT
ATOM      1  C   UNL A   1      33.652  28.565  26.933  1.00  0.00     0.023 C 
ENDROOT
BRANCH   1   2
ATOM      2  C   UNL A   1      33.453  27.129  26.455  1.00  0.00     0.023 C 
BRANCH   2   3
ATOM      3  C   UNL A   1      33.127  26.830  24.989  1.00  0.00     0.116 C 
BRANCH   3   4
ATOM      4  N   UNL A   1      34.056  26.049  24.190  1.00  0.00    -0.351 N 
ATOM      5  C   UNL A   1      33.806  24.922  23.405  1.00  0.00     0.266 C 
ATOM      6  O   UNL A   1      34.537  24.692  22.445  1.00  0.00    -0.268 OA
ATOM      7  H   UNL A   1      34.990  26.358  24.205  1.00  0.00     0.163 HD
BRANCH   5   8
ATOM      8  C   UNL A   1      32.770  23.863  23.805  1.00  0.00     0.113 C 
ATOM      9  C   UNL A   1      30.313  23.923  23.320  1.00  0.00     0.020 C 
ATOM     10  C   UNL A   1      31.405  24.170  24.359  1.00  0.00     0.076 C 
ATOM     11  C   UNL A   1      31.506  23.033  25.324  1.00  0.00     0.026 C 
ATOM     12  N   UNL A   1      33.064  22.584  23.802  1.00  0.00    -0.251 NA
ATOM     13  C   UNL A   1      32.262  22.063  24.799  1.00  0.00     0.049 C 
ATOM     14  C   UNL A   1      31.681  23.235  26.781  1.00  0.00     0.161 C 
ATOM     15  C   UNL A   1      32.731  20.917  25.648  1.00  0.00     0.065 C 
ATOM     16  O   UNL A   1      30.951  24.038  27.360  1.00  0.00    -0.294 OA
ATOM     17  C   UNL A   1      32.860  22.552  27.513  1.00  0.00     0.089 C 
ATOM     18  C   UNL A   1      33.687  21.492  26.710  1.00  0.00     0.033 C 
BRANCH  18  19
ATOM     19  C   UNL A   1      35.030  21.960  26.109  1.00  0.00    -0.044 A 
ATOM     20  C   UNL A   1      35.835  21.070  25.361  1.00  0.00     0.004 A 
ATOM     21  C   UNL A   1      35.512  23.266  26.257  1.00  0.00     0.004 A 
ATOM     22  C   UNL A   1      36.944  21.506  24.636  1.00  0.00     0.000 A 
ATOM     23  C   UNL A   1      36.648  23.698  25.558  1.00  0.00     0.000 A 
ATOM     24  C   UNL A   1      37.339  22.830  24.716  1.00  0.00     0.000 A 
ENDBRANCH  18  19
ENDBRANCH   5   8
ENDBRANCH   3   4
ENDBRANCH   2   3
ENDBRANCH   1   2
BRANCH   1  25
ATOM     25  C   UNL A   1      35.072  28.949  27.300  1.00  0.00     0.116 C 
BRANCH  25  26
ATOM     26  N   UNL A   1      35.207  29.803  28.482  1.00  0.00    -0.352 N 
ATOM     27  C   UNL A   1      36.279  29.835  29.372  1.00  0.00     0.251 C 
ATOM     28  H   UNL A   1      34.462  30.419  28.667  1.00  0.00     0.163 HD
ATOM     29  O   UNL A   1      36.176  30.323  30.481  1.00  0.00    -0.269 OA
BRANCH  27  30
ATOM     30  C   UNL A   1      37.564  29.259  28.921  1.00  0.00     0.039 A 
ATOM     31  C   UNL A   1      38.233  29.705  27.778  1.00  0.00     0.014 A 
ATOM     32  C   UNL A   1      38.128  28.285  29.737  1.00  0.00     0.014 A 
ATOM     33  C   UNL A   1      39.518  29.220  27.526  1.00  0.00     0.010 A 
ATOM     34  C   UNL A   1      39.455  27.983  29.613  1.00  0.00     0.010 A 
ATOM     35  C   UNL A   1      40.131  28.378  28.469  1.00  0.00    -0.014 A 
BRANCH  35  36
ATOM     36  C   UNL A   1      41.533  27.989  28.365  1.00  0.00     0.031 A 
ATOM     37  C   UNL A   1      41.734  26.728  27.607  1.00  0.00     0.074 A 
ATOM     38  C   UNL A   1      42.551  28.810  28.713  1.00  0.00     0.049 A 
ATOM     39  N   UNL A   1      42.049  25.573  28.089  1.00  0.00    -0.248 NA
ATOM     40  C   UNL A   1      41.364  26.688  26.181  1.00  0.00     0.031 C 
ATOM     41  C   UNL A   1      42.466  30.207  29.171  1.00  0.00     0.029 A 
ATOM     42  N   UNL A   1      43.898  28.609  28.645  1.00  0.00    -0.354 N 
ATOM     43  C   UNL A   1      42.180  24.727  26.991  1.00  0.00     0.074 A 
ATOM     44  C   UNL A   1      41.535  25.394  25.893  1.00  0.00     0.031 C 
ATOM     45  C   UNL A   1      43.686  30.788  29.115  1.00  0.00     0.029 A 
ATOM     46  C   UNL A   1      44.665  29.765  28.805  1.00  0.00     0.049 A 
ATOM     47  H   UNL A   1      44.298  27.722  28.496  1.00  0.00     0.167 HD
ATOM     48  C   UNL A   1      43.087  23.711  27.017  1.00  0.00     0.037 A 
ATOM     49  C   UNL A   1      46.013  29.870  28.711  1.00  0.00     0.037 A 
ATOM     50  C   UNL A   1      43.605  23.545  28.352  1.00  0.00     0.049 A 
ATOM     51  C   UNL A   1      46.566  28.515  28.911  1.00  0.00     0.074 A 
ATOM     52  C   UNL A   1      43.152  23.039  29.550  1.00  0.00     0.029 A 
ATOM     53  N   UNL A   1      44.661  24.374  28.627  1.00  0.00    -0.354 N 
ATOM     54  N   UNL A   1      46.506  27.881  30.048  1.00  0.00    -0.248 NA
ATOM     55  C   UNL A   1      46.851  27.687  27.747  1.00  0.00     0.031 C 
ATOM     56  C   UNL A   1      43.858  23.749  30.567  1.00  0.00     0.029 A 
ATOM     57  C   UNL A   1      44.763  24.624  29.966  1.00  0.00     0.049 A 
ATOM     58  H   UNL A   1      45.270  24.743  27.946  1.00  0.00     0.167 HD
ATOM     59  C   UNL A   1      46.297  26.563  29.691  1.00  0.00     0.074 A 
ATOM     60  C   UNL A   1      46.699  26.476  28.292  1.00  0.00     0.031 C 
ATOM     61  C   UNL A   1      45.511  25.757  30.463  1.00  0.00     0.037 A 
BRANCH  48  62
ATOM     62  C   UNL A   1      43.894  23.221  25.832  1.00  0.00     0.057 A 
ATOM     63  C   UNL A   1      43.961  21.836  25.585  1.00  0.00     0.134 A 
ATOM     64  C   UNL A   1      44.849  23.993  25.140  1.00  0.00     0.134 A 
ATOM     65  F   UNL A   1      43.117  20.986  26.193  1.00  0.00    -0.206 F 
ATOM     66  C   UNL A   1      44.946  21.261  24.770  1.00  0.00     0.040 A 
ATOM     67  C   UNL A   1      45.807  23.433  24.288  1.00  0.00     0.040 A 
ATOM     68  F   UNL A   1      44.982  25.311  25.327  1.00  0.00    -0.206 F 
ATOM     69  C   UNL A   1      45.878  22.060  24.124  1.00  0.00     0.006 A 
ENDBRANCH  48  62
BRANCH  49  70
ATOM     70  C   UNL A   1      46.865  30.997  28.275  1.00  0.00     0.057 A 
ATOM     71  C   UNL A   1      46.833  31.479  26.958  1.00  0.00     0.134 A 
ATOM     72  C   UNL A   1      47.492  31.825  29.221  1.00  0.00     0.134 A 
ATOM     73  F   UNL A   1      46.226  30.776  25.991  1.00  0.00    -0.206 F 
ATOM     74  C   UNL A   1      47.361  32.730  26.607  1.00  0.00     0.040 A 
ATOM     75  C   UNL A   1      48.022  33.076  28.885  1.00  0.00     0.040 A 
ATOM     76  F   UNL A   1      47.520  31.483  30.518  1.00  0.00    -0.206 F 
ATOM     77  C   UNL A   1      47.943  33.540  27.577  1.00  0.00     0.006 A 
ENDBRANCH  49  70
BRANCH  61  78
ATOM     78  C   UNL A   1      45.294  26.170  31.887  1.00  0.00     0.057 A 
ATOM     79  C   UNL A   1      44.159  26.839  32.364  1.00  0.00     0.134 A 
ATOM     80  C   UNL A   1      46.254  25.792  32.830  1.00  0.00     0.134 A 
ATOM     81  F   UNL A   1      43.155  27.176  31.545  1.00  0.00    -0.206 F 
ATOM     82  C   UNL A   1      44.006  27.149  33.719  1.00  0.00     0.040 A 
ATOM     83  C   UNL A   1      46.100  26.065  34.189  1.00  0.00     0.040 A 
ATOM     84  F   UNL A   1      47.346  25.112  32.446  1.00  0.00    -0.206 F 
ATOM     85  C   UNL A   1      44.977  26.755  34.636  1.00  0.00     0.006 A 
ENDBRANCH  61  78
ENDBRANCH  35  36
ENDBRANCH  27  30
ENDBRANCH  25  26
ENDBRANCH   1  25
TORSDOF 12
ENDMDL
MODEL 2
REMARK VINA RESULT:     -12.7      1.067      1.678
REMARK SMILES C[C@@H]1C(C(=O)NCCCCNC(=O)c2ccc(-c3c4nc(c(-c5c(F)cccc5F)c5ccc([nH]5)c(-c5c(F)cccc5F)c5nc(c(-c6c(F)cccc6F)c6ccc3[nH]6)C=C5)C=C4)cc2)=NC2=C1C(=O)C[C@H](c1ccccc1)C2
REMARK SMILES IDX 9 1 8 2 7 3 6 4 4 5 5 6 3 8 1 9 2 10 70 11 68 12 69 13 71 14
REMARK SMILES IDX 81 15 72 16 73 17 74 18 75 19 76 20 80 21 77 22 79 23 78 24
REMARK SMILES IDX 10 25 11 26 12 27 13 29 14 30 15 31 67 32 16 33 66 34 17 35
REMARK SMILES IDX 18 36 19 37 60 38 20 39 65 40 59 41 61 42 21 43 64 44 58 45
REMARK SMILES IDX 57 46 22 48 48 49 31 50 47 51 32 52 35 53 46 54 62 55 33 56
REMARK SMILES IDX 34 57 45 59 63 60 36 61 23 62 24 63 29 64 25 65 26 66 28 67
REMARK SMILES IDX 30 68 27 69 49 70 50 71 55 72 51 73 52 74 54 75 56 76 53 77
REMARK SMILES IDX 37 78 38 79 43 80 39 81 40 82 42 83 44 84 41 85
REMARK H PARENT 6 7 11 28 61 47 35 58
REMARK Flexibility Score: inf
ROOT
ATOM      1  C   UNL A   1      33.869  28.988  27.232  1.00  0.00     0.023 C 
ENDROOT
BRANCH   1   2
ATOM      2  C   UNL A   1      33.825  27.983  26.084  1.00  0.00     0.023 C 
BRANCH   2   3
ATOM      3  C   UNL A   1      33.734  28.457  24.630  1.00  0.00     0.116 C 
BRANCH   3   4
ATOM      4  N   UNL A   1      34.123  27.560  23.556  1.00  0.00    -0.351 N 
ATOM      5  C   UNL A   1      33.311  26.834  22.682  1.00  0.00     0.266 C 
ATOM      6  O   UNL A   1      33.745  26.542  21.571  1.00  0.00    -0.268 OA
ATOM      7  H   UNL A   1      35.092  27.450  23.426  1.00  0.00     0.163 HD
BRANCH   5   8
ATOM      8  C   UNL A   1      31.971  26.232  23.125  1.00  0.00     0.113 C 
ATOM      9  C   UNL A   1      29.716  27.307  22.935  1.00  0.00     0.020 C 
ATOM     10  C   UNL A   1      30.893  26.988  23.855  1.00  0.00     0.076 C 
ATOM     11  C   UNL A   1      30.603  25.803  24.718  1.00  0.00     0.026 C 
ATOM     12  N   UNL A   1      31.724  24.949  22.998  1.00  0.00    -0.251 NA
ATOM     13  C   UNL A   1      30.860  24.678  24.042  1.00  0.00     0.049 C 
ATOM     14  C   UNL A   1      30.959  25.757  26.156  1.00  0.00     0.161 C 
ATOM     15  C   UNL A   1      30.894  23.354  24.749  1.00  0.00     0.065 C 
ATOM     16  O   UNL A   1      30.662  26.713  26.871  1.00  0.00    -0.294 OA
ATOM     17  C   UNL A   1      31.817  24.588  26.696  1.00  0.00     0.089 C 
ATOM     18  C   UNL A   1      32.081  23.385  25.729  1.00  0.00     0.033 C 
BRANCH  18  19
ATOM     19  C   UNL A   1      33.446  23.350  25.011  1.00  0.00    -0.044 A 
ATOM     20  C   UNL A   1      34.424  24.338  25.271  1.00  0.00     0.004 A 
ATOM     21  C   UNL A   1      33.792  22.355  24.089  1.00  0.00     0.004 A 
ATOM     22  C   UNL A   1      35.733  24.227  24.801  1.00  0.00     0.000 A 
ATOM     23  C   UNL A   1      35.098  22.261  23.586  1.00  0.00     0.000 A 
ATOM     24  C   UNL A   1      36.078  23.171  23.974  1.00  0.00     0.000 A 
ENDBRANCH  18  19
ENDBRANCH   5   8
ENDBRANCH   3   4
ENDBRANCH   2   3
ENDBRANCH   1   2
BRANCH   1  25
ATOM     25  C   UNL A   1      35.244  29.506  27.605  1.00  0.00     0.116 C 
BRANCH  25  26
ATOM     26  N   UNL A   1      35.377  30.006  28.975  1.00  0.00    -0.352 N 
ATOM     27  C   UNL A   1      36.393  29.705  29.879  1.00  0.00     0.251 C 
ATOM     28  H   UNL A   1      34.675  30.621  29.288  1.00  0.00     0.163 HD
ATOM     29  O   UNL A   1      36.264  29.896  31.074  1.00  0.00    -0.269 OA
BRANCH  27  30
ATOM     30  C   UNL A   1      37.652  29.147  29.340  1.00  0.00     0.039 A 
ATOM     31  C   UNL A   1      38.298  29.681  28.222  1.00  0.00     0.014 A 
ATOM     32  C   UNL A   1      38.216  28.092  30.048  1.00  0.00     0.014 A 
ATOM     33  C   UNL A   1      39.563  29.195  27.889  1.00  0.00     0.010 A 
ATOM     34  C   UNL A   1      39.531  27.775  29.856  1.00  0.00     0.010 A 
ATOM     35  C   UNL A   1      40.184  28.259  28.734  1.00  0.00    -0.014 A 
BRANCH  35  36
ATOM     36  C   UNL A   1      41.573  27.853  28.553  1.00  0.00     0.031 A 
ATOM     37  C   UNL A   1      41.717  26.594  27.778  1.00  0.00     0.074 A 
ATOM     38  C   UNL A   1      42.619  28.659  28.850  1.00  0.00     0.049 A 
ATOM     39  N   UNL A   1      42.042  25.432  28.237  1.00  0.00    -0.248 NA
ATOM     40  C   UNL A   1      41.271  26.567  26.374  1.00  0.00     0.031 C 
ATOM     41  C   UNL A   1      42.577  30.054  29.319  1.00  0.00     0.029 A 
ATOM     42  N   UNL A   1      43.958  28.442  28.708  1.00  0.00    -0.354 N 
ATOM     43  C   UNL A   1      42.103  24.591  27.128  1.00  0.00     0.074 A 
ATOM     44  C   UNL A   1      41.409  25.273  26.070  1.00  0.00     0.031 C 
ATOM     45  C   UNL A   1      43.799  30.620  29.200  1.00  0.00     0.029 A 
ATOM     46  C   UNL A   1      44.746  29.587  28.833  1.00  0.00     0.049 A 
ATOM     47  H   UNL A   1      44.337  27.550  28.533  1.00  0.00     0.167 HD
ATOM     48  C   UNL A   1      42.997  23.563  27.100  1.00  0.00     0.037 A 
ATOM     49  C   UNL A   1      46.089  29.675  28.667  1.00  0.00     0.037 A 
ATOM     50  C   UNL A   1      43.584  23.383  28.405  1.00  0.00     0.049 A 
ATOM     51  C   UNL A   1      46.635  28.312  28.831  1.00  0.00     0.074 A 
ATOM     52  C   UNL A   1      43.189  22.876  29.623  1.00  0.00     0.029 A 
ATOM     53  N   UNL A   1      44.663  24.197  28.627  1.00  0.00    -0.354 N 
ATOM     54  N   UNL A   1      46.627  27.672  29.966  1.00  0.00    -0.248 NA
ATOM     55  C   UNL A   1      46.846  27.488  27.648  1.00  0.00     0.031 C 
ATOM     56  C   UNL A   1      43.957  23.571  30.605  1.00  0.00     0.029 A 
ATOM     57  C   UNL A   1      44.840  24.438  29.960  1.00  0.00     0.049 A 
ATOM     58  H   UNL A   1      45.240  24.562  27.916  1.00  0.00     0.167 HD
ATOM     59  C   UNL A   1      46.383  26.359  29.614  1.00  0.00     0.074 A 
ATOM     60  C   UNL A   1      46.707  26.276  28.194  1.00  0.00     0.031 C 
ATOM     61  C   UNL A   1      45.628  25.558  30.422  1.00  0.00     0.037 A 
BRANCH  48  62
ATOM     62  C   UNL A   1      43.734  23.071  25.872  1.00  0.00     0.057 A 
ATOM     63  C   UNL A   1      43.777  21.685  25.619  1.00  0.00     0.134 A 
ATOM     64  C   UNL A   1      44.653  23.838  25.128  1.00  0.00     0.134 A 
ATOM     65  F   UNL A   1      42.963  20.840  26.272  1.00  0.00    -0.206 F 
ATOM     66  C   UNL A   1      44.711  21.105  24.750  1.00  0.00     0.040 A 
ATOM     67  C   UNL A   1      45.557  23.273  24.223  1.00  0.00     0.040 A 
ATOM     68  F   UNL A   1      44.805  25.154  25.309  1.00  0.00    -0.206 F 
ATOM     69  C   UNL A   1      45.611  21.899  24.054  1.00  0.00     0.006 A 
ENDBRANCH  48  62
BRANCH  49  70
ATOM     70  C   UNL A   1      46.931  30.794  28.193  1.00  0.00     0.057 A 
ATOM     71  C   UNL A   1      46.690  31.428  26.964  1.00  0.00     0.134 A 
ATOM     72  C   UNL A   1      47.789  31.467  29.078  1.00  0.00     0.134 A 
ATOM     73  F   UNL A   1      45.858  30.879  26.067  1.00  0.00    -0.206 F 
ATOM     74  C   UNL A   1      47.241  32.679  26.649  1.00  0.00     0.040 A 
ATOM     75  C   UNL A   1      48.344  32.716  28.776  1.00  0.00     0.040 A 
ATOM     76  F   UNL A   1      48.032  30.975  30.302  1.00  0.00    -0.206 F 
ATOM     77  C   UNL A   1      48.057  33.334  27.564  1.00  0.00     0.006 A 
ENDBRANCH  49  70
BRANCH  61  78
ATOM     78  C   UNL A   1      45.493  25.966  31.858  1.00  0.00     0.057 A 
ATOM     79  C   UNL A   1      46.488  25.811  32.833  1.00  0.00     0.134 A 
ATOM     80  C   UNL A   1      44.321  26.623  32.243  1.00  0.00     0.134 A 
ATOM     81  F   UNL A   1      47.671  25.259  32.537  1.00  0.00    -0.206 F 
ATOM     82  C   UNL A   1      46.306  26.262  34.144  1.00  0.00     0.040 A 
ATOM     83  C   UNL A   1      44.139  27.107  33.538  1.00  0.00     0.040 A 
ATOM     84  F   UNL A   1      43.344  26.840  31.348  1.00  0.00    -0.206 F 
ATOM     85  C   UNL A   1      45.129  26.917  34.497  1.00  0.00     0.006 A 
ENDBRANCH  61  78
ENDBRANCH  35  36
ENDBRANCH  27  30
ENDBRANCH  25  26
ENDBRANCH   1  25
TORSDOF 12
ENDMDL
MODEL 3
REMARK VINA RESULT:     -12.5      3.887      8.795
REMARK SMILES C[C@@H]1C(C(=O)NCCCCNC(=O)c2ccc(-c3c4nc(c(-c5c(F)cccc5F)c5ccc([nH]5)c(-c5c(F)cccc5F)c5nc(c(-c6c(F)cccc6F)c6ccc3[nH]6)C=C5)C=C4)cc2)=NC2=C1C(=O)C[C@H](c1ccccc1)C2
REMARK SMILES IDX 9 1 8 2 7 3 6 4 4 5 5 6 3 8 1 9 2 10 70 11 68 12 69 13 71 14
REMARK SMILES IDX 81 15 72 16 73 17 74 18 75 19 76 20 80 21 77 22 79 23 78 24
REMARK SMILES IDX 10 25 11 26 12 27 13 29 14 30 15 31 67 32 16 33 66 34 17 35
REMARK SMILES IDX 18 36 19 37 60 38 20 39 65 40 59 41 61 42 21 43 64 44 58 45
REMARK SMILES IDX 57 46 22 48 48 49 31 50 47 51 32 52 35 53 46 54 62 55 33 56
REMARK SMILES IDX 34 57 45 59 63 60 36 61 23 62 24 63 29 64 25 65 26 66 28 67
REMARK SMILES IDX 30 68 27 69 49 70 50 71 55 72 51 73 52 74 54 75 56 76 53 77
REMARK SMILES IDX 37 78 38 79 43 80 39 81 40 82 42 83 44 84 41 85
REMARK H PARENT 6 7 11 28 61 47 35 58
REMARK Flexibility Score: inf
ROOT
ATOM      1  C   UNL A   1      36.938  23.499  25.154  1.00  0.00     0.023 C 
ENDROOT
BRANCH   1   2
ATOM      2  C   UNL A   1      35.433  23.530  25.409  1.00  0.00     0.023 C 
BRANCH   2   3
ATOM      3  C   UNL A   1      34.634  24.823  25.219  1.00  0.00     0.116 C 
BRANCH   3   4
ATOM      4  N   UNL A   1      33.620  25.191  26.192  1.00  0.00    -0.351 N 
ATOM      5  C   UNL A   1      32.231  25.195  26.053  1.00  0.00     0.266 C 
ATOM      6  O   UNL A   1      31.533  25.045  27.053  1.00  0.00    -0.268 OA
ATOM      7  H   UNL A   1      33.960  25.476  27.070  1.00  0.00     0.163 HD
BRANCH   5   8
ATOM      8  C   UNL A   1      31.544  25.563  24.731  1.00  0.00     0.113 C 
ATOM      9  C   UNL A   1      30.453  23.980  23.126  1.00  0.00     0.020 C 
ATOM     10  C   UNL A   1      31.702  24.798  23.444  1.00  0.00     0.076 C 
ATOM     11  C   UNL A   1      31.737  26.068  22.657  1.00  0.00     0.026 C 
ATOM     12  N   UNL A   1      30.853  26.671  24.606  1.00  0.00    -0.251 NA
ATOM     13  C   UNL A   1      31.001  27.000  23.273  1.00  0.00     0.049 C 
ATOM     14  C   UNL A   1      32.972  26.577  22.016  1.00  0.00     0.161 C 
ATOM     15  C   UNL A   1      31.065  28.435  22.833  1.00  0.00     0.065 C 
ATOM     16  O   UNL A   1      33.653  25.803  21.343  1.00  0.00    -0.294 OA
ATOM     17  C   UNL A   1      33.457  28.014  22.320  1.00  0.00     0.089 C 
ATOM     18  C   UNL A   1      32.488  28.944  23.125  1.00  0.00     0.033 C 
BRANCH  18  19
ATOM     19  C   UNL A   1      32.764  29.104  24.635  1.00  0.00    -0.044 A 
ATOM     20  C   UNL A   1      31.856  29.803  25.464  1.00  0.00     0.004 A 
ATOM     21  C   UNL A   1      33.898  28.571  25.259  1.00  0.00     0.004 A 
ATOM     22  C   UNL A   1      31.965  29.794  26.854  1.00  0.00     0.000 A 
ATOM     23  C   UNL A   1      34.028  28.592  26.655  1.00  0.00     0.000 A 
ATOM     24  C   UNL A   1      33.043  29.165  27.454  1.00  0.00     0.000 A 
ENDBRANCH  18  19
ENDBRANCH   5   8
ENDBRANCH   3   4
ENDBRANCH   2   3
ENDBRANCH   1   2
BRANCH   1  25
ATOM     25  C   UNL A   1      37.801  24.167  26.206  1.00  0.00     0.116 C 
BRANCH  25  26
ATOM     26  N   UNL A   1      39.236  23.892  26.111  1.00  0.00    -0.352 N 
ATOM     27  C   UNL A   1      40.275  24.727  26.515  1.00  0.00     0.251 C 
ATOM     28  H   UNL A   1      39.492  23.026  25.720  1.00  0.00     0.163 HD
ATOM     29  O   UNL A   1      41.414  24.572  26.115  1.00  0.00    -0.269 OA
BRANCH  27  30
ATOM     30  C   UNL A   1      39.955  25.815  27.463  1.00  0.00     0.039 A 
ATOM     31  C   UNL A   1      39.387  25.582  28.719  1.00  0.00     0.014 A 
ATOM     32  C   UNL A   1      40.315  27.102  27.076  1.00  0.00     0.014 A 
ATOM     33  C   UNL A   1      39.277  26.652  29.608  1.00  0.00     0.010 A 
ATOM     34  C   UNL A   1      40.409  28.089  28.014  1.00  0.00     0.010 A 
ATOM     35  C   UNL A   1      39.819  27.899  29.254  1.00  0.00    -0.014 A 
BRANCH  35  36
ATOM     36  C   UNL A   1      39.909  29.004  30.203  1.00  0.00     0.031 A 
ATOM     37  C   UNL A   1      38.635  29.754  30.348  1.00  0.00     0.074 A 
ATOM     38  C   UNL A   1      40.963  29.174  31.034  1.00  0.00     0.049 A 
ATOM     39  N   UNL A   1      38.369  30.931  29.889  1.00  0.00    -0.248 NA
ATOM     40  C   UNL A   1      37.457  29.057  30.896  1.00  0.00     0.031 C 
ATOM     41  C   UNL A   1      42.134  28.296  31.197  1.00  0.00     0.029 A 
ATOM     42  N   UNL A   1      41.179  30.124  31.989  1.00  0.00    -0.354 N 
ATOM     43  C   UNL A   1      37.081  31.226  30.328  1.00  0.00     0.074 A 
ATOM     44  C   UNL A   1      36.499  29.974  30.733  1.00  0.00     0.031 C 
ATOM     45  C   UNL A   1      42.802  28.620  32.327  1.00  0.00     0.029 A 
ATOM     46  C   UNL A   1      42.229  29.838  32.863  1.00  0.00     0.049 A 
ATOM     47  H   UNL A   1      40.639  30.945  32.055  1.00  0.00     0.167 HD
ATOM     48  C   UNL A   1      36.737  32.512  30.618  1.00  0.00     0.037 A 
ATOM     49  C   UNL A   1      42.614  30.565  33.941  1.00  0.00     0.037 A 
ATOM     50  C   UNL A   1      37.765  33.413  30.159  1.00  0.00     0.049 A 
ATOM     51  C   UNL A   1      42.087  31.932  33.751  1.00  0.00     0.074 A 
ATOM     52  C   UNL A   1      38.201  33.907  28.950  1.00  0.00     0.029 A 
ATOM     53  N   UNL A   1      38.782  33.576  31.063  1.00  0.00    -0.354 N 
ATOM     54  N   UNL A   1      42.515  32.736  32.819  1.00  0.00    -0.248 NA
ATOM     55  C   UNL A   1      40.807  32.286  34.347  1.00  0.00     0.031 C 
ATOM     56  C   UNL A   1      39.589  34.195  29.123  1.00  0.00     0.029 A 
ATOM     57  C   UNL A   1      39.947  33.928  30.444  1.00  0.00     0.049 A 
ATOM     58  H   UNL A   1      38.684  33.456  32.036  1.00  0.00     0.167 HD
ATOM     59  C   UNL A   1      41.382  33.413  32.411  1.00  0.00     0.074 A 
ATOM     60  C   UNL A   1      40.418  33.236  33.491  1.00  0.00     0.031 C 
ATOM     61  C   UNL A   1      41.224  33.764  31.101  1.00  0.00     0.037 A 
BRANCH  48  62
ATOM     62  C   UNL A   1      35.801  32.944  31.727  1.00  0.00     0.057 A 
ATOM     63  C   UNL A   1      34.776  33.863  31.428  1.00  0.00     0.134 A 
ATOM     64  C   UNL A   1      36.051  32.762  33.103  1.00  0.00     0.134 A 
ATOM     65  F   UNL A   1      34.449  34.140  30.156  1.00  0.00    -0.206 F 
ATOM     66  C   UNL A   1      34.107  34.596  32.418  1.00  0.00     0.040 A 
ATOM     67  C   UNL A   1      35.355  33.453  34.100  1.00  0.00     0.040 A 
ATOM     68  F   UNL A   1      37.046  31.993  33.558  1.00  0.00    -0.206 F 
ATOM     69  C   UNL A   1      34.401  34.397  33.759  1.00  0.00     0.006 A 
ENDBRANCH  48  62
BRANCH  49  70
ATOM     70  C   UNL A   1      43.234  30.144  35.216  1.00  0.00     0.057 A 
ATOM     71  C   UNL A   1      42.689  29.113  35.996  1.00  0.00     0.134 A 
ATOM     72  C   UNL A   1      44.546  30.532  35.534  1.00  0.00     0.134 A 
ATOM     73  F   UNL A   1      41.455  28.650  35.746  1.00  0.00    -0.206 F 
ATOM     74  C   UNL A   1      43.421  28.476  37.009  1.00  0.00     0.040 A 
ATOM     75  C   UNL A   1      45.288  29.904  36.541  1.00  0.00     0.040 A 
ATOM     76  F   UNL A   1      45.179  31.465  34.806  1.00  0.00    -0.206 F 
ATOM     77  C   UNL A   1      44.731  28.861  37.272  1.00  0.00     0.006 A 
ENDBRANCH  49  70
BRANCH  61  78
ATOM     78  C   UNL A   1      42.461  33.834  30.257  1.00  0.00     0.057 A 
ATOM     79  C   UNL A   1      42.952  32.788  29.465  1.00  0.00     0.134 A 
ATOM     80  C   UNL A   1      43.135  35.057  30.185  1.00  0.00     0.134 A 
ATOM     81  F   UNL A   1      42.330  31.603  29.414  1.00  0.00    -0.206 F 
ATOM     82  C   UNL A   1      44.087  32.945  28.664  1.00  0.00     0.040 A 
ATOM     83  C   UNL A   1      44.249  35.238  29.366  1.00  0.00     0.040 A 
ATOM     84  F   UNL A   1      42.692  36.113  30.887  1.00  0.00    -0.206 F 
ATOM     85  C   UNL A   1      44.735  34.176  28.609  1.00  0.00     0.006 A 
ENDBRANCH  61  78
ENDBRANCH  35  36
ENDBRANCH  27  30
ENDBRANCH  25  26
ENDBRANCH   1  25
TORSDOF 12
ENDMDL
