MODEL 1
REMARK VINA RESULT:     -10.8      0.000      0.000
REMARK SMILES O=C(C[C@H](c1ccsc1)n1cccc1)NCCCCNC(=O)c1ccc(-c2c3nc(c(-c4c(F)cccc4F)c4ccc([nH]4)c(-c4c(F)cccc4F)c4nc(c(-c5c(F)cccc5F)c5ccc2[nH]5)C=C4)C=C3)cc1
REMARK SMILES IDX 17 1 16 2 15 3 1 4 2 5 3 7 4 8 10 9 11 10 14 11 12 12 13 13
REMARK SMILES IDX 5 14 6 15 9 16 7 17 8 18 18 19 19 20 20 21 21 22 22 24 23 25
REMARK SMILES IDX 24 26 76 27 25 28 75 29 26 30 27 31 28 32 69 33 29 34 74 35
REMARK SMILES IDX 68 36 70 37 30 38 73 39 67 40 66 41 31 43 57 44 40 45 56 46
REMARK SMILES IDX 41 47 44 48 55 49 71 50 42 51 43 52 54 54 72 55 45 56 32 57
REMARK SMILES IDX 33 58 38 59 34 60 35 61 37 62 39 63 36 64 58 65 59 66 64 67
REMARK SMILES IDX 60 68 61 69 63 70 65 71 62 72 46 73 47 74 52 75 48 76 49 77
REMARK SMILES IDX 51 78 53 79 50 80
REMARK H PARENT 15 6 20 23 70 42 44 53
REMARK Flexibility Score: inf
ROOT
ATOM      1  C   UNL A   1      35.551  23.721  24.314  1.00  0.00     0.023 C 
ENDROOT
BRANCH   1   2
ATOM      2  C   UNL A   1      34.148  24.065  24.804  1.00  0.00     0.116 C 
BRANCH   2   3
ATOM      3  N   UNL A   1      33.777  25.429  24.483  1.00  0.00    -0.356 N 
ATOM      4  O   UNL A   1      32.650  24.901  22.555  1.00  0.00    -0.275 OA
ATOM      5  C   UNL A   1      32.988  25.730  23.396  1.00  0.00     0.222 C 
ATOM      6  H   UNL A   1      34.098  26.161  25.058  1.00  0.00     0.163 HD
BRANCH   5   7
ATOM      7  C   UNL A   1      32.566  27.176  23.283  1.00  0.00     0.130 C 
BRANCH   7   8
ATOM      8  C   UNL A   1      31.274  27.559  24.021  1.00  0.00     0.127 C 
BRANCH   8   9
ATOM      9  N   UNL A   1      31.571  28.004  25.399  1.00  0.00    -0.346 N 
ATOM     10  C   UNL A   1      31.448  27.283  26.559  1.00  0.00     0.086 A 
ATOM     11  C   UNL A   1      31.929  29.295  25.723  1.00  0.00     0.086 A 
ATOM     12  C   UNL A   1      31.759  28.106  27.620  1.00  0.00     0.019 A 
ATOM     13  C   UNL A   1      32.057  29.381  27.092  1.00  0.00     0.019 A 
ENDBRANCH   8   9
BRANCH   8  14
ATOM     14  C   UNL A   1      30.308  28.481  23.294  1.00  0.00    -0.014 A 
ATOM     15  C   UNL A   1      30.652  29.461  22.297  1.00  0.00     0.017 A 
ATOM     16  C   UNL A   1      28.930  28.430  23.450  1.00  0.00     0.070 A 
ATOM     17  C   UNL A   1      29.553  30.086  21.753  1.00  0.00     0.065 A 
ATOM     18  S   UNL A   1      28.092  29.503  22.416  1.00  0.00    -0.152 S 
ENDBRANCH   8  14
ENDBRANCH   7   8
ENDBRANCH   5   7
ENDBRANCH   2   3
ENDBRANCH   1   2
BRANCH   1  19
ATOM     19  C   UNL A   1      36.458  23.055  25.361  1.00  0.00     0.023 C 
BRANCH  19  20
ATOM     20  C   UNL A   1      37.225  24.042  26.244  1.00  0.00     0.116 C 
BRANCH  20  21
ATOM     21  N   UNL A   1      38.403  23.412  26.817  1.00  0.00    -0.352 N 
ATOM     22  C   UNL A   1      39.592  23.964  27.198  1.00  0.00     0.251 C 
ATOM     23  H   UNL A   1      38.333  22.439  26.950  1.00  0.00     0.163 HD
ATOM     24  O   UNL A   1      40.594  23.234  27.243  1.00  0.00    -0.269 OA
BRANCH  22  25
ATOM     25  C   UNL A   1      39.725  25.381  27.590  1.00  0.00     0.039 A 
ATOM     26  C   UNL A   1      39.289  25.756  28.872  1.00  0.00     0.014 A 
ATOM     27  C   UNL A   1      40.137  26.359  26.679  1.00  0.00     0.014 A 
ATOM     28  C   UNL A   1      39.291  27.095  29.250  1.00  0.00     0.010 A 
ATOM     29  C   UNL A   1      40.155  27.697  27.055  1.00  0.00     0.010 A 
ATOM     30  C   UNL A   1      39.744  28.060  28.344  1.00  0.00    -0.014 A 
BRANCH  30  31
ATOM     31  C   UNL A   1      40.046  29.425  28.821  1.00  0.00     0.031 A 
ATOM     32  C   UNL A   1      38.721  30.221  29.043  1.00  0.00     0.074 A 
ATOM     33  C   UNL A   1      41.371  29.721  29.029  1.00  0.00     0.049 A 
ATOM     34  N   UNL A   1      38.532  31.473  29.318  1.00  0.00    -0.248 NA
ATOM     35  C   UNL A   1      37.400  29.519  28.953  1.00  0.00     0.031 C 
ATOM     36  C   UNL A   1      42.502  28.786  28.793  1.00  0.00     0.029 A 
ATOM     37  N   UNL A   1      42.054  30.835  29.482  1.00  0.00    -0.354 N 
ATOM     38  C   UNL A   1      37.168  31.652  29.662  1.00  0.00     0.074 A 
ATOM     39  C   UNL A   1      36.503  30.435  29.330  1.00  0.00     0.031 C 
ATOM     40  C   UNL A   1      43.695  29.391  29.001  1.00  0.00     0.029 A 
ATOM     41  C   UNL A   1      43.481  30.759  29.435  1.00  0.00     0.049 A 
ATOM     42  H   UNL A   1      41.586  31.634  29.817  1.00  0.00     0.167 HD
ATOM     43  C   UNL A   1      36.712  32.763  30.318  1.00  0.00     0.037 A 
ATOM     44  C   UNL A   1      44.407  31.736  29.706  1.00  0.00     0.037 A 
ATOM     45  C   UNL A   1      37.780  33.692  30.451  1.00  0.00     0.049 A 
ATOM     46  C   UNL A   1      43.632  32.785  30.368  1.00  0.00     0.074 A 
ATOM     47  C   UNL A   1      38.414  34.457  29.509  1.00  0.00     0.029 A 
ATOM     48  N   UNL A   1      38.570  33.569  31.567  1.00  0.00    -0.354 N 
ATOM     49  N   UNL A   1      43.175  32.689  31.579  1.00  0.00    -0.248 NA
ATOM     50  C   UNL A   1      43.278  33.992  29.616  1.00  0.00     0.031 C 
ATOM     51  C   UNL A   1      39.763  34.312  29.869  1.00  0.00     0.029 A 
ATOM     52  C   UNL A   1      39.860  33.774  31.159  1.00  0.00     0.049 A 
ATOM     53  H   UNL A   1      38.267  33.373  32.482  1.00  0.00     0.167 HD
ATOM     54  C   UNL A   1      42.181  33.630  31.575  1.00  0.00     0.074 A 
ATOM     55  C   UNL A   1      42.513  34.581  30.532  1.00  0.00     0.031 C 
ATOM     56  C   UNL A   1      40.935  33.262  31.969  1.00  0.00     0.037 A 
BRANCH  43  57
ATOM     57  C   UNL A   1      35.453  33.095  31.068  1.00  0.00     0.057 A 
ATOM     58  C   UNL A   1      34.653  34.165  30.590  1.00  0.00     0.134 A 
ATOM     59  C   UNL A   1      35.216  32.704  32.388  1.00  0.00     0.134 A 
ATOM     60  F   UNL A   1      34.751  34.588  29.319  1.00  0.00    -0.206 F 
ATOM     61  C   UNL A   1      33.797  34.896  31.414  1.00  0.00     0.040 A 
ATOM     62  C   UNL A   1      34.320  33.405  33.212  1.00  0.00     0.040 A 
ATOM     63  F   UNL A   1      35.905  31.701  32.949  1.00  0.00    -0.206 F 
ATOM     64  C   UNL A   1      33.646  34.531  32.741  1.00  0.00     0.006 A 
ENDBRANCH  43  57
BRANCH  44  65
ATOM     65  C   UNL A   1      45.879  32.066  29.531  1.00  0.00     0.057 A 
ATOM     66  C   UNL A   1      46.501  32.483  28.355  1.00  0.00     0.134 A 
ATOM     67  C   UNL A   1      46.732  32.133  30.679  1.00  0.00     0.134 A 
ATOM     68  F   UNL A   1      45.884  32.378  27.173  1.00  0.00    -0.206 F 
ATOM     69  C   UNL A   1      47.802  33.041  28.347  1.00  0.00     0.040 A 
ATOM     70  C   UNL A   1      47.990  32.740  30.696  1.00  0.00     0.040 A 
ATOM     71  F   UNL A   1      46.370  31.623  31.865  1.00  0.00    -0.206 F 
ATOM     72  C   UNL A   1      48.526  33.223  29.523  1.00  0.00     0.006 A 
ENDBRANCH  44  65
BRANCH  56  73
ATOM     73  C   UNL A   1      40.887  32.087  32.934  1.00  0.00     0.057 A 
ATOM     74  C   UNL A   1      41.474  32.209  34.203  1.00  0.00     0.134 A 
ATOM     75  C   UNL A   1      40.388  30.809  32.631  1.00  0.00     0.134 A 
ATOM     76  F   UNL A   1      41.953  33.394  34.612  1.00  0.00    -0.206 F 
ATOM     77  C   UNL A   1      41.595  31.127  35.089  1.00  0.00     0.040 A 
ATOM     78  C   UNL A   1      40.494  29.717  33.506  1.00  0.00     0.040 A 
ATOM     79  F   UNL A   1      39.776  30.565  31.474  1.00  0.00    -0.206 F 
ATOM     80  C   UNL A   1      41.109  29.873  34.741  1.00  0.00     0.006 A 
ENDBRANCH  56  73
ENDBRANCH  30  31
ENDBRANCH  22  25
ENDBRANCH  20  21
ENDBRANCH  19  20
ENDBRANCH   1  19
TORSDOF 14
ENDMDL
MODEL 2
REMARK VINA RESULT:     -10.8      4.286      8.850
REMARK SMILES O=C(C[C@H](c1ccsc1)n1cccc1)NCCCCNC(=O)c1ccc(-c2c3nc(c(-c4c(F)cccc4F)c4ccc([nH]4)c(-c4c(F)cccc4F)c4nc(c(-c5c(F)cccc5F)c5ccc2[nH]5)C=C4)C=C3)cc1
REMARK SMILES IDX 17 1 16 2 15 3 1 4 2 5 3 7 4 8 10 9 11 10 14 11 12 12 13 13
REMARK SMILES IDX 5 14 6 15 9 16 7 17 8 18 18 19 19 20 20 21 21 22 22 24 23 25
REMARK SMILES IDX 24 26 76 27 25 28 75 29 26 30 27 31 28 32 69 33 29 34 74 35
REMARK SMILES IDX 68 36 70 37 30 38 73 39 67 40 66 41 31 43 57 44 40 45 56 46
REMARK SMILES IDX 41 47 44 48 55 49 71 50 42 51 43 52 54 54 72 55 45 56 32 57
REMARK SMILES IDX 33 58 38 59 34 60 35 61 37 62 39 63 36 64 58 65 59 66 64 67
REMARK SMILES IDX 60 68 61 69 63 70 65 71 62 72 46 73 47 74 52 75 48 76 49 77
REMARK SMILES IDX 51 78 53 79 50 80
REMARK H PARENT 15 6 20 23 70 42 44 53
REMARK Flexibility Score: inf
ROOT
ATOM      1  C   UNL A   1      33.599  27.476  25.098  1.00  0.00     0.023 C 
ENDROOT
BRANCH   1   2
ATOM      2  C   UNL A   1      32.194  26.897  24.952  1.00  0.00     0.116 C 
BRANCH   2   3
ATOM      3  N   UNL A   1      32.139  25.498  25.328  1.00  0.00    -0.356 N 
ATOM      4  O   UNL A   1      31.855  24.709  23.192  1.00  0.00    -0.275 OA
ATOM      5  C   UNL A   1      32.035  24.498  24.388  1.00  0.00     0.222 C 
ATOM      6  H   UNL A   1      32.176  25.256  26.282  1.00  0.00     0.163 HD
BRANCH   5   7
ATOM      7  C   UNL A   1      32.142  23.091  24.927  1.00  0.00     0.130 C 
BRANCH   7   8
ATOM      8  C   UNL A   1      33.133  22.166  24.203  1.00  0.00     0.127 C 
BRANCH   8   9
ATOM      9  N   UNL A   1      34.527  22.573  24.480  1.00  0.00    -0.346 N 
ATOM     10  C   UNL A   1      35.093  22.856  25.697  1.00  0.00     0.086 A 
ATOM     11  C   UNL A   1      35.454  22.834  23.495  1.00  0.00     0.086 A 
ATOM     12  C   UNL A   1      36.392  23.266  25.489  1.00  0.00     0.019 A 
ATOM     13  C   UNL A   1      36.619  23.259  24.096  1.00  0.00     0.019 A 
ENDBRANCH   8   9
BRANCH   8  14
ATOM     14  C   UNL A   1      32.912  20.668  24.343  1.00  0.00    -0.014 A 
ATOM     15  C   UNL A   1      32.531  19.761  23.292  1.00  0.00     0.017 A 
ATOM     16  C   UNL A   1      33.133  19.964  25.517  1.00  0.00     0.070 A 
ATOM     17  C   UNL A   1      32.491  18.447  23.702  1.00  0.00     0.065 A 
ATOM     18  S   UNL A   1      32.916  18.277  25.345  1.00  0.00    -0.152 S 
ENDBRANCH   8  14
ENDBRANCH   7   8
ENDBRANCH   5   7
ENDBRANCH   2   3
ENDBRANCH   1   2
BRANCH   1  19
ATOM     19  C   UNL A   1      33.675  28.811  25.855  1.00  0.00     0.023 C 
BRANCH  19  20
ATOM     20  C   UNL A   1      34.738  28.849  26.954  1.00  0.00     0.116 C 
BRANCH  20  21
ATOM     21  N   UNL A   1      35.256  30.197  27.122  1.00  0.00    -0.352 N 
ATOM     22  C   UNL A   1      36.299  30.645  27.881  1.00  0.00     0.251 C 
ATOM     23  H   UNL A   1      34.783  30.893  26.611  1.00  0.00     0.163 HD
ATOM     24  O   UNL A   1      36.305  31.836  28.231  1.00  0.00    -0.269 OA
BRANCH  22  25
ATOM     25  C   UNL A   1      37.431  29.782  28.271  1.00  0.00     0.039 A 
ATOM     26  C   UNL A   1      38.532  29.701  27.401  1.00  0.00     0.014 A 
ATOM     27  C   UNL A   1      37.369  28.954  29.396  1.00  0.00     0.014 A 
ATOM     28  C   UNL A   1      39.574  28.820  27.668  1.00  0.00     0.010 A 
ATOM     29  C   UNL A   1      38.414  28.081  29.677  1.00  0.00     0.010 A 
ATOM     30  C   UNL A   1      39.519  28.025  28.819  1.00  0.00    -0.014 A 
BRANCH  30  31
ATOM     31  C   UNL A   1      40.735  27.324  29.281  1.00  0.00     0.031 A 
ATOM     32  C   UNL A   1      40.978  26.047  28.416  1.00  0.00     0.074 A 
ATOM     33  C   UNL A   1      41.434  27.921  30.302  1.00  0.00     0.049 A 
ATOM     34  N   UNL A   1      41.834  25.086  28.565  1.00  0.00    -0.248 NA
ATOM     35  C   UNL A   1      40.147  25.798  27.194  1.00  0.00     0.031 C 
ATOM     36  C   UNL A   1      41.047  29.189  30.974  1.00  0.00     0.029 A 
ATOM     37  N   UNL A   1      42.599  27.617  30.983  1.00  0.00    -0.354 N 
ATOM     38  C   UNL A   1      41.821  24.292  27.390  1.00  0.00     0.074 A 
ATOM     39  C   UNL A   1      40.699  24.724  26.623  1.00  0.00     0.031 C 
ATOM     40  C   UNL A   1      41.881  29.478  32.001  1.00  0.00     0.029 A 
ATOM     41  C   UNL A   1      42.919  28.467  32.087  1.00  0.00     0.049 A 
ATOM     42  H   UNL A   1      43.172  26.860  30.725  1.00  0.00     0.167 HD
ATOM     43  C   UNL A   1      42.823  23.412  27.082  1.00  0.00     0.037 A 
ATOM     44  C   UNL A   1      43.934  28.344  33.005  1.00  0.00     0.037 A 
ATOM     45  C   UNL A   1      43.741  23.361  28.166  1.00  0.00     0.049 A 
ATOM     46  C   UNL A   1      44.817  27.333  32.425  1.00  0.00     0.074 A 
ATOM     47  C   UNL A   1      43.606  22.830  29.420  1.00  0.00     0.029 A 
ATOM     48  N   UNL A   1      44.769  24.270  28.147  1.00  0.00    -0.354 N 
ATOM     49  N   UNL A   1      45.584  27.548  31.400  1.00  0.00    -0.248 NA
ATOM     50  C   UNL A   1      44.797  25.973  32.969  1.00  0.00     0.031 C 
ATOM     51  C   UNL A   1      44.186  23.823  30.225  1.00  0.00     0.029 A 
ATOM     52  C   UNL A   1      44.926  24.712  29.433  1.00  0.00     0.049 A 
ATOM     53  H   UNL A   1      45.293  24.550  27.362  1.00  0.00     0.167 HD
ATOM     54  C   UNL A   1      45.823  26.273  30.961  1.00  0.00     0.074 A 
ATOM     55  C   UNL A   1      45.627  25.398  32.102  1.00  0.00     0.031 C 
ATOM     56  C   UNL A   1      45.578  25.975  29.660  1.00  0.00     0.037 A 
BRANCH  43  57
ATOM     57  C   UNL A   1      43.241  22.697  25.828  1.00  0.00     0.057 A 
ATOM     58  C   UNL A   1      43.337  21.282  25.867  1.00  0.00     0.134 A 
ATOM     59  C   UNL A   1      43.906  23.321  24.770  1.00  0.00     0.134 A 
ATOM     60  F   UNL A   1      42.689  20.570  26.805  1.00  0.00    -0.206 F 
ATOM     61  C   UNL A   1      44.166  20.556  25.012  1.00  0.00     0.040 A 
ATOM     62  C   UNL A   1      44.706  22.592  23.874  1.00  0.00     0.040 A 
ATOM     63  F   UNL A   1      43.883  24.652  24.625  1.00  0.00    -0.206 F 
ATOM     64  C   UNL A   1      44.876  21.217  24.023  1.00  0.00     0.006 A 
ENDBRANCH  43  57
BRANCH  44  65
ATOM     65  C   UNL A   1      44.393  28.872  34.353  1.00  0.00     0.057 A 
ATOM     66  C   UNL A   1      45.547  29.612  34.604  1.00  0.00     0.134 A 
ATOM     67  C   UNL A   1      43.522  28.775  35.485  1.00  0.00     0.134 A 
ATOM     68  F   UNL A   1      46.519  29.706  33.691  1.00  0.00    -0.206 F 
ATOM     69  C   UNL A   1      45.750  30.302  35.823  1.00  0.00     0.040 A 
ATOM     70  C   UNL A   1      43.678  29.503  36.668  1.00  0.00     0.040 A 
ATOM     71  F   UNL A   1      42.448  27.973  35.491  1.00  0.00    -0.206 F 
ATOM     72  C   UNL A   1      44.792  30.296  36.834  1.00  0.00     0.006 A 
ENDBRANCH  44  65
BRANCH  56  73
ATOM     73  C   UNL A   1      45.668  27.154  28.703  1.00  0.00     0.057 A 
ATOM     74  C   UNL A   1      46.881  27.851  28.576  1.00  0.00     0.134 A 
ATOM     75  C   UNL A   1      44.592  27.702  27.987  1.00  0.00     0.134 A 
ATOM     76  F   UNL A   1      47.985  27.397  29.189  1.00  0.00    -0.206 F 
ATOM     77  C   UNL A   1      47.002  29.030  27.825  1.00  0.00     0.040 A 
ATOM     78  C   UNL A   1      44.695  28.877  27.226  1.00  0.00     0.040 A 
ATOM     79  F   UNL A   1      43.394  27.120  27.993  1.00  0.00    -0.206 F 
ATOM     80  C   UNL A   1      45.905  29.552  27.150  1.00  0.00     0.006 A 
ENDBRANCH  56  73
ENDBRANCH  30  31
ENDBRANCH  22  25
ENDBRANCH  20  21
ENDBRANCH  19  20
ENDBRANCH   1  19
TORSDOF 14
ENDMDL
MODEL 3
REMARK VINA RESULT:     -10.7      1.587      2.424
REMARK SMILES O=C(C[C@H](c1ccsc1)n1cccc1)NCCCCNC(=O)c1ccc(-c2c3nc(c(-c4c(F)cccc4F)c4ccc([nH]4)c(-c4c(F)cccc4F)c4nc(c(-c5c(F)cccc5F)c5ccc2[nH]5)C=C4)C=C3)cc1
REMARK SMILES IDX 17 1 16 2 15 3 1 4 2 5 3 7 4 8 10 9 11 10 14 11 12 12 13 13
REMARK SMILES IDX 5 14 6 15 9 16 7 17 8 18 18 19 19 20 20 21 21 22 22 24 23 25
REMARK SMILES IDX 24 26 76 27 25 28 75 29 26 30 27 31 28 32 69 33 29 34 74 35
REMARK SMILES IDX 68 36 70 37 30 38 73 39 67 40 66 41 31 43 57 44 40 45 56 46
REMARK SMILES IDX 41 47 44 48 55 49 71 50 42 51 43 52 54 54 72 55 45 56 32 57
REMARK SMILES IDX 33 58 38 59 34 60 35 61 37 62 39 63 36 64 58 65 59 66 64 67
REMARK SMILES IDX 60 68 61 69 63 70 65 71 62 72 46 73 47 74 52 75 48 76 49 77
REMARK SMILES IDX 51 78 53 79 50 80
REMARK H PARENT 15 6 20 23 70 42 44 53
REMARK Flexibility Score: inf
ROOT
ATOM      1  C   UNL A   1      35.699  21.953  26.232  1.00  0.00     0.023 C 
ENDROOT
BRANCH   1   2
ATOM      2  C   UNL A   1      34.708  22.577  27.211  1.00  0.00     0.116 C 
BRANCH   2   3
ATOM      3  N   UNL A   1      33.907  23.613  26.590  1.00  0.00    -0.356 N 
ATOM      4  O   UNL A   1      31.898  22.849  27.395  1.00  0.00    -0.275 OA
ATOM      5  C   UNL A   1      32.548  23.699  26.792  1.00  0.00     0.222 C 
ATOM      6  H   UNL A   1      34.347  24.274  26.008  1.00  0.00     0.163 HD
BRANCH   5   7
ATOM      7  C   UNL A   1      31.883  24.920  26.202  1.00  0.00     0.130 C 
BRANCH   7   8
ATOM      8  C   UNL A   1      32.818  25.945  25.543  1.00  0.00     0.127 C 
BRANCH   8   9
ATOM      9  N   UNL A   1      32.695  25.895  24.070  1.00  0.00    -0.346 N 
ATOM     10  C   UNL A   1      33.515  26.479  23.139  1.00  0.00     0.086 A 
ATOM     11  C   UNL A   1      31.631  25.314  23.414  1.00  0.00     0.086 A 
ATOM     12  C   UNL A   1      32.991  26.243  21.887  1.00  0.00     0.019 A 
ATOM     13  C   UNL A   1      31.795  25.512  22.061  1.00  0.00     0.019 A 
ENDBRANCH   8   9
BRANCH   8  14
ATOM     14  C   UNL A   1      32.793  27.361  26.095  1.00  0.00    -0.014 A 
ATOM     15  C   UNL A   1      31.634  28.068  26.575  1.00  0.00     0.017 A 
ATOM     16  C   UNL A   1      33.928  28.136  26.280  1.00  0.00     0.070 A 
ATOM     17  C   UNL A   1      31.935  29.306  27.096  1.00  0.00     0.065 A 
ATOM     18  S   UNL A   1      33.607  29.639  27.028  1.00  0.00    -0.152 S 
ENDBRANCH   8  14
ENDBRANCH   7   8
ENDBRANCH   5   7
ENDBRANCH   2   3
ENDBRANCH   1   2
BRANCH   1  19
ATOM     19  C   UNL A   1      36.406  22.952  25.302  1.00  0.00     0.023 C 
BRANCH  19  20
ATOM     20  C   UNL A   1      37.307  23.954  26.026  1.00  0.00     0.116 C 
BRANCH  20  21
ATOM     21  N   UNL A   1      38.431  23.277  26.652  1.00  0.00    -0.352 N 
ATOM     22  C   UNL A   1      39.613  23.783  27.109  1.00  0.00     0.251 C 
ATOM     23  H   UNL A   1      38.323  22.304  26.763  1.00  0.00     0.163 HD
ATOM     24  O   UNL A   1      40.587  23.019  27.197  1.00  0.00    -0.269 OA
BRANCH  22  25
ATOM     25  C   UNL A   1      39.769  25.188  27.535  1.00  0.00     0.039 A 
ATOM     26  C   UNL A   1      39.346  25.538  28.828  1.00  0.00     0.014 A 
ATOM     27  C   UNL A   1      40.189  26.182  26.645  1.00  0.00     0.014 A 
ATOM     28  C   UNL A   1      39.369  26.867  29.238  1.00  0.00     0.010 A 
ATOM     29  C   UNL A   1      40.228  27.510  27.054  1.00  0.00     0.010 A 
ATOM     30  C   UNL A   1      39.830  27.847  28.353  1.00  0.00    -0.014 A 
BRANCH  30  31
ATOM     31  C   UNL A   1      40.153  29.196  28.861  1.00  0.00     0.031 A 
ATOM     32  C   UNL A   1      38.845  30.027  29.049  1.00  0.00     0.074 A 
ATOM     33  C   UNL A   1      41.479  29.451  29.120  1.00  0.00     0.049 A 
ATOM     34  N   UNL A   1      38.683  31.280  29.336  1.00  0.00    -0.248 NA
ATOM     35  C   UNL A   1      37.508  29.365  28.902  1.00  0.00     0.031 C 
ATOM     36  C   UNL A   1      42.589  28.486  28.909  1.00  0.00     0.029 A 
ATOM     37  N   UNL A   1      42.177  30.538  29.613  1.00  0.00    -0.354 N 
ATOM     38  C   UNL A   1      37.312  31.494  29.635  1.00  0.00     0.074 A 
ATOM     39  C   UNL A   1      36.626  30.301  29.262  1.00  0.00     0.031 C 
ATOM     40  C   UNL A   1      43.792  29.053  29.168  1.00  0.00     0.029 A 
ATOM     41  C   UNL A   1      43.601  30.420  29.614  1.00  0.00     0.049 A 
ATOM     42  H   UNL A   1      41.720  31.345  29.944  1.00  0.00     0.167 HD
ATOM     43  C   UNL A   1      36.866  32.609  30.291  1.00  0.00     0.037 A 
ATOM     44  C   UNL A   1      44.545  31.366  29.932  1.00  0.00     0.037 A 
ATOM     45  C   UNL A   1      37.955  33.503  30.476  1.00  0.00     0.049 A 
ATOM     46  C   UNL A   1      43.778  32.428  30.583  1.00  0.00     0.074 A 
ATOM     47  C   UNL A   1      38.643  34.264  29.569  1.00  0.00     0.029 A 
ATOM     48  N   UNL A   1      38.701  33.342  31.616  1.00  0.00    -0.354 N 
ATOM     49  N   UNL A   1      43.276  32.328  31.776  1.00  0.00    -0.248 NA
ATOM     50  C   UNL A   1      43.485  33.655  29.837  1.00  0.00     0.031 C 
ATOM     51  C   UNL A   1      39.974  34.074  29.973  1.00  0.00     0.029 A 
ATOM     52  C   UNL A   1      40.010  33.515  31.257  1.00  0.00     0.049 A 
ATOM     53  H   UNL A   1      38.361  33.141  32.518  1.00  0.00     0.167 HD
ATOM     54  C   UNL A   1      42.310  33.297  31.751  1.00  0.00     0.074 A 
ATOM     55  C   UNL A   1      42.706  34.253  30.735  1.00  0.00     0.031 C 
ATOM     56  C   UNL A   1      41.040  32.961  32.096  1.00  0.00     0.037 A 
BRANCH  43  57
ATOM     57  C   UNL A   1      35.592  32.966  31.003  1.00  0.00     0.057 A 
ATOM     58  C   UNL A   1      34.850  34.078  30.525  1.00  0.00     0.134 A 
ATOM     59  C   UNL A   1      35.289  32.548  32.300  1.00  0.00     0.134 A 
ATOM     60  F   UNL A   1      35.013  34.531  29.271  1.00  0.00    -0.206 F 
ATOM     61  C   UNL A   1      33.989  34.818  31.337  1.00  0.00     0.040 A 
ATOM     62  C   UNL A   1      34.387  33.259  33.109  1.00  0.00     0.040 A 
ATOM     63  F   UNL A   1      35.919  31.506  32.858  1.00  0.00    -0.206 F 
ATOM     64  C   UNL A   1      33.774  34.421  32.646  1.00  0.00     0.006 A 
ENDBRANCH  43  57
BRANCH  44  65
ATOM     65  C   UNL A   1      46.031  31.656  29.814  1.00  0.00     0.057 A 
ATOM     66  C   UNL A   1      47.010  31.371  30.766  1.00  0.00     0.134 A 
ATOM     67  C   UNL A   1      46.567  32.112  28.567  1.00  0.00     0.134 A 
ATOM     68  F   UNL A   1      46.678  31.042  32.019  1.00  0.00    -0.206 F 
ATOM     69  C   UNL A   1      48.391  31.408  30.461  1.00  0.00     0.040 A 
ATOM     70  C   UNL A   1      47.924  32.091  28.233  1.00  0.00     0.040 A 
ATOM     71  F   UNL A   1      45.785  32.589  27.589  1.00  0.00    -0.206 F 
ATOM     72  C   UNL A   1      48.849  31.712  29.181  1.00  0.00     0.006 A 
ENDBRANCH  44  65
BRANCH  56  73
ATOM     73  C   UNL A   1      40.925  31.773  33.040  1.00  0.00     0.057 A 
ATOM     74  C   UNL A   1      41.560  31.820  34.292  1.00  0.00     0.134 A 
ATOM     75  C   UNL A   1      40.312  30.548  32.731  1.00  0.00     0.134 A 
ATOM     76  F   UNL A   1      42.149  32.953  34.705  1.00  0.00    -0.206 F 
ATOM     77  C   UNL A   1      41.618  30.714  35.154  1.00  0.00     0.040 A 
ATOM     78  C   UNL A   1      40.354  29.433  33.583  1.00  0.00     0.040 A 
ATOM     79  F   UNL A   1      39.645  30.380  31.591  1.00  0.00    -0.206 F 
ATOM     80  C   UNL A   1      41.018  29.512  34.799  1.00  0.00     0.006 A 
ENDBRANCH  56  73
ENDBRANCH  30  31
ENDBRANCH  22  25
ENDBRANCH  20  21
ENDBRANCH  19  20
ENDBRANCH   1  19
TORSDOF 14
ENDMDL
