MODEL 1
REMARK VINA RESULT:     -12.0      0.000      0.000
REMARK SMILES O=C(COc1ccc(/C=C/C(=O)c2ccc(F)cc2F)cc1[N+](=O)[O-])NCCCCNC(=O)c1ccc(-c2c3nc(c(-c4c(F)cccc4F)c4ccc([nH]4)c(-c4c(F)cccc4F)c4nc(c(-c5c(F)cccc5F)c5ccc2[nH]5)C=C4)C=C3)cc1
REMARK SMILES IDX 27 1 26 2 1 3 2 4 3 6 4 7 5 8 6 9 22 10 7 11 21 12 8 13
REMARK SMILES IDX 23 14 24 15 25 16 9 17 10 18 11 19 12 20 13 21 14 22 19 23
REMARK SMILES IDX 15 24 18 25 20 26 16 27 17 28 28 29 29 30 30 31 31 32 32 33
REMARK SMILES IDX 33 35 34 36 35 37 87 38 36 39 86 40 37 41 38 42 39 43 80 44
REMARK SMILES IDX 40 45 85 46 79 47 81 48 41 49 84 50 78 51 77 52 42 54 68 55
REMARK SMILES IDX 51 56 67 57 52 58 55 59 66 60 82 61 53 62 54 63 65 65 83 66
REMARK SMILES IDX 56 67 43 68 44 69 49 70 45 71 46 72 48 73 50 74 47 75 69 76
REMARK SMILES IDX 70 77 75 78 71 79 72 80 74 81 76 82 73 83 57 84 58 85 63 86
REMARK SMILES IDX 59 87 60 88 62 89 64 90 61 91
REMARK H PARENT 26 5 31 34 81 53 55 64
REMARK Flexibility Score: inf
ROOT
ATOM      1  C   UNL A   1      31.126  30.407  24.573  1.00  0.00     0.116 C 
ENDROOT
BRANCH   1   2
ATOM      2  N   UNL A   1      30.730  29.046  24.249  1.00  0.00    -0.353 N 
ATOM      3  O   UNL A   1      30.263  29.415  22.024  1.00  0.00    -0.271 OA
ATOM      4  C   UNL A   1      30.447  28.643  22.959  1.00  0.00     0.257 C 
ATOM      5  H   UNL A   1      30.659  28.388  24.978  1.00  0.00     0.163 HD
BRANCH   4   6
ATOM      6  C   UNL A   1      30.387  27.120  22.775  1.00  0.00     0.329 C 
BRANCH   6   7
ATOM      7  O   UNL A   1      30.028  26.410  23.968  1.00  0.00    -0.477 OA
BRANCH   7   8
ATOM      8  C   UNL A   1      30.854  25.347  24.221  1.00  0.00     0.197 A 
ATOM      9  C   UNL A   1      30.610  24.139  23.561  1.00  0.00     0.054 A 
ATOM     10  C   UNL A   1      31.857  25.371  25.189  1.00  0.00     0.311 A 
ATOM     11  C   UNL A   1      31.391  23.001  23.840  1.00  0.00     0.012 A 
ATOM     12  C   UNL A   1      32.673  24.263  25.439  1.00  0.00     0.098 A 
ATOM     13  C   UNL A   1      32.435  23.058  24.774  1.00  0.00    -0.018 A 
BRANCH  10  14
ATOM     14  N   UNL A   1      32.016  26.493  26.080  1.00  0.00     0.066 N 
ATOM     15  O   UNL A   1      31.278  26.536  27.073  1.00  0.00    -0.258 OA
ATOM     16  O   UNL A   1      32.842  27.359  25.757  1.00  0.00    -0.258 OA
ENDBRANCH  10  14
BRANCH  13  17
ATOM     17  C   UNL A   1      33.315  21.936  25.126  1.00  0.00     0.012 C 
ATOM     18  C   UNL A   1      33.887  21.087  24.259  1.00  0.00     0.053 C 
BRANCH  18  19
ATOM     19  C   UNL A   1      34.690  19.905  24.682  1.00  0.00     0.188 C 
ATOM     20  O   UNL A   1      35.869  20.057  24.991  1.00  0.00    -0.289 OA
BRANCH  19  21
ATOM     21  C   UNL A   1      34.088  18.554  24.757  1.00  0.00     0.058 A 
ATOM     22  C   UNL A   1      34.527  17.576  23.853  1.00  0.00     0.018 A 
ATOM     23  C   UNL A   1      33.071  18.241  25.665  1.00  0.00     0.137 A 
ATOM     24  C   UNL A   1      33.980  16.291  23.897  1.00  0.00     0.040 A 
ATOM     25  C   UNL A   1      32.526  16.962  25.713  1.00  0.00     0.079 A 
ATOM     26  F   UNL A   1      32.591  19.166  26.508  1.00  0.00    -0.206 F 
ATOM     27  C   UNL A   1      32.990  15.996  24.829  1.00  0.00     0.126 A 
ATOM     28  F   UNL A   1      32.470  14.762  24.871  1.00  0.00    -0.207 F 
ENDBRANCH  19  21
ENDBRANCH  18  19
ENDBRANCH  13  17
ENDBRANCH   7   8
ENDBRANCH   6   7
ENDBRANCH   4   6
ENDBRANCH   1   2
BRANCH   1  29
ATOM     29  C   UNL A   1      31.537  30.611  26.026  1.00  0.00     0.023 C 
BRANCH  29  30
ATOM     30  C   UNL A   1      31.304  32.014  26.594  1.00  0.00     0.023 C 
BRANCH  30  31
ATOM     31  C   UNL A   1      32.518  32.696  27.222  1.00  0.00     0.116 C 
BRANCH  31  32
ATOM     32  N   UNL A   1      32.279  34.089  27.567  1.00  0.00    -0.352 N 
ATOM     33  C   UNL A   1      32.917  34.904  28.472  1.00  0.00     0.251 C 
ATOM     34  H   UNL A   1      31.541  34.517  27.075  1.00  0.00     0.163 HD
ATOM     35  O   UNL A   1      32.466  36.023  28.709  1.00  0.00    -0.269 OA
BRANCH  33  36
ATOM     36  C   UNL A   1      34.126  34.444  29.195  1.00  0.00     0.039 A 
ATOM     37  C   UNL A   1      33.987  33.966  30.503  1.00  0.00     0.014 A 
ATOM     38  C   UNL A   1      35.394  34.498  28.611  1.00  0.00     0.014 A 
ATOM     39  C   UNL A   1      35.100  33.470  31.189  1.00  0.00     0.010 A 
ATOM     40  C   UNL A   1      36.489  33.933  29.266  1.00  0.00     0.010 A 
ATOM     41  C   UNL A   1      36.355  33.407  30.560  1.00  0.00    -0.014 A 
BRANCH  41  42
ATOM     42  C   UNL A   1      37.524  32.777  31.233  1.00  0.00     0.031 A 
ATOM     43  C   UNL A   1      38.191  31.567  30.636  1.00  0.00     0.074 A 
ATOM     44  C   UNL A   1      37.948  33.255  32.419  1.00  0.00     0.049 A 
ATOM     45  N   UNL A   1      39.176  30.846  31.111  1.00  0.00    -0.248 NA
ATOM     46  C   UNL A   1      37.668  31.090  29.346  1.00  0.00     0.031 C 
ATOM     47  C   UNL A   1      37.367  34.396  33.129  1.00  0.00     0.029 A 
ATOM     48  N   UNL A   1      38.963  32.834  33.245  1.00  0.00    -0.354 N 
ATOM     49  C   UNL A   1      39.380  29.827  30.190  1.00  0.00     0.074 A 
ATOM     50  C   UNL A   1      38.385  29.992  29.153  1.00  0.00     0.031 C 
ATOM     51  C   UNL A   1      38.048  34.600  34.269  1.00  0.00     0.029 A 
ATOM     52  C   UNL A   1      39.084  33.580  34.394  1.00  0.00     0.049 A 
ATOM     53  H   UNL A   1      39.547  32.072  33.035  1.00  0.00     0.167 HD
ATOM     54  C   UNL A   1      40.322  28.852  30.196  1.00  0.00     0.037 A 
ATOM     55  C   UNL A   1      39.927  33.453  35.437  1.00  0.00     0.037 A 
ATOM     56  C   UNL A   1      41.325  28.698  31.219  1.00  0.00     0.049 A 
ATOM     57  C   UNL A   1      40.948  32.348  35.430  1.00  0.00     0.074 A 
ATOM     58  C   UNL A   1      42.360  27.780  31.278  1.00  0.00     0.029 A 
ATOM     59  N   UNL A   1      41.417  29.475  32.363  1.00  0.00    -0.354 N 
ATOM     60  N   UNL A   1      41.174  31.435  34.517  1.00  0.00    -0.248 NA
ATOM     61  C   UNL A   1      41.835  32.259  36.599  1.00  0.00     0.031 C 
ATOM     62  C   UNL A   1      43.043  27.966  32.484  1.00  0.00     0.029 A 
ATOM     63  C   UNL A   1      42.471  29.039  33.149  1.00  0.00     0.049 A 
ATOM     64  H   UNL A   1      40.819  30.226  32.584  1.00  0.00     0.167 HD
ATOM     65  C   UNL A   1      42.247  30.687  34.984  1.00  0.00     0.074 A 
ATOM     66  C   UNL A   1      42.636  31.260  36.255  1.00  0.00     0.031 C 
ATOM     67  C   UNL A   1      42.857  29.621  34.409  1.00  0.00     0.037 A 
BRANCH  54  68
ATOM     68  C   UNL A   1      40.312  27.867  29.061  1.00  0.00     0.057 A 
ATOM     69  C   UNL A   1      41.112  28.040  27.924  1.00  0.00     0.134 A 
ATOM     70  C   UNL A   1      39.528  26.708  29.127  1.00  0.00     0.134 A 
ATOM     71  F   UNL A   1      41.881  29.131  27.792  1.00  0.00    -0.206 F 
ATOM     72  C   UNL A   1      41.110  27.111  26.881  1.00  0.00     0.040 A 
ATOM     73  C   UNL A   1      39.541  25.757  28.106  1.00  0.00     0.040 A 
ATOM     74  F   UNL A   1      38.747  26.473  30.193  1.00  0.00    -0.206 F 
ATOM     75  C   UNL A   1      40.329  25.961  26.975  1.00  0.00     0.006 A 
ENDBRANCH  54  68
BRANCH  55  76
ATOM     76  C   UNL A   1      39.858  34.406  36.575  1.00  0.00     0.057 A 
ATOM     77  C   UNL A   1      40.548  35.624  36.539  1.00  0.00     0.134 A 
ATOM     78  C   UNL A   1      39.120  34.118  37.730  1.00  0.00     0.134 A 
ATOM     79  F   UNL A   1      41.290  35.947  35.469  1.00  0.00    -0.206 F 
ATOM     80  C   UNL A   1      40.528  36.508  37.617  1.00  0.00     0.040 A 
ATOM     81  C   UNL A   1      39.068  35.007  38.805  1.00  0.00     0.040 A 
ATOM     82  F   UNL A   1      38.432  32.971  37.825  1.00  0.00    -0.206 F 
ATOM     83  C   UNL A   1      39.782  36.203  38.754  1.00  0.00     0.006 A 
ENDBRANCH  55  76
BRANCH  67  84
ATOM     84  C   UNL A   1      44.036  29.029  35.127  1.00  0.00     0.057 A 
ATOM     85  C   UNL A   1      43.891  28.026  36.093  1.00  0.00     0.134 A 
ATOM     86  C   UNL A   1      45.338  29.446  34.819  1.00  0.00     0.134 A 
ATOM     87  F   UNL A   1      42.672  27.591  36.445  1.00  0.00    -0.206 F 
ATOM     88  C   UNL A   1      44.997  27.476  36.746  1.00  0.00     0.040 A 
ATOM     89  C   UNL A   1      46.452  28.883  35.442  1.00  0.00     0.040 A 
ATOM     90  F   UNL A   1      45.549  30.397  33.896  1.00  0.00    -0.206 F 
ATOM     91  C   UNL A   1      46.282  27.899  36.414  1.00  0.00     0.006 A 
ENDBRANCH  67  84
ENDBRANCH  41  42
ENDBRANCH  33  36
ENDBRANCH  31  32
ENDBRANCH  30  31
ENDBRANCH  29  30
ENDBRANCH   1  29
TORSDOF 17
ENDMDL
MODEL 2
REMARK VINA RESULT:     -11.9      1.719      6.305
REMARK SMILES O=C(COc1ccc(/C=C/C(=O)c2ccc(F)cc2F)cc1[N+](=O)[O-])NCCCCNC(=O)c1ccc(-c2c3nc(c(-c4c(F)cccc4F)c4ccc([nH]4)c(-c4c(F)cccc4F)c4nc(c(-c5c(F)cccc5F)c5ccc2[nH]5)C=C4)C=C3)cc1
REMARK SMILES IDX 27 1 26 2 1 3 2 4 3 6 4 7 5 8 6 9 22 10 7 11 21 12 8 13
REMARK SMILES IDX 23 14 24 15 25 16 9 17 10 18 11 19 12 20 13 21 14 22 19 23
REMARK SMILES IDX 15 24 18 25 20 26 16 27 17 28 28 29 29 30 30 31 31 32 32 33
REMARK SMILES IDX 33 35 34 36 35 37 87 38 36 39 86 40 37 41 38 42 39 43 80 44
REMARK SMILES IDX 40 45 85 46 79 47 81 48 41 49 84 50 78 51 77 52 42 54 68 55
REMARK SMILES IDX 51 56 67 57 52 58 55 59 66 60 82 61 53 62 54 63 65 65 83 66
REMARK SMILES IDX 56 67 43 68 44 69 49 70 45 71 46 72 48 73 50 74 47 75 69 76
REMARK SMILES IDX 70 77 75 78 71 79 72 80 74 81 76 82 73 83 57 84 58 85 63 86
REMARK SMILES IDX 59 87 60 88 62 89 64 90 61 91
REMARK H PARENT 26 5 31 34 81 53 55 64
REMARK Flexibility Score: inf
ROOT
ATOM      1  C   UNL A   1      32.243  29.729  25.368  1.00  0.00     0.116 C 
ENDROOT
BRANCH   1   2
ATOM      2  N   UNL A   1      31.207  29.223  24.483  1.00  0.00    -0.353 N 
ATOM      3  O   UNL A   1      32.565  28.828  22.664  1.00  0.00    -0.271 OA
ATOM      4  C   UNL A   1      31.487  28.699  23.236  1.00  0.00     0.257 C 
ATOM      5  H   UNL A   1      30.270  29.258  24.783  1.00  0.00     0.163 HD
BRANCH   4   6
ATOM      6  C   UNL A   1      30.326  27.916  22.607  1.00  0.00     0.329 C 
BRANCH   6   7
ATOM      7  O   UNL A   1      29.825  26.862  23.441  1.00  0.00    -0.477 OA
BRANCH   7   8
ATOM      8  C   UNL A   1      30.760  25.893  23.689  1.00  0.00     0.197 A 
ATOM      9  C   UNL A   1      31.319  25.210  22.604  1.00  0.00     0.054 A 
ATOM     10  C   UNL A   1      31.101  25.468  24.973  1.00  0.00     0.311 A 
ATOM     11  C   UNL A   1      32.234  24.160  22.814  1.00  0.00     0.012 A 
ATOM     12  C   UNL A   1      32.046  24.461  25.194  1.00  0.00     0.098 A 
ATOM     13  C   UNL A   1      32.611  23.785  24.111  1.00  0.00    -0.018 A 
BRANCH  10  14
ATOM     14  N   UNL A   1      30.396  25.949  26.136  1.00  0.00     0.066 N 
ATOM     15  O   UNL A   1      30.894  26.905  26.742  1.00  0.00    -0.258 OA
ATOM     16  O   UNL A   1      29.374  25.332  26.471  1.00  0.00    -0.258 OA
ENDBRANCH  10  14
BRANCH  13  17
ATOM     17  C   UNL A   1      33.565  22.716  24.437  1.00  0.00     0.012 C 
ATOM     18  C   UNL A   1      33.326  21.399  24.345  1.00  0.00     0.053 C 
BRANCH  18  19
ATOM     19  C   UNL A   1      34.300  20.361  24.786  1.00  0.00     0.188 C 
ATOM     20  O   UNL A   1      35.416  20.704  25.169  1.00  0.00    -0.289 OA
BRANCH  19  21
ATOM     21  C   UNL A   1      33.942  18.924  24.792  1.00  0.00     0.058 A 
ATOM     22  C   UNL A   1      32.614  18.567  25.061  1.00  0.00     0.018 A 
ATOM     23  C   UNL A   1      34.893  17.919  24.584  1.00  0.00     0.137 A 
ATOM     24  C   UNL A   1      32.243  17.220  25.075  1.00  0.00     0.040 A 
ATOM     25  C   UNL A   1      34.527  16.577  24.594  1.00  0.00     0.079 A 
ATOM     26  F   UNL A   1      36.182  18.222  24.375  1.00  0.00    -0.206 F 
ATOM     27  C   UNL A   1      33.201  16.239  24.836  1.00  0.00     0.126 A 
ATOM     28  F   UNL A   1      32.842  14.949  24.845  1.00  0.00    -0.207 F 
ENDBRANCH  19  21
ENDBRANCH  18  19
ENDBRANCH  13  17
ENDBRANCH   7   8
ENDBRANCH   6   7
ENDBRANCH   4   6
ENDBRANCH   1   2
BRANCH   1  29
ATOM     29  C   UNL A   1      31.744  30.131  26.751  1.00  0.00     0.023 C 
BRANCH  29  30
ATOM     30  C   UNL A   1      31.489  31.626  26.958  1.00  0.00     0.023 C 
BRANCH  30  31
ATOM     31  C   UNL A   1      32.722  32.526  26.968  1.00  0.00     0.116 C 
BRANCH  31  32
ATOM     32  N   UNL A   1      32.479  33.830  27.566  1.00  0.00    -0.352 N 
ATOM     33  C   UNL A   1      33.175  34.507  28.539  1.00  0.00     0.251 C 
ATOM     34  H   UNL A   1      31.687  34.302  27.220  1.00  0.00     0.163 HD
ATOM     35  O   UNL A   1      32.717  35.551  29.001  1.00  0.00    -0.269 OA
BRANCH  33  36
ATOM     36  C   UNL A   1      34.457  33.985  29.065  1.00  0.00     0.039 A 
ATOM     37  C   UNL A   1      34.427  33.044  30.100  1.00  0.00     0.014 A 
ATOM     38  C   UNL A   1      35.687  34.425  28.568  1.00  0.00     0.014 A 
ATOM     39  C   UNL A   1      35.618  32.488  30.577  1.00  0.00     0.010 A 
ATOM     40  C   UNL A   1      36.869  33.814  28.990  1.00  0.00     0.010 A 
ATOM     41  C   UNL A   1      36.849  32.835  29.995  1.00  0.00    -0.014 A 
BRANCH  41  42
ATOM     42  C   UNL A   1      38.114  32.169  30.411  1.00  0.00     0.031 A 
ATOM     43  C   UNL A   1      39.032  32.821  31.409  1.00  0.00     0.074 A 
ATOM     44  C   UNL A   1      38.471  31.001  29.840  1.00  0.00     0.049 A 
ATOM     45  N   UNL A   1      40.203  32.424  31.840  1.00  0.00    -0.248 NA
ATOM     46  C   UNL A   1      38.586  34.101  31.981  1.00  0.00     0.031 C 
ATOM     47  C   UNL A   1      37.695  30.279  28.830  1.00  0.00     0.029 A 
ATOM     48  N   UNL A   1      39.587  30.219  30.020  1.00  0.00    -0.354 N 
ATOM     49  C   UNL A   1      40.639  33.407  32.718  1.00  0.00     0.074 A 
ATOM     50  C   UNL A   1      39.630  34.445  32.723  1.00  0.00     0.031 C 
ATOM     51  C   UNL A   1      38.343  29.151  28.499  1.00  0.00     0.029 A 
ATOM     52  C   UNL A   1      39.601  29.088  29.238  1.00  0.00     0.049 A 
ATOM     53  H   UNL A   1      40.307  30.445  30.650  1.00  0.00     0.167 HD
ATOM     54  C   UNL A   1      41.767  33.438  33.469  1.00  0.00     0.037 A 
ATOM     55  C   UNL A   1      40.525  28.115  29.119  1.00  0.00     0.037 A 
ATOM     56  C   UNL A   1      42.763  32.396  33.480  1.00  0.00     0.049 A 
ATOM     57  C   UNL A   1      41.779  28.184  29.946  1.00  0.00     0.074 A 
ATOM     58  C   UNL A   1      43.907  32.308  34.255  1.00  0.00     0.029 A 
ATOM     59  N   UNL A   1      42.738  31.267  32.677  1.00  0.00    -0.354 N 
ATOM     60  N   UNL A   1      42.143  29.086  30.825  1.00  0.00    -0.248 NA
ATOM     61  C   UNL A   1      42.751  27.096  29.766  1.00  0.00     0.031 C 
ATOM     62  C   UNL A   1      44.602  31.154  33.881  1.00  0.00     0.029 A 
ATOM     63  C   UNL A   1      43.861  30.492  32.915  1.00  0.00     0.049 A 
ATOM     64  H   UNL A   1      42.027  31.048  32.032  1.00  0.00     0.167 HD
ATOM     65  C   UNL A   1      43.365  28.657  31.327  1.00  0.00     0.074 A 
ATOM     66  C   UNL A   1      43.675  27.408  30.664  1.00  0.00     0.031 C 
ATOM     67  C   UNL A   1      44.158  29.245  32.256  1.00  0.00     0.037 A 
BRANCH  54  68
ATOM     68  C   UNL A   1      41.991  34.639  34.342  1.00  0.00     0.057 A 
ATOM     69  C   UNL A   1      41.627  34.650  35.696  1.00  0.00     0.134 A 
ATOM     70  C   UNL A   1      42.621  35.784  33.836  1.00  0.00     0.134 A 
ATOM     71  F   UNL A   1      41.013  33.590  36.244  1.00  0.00    -0.206 F 
ATOM     72  C   UNL A   1      41.855  35.765  36.505  1.00  0.00     0.040 A 
ATOM     73  C   UNL A   1      42.882  36.893  34.643  1.00  0.00     0.040 A 
ATOM     74  F   UNL A   1      43.005  35.838  32.552  1.00  0.00    -0.206 F 
ATOM     75  C   UNL A   1      42.491  36.888  35.981  1.00  0.00     0.006 A 
ENDBRANCH  54  68
BRANCH  55  76
ATOM     76  C   UNL A   1      40.297  26.978  28.190  1.00  0.00     0.057 A 
ATOM     77  C   UNL A   1      39.550  25.862  28.586  1.00  0.00     0.134 A 
ATOM     78  C   UNL A   1      40.834  26.967  26.897  1.00  0.00     0.134 A 
ATOM     79  F   UNL A   1      39.028  25.803  29.820  1.00  0.00    -0.206 F 
ATOM     80  C   UNL A   1      39.365  24.768  27.740  1.00  0.00     0.040 A 
ATOM     81  C   UNL A   1      40.633  25.892  26.030  1.00  0.00     0.040 A 
ATOM     82  F   UNL A   1      41.555  28.009  26.454  1.00  0.00    -0.206 F 
ATOM     83  C   UNL A   1      39.904  24.783  26.455  1.00  0.00     0.006 A 
ENDBRANCH  55  76
BRANCH  67  84
ATOM     84  C   UNL A   1      45.418  28.526  32.644  1.00  0.00     0.057 A 
ATOM     85  C   UNL A   1      46.642  28.776  32.010  1.00  0.00     0.134 A 
ATOM     86  C   UNL A   1      45.412  27.596  33.692  1.00  0.00     0.134 A 
ATOM     87  F   UNL A   1      46.715  29.645  30.991  1.00  0.00    -0.206 F 
ATOM     88  C   UNL A   1      47.809  28.109  32.388  1.00  0.00     0.040 A 
ATOM     89  C   UNL A   1      46.578  26.945  34.098  1.00  0.00     0.040 A 
ATOM     90  F   UNL A   1      44.276  27.315  34.347  1.00  0.00    -0.206 F 
ATOM     91  C   UNL A   1      47.780  27.196  33.440  1.00  0.00     0.006 A 
ENDBRANCH  67  84
ENDBRANCH  41  42
ENDBRANCH  33  36
ENDBRANCH  31  32
ENDBRANCH  30  31
ENDBRANCH  29  30
ENDBRANCH   1  29
TORSDOF 17
ENDMDL
MODEL 3
REMARK VINA RESULT:     -11.8      3.867      9.055
REMARK SMILES O=C(COc1ccc(/C=C/C(=O)c2ccc(F)cc2F)cc1[N+](=O)[O-])NCCCCNC(=O)c1ccc(-c2c3nc(c(-c4c(F)cccc4F)c4ccc([nH]4)c(-c4c(F)cccc4F)c4nc(c(-c5c(F)cccc5F)c5ccc2[nH]5)C=C4)C=C3)cc1
REMARK SMILES IDX 27 1 26 2 1 3 2 4 3 6 4 7 5 8 6 9 22 10 7 11 21 12 8 13
REMARK SMILES IDX 23 14 24 15 25 16 9 17 10 18 11 19 12 20 13 21 14 22 19 23
REMARK SMILES IDX 15 24 18 25 20 26 16 27 17 28 28 29 29 30 30 31 31 32 32 33
REMARK SMILES IDX 33 35 34 36 35 37 87 38 36 39 86 40 37 41 38 42 39 43 80 44
REMARK SMILES IDX 40 45 85 46 79 47 81 48 41 49 84 50 78 51 77 52 42 54 68 55
REMARK SMILES IDX 51 56 67 57 52 58 55 59 66 60 82 61 53 62 54 63 65 65 83 66
REMARK SMILES IDX 56 67 43 68 44 69 49 70 45 71 46 72 48 73 50 74 47 75 69 76
REMARK SMILES IDX 70 77 75 78 71 79 72 80 74 81 76 82 73 83 57 84 58 85 63 86
REMARK SMILES IDX 59 87 60 88 62 89 64 90 61 91
REMARK H PARENT 26 5 31 34 81 53 55 64
REMARK Flexibility Score: inf
ROOT
ATOM      1  C   UNL A   1      45.598  21.138  25.620  1.00  0.00     0.116 C 
ENDROOT
BRANCH   1   2
ATOM      2  N   UNL A   1      44.254  20.584  25.611  1.00  0.00    -0.353 N 
ATOM      3  O   UNL A   1      44.830  18.467  24.910  1.00  0.00    -0.271 OA
ATOM      4  C   UNL A   1      44.003  19.248  25.370  1.00  0.00     0.257 C 
ATOM      5  H   UNL A   1      43.493  21.186  25.781  1.00  0.00     0.163 HD
BRANCH   4   6
ATOM      6  C   UNL A   1      42.583  18.797  25.737  1.00  0.00     0.329 C 
BRANCH   6   7
ATOM      7  O   UNL A   1      41.970  19.600  26.756  1.00  0.00    -0.477 OA
BRANCH   7   8
ATOM      8  C   UNL A   1      40.735  20.066  26.391  1.00  0.00     0.197 A 
ATOM      9  C   UNL A   1      39.854  19.191  25.748  1.00  0.00     0.054 A 
ATOM     10  C   UNL A   1      40.351  21.400  26.522  1.00  0.00     0.311 A 
ATOM     11  C   UNL A   1      38.600  19.645  25.294  1.00  0.00     0.012 A 
ATOM     12  C   UNL A   1      39.089  21.851  26.122  1.00  0.00     0.098 A 
ATOM     13  C   UNL A   1      38.204  20.976  25.488  1.00  0.00    -0.018 A 
BRANCH  10  14
ATOM     14  N   UNL A   1      41.284  22.413  26.950  1.00  0.00     0.066 N 
ATOM     15  O   UNL A   1      41.162  22.841  28.104  1.00  0.00    -0.258 OA
ATOM     16  O   UNL A   1      42.102  22.817  26.111  1.00  0.00    -0.258 OA
ENDBRANCH  10  14
BRANCH  13  17
ATOM     17  C   UNL A   1      36.917  21.543  25.066  1.00  0.00     0.012 C 
ATOM     18  C   UNL A   1      36.691  22.212  23.926  1.00  0.00     0.053 C 
BRANCH  18  19
ATOM     19  C   UNL A   1      35.386  22.853  23.600  1.00  0.00     0.188 C 
ATOM     20  O   UNL A   1      35.219  23.351  22.489  1.00  0.00    -0.289 OA
BRANCH  19  21
ATOM     21  C   UNL A   1      34.276  22.882  24.581  1.00  0.00     0.058 A 
ATOM     22  C   UNL A   1      33.335  21.844  24.556  1.00  0.00     0.018 A 
ATOM     23  C   UNL A   1      34.117  23.931  25.493  1.00  0.00     0.137 A 
ATOM     24  C   UNL A   1      32.276  21.843  25.468  1.00  0.00     0.040 A 
ATOM     25  C   UNL A   1      33.064  23.932  26.403  1.00  0.00     0.079 A 
ATOM     26  F   UNL A   1      34.969  24.966  25.509  1.00  0.00    -0.206 F 
ATOM     27  C   UNL A   1      32.154  22.882  26.385  1.00  0.00     0.126 A 
ATOM     28  F   UNL A   1      31.140  22.875  27.260  1.00  0.00    -0.207 F 
ENDBRANCH  19  21
ENDBRANCH  18  19
ENDBRANCH  13  17
ENDBRANCH   7   8
ENDBRANCH   6   7
ENDBRANCH   4   6
ENDBRANCH   1   2
BRANCH   1  29
ATOM     29  C   UNL A   1      45.648  22.661  25.641  1.00  0.00     0.023 C 
BRANCH  29  30
ATOM     30  C   UNL A   1      45.588  23.310  27.026  1.00  0.00     0.023 C 
BRANCH  30  31
ATOM     31  C   UNL A   1      44.938  24.691  27.095  1.00  0.00     0.116 C 
BRANCH  31  32
ATOM     32  N   UNL A   1      44.185  25.032  25.898  1.00  0.00    -0.352 N 
ATOM     33  C   UNL A   1      43.116  25.881  25.731  1.00  0.00     0.251 C 
ATOM     34  H   UNL A   1      44.488  24.582  25.076  1.00  0.00     0.163 HD
ATOM     35  O   UNL A   1      42.536  25.923  24.647  1.00  0.00    -0.269 OA
BRANCH  33  36
ATOM     36  C   UNL A   1      42.629  26.725  26.846  1.00  0.00     0.039 A 
ATOM     37  C   UNL A   1      41.699  26.186  27.741  1.00  0.00     0.014 A 
ATOM     38  C   UNL A   1      43.058  28.045  27.007  1.00  0.00     0.014 A 
ATOM     39  C   UNL A   1      41.265  26.938  28.838  1.00  0.00     0.010 A 
ATOM     40  C   UNL A   1      42.684  28.767  28.142  1.00  0.00     0.010 A 
ATOM     41  C   UNL A   1      41.788  28.220  29.074  1.00  0.00    -0.014 A 
BRANCH  41  42
ATOM     42  C   UNL A   1      41.426  28.988  30.297  1.00  0.00     0.031 A 
ATOM     43  C   UNL A   1      40.237  29.911  30.298  1.00  0.00     0.074 A 
ATOM     44  C   UNL A   1      42.206  28.904  31.392  1.00  0.00     0.049 A 
ATOM     45  N   UNL A   1      39.809  30.708  31.245  1.00  0.00    -0.248 NA
ATOM     46  C   UNL A   1      39.438  29.964  29.064  1.00  0.00     0.031 C 
ATOM     47  C   UNL A   1      43.409  28.079  31.514  1.00  0.00     0.029 A 
ATOM     48  N   UNL A   1      42.110  29.530  32.613  1.00  0.00    -0.354 N 
ATOM     49  C   UNL A   1      38.704  31.365  30.719  1.00  0.00     0.074 A 
ATOM     50  C   UNL A   1      38.557  30.911  29.353  1.00  0.00     0.031 C 
ATOM     51  C   UNL A   1      43.924  28.229  32.746  1.00  0.00     0.029 A 
ATOM     52  C   UNL A   1      43.117  29.194  33.486  1.00  0.00     0.049 A 
ATOM     53  H   UNL A   1      41.389  30.159  32.840  1.00  0.00     0.167 HD
ATOM     54  C   UNL A   1      37.875  32.252  31.322  1.00  0.00     0.037 A 
ATOM     55  C   UNL A   1      43.370  29.619  34.739  1.00  0.00     0.037 A 
ATOM     56  C   UNL A   1      38.010  32.690  32.688  1.00  0.00     0.049 A 
ATOM     57  C   UNL A   1      42.447  30.621  35.378  1.00  0.00     0.074 A 
ATOM     58  C   UNL A   1      37.182  33.536  33.406  1.00  0.00     0.029 A 
ATOM     59  N   UNL A   1      39.040  32.322  33.540  1.00  0.00    -0.354 N 
ATOM     60  N   UNL A   1      41.366  31.179  34.891  1.00  0.00    -0.248 NA
ATOM     61  C   UNL A   1      42.780  31.050  36.744  1.00  0.00     0.031 C 
ATOM     62  C   UNL A   1      37.741  33.725  34.674  1.00  0.00     0.029 A 
ATOM     63  C   UNL A   1      38.886  32.949  34.767  1.00  0.00     0.049 A 
ATOM     64  H   UNL A   1      39.774  31.708  33.308  1.00  0.00     0.167 HD
ATOM     65  C   UNL A   1      40.871  31.996  35.900  1.00  0.00     0.074 A 
ATOM     66  C   UNL A   1      41.763  31.851  37.031  1.00  0.00     0.031 C 
ATOM     67  C   UNL A   1      39.774  32.792  35.891  1.00  0.00     0.037 A 
BRANCH  54  68
ATOM     68  C   UNL A   1      36.746  32.814  30.507  1.00  0.00     0.057 A 
ATOM     69  C   UNL A   1      35.436  32.329  30.622  1.00  0.00     0.134 A 
ATOM     70  C   UNL A   1      36.960  33.887  29.632  1.00  0.00     0.134 A 
ATOM     71  F   UNL A   1      35.161  31.298  31.436  1.00  0.00    -0.206 F 
ATOM     72  C   UNL A   1      34.388  32.870  29.874  1.00  0.00     0.040 A 
ATOM     73  C   UNL A   1      35.915  34.456  28.902  1.00  0.00     0.040 A 
ATOM     74  F   UNL A   1      38.188  34.408  29.481  1.00  0.00    -0.206 F 
ATOM     75  C   UNL A   1      34.625  33.942  29.017  1.00  0.00     0.006 A 
ENDBRANCH  54  68
BRANCH  55  76
ATOM     76  C   UNL A   1      44.540  29.090  35.487  1.00  0.00     0.057 A 
ATOM     77  C   UNL A   1      44.415  27.979  36.330  1.00  0.00     0.134 A 
ATOM     78  C   UNL A   1      45.802  29.689  35.394  1.00  0.00     0.134 A 
ATOM     79  F   UNL A   1      43.226  27.375  36.478  1.00  0.00    -0.206 F 
ATOM     80  C   UNL A   1      45.494  27.499  37.072  1.00  0.00     0.040 A 
ATOM     81  C   UNL A   1      46.897  29.201  36.109  1.00  0.00     0.040 A 
ATOM     82  F   UNL A   1      45.990  30.753  34.599  1.00  0.00    -0.206 F 
ATOM     83  C   UNL A   1      46.742  28.108  36.959  1.00  0.00     0.006 A 
ENDBRANCH  55  76
BRANCH  67  84
ATOM     84  C   UNL A   1      39.451  33.538  37.153  1.00  0.00     0.057 A 
ATOM     85  C   UNL A   1      38.622  32.998  38.144  1.00  0.00     0.134 A 
ATOM     86  C   UNL A   1      40.007  34.801  37.395  1.00  0.00     0.134 A 
ATOM     87  F   UNL A   1      38.046  31.798  37.971  1.00  0.00    -0.206 F 
ATOM     88  C   UNL A   1      38.337  33.698  39.319  1.00  0.00     0.040 A 
ATOM     89  C   UNL A   1      39.754  35.497  38.577  1.00  0.00     0.040 A 
ATOM     90  F   UNL A   1      40.816  35.374  36.491  1.00  0.00    -0.206 F 
ATOM     91  C   UNL A   1      38.911  34.948  39.541  1.00  0.00     0.006 A 
ENDBRANCH  67  84
ENDBRANCH  41  42
ENDBRANCH  33  36
ENDBRANCH  31  32
ENDBRANCH  30  31
ENDBRANCH  29  30
ENDBRANCH   1  29
TORSDOF 17
ENDMDL
