MODEL 1
REMARK VINA RESULT:     -12.2      0.000      0.000
REMARK SMILES Cc1ccc2nc(Cl)c([C@@H]3CC(c4cccs4)=NN3C(=O)CCCC(=O)NCCCCNC(=O)c3ccc(-c4c5nc(c(-c6c(F)cccc6F)c6ccc([nH]6)c(-c6c(F)cccc6F)c6nc(c(-c7c(F)cccc7F)c7ccc4[nH]7)C=C6)C=C5)cc3)cc2c1
REMARK SMILES IDX 28 1 27 2 25 3 26 4 24 6 23 7 22 8 20 9 21 10 19 11 10 12
REMARK SMILES IDX 11 13 12 14 18 15 9 16 1 17 2 18 3 19 91 20 4 21 90 22 5 23
REMARK SMILES IDX 89 24 6 25 7 26 8 27 13 28 14 29 17 30 15 31 16 32 29 33
REMARK SMILES IDX 30 34 31 35 32 36 33 37 34 39 35 40 36 41 88 42 37 43 87 44
REMARK SMILES IDX 38 45 39 46 40 47 81 48 41 49 86 50 80 51 82 52 42 53 85 54
REMARK SMILES IDX 79 55 78 56 43 58 69 59 52 60 68 61 53 62 56 63 67 64 83 65
REMARK SMILES IDX 54 66 55 67 66 69 84 70 57 71 44 72 45 73 50 74 46 75 47 76
REMARK SMILES IDX 49 77 51 78 48 79 70 80 71 81 76 82 72 83 73 84 75 85 77 86
REMARK SMILES IDX 74 87 58 88 59 89 64 90 60 91 61 92 63 93 65 94 62 95
REMARK H PARENT 27 5 32 38 82 57 56 68
REMARK Flexibility Score: inf
ROOT
ATOM      1  C   UNL A   1      31.339  28.614  22.744  1.00  0.00     0.116 C 
ENDROOT
BRANCH   1   2
ATOM      2  N   UNL A   1      32.480  27.794  22.384  1.00  0.00    -0.356 N 
ATOM      3  C   UNL A   1      32.613  26.522  21.942  1.00  0.00     0.220 C 
ATOM      4  O   UNL A   1      33.617  26.287  21.258  1.00  0.00    -0.275 OA
ATOM      5  H   UNL A   1      33.341  28.262  22.482  1.00  0.00     0.163 HD
BRANCH   3   6
ATOM      6  C   UNL A   1      31.590  25.417  22.127  1.00  0.00     0.100 C 
BRANCH   6   7
ATOM      7  C   UNL A   1      31.447  24.723  23.458  1.00  0.00     0.020 C 
BRANCH   7   8
ATOM      8  C   UNL A   1      31.042  23.265  23.483  1.00  0.00     0.103 C 
BRANCH   8   9
ATOM      9  C   UNL A   1      31.987  22.112  23.129  1.00  0.00     0.243 C 
ATOM     10  O   UNL A   1      31.852  21.707  21.957  1.00  0.00    -0.273 OA
BRANCH   9  11
ATOM     11  N   UNL A   1      33.040  21.611  23.913  1.00  0.00    -0.225 N 
ATOM     12  C   UNL A   1      33.577  21.926  25.292  1.00  0.00     0.150 C 
ATOM     13  C   UNL A   1      33.539  20.572  26.012  1.00  0.00     0.092 C 
ATOM     14  C   UNL A   1      33.394  19.661  24.839  1.00  0.00     0.081 C 
ATOM     15  N   UNL A   1      33.189  20.243  23.702  1.00  0.00    -0.173 NA
BRANCH  12  16
ATOM     16  C   UNL A   1      34.960  22.586  25.392  1.00  0.00     0.015 A 
ATOM     17  C   UNL A   1      40.732  20.882  26.808  1.00  0.00     0.044 C 
ATOM     18  C   UNL A   1      39.664  21.861  26.408  1.00  0.00    -0.050 A 
ATOM     19  C   UNL A   1      39.765  23.207  26.758  1.00  0.00     0.005 A 
ATOM     20  C   UNL A   1      38.507  21.417  25.752  1.00  0.00     0.013 A 
ATOM     21  C   UNL A   1      38.707  24.081  26.488  1.00  0.00     0.029 A 
ATOM     22  C   UNL A   1      37.403  22.279  25.572  1.00  0.00     0.001 A 
ATOM     23  C   UNL A   1      37.511  23.628  25.940  1.00  0.00     0.072 A 
ATOM     24  C   UNL A   1      36.120  21.800  25.212  1.00  0.00     0.019 A 
ATOM     25  N   UNL A   1      36.457  24.449  25.904  1.00  0.00    -0.236 NA
ATOM     26  C   UNL A   1      35.223  23.926  25.668  1.00  0.00     0.135 A 
ATOM     27  Cl  UNL A   1      34.039  25.158  25.811  1.00  0.00    -0.062 Cl
ENDBRANCH  12  16
BRANCH  14  28
ATOM     28  C   UNL A   1      33.345  18.235  24.964  1.00  0.00     0.050 A 
ATOM     29  C   UNL A   1      32.527  17.488  25.786  1.00  0.00     0.022 A 
ATOM     30  S   UNL A   1      34.287  17.253  23.933  1.00  0.00    -0.142 S 
ATOM     31  C   UNL A   1      32.643  16.092  25.525  1.00  0.00     0.012 A 
ATOM     32  C   UNL A   1      33.577  15.826  24.549  1.00  0.00     0.065 A 
ENDBRANCH  14  28
ENDBRANCH   9  11
ENDBRANCH   8   9
ENDBRANCH   7   8
ENDBRANCH   6   7
ENDBRANCH   3   6
ENDBRANCH   1   2
BRANCH   1  33
ATOM     33  C   UNL A   1      30.992  28.577  24.232  1.00  0.00     0.023 C 
BRANCH  33  34
ATOM     34  C   UNL A   1      32.210  28.174  25.079  1.00  0.00     0.023 C 
BRANCH  34  35
ATOM     35  C   UNL A   1      33.233  29.293  25.286  1.00  0.00     0.116 C 
BRANCH  35  36
ATOM     36  N   UNL A   1      32.670  30.496  25.864  1.00  0.00    -0.352 N 
ATOM     37  C   UNL A   1      33.164  31.271  26.890  1.00  0.00     0.251 C 
ATOM     38  H   UNL A   1      31.818  30.799  25.472  1.00  0.00     0.163 HD
ATOM     39  O   UNL A   1      32.537  32.235  27.295  1.00  0.00    -0.269 OA
BRANCH  37  40
ATOM     40  C   UNL A   1      34.438  30.896  27.550  1.00  0.00     0.039 A 
ATOM     41  C   UNL A   1      35.412  31.887  27.697  1.00  0.00     0.014 A 
ATOM     42  C   UNL A   1      34.680  29.601  28.019  1.00  0.00     0.014 A 
ATOM     43  C   UNL A   1      36.607  31.597  28.359  1.00  0.00     0.010 A 
ATOM     44  C   UNL A   1      35.855  29.327  28.728  1.00  0.00     0.010 A 
ATOM     45  C   UNL A   1      36.831  30.322  28.905  1.00  0.00    -0.014 A 
BRANCH  45  46
ATOM     46  C   UNL A   1      38.090  30.038  29.646  1.00  0.00     0.031 A 
ATOM     47  C   UNL A   1      38.288  30.556  31.043  1.00  0.00     0.074 A 
ATOM     48  C   UNL A   1      39.063  29.310  29.061  1.00  0.00     0.049 A 
ATOM     49  N   UNL A   1      39.302  30.378  31.855  1.00  0.00    -0.248 NA
ATOM     50  C   UNL A   1      37.217  31.397  31.597  1.00  0.00     0.031 C 
ATOM     51  C   UNL A   1      39.017  28.775  27.699  1.00  0.00     0.029 A 
ATOM     52  N   UNL A   1      40.279  28.889  29.541  1.00  0.00    -0.354 N 
ATOM     53  C   UNL A   1      38.991  31.084  33.010  1.00  0.00     0.074 A 
ATOM     54  C   UNL A   1      37.721  31.737  32.775  1.00  0.00     0.031 C 
ATOM     55  C   UNL A   1      40.138  28.075  27.464  1.00  0.00     0.029 A 
ATOM     56  C   UNL A   1      40.995  28.131  28.646  1.00  0.00     0.049 A 
ATOM     57  H   UNL A   1      40.608  29.109  30.443  1.00  0.00     0.167 HD
ATOM     58  C   UNL A   1      39.686  31.165  34.171  1.00  0.00     0.037 A 
ATOM     59  C   UNL A   1      42.201  27.542  28.762  1.00  0.00     0.037 A 
ATOM     60  C   UNL A   1      40.943  30.505  34.416  1.00  0.00     0.049 A 
ATOM     61  C   UNL A   1      42.958  27.655  30.059  1.00  0.00     0.074 A 
ATOM     62  C   UNL A   1      41.696  30.490  35.577  1.00  0.00     0.029 A 
ATOM     63  N   UNL A   1      41.633  29.746  33.483  1.00  0.00    -0.354 N 
ATOM     64  N   UNL A   1      42.617  28.267  31.166  1.00  0.00    -0.248 NA
ATOM     65  C   UNL A   1      44.264  26.982  30.124  1.00  0.00     0.031 C 
ATOM     66  C   UNL A   1      42.863  29.759  35.334  1.00  0.00     0.029 A 
ATOM     67  C   UNL A   1      42.813  29.276  34.037  1.00  0.00     0.049 A 
ATOM     68  H   UNL A   1      41.329  29.568  32.564  1.00  0.00     0.167 HD
ATOM     69  C   UNL A   1      43.646  28.026  32.067  1.00  0.00     0.074 A 
ATOM     70  C   UNL A   1      44.619  27.202  31.382  1.00  0.00     0.031 C 
ATOM     71  C   UNL A   1      43.770  28.447  33.350  1.00  0.00     0.037 A 
BRANCH  58  72
ATOM     72  C   UNL A   1      39.099  32.002  35.269  1.00  0.00     0.057 A 
ATOM     73  C   UNL A   1      38.315  31.440  36.286  1.00  0.00     0.134 A 
ATOM     74  C   UNL A   1      39.346  33.379  35.332  1.00  0.00     0.134 A 
ATOM     75  F   UNL A   1      38.033  30.128  36.281  1.00  0.00    -0.206 F 
ATOM     76  C   UNL A   1      37.775  32.222  37.310  1.00  0.00     0.040 A 
ATOM     77  C   UNL A   1      38.836  34.166  36.366  1.00  0.00     0.040 A 
ATOM     78  F   UNL A   1      40.097  33.980  34.396  1.00  0.00    -0.206 F 
ATOM     79  C   UNL A   1      38.041  33.589  37.354  1.00  0.00     0.006 A 
ENDBRANCH  58  72
BRANCH  59  80
ATOM     80  C   UNL A   1      42.764  26.766  27.629  1.00  0.00     0.057 A 
ATOM     81  C   UNL A   1      42.599  25.377  27.550  1.00  0.00     0.134 A 
ATOM     82  C   UNL A   1      43.498  27.385  26.611  1.00  0.00     0.134 A 
ATOM     83  F   UNL A   1      41.924  24.723  28.507  1.00  0.00    -0.206 F 
ATOM     84  C   UNL A   1      43.162  24.631  26.514  1.00  0.00     0.040 A 
ATOM     85  C   UNL A   1      44.045  26.654  25.555  1.00  0.00     0.040 A 
ATOM     86  F   UNL A   1      43.688  28.713  26.626  1.00  0.00    -0.206 F 
ATOM     87  C   UNL A   1      43.884  25.271  25.510  1.00  0.00     0.006 A 
ENDBRANCH  59  80
BRANCH  71  88
ATOM     88  C   UNL A   1      44.981  27.989  34.112  1.00  0.00     0.057 A 
ATOM     89  C   UNL A   1      44.987  26.799  34.850  1.00  0.00     0.134 A 
ATOM     90  C   UNL A   1      46.167  28.733  34.076  1.00  0.00     0.134 A 
ATOM     91  F   UNL A   1      43.879  26.046  34.936  1.00  0.00    -0.206 F 
ATOM     92  C   UNL A   1      46.122  26.378  35.546  1.00  0.00     0.040 A 
ATOM     93  C   UNL A   1      47.317  28.309  34.744  1.00  0.00     0.040 A 
ATOM     94  F   UNL A   1      46.232  29.878  33.380  1.00  0.00    -0.206 F 
ATOM     95  C   UNL A   1      47.294  27.131  35.487  1.00  0.00     0.006 A 
ENDBRANCH  71  88
ENDBRANCH  45  46
ENDBRANCH  37  40
ENDBRANCH  35  36
ENDBRANCH  34  35
ENDBRANCH  33  34
ENDBRANCH   1  33
TORSDOF 17
ENDMDL
MODEL 2
REMARK VINA RESULT:     -11.9      0.691      5.934
REMARK SMILES Cc1ccc2nc(Cl)c([C@@H]3CC(c4cccs4)=NN3C(=O)CCCC(=O)NCCCCNC(=O)c3ccc(-c4c5nc(c(-c6c(F)cccc6F)c6ccc([nH]6)c(-c6c(F)cccc6F)c6nc(c(-c7c(F)cccc7F)c7ccc4[nH]7)C=C6)C=C5)cc3)cc2c1
REMARK SMILES IDX 28 1 27 2 25 3 26 4 24 6 23 7 22 8 20 9 21 10 19 11 10 12
REMARK SMILES IDX 11 13 12 14 18 15 9 16 1 17 2 18 3 19 91 20 4 21 90 22 5 23
REMARK SMILES IDX 89 24 6 25 7 26 8 27 13 28 14 29 17 30 15 31 16 32 29 33
REMARK SMILES IDX 30 34 31 35 32 36 33 37 34 39 35 40 36 41 88 42 37 43 87 44
REMARK SMILES IDX 38 45 39 46 40 47 81 48 41 49 86 50 80 51 82 52 42 53 85 54
REMARK SMILES IDX 79 55 78 56 43 58 69 59 52 60 68 61 53 62 56 63 67 64 83 65
REMARK SMILES IDX 54 66 55 67 66 69 84 70 57 71 44 72 45 73 50 74 46 75 47 76
REMARK SMILES IDX 49 77 51 78 48 79 70 80 71 81 76 82 72 83 73 84 75 85 77 86
REMARK SMILES IDX 74 87 58 88 59 89 64 90 60 91 61 92 63 93 65 94 62 95
REMARK H PARENT 27 5 32 38 82 57 56 68
REMARK Flexibility Score: inf
ROOT
ATOM      1  C   UNL A   1      31.859  28.715  22.698  1.00  0.00     0.116 C 
ENDROOT
BRANCH   1   2
ATOM      2  N   UNL A   1      32.813  27.688  22.321  1.00  0.00    -0.356 N 
ATOM      3  C   UNL A   1      32.690  26.397  21.936  1.00  0.00     0.220 C 
ATOM      4  O   UNL A   1      33.593  25.958  21.213  1.00  0.00    -0.275 OA
ATOM      5  H   UNL A   1      33.747  27.996  22.352  1.00  0.00     0.163 HD
BRANCH   3   6
ATOM      6  C   UNL A   1      31.499  25.504  22.226  1.00  0.00     0.100 C 
BRANCH   6   7
ATOM      7  C   UNL A   1      31.428  24.718  23.512  1.00  0.00     0.020 C 
BRANCH   7   8
ATOM      8  C   UNL A   1      31.090  23.244  23.451  1.00  0.00     0.103 C 
BRANCH   8   9
ATOM      9  C   UNL A   1      32.097  22.155  23.069  1.00  0.00     0.243 C 
ATOM     10  O   UNL A   1      32.035  21.827  21.867  1.00  0.00    -0.273 OA
BRANCH   9  11
ATOM     11  N   UNL A   1      33.131  21.640  23.869  1.00  0.00    -0.225 N 
ATOM     12  C   UNL A   1      33.659  21.959  25.251  1.00  0.00     0.150 C 
ATOM     13  C   UNL A   1      33.585  20.613  25.984  1.00  0.00     0.092 C 
ATOM     14  C   UNL A   1      33.434  19.694  24.819  1.00  0.00     0.081 C 
ATOM     15  N   UNL A   1      33.254  20.267  23.675  1.00  0.00    -0.173 NA
BRANCH  12  16
ATOM     16  C   UNL A   1      35.055  22.591  25.360  1.00  0.00     0.015 A 
ATOM     17  C   UNL A   1      40.768  20.789  26.887  1.00  0.00     0.044 C 
ATOM     18  C   UNL A   1      39.728  21.784  26.455  1.00  0.00    -0.050 A 
ATOM     19  C   UNL A   1      39.852  23.133  26.784  1.00  0.00     0.005 A 
ATOM     20  C   UNL A   1      38.570  21.353  25.790  1.00  0.00     0.013 A 
ATOM     21  C   UNL A   1      38.818  24.024  26.483  1.00  0.00     0.029 A 
ATOM     22  C   UNL A   1      37.487  22.235  25.580  1.00  0.00     0.001 A 
ATOM     23  C   UNL A   1      37.620  23.587  25.926  1.00  0.00     0.072 A 
ATOM     24  C   UNL A   1      36.200  21.777  25.210  1.00  0.00     0.019 A 
ATOM     25  N   UNL A   1      36.584  24.430  25.861  1.00  0.00    -0.236 NA
ATOM     26  C   UNL A   1      35.343  23.929  25.616  1.00  0.00     0.135 A 
ATOM     27  Cl  UNL A   1      34.184  25.189  25.721  1.00  0.00    -0.062 Cl
ENDBRANCH  12  16
BRANCH  14  28
ATOM     28  C   UNL A   1      33.353  18.270  24.959  1.00  0.00     0.050 A 
ATOM     29  C   UNL A   1      32.606  17.553  25.870  1.00  0.00     0.022 A 
ATOM     30  S   UNL A   1      34.146  17.255  23.839  1.00  0.00    -0.142 S 
ATOM     31  C   UNL A   1      32.649  16.152  25.607  1.00  0.00     0.012 A 
ATOM     32  C   UNL A   1      33.463  15.853  24.537  1.00  0.00     0.065 A 
ENDBRANCH  14  28
ENDBRANCH   9  11
ENDBRANCH   8   9
ENDBRANCH   7   8
ENDBRANCH   6   7
ENDBRANCH   3   6
ENDBRANCH   1   2
BRANCH   1  33
ATOM     33  C   UNL A   1      31.193  28.477  24.053  1.00  0.00     0.023 C 
BRANCH  33  34
ATOM     34  C   UNL A   1      32.226  28.085  25.121  1.00  0.00     0.023 C 
BRANCH  34  35
ATOM     35  C   UNL A   1      33.170  29.217  25.532  1.00  0.00     0.116 C 
BRANCH  35  36
ATOM     36  N   UNL A   1      32.490  30.454  25.853  1.00  0.00    -0.352 N 
ATOM     37  C   UNL A   1      32.839  31.413  26.779  1.00  0.00     0.251 C 
ATOM     38  H   UNL A   1      31.667  30.632  25.343  1.00  0.00     0.163 HD
ATOM     39  O   UNL A   1      32.124  32.383  26.964  1.00  0.00    -0.269 OA
BRANCH  37  40
ATOM     40  C   UNL A   1      34.059  31.234  27.602  1.00  0.00     0.039 A 
ATOM     41  C   UNL A   1      34.332  29.956  28.094  1.00  0.00     0.014 A 
ATOM     42  C   UNL A   1      34.925  32.295  27.890  1.00  0.00     0.014 A 
ATOM     43  C   UNL A   1      35.496  29.725  28.830  1.00  0.00     0.010 A 
ATOM     44  C   UNL A   1      36.116  32.051  28.582  1.00  0.00     0.010 A 
ATOM     45  C   UNL A   1      36.414  30.763  29.059  1.00  0.00    -0.014 A 
BRANCH  45  46
ATOM     46  C   UNL A   1      37.672  30.495  29.808  1.00  0.00     0.031 A 
ATOM     47  C   UNL A   1      38.795  29.728  29.166  1.00  0.00     0.074 A 
ATOM     48  C   UNL A   1      37.809  30.942  31.072  1.00  0.00     0.049 A 
ATOM     49  N   UNL A   1      39.976  29.431  29.649  1.00  0.00    -0.248 NA
ATOM     50  C   UNL A   1      38.556  29.214  27.809  1.00  0.00     0.031 C 
ATOM     51  C   UNL A   1      36.787  31.668  31.828  1.00  0.00     0.029 A 
ATOM     52  N   UNL A   1      38.867  30.856  31.944  1.00  0.00    -0.354 N 
ATOM     53  C   UNL A   1      40.618  28.696  28.660  1.00  0.00     0.074 A 
ATOM     54  C   UNL A   1      39.676  28.546  27.571  1.00  0.00     0.031 C 
ATOM     55  C   UNL A   1      37.278  31.986  33.038  1.00  0.00     0.029 A 
ATOM     56  C   UNL A   1      38.637  31.465  33.155  1.00  0.00     0.049 A 
ATOM     57  H   UNL A   1      39.712  30.401  31.723  1.00  0.00     0.167 HD
ATOM     58  C   UNL A   1      41.882  28.209  28.648  1.00  0.00     0.037 A 
ATOM     59  C   UNL A   1      39.431  31.595  34.236  1.00  0.00     0.037 A 
ATOM     60  C   UNL A   1      42.828  28.369  29.722  1.00  0.00     0.049 A 
ATOM     61  C   UNL A   1      40.829  31.037  34.200  1.00  0.00     0.074 A 
ATOM     62  C   UNL A   1      44.147  27.952  29.778  1.00  0.00     0.029 A 
ATOM     63  N   UNL A   1      42.556  28.993  30.929  1.00  0.00    -0.354 N 
ATOM     64  N   UNL A   1      41.443  30.406  33.229  1.00  0.00    -0.248 NA
ATOM     65  C   UNL A   1      41.647  31.221  35.408  1.00  0.00     0.031 C 
ATOM     66  C   UNL A   1      44.659  28.284  31.036  1.00  0.00     0.029 A 
ATOM     67  C   UNL A   1      43.676  28.953  31.745  1.00  0.00     0.049 A 
ATOM     68  H   UNL A   1      41.694  29.403  31.171  1.00  0.00     0.167 HD
ATOM     69  C   UNL A   1      42.727  30.150  33.695  1.00  0.00     0.074 A 
ATOM     70  C   UNL A   1      42.806  30.702  35.032  1.00  0.00     0.031 C 
ATOM     71  C   UNL A   1      43.748  29.516  33.070  1.00  0.00     0.037 A 
BRANCH  58  72
ATOM     72  C   UNL A   1      42.317  27.452  27.427  1.00  0.00     0.057 A 
ATOM     73  C   UNL A   1      42.254  26.053  27.363  1.00  0.00     0.134 A 
ATOM     74  C   UNL A   1      42.773  28.130  26.288  1.00  0.00     0.134 A 
ATOM     75  F   UNL A   1      41.835  25.343  28.422  1.00  0.00    -0.206 F 
ATOM     76  C   UNL A   1      42.655  25.355  26.223  1.00  0.00     0.040 A 
ATOM     77  C   UNL A   1      43.150  27.444  25.133  1.00  0.00     0.040 A 
ATOM     78  F   UNL A   1      42.849  29.469  26.278  1.00  0.00    -0.206 F 
ATOM     79  C   UNL A   1      43.099  26.052  25.101  1.00  0.00     0.006 A 
ENDBRANCH  58  72
BRANCH  59  80
ATOM     80  C   UNL A   1      38.938  32.309  35.441  1.00  0.00     0.057 A 
ATOM     81  C   UNL A   1      39.164  33.681  35.612  1.00  0.00     0.134 A 
ATOM     82  C   UNL A   1      38.251  31.638  36.458  1.00  0.00     0.134 A 
ATOM     83  F   UNL A   1      39.835  34.375  34.682  1.00  0.00    -0.206 F 
ATOM     84  C   UNL A   1      38.745  34.354  36.761  1.00  0.00     0.040 A 
ATOM     85  C   UNL A   1      37.804  32.303  37.601  1.00  0.00     0.040 A 
ATOM     86  F   UNL A   1      37.998  30.325  36.352  1.00  0.00    -0.206 F 
ATOM     87  C   UNL A   1      38.058  33.664  37.758  1.00  0.00     0.006 A 
ENDBRANCH  59  80
BRANCH  71  88
ATOM     88  C   UNL A   1      45.056  29.422  33.803  1.00  0.00     0.057 A 
ATOM     89  C   UNL A   1      46.021  30.433  33.733  1.00  0.00     0.134 A 
ATOM     90  C   UNL A   1      45.334  28.319  34.620  1.00  0.00     0.134 A 
ATOM     91  F   UNL A   1      45.822  31.511  32.958  1.00  0.00    -0.206 F 
ATOM     92  C   UNL A   1      47.228  30.340  34.429  1.00  0.00     0.040 A 
ATOM     93  C   UNL A   1      46.525  28.226  35.343  1.00  0.00     0.040 A 
ATOM     94  F   UNL A   1      44.448  27.318  34.741  1.00  0.00    -0.206 F 
ATOM     95  C   UNL A   1      47.478  29.237  35.243  1.00  0.00     0.006 A 
ENDBRANCH  71  88
ENDBRANCH  45  46
ENDBRANCH  37  40
ENDBRANCH  35  36
ENDBRANCH  34  35
ENDBRANCH  33  34
ENDBRANCH   1  33
TORSDOF 17
ENDMDL
MODEL 3
REMARK VINA RESULT:     -11.7      3.884      7.684
REMARK SMILES Cc1ccc2nc(Cl)c([C@@H]3CC(c4cccs4)=NN3C(=O)CCCC(=O)NCCCCNC(=O)c3ccc(-c4c5nc(c(-c6c(F)cccc6F)c6ccc([nH]6)c(-c6c(F)cccc6F)c6nc(c(-c7c(F)cccc7F)c7ccc4[nH]7)C=C6)C=C5)cc3)cc2c1
REMARK SMILES IDX 28 1 27 2 25 3 26 4 24 6 23 7 22 8 20 9 21 10 19 11 10 12
REMARK SMILES IDX 11 13 12 14 18 15 9 16 1 17 2 18 3 19 91 20 4 21 90 22 5 23
REMARK SMILES IDX 89 24 6 25 7 26 8 27 13 28 14 29 17 30 15 31 16 32 29 33
REMARK SMILES IDX 30 34 31 35 32 36 33 37 34 39 35 40 36 41 88 42 37 43 87 44
REMARK SMILES IDX 38 45 39 46 40 47 81 48 41 49 86 50 80 51 82 52 42 53 85 54
REMARK SMILES IDX 79 55 78 56 43 58 69 59 52 60 68 61 53 62 56 63 67 64 83 65
REMARK SMILES IDX 54 66 55 67 66 69 84 70 57 71 44 72 45 73 50 74 46 75 47 76
REMARK SMILES IDX 49 77 51 78 48 79 70 80 71 81 76 82 72 83 73 84 75 85 77 86
REMARK SMILES IDX 74 87 58 88 59 89 64 90 60 91 61 92 63 93 65 94 62 95
REMARK H PARENT 27 5 32 38 82 57 56 68
REMARK Flexibility Score: inf
ROOT
ATOM      1  C   UNL A   1      34.039  26.217  25.765  1.00  0.00     0.116 C 
ENDROOT
BRANCH   1   2
ATOM      2  N   UNL A   1      34.041  24.808  26.111  1.00  0.00    -0.356 N 
ATOM      3  C   UNL A   1      35.018  23.924  26.419  1.00  0.00     0.220 C 
ATOM      4  O   UNL A   1      34.685  22.977  27.142  1.00  0.00    -0.275 OA
ATOM      5  H   UNL A   1      33.141  24.411  26.125  1.00  0.00     0.163 HD
BRANCH   3   6
ATOM      6  C   UNL A   1      36.481  24.066  26.044  1.00  0.00     0.100 C 
BRANCH   6   7
ATOM      7  C   UNL A   1      37.295  22.853  25.668  1.00  0.00     0.020 C 
BRANCH   7   8
ATOM      8  C   UNL A   1      36.887  22.047  24.453  1.00  0.00     0.103 C 
BRANCH   8   9
ATOM      9  C   UNL A   1      35.738  22.437  23.518  1.00  0.00     0.243 C 
ATOM     10  O   UNL A   1      36.126  22.948  22.448  1.00  0.00    -0.273 OA
BRANCH   9  11
ATOM     11  N   UNL A   1      34.375  22.141  23.684  1.00  0.00    -0.225 N 
ATOM     12  C   UNL A   1      33.137  22.337  22.836  1.00  0.00     0.150 C 
ATOM     13  C   UNL A   1      32.548  20.925  22.726  1.00  0.00     0.092 C 
ATOM     14  C   UNL A   1      33.281  20.254  23.839  1.00  0.00     0.081 C 
ATOM     15  N   UNL A   1      34.221  20.950  24.388  1.00  0.00    -0.173 NA
BRANCH  12  16
ATOM     16  C   UNL A   1      32.091  23.355  23.313  1.00  0.00     0.015 A 
ATOM     17  C   UNL A   1      30.748  29.310  22.334  1.00  0.00     0.044 C 
ATOM     18  C   UNL A   1      30.553  27.960  22.964  1.00  0.00    -0.050 A 
ATOM     19  C   UNL A   1      30.004  27.842  24.240  1.00  0.00     0.005 A 
ATOM     20  C   UNL A   1      31.002  26.803  22.310  1.00  0.00     0.013 A 
ATOM     21  C   UNL A   1      29.944  26.591  24.862  1.00  0.00     0.029 A 
ATOM     22  C   UNL A   1      31.032  25.560  22.980  1.00  0.00     0.001 A 
ATOM     23  C   UNL A   1      30.489  25.456  24.269  1.00  0.00     0.072 A 
ATOM     24  C   UNL A   1      31.759  24.451  22.484  1.00  0.00     0.019 A 
ATOM     25  N   UNL A   1      30.605  24.335  24.988  1.00  0.00    -0.236 NA
ATOM     26  C   UNL A   1      31.409  23.338  24.527  1.00  0.00     0.135 A 
ATOM     27  Cl  UNL A   1      31.492  22.082  25.691  1.00  0.00    -0.062 Cl
ENDBRANCH  12  16
BRANCH  14  28
ATOM     28  C   UNL A   1      33.063  18.883  24.196  1.00  0.00     0.050 A 
ATOM     29  C   UNL A   1      33.139  17.776  23.378  1.00  0.00     0.022 A 
ATOM     30  S   UNL A   1      32.789  18.459  25.827  1.00  0.00    -0.142 S 
ATOM     31  C   UNL A   1      33.020  16.561  24.115  1.00  0.00     0.012 A 
ATOM     32  C   UNL A   1      32.812  16.791  25.457  1.00  0.00     0.065 A 
ENDBRANCH  14  28
ENDBRANCH   9  11
ENDBRANCH   8   9
ENDBRANCH   7   8
ENDBRANCH   6   7
ENDBRANCH   3   6
ENDBRANCH   1   2
BRANCH   1  33
ATOM     33  C   UNL A   1      32.944  27.025  26.460  1.00  0.00     0.023 C 
BRANCH  33  34
ATOM     34  C   UNL A   1      33.269  28.527  26.451  1.00  0.00     0.023 C 
BRANCH  34  35
ATOM     35  C   UNL A   1      34.606  28.888  27.103  1.00  0.00     0.116 C 
BRANCH  35  36
ATOM     36  N   UNL A   1      34.509  29.957  28.074  1.00  0.00    -0.352 N 
ATOM     37  C   UNL A   1      35.496  30.475  28.885  1.00  0.00     0.251 C 
ATOM     38  H   UNL A   1      33.620  30.368  28.169  1.00  0.00     0.163 HD
ATOM     39  O   UNL A   1      35.237  31.351  29.693  1.00  0.00    -0.269 OA
BRANCH  37  40
ATOM     40  C   UNL A   1      36.870  29.921  28.821  1.00  0.00     0.039 A 
ATOM     41  C   UNL A   1      37.549  30.001  27.603  1.00  0.00     0.014 A 
ATOM     42  C   UNL A   1      37.488  29.332  29.930  1.00  0.00     0.014 A 
ATOM     43  C   UNL A   1      38.864  29.541  27.506  1.00  0.00     0.010 A 
ATOM     44  C   UNL A   1      38.822  28.921  29.845  1.00  0.00     0.010 A 
ATOM     45  C   UNL A   1      39.524  29.020  28.632  1.00  0.00    -0.014 A 
BRANCH  45  46
ATOM     46  C   UNL A   1      40.940  28.573  28.526  1.00  0.00     0.031 A 
ATOM     47  C   UNL A   1      41.267  27.146  28.185  1.00  0.00     0.074 A 
ATOM     48  C   UNL A   1      41.938  29.453  28.737  1.00  0.00     0.049 A 
ATOM     49  N   UNL A   1      42.439  26.584  28.014  1.00  0.00    -0.248 NA
ATOM     50  C   UNL A   1      40.133  26.223  28.031  1.00  0.00     0.031 C 
ATOM     51  C   UNL A   1      41.763  30.858  29.108  1.00  0.00     0.029 A 
ATOM     52  N   UNL A   1      43.301  29.297  28.663  1.00  0.00    -0.354 N 
ATOM     53  C   UNL A   1      42.183  25.248  27.735  1.00  0.00     0.074 A 
ATOM     54  C   UNL A   1      40.748  25.070  27.813  1.00  0.00     0.031 C 
ATOM     55  C   UNL A   1      42.970  31.442  29.202  1.00  0.00     0.029 A 
ATOM     56  C   UNL A   1      44.004  30.449  28.924  1.00  0.00     0.049 A 
ATOM     57  H   UNL A   1      43.735  28.441  28.445  1.00  0.00     0.167 HD
ATOM     58  C   UNL A   1      43.057  24.261  27.421  1.00  0.00     0.037 A 
ATOM     59  C   UNL A   1      45.331  30.683  28.933  1.00  0.00     0.037 A 
ATOM     60  C   UNL A   1      44.484  24.436  27.326  1.00  0.00     0.049 A 
ATOM     61  C   UNL A   1      46.283  29.569  28.589  1.00  0.00     0.074 A 
ATOM     62  C   UNL A   1      45.444  23.507  26.966  1.00  0.00     0.029 A 
ATOM     63  N   UNL A   1      45.155  25.619  27.596  1.00  0.00    -0.354 N 
ATOM     64  N   UNL A   1      46.019  28.328  28.258  1.00  0.00    -0.248 NA
ATOM     65  C   UNL A   1      47.717  29.892  28.608  1.00  0.00     0.031 C 
ATOM     66  C   UNL A   1      46.701  24.114  27.062  1.00  0.00     0.029 A 
ATOM     67  C   UNL A   1      46.519  25.436  27.431  1.00  0.00     0.049 A 
ATOM     68  H   UNL A   1      44.726  26.463  27.866  1.00  0.00     0.167 HD
ATOM     69  C   UNL A   1      47.248  27.735  27.997  1.00  0.00     0.074 A 
ATOM     70  C   UNL A   1      48.257  28.754  28.197  1.00  0.00     0.031 C 
ATOM     71  C   UNL A   1      47.515  26.460  27.622  1.00  0.00     0.037 A 
BRANCH  58  72
ATOM     72  C   UNL A   1      42.491  22.897  27.154  1.00  0.00     0.057 A 
ATOM     73  C   UNL A   1      42.342  22.402  25.851  1.00  0.00     0.134 A 
ATOM     74  C   UNL A   1      42.122  22.055  28.211  1.00  0.00     0.134 A 
ATOM     75  F   UNL A   1      42.669  23.160  24.794  1.00  0.00    -0.206 F 
ATOM     76  C   UNL A   1      41.820  21.130  25.609  1.00  0.00     0.040 A 
ATOM     77  C   UNL A   1      41.626  20.771  27.982  1.00  0.00     0.040 A 
ATOM     78  F   UNL A   1      42.249  22.463  29.483  1.00  0.00    -0.206 F 
ATOM     79  C   UNL A   1      41.466  20.308  26.677  1.00  0.00     0.006 A 
ENDBRANCH  58  72
BRANCH  59  80
ATOM     80  C   UNL A   1      45.847  32.039  29.252  1.00  0.00     0.057 A 
ATOM     81  C   UNL A   1      46.121  32.416  30.573  1.00  0.00     0.134 A 
ATOM     82  C   UNL A   1      46.056  32.996  28.252  1.00  0.00     0.134 A 
ATOM     83  F   UNL A   1      45.920  31.551  31.577  1.00  0.00    -0.206 F 
ATOM     84  C   UNL A   1      46.563  33.702  30.889  1.00  0.00     0.040 A 
ATOM     85  C   UNL A   1      46.521  34.277  28.552  1.00  0.00     0.040 A 
ATOM     86  F   UNL A   1      45.817  32.695  26.967  1.00  0.00    -0.206 F 
ATOM     87  C   UNL A   1      46.768  34.635  29.876  1.00  0.00     0.006 A 
ENDBRANCH  59  80
BRANCH  71  88
ATOM     88  C   UNL A   1      48.950  26.103  27.360  1.00  0.00     0.057 A 
ATOM     89  C   UNL A   1      49.517  26.195  26.083  1.00  0.00     0.134 A 
ATOM     90  C   UNL A   1      49.785  25.697  28.409  1.00  0.00     0.134 A 
ATOM     91  F   UNL A   1      48.768  26.566  25.032  1.00  0.00    -0.206 F 
ATOM     92  C   UNL A   1      50.855  25.872  25.854  1.00  0.00     0.040 A 
ATOM     93  C   UNL A   1      51.131  25.398  28.198  1.00  0.00     0.040 A 
ATOM     94  F   UNL A   1      49.308  25.597  29.659  1.00  0.00    -0.206 F 
ATOM     95  C   UNL A   1      51.668  25.479  26.915  1.00  0.00     0.006 A 
ENDBRANCH  71  88
ENDBRANCH  45  46
ENDBRANCH  37  40
ENDBRANCH  35  36
ENDBRANCH  34  35
ENDBRANCH  33  34
ENDBRANCH   1  33
TORSDOF 17
ENDMDL
