MODEL 1
REMARK VINA RESULT:     -10.6      0.000      0.000
REMARK SMILES CC[C@H](C(=O)NCCCCNC(=O)c1ccc(-c2c3nc(c(-c4c(F)cccc4F)c4ccc([nH]4)c(-c4c(F)cccc4F)c4nc(c(-c5c(F)cccc5F)c5ccc2[nH]5)C=C4)C=C3)cc1)[N@H+](C)[C@H]1CC[C@H]([NH3+])CC1
REMARK SMILES IDX 8 1 7 2 6 3 4 4 5 5 3 7 2 8 1 9 68 10 69 11 70 13 71 14
REMARK SMILES IDX 76 15 72 16 75 17 73 18 74 19 9 23 10 24 11 25 12 26 13 28
REMARK SMILES IDX 14 29 15 30 67 31 16 32 66 33 17 34 18 35 19 36 60 37 20 38
REMARK SMILES IDX 65 39 59 40 61 41 21 42 64 43 58 44 57 45 22 47 48 48 31 49
REMARK SMILES IDX 47 50 32 51 35 52 46 53 62 54 33 55 34 56 45 58 63 59 36 60
REMARK SMILES IDX 23 61 24 62 29 63 25 64 26 65 28 66 30 67 27 68 49 69 50 70
REMARK SMILES IDX 55 71 51 72 52 73 54 74 56 75 53 76 37 77 38 78 43 79 39 80
REMARK SMILES IDX 40 81 42 82 44 83 41 84
REMARK H PARENT 6 6 68 12 74 20 74 21 74 22 11 27 61 46 35 57
REMARK Flexibility Score: inf
ROOT
ATOM      1  C   UNL A   1      31.542  29.246  26.009  1.00  0.00     0.023 C 
ENDROOT
BRANCH   1   2
ATOM      2  C   UNL A   1      32.215  29.331  24.641  1.00  0.00     0.116 C 
BRANCH   2   3
ATOM      3  N   UNL A   1      31.259  29.449  23.565  1.00  0.00    -0.351 N 
ATOM      4  C   UNL A   1      30.797  28.622  22.599  1.00  0.00     0.278 C 
ATOM      5  O   UNL A   1      30.107  29.222  21.757  1.00  0.00    -0.268 OA
ATOM      6  H   UNL A   1      30.847  30.342  23.525  1.00  0.00     0.163 HD
BRANCH   4   7
ATOM      7  C   UNL A   1      31.044  27.071  22.454  1.00  0.00     0.273 C 
BRANCH   7   8
ATOM      8  C   UNL A   1      32.435  26.593  21.970  1.00  0.00     0.072 C 
ATOM      9  C   UNL A   1      32.527  25.574  20.834  1.00  0.00     0.011 C 
ENDBRANCH   7   8
BRANCH   7  10
ATOM     10  N   UNL A   1      30.278  26.239  23.435  1.00  0.00    -0.325 N 
ATOM     11  C   UNL A   1      28.992  26.758  23.875  1.00  0.00     0.333 C 
ATOM     12  H   UNL A   1      30.049  25.532  22.736  1.00  0.00     0.348 HD
BRANCH  10  13
ATOM     13  C   UNL A   1      30.927  25.244  24.277  1.00  0.00     0.184 C 
ATOM     14  C   UNL A   1      30.751  23.794  23.762  1.00  0.00     0.071 C 
ATOM     15  C   UNL A   1      30.476  25.298  25.745  1.00  0.00     0.071 C 
ATOM     16  C   UNL A   1      31.584  22.813  24.593  1.00  0.00     0.071 C 
ATOM     17  C   UNL A   1      31.334  24.356  26.596  1.00  0.00     0.071 C 
ATOM     18  C   UNL A   1      31.250  22.913  26.088  1.00  0.00     0.181 C 
BRANCH  18  19
ATOM     19  N   UNL A   1      32.149  22.063  26.867  1.00  0.00    -0.355 N 
ATOM     20  H   UNL A   1      32.999  21.886  26.331  1.00  0.00     0.344 HD
ATOM     21  H   UNL A   1      31.687  21.178  27.073  1.00  0.00     0.344 HD
ATOM     22  H   UNL A   1      32.389  22.533  27.740  1.00  0.00     0.344 HD
ENDBRANCH  18  19
ENDBRANCH  10  13
ENDBRANCH   7  10
ENDBRANCH   4   7
ENDBRANCH   2   3
ENDBRANCH   1   2
BRANCH   1  23
ATOM     23  C   UNL A   1      32.329  28.511  27.089  1.00  0.00     0.023 C 
BRANCH  23  24
ATOM     24  C   UNL A   1      33.759  28.992  27.304  1.00  0.00     0.116 C 
BRANCH  24  25
ATOM     25  N   UNL A   1      33.856  30.271  27.997  1.00  0.00    -0.352 N 
ATOM     26  C   UNL A   1      34.952  30.825  28.626  1.00  0.00     0.251 C 
ATOM     27  H   UNL A   1      33.033  30.810  28.018  1.00  0.00     0.163 HD
ATOM     28  O   UNL A   1      34.878  31.892  29.206  1.00  0.00    -0.269 OA
BRANCH  26  29
ATOM     29  C   UNL A   1      36.211  30.056  28.623  1.00  0.00     0.039 A 
ATOM     30  C   UNL A   1      37.042  30.132  27.502  1.00  0.00     0.014 A 
ATOM     31  C   UNL A   1      36.619  29.385  29.777  1.00  0.00     0.014 A 
ATOM     32  C   UNL A   1      38.338  29.622  27.580  1.00  0.00     0.010 A 
ATOM     33  C   UNL A   1      37.931  28.943  29.875  1.00  0.00     0.010 A 
ATOM     34  C   UNL A   1      38.809  29.080  28.785  1.00  0.00    -0.014 A 
BRANCH  34  35
ATOM     35  C   UNL A   1      40.225  28.675  28.959  1.00  0.00     0.031 A 
ATOM     36  C   UNL A   1      41.230  29.682  29.437  1.00  0.00     0.074 A 
ATOM     37  C   UNL A   1      40.624  27.447  28.575  1.00  0.00     0.049 A 
ATOM     38  N   UNL A   1      42.534  29.594  29.480  1.00  0.00    -0.248 NA
ATOM     39  C   UNL A   1      40.696  30.976  29.890  1.00  0.00     0.031 C 
ATOM     40  C   UNL A   1      39.753  26.394  28.049  1.00  0.00     0.029 A 
ATOM     41  N   UNL A   1      41.876  26.885  28.544  1.00  0.00    -0.354 N 
ATOM     42  C   UNL A   1      42.978  30.830  29.926  1.00  0.00     0.074 A 
ATOM     43  C   UNL A   1      41.808  31.662  30.107  1.00  0.00     0.031 C 
ATOM     44  C   UNL A   1      40.493  25.312  27.761  1.00  0.00     0.029 A 
ATOM     45  C   UNL A   1      41.895  25.606  28.041  1.00  0.00     0.049 A 
ATOM     46  H   UNL A   1      42.685  27.354  28.852  1.00  0.00     0.167 HD
ATOM     47  C   UNL A   1      44.246  31.232  30.175  1.00  0.00     0.037 A 
ATOM     48  C   UNL A   1      42.928  24.773  27.817  1.00  0.00     0.037 A 
ATOM     49  C   UNL A   1      45.402  30.388  30.040  1.00  0.00     0.049 A 
ATOM     50  C   UNL A   1      44.324  25.231  28.133  1.00  0.00     0.074 A 
ATOM     51  C   UNL A   1      46.722  30.680  30.334  1.00  0.00     0.029 A 
ATOM     52  N   UNL A   1      45.371  29.080  29.581  1.00  0.00    -0.354 N 
ATOM     53  N   UNL A   1      44.727  26.388  28.598  1.00  0.00    -0.248 NA
ATOM     54  C   UNL A   1      45.409  24.269  27.892  1.00  0.00     0.031 C 
ATOM     55  C   UNL A   1      47.495  29.554  30.030  1.00  0.00     0.029 A 
ATOM     56  C   UNL A   1      46.651  28.552  29.577  1.00  0.00     0.049 A 
ATOM     57  H   UNL A   1      44.561  28.598  29.298  1.00  0.00     0.167 HD
ATOM     58  C   UNL A   1      46.105  26.286  28.730  1.00  0.00     0.074 A 
ATOM     59  C   UNL A   1      46.470  24.952  28.302  1.00  0.00     0.031 C 
ATOM     60  C   UNL A   1      46.989  27.214  29.167  1.00  0.00     0.037 A 
BRANCH  47  61
ATOM     61  C   UNL A   1      44.441  32.648  30.625  1.00  0.00     0.057 A 
ATOM     62  C   UNL A   1      44.651  33.689  29.712  1.00  0.00     0.134 A 
ATOM     63  C   UNL A   1      44.406  32.977  31.986  1.00  0.00     0.134 A 
ATOM     64  F   UNL A   1      44.710  33.436  28.395  1.00  0.00    -0.206 F 
ATOM     65  C   UNL A   1      44.848  35.003  30.137  1.00  0.00     0.040 A 
ATOM     66  C   UNL A   1      44.577  34.291  32.422  1.00  0.00     0.040 A 
ATOM     67  F   UNL A   1      44.206  32.026  32.912  1.00  0.00    -0.206 F 
ATOM     68  C   UNL A   1      44.806  35.308  31.496  1.00  0.00     0.006 A 
ENDBRANCH  47  61
BRANCH  48  69
ATOM     69  C   UNL A   1      42.683  23.410  27.284  1.00  0.00     0.057 A 
ATOM     70  C   UNL A   1      42.779  23.151  25.911  1.00  0.00     0.134 A 
ATOM     71  C   UNL A   1      42.344  22.341  28.121  1.00  0.00     0.134 A 
ATOM     72  F   UNL A   1      43.083  24.140  25.059  1.00  0.00    -0.206 F 
ATOM     73  C   UNL A   1      42.529  21.882  25.388  1.00  0.00     0.040 A 
ATOM     74  C   UNL A   1      42.110  21.062  27.612  1.00  0.00     0.040 A 
ATOM     75  F   UNL A   1      42.244  22.525  29.445  1.00  0.00    -0.206 F 
ATOM     76  C   UNL A   1      42.197  20.832  26.241  1.00  0.00     0.006 A 
ENDBRANCH  48  69
BRANCH  60  77
ATOM     77  C   UNL A   1      48.428  26.810  29.246  1.00  0.00     0.057 A 
ATOM     78  C   UNL A   1      48.936  26.110  30.346  1.00  0.00     0.134 A 
ATOM     79  C   UNL A   1      49.299  27.071  28.181  1.00  0.00     0.134 A 
ATOM     80  F   UNL A   1      48.153  25.842  31.403  1.00  0.00    -0.206 F 
ATOM     81  C   UNL A   1      50.266  25.690  30.388  1.00  0.00     0.040 A 
ATOM     82  C   UNL A   1      50.624  26.638  28.202  1.00  0.00     0.040 A 
ATOM     83  F   UNL A   1      48.868  27.733  27.097  1.00  0.00    -0.206 F 
ATOM     84  C   UNL A   1      51.112  25.947  29.309  1.00  0.00     0.006 A 
ENDBRANCH  60  77
ENDBRANCH  34  35
ENDBRANCH  26  29
ENDBRANCH  24  25
ENDBRANCH  23  24
ENDBRANCH   1  23
TORSDOF 15
ENDMDL
MODEL 2
REMARK VINA RESULT:     -10.6      2.907      7.498
REMARK SMILES CC[C@H](C(=O)NCCCCNC(=O)c1ccc(-c2c3nc(c(-c4c(F)cccc4F)c4ccc([nH]4)c(-c4c(F)cccc4F)c4nc(c(-c5c(F)cccc5F)c5ccc2[nH]5)C=C4)C=C3)cc1)[N@H+](C)[C@H]1CC[C@H]([NH3+])CC1
REMARK SMILES IDX 8 1 7 2 6 3 4 4 5 5 3 7 2 8 1 9 68 10 69 11 70 13 71 14
REMARK SMILES IDX 76 15 72 16 75 17 73 18 74 19 9 23 10 24 11 25 12 26 13 28
REMARK SMILES IDX 14 29 15 30 67 31 16 32 66 33 17 34 18 35 19 36 60 37 20 38
REMARK SMILES IDX 65 39 59 40 61 41 21 42 64 43 58 44 57 45 22 47 48 48 31 49
REMARK SMILES IDX 47 50 32 51 35 52 46 53 62 54 33 55 34 56 45 58 63 59 36 60
REMARK SMILES IDX 23 61 24 62 29 63 25 64 26 65 28 66 30 67 27 68 49 69 50 70
REMARK SMILES IDX 55 71 51 72 52 73 54 74 56 75 53 76 37 77 38 78 43 79 39 80
REMARK SMILES IDX 40 81 42 82 44 83 41 84
REMARK H PARENT 6 6 68 12 74 20 74 21 74 22 11 27 61 46 35 57
REMARK Flexibility Score: inf
ROOT
ATOM      1  C   UNL A   1      36.930  22.934  24.517  1.00  0.00     0.023 C 
ENDROOT
BRANCH   1   2
ATOM      2  C   UNL A   1      36.595  23.841  25.700  1.00  0.00     0.116 C 
BRANCH   2   3
ATOM      3  N   UNL A   1      35.662  23.226  26.615  1.00  0.00    -0.351 N 
ATOM      4  C   UNL A   1      34.333  22.973  26.601  1.00  0.00     0.278 C 
ATOM      5  O   UNL A   1      33.916  22.593  27.709  1.00  0.00    -0.268 OA
ATOM      6  H   UNL A   1      36.096  22.919  27.444  1.00  0.00     0.163 HD
BRANCH   4   7
ATOM      7  C   UNL A   1      33.333  23.115  25.389  1.00  0.00     0.273 C 
BRANCH   7   8
ATOM      8  C   UNL A   1      33.056  21.866  24.518  1.00  0.00     0.072 C 
ATOM      9  C   UNL A   1      33.767  20.551  24.842  1.00  0.00     0.011 C 
ENDBRANCH   7   8
BRANCH   7  10
ATOM     10  N   UNL A   1      32.241  24.113  25.617  1.00  0.00    -0.325 N 
ATOM     11  C   UNL A   1      30.902  23.586  25.832  1.00  0.00     0.333 C 
ATOM     12  H   UNL A   1      32.581  24.350  26.549  1.00  0.00     0.348 HD
BRANCH  10  13
ATOM     13  C   UNL A   1      32.358  25.499  25.185  1.00  0.00     0.184 C 
ATOM     14  C   UNL A   1      33.642  25.781  24.367  1.00  0.00     0.071 C 
ATOM     15  C   UNL A   1      32.285  26.507  26.342  1.00  0.00     0.071 C 
ATOM     16  C   UNL A   1      33.632  27.207  23.807  1.00  0.00     0.071 C 
ATOM     17  C   UNL A   1      32.227  27.937  25.794  1.00  0.00     0.071 C 
ATOM     18  C   UNL A   1      33.445  28.249  24.918  1.00  0.00     0.181 C 
BRANCH  18  19
ATOM     19  N   UNL A   1      33.308  29.586  24.343  1.00  0.00    -0.355 N 
ATOM     20  H   UNL A   1      33.876  29.652  23.498  1.00  0.00     0.344 HD
ATOM     21  H   UNL A   1      33.623  30.281  25.019  1.00  0.00     0.344 HD
ATOM     22  H   UNL A   1      32.330  29.757  24.110  1.00  0.00     0.344 HD
ENDBRANCH  18  19
ENDBRANCH  10  13
ENDBRANCH   7  10
ENDBRANCH   4   7
ENDBRANCH   2   3
ENDBRANCH   1   2
BRANCH   1  23
ATOM     23  C   UNL A   1      37.432  21.539  24.874  1.00  0.00     0.023 C 
BRANCH  23  24
ATOM     24  C   UNL A   1      38.695  21.491  25.725  1.00  0.00     0.116 C 
BRANCH  24  25
ATOM     25  N   UNL A   1      39.448  20.249  25.600  1.00  0.00    -0.352 N 
ATOM     26  C   UNL A   1      40.755  19.997  25.964  1.00  0.00     0.251 C 
ATOM     27  H   UNL A   1      38.960  19.491  25.206  1.00  0.00     0.163 HD
ATOM     28  O   UNL A   1      41.273  18.915  25.761  1.00  0.00    -0.269 OA
BRANCH  26  29
ATOM     29  C   UNL A   1      41.530  21.103  26.560  1.00  0.00     0.039 A 
ATOM     30  C   UNL A   1      42.094  22.061  25.715  1.00  0.00     0.014 A 
ATOM     31  C   UNL A   1      41.571  21.254  27.948  1.00  0.00     0.014 A 
ATOM     32  C   UNL A   1      42.607  23.236  26.264  1.00  0.00     0.010 A 
ATOM     33  C   UNL A   1      42.018  22.453  28.485  1.00  0.00     0.010 A 
ATOM     34  C   UNL A   1      42.517  23.464  27.646  1.00  0.00    -0.014 A 
BRANCH  34  35
ATOM     35  C   UNL A   1      42.903  24.763  28.250  1.00  0.00     0.031 A 
ATOM     36  C   UNL A   1      41.852  25.804  28.501  1.00  0.00     0.074 A 
ATOM     37  C   UNL A   1      44.203  25.046  28.458  1.00  0.00     0.049 A 
ATOM     38  N   UNL A   1      41.995  27.059  28.842  1.00  0.00    -0.248 NA
ATOM     39  C   UNL A   1      40.455  25.387  28.301  1.00  0.00     0.031 C 
ATOM     40  C   UNL A   1      45.324  24.136  28.210  1.00  0.00     0.029 A 
ATOM     41  N   UNL A   1      44.806  26.196  28.905  1.00  0.00    -0.354 N 
ATOM     42  C   UNL A   1      40.713  27.589  28.860  1.00  0.00     0.074 A 
ATOM     43  C   UNL A   1      39.809  26.531  28.462  1.00  0.00     0.031 C 
ATOM     44  C   UNL A   1      46.473  24.758  28.519  1.00  0.00     0.029 A 
ATOM     45  C   UNL A   1      46.177  26.121  28.947  1.00  0.00     0.049 A 
ATOM     46  H   UNL A   1      44.303  27.000  29.169  1.00  0.00     0.167 HD
ATOM     47  C   UNL A   1      40.323  28.842  29.192  1.00  0.00     0.037 A 
ATOM     48  C   UNL A   1      47.091  27.051  29.279  1.00  0.00     0.037 A 
ATOM     49  C   UNL A   1      41.219  29.876  29.633  1.00  0.00     0.049 A 
ATOM     50  C   UNL A   1      46.630  28.426  29.675  1.00  0.00     0.074 A 
ATOM     51  C   UNL A   1      40.914  31.157  30.058  1.00  0.00     0.029 A 
ATOM     52  N   UNL A   1      42.596  29.741  29.716  1.00  0.00    -0.354 N 
ATOM     53  N   UNL A   1      45.411  28.903  29.732  1.00  0.00    -0.248 NA
ATOM     54  C   UNL A   1      47.672  29.392  30.052  1.00  0.00     0.031 C 
ATOM     55  C   UNL A   1      42.112  31.807  30.377  1.00  0.00     0.029 A 
ATOM     56  C   UNL A   1      43.158  30.919  30.180  1.00  0.00     0.049 A 
ATOM     57  H   UNL A   1      43.100  28.930  29.480  1.00  0.00     0.167 HD
ATOM     58  C   UNL A   1      45.535  30.212  30.175  1.00  0.00     0.074 A 
ATOM     59  C   UNL A   1      46.948  30.455  30.378  1.00  0.00     0.031 C 
ATOM     60  C   UNL A   1      44.565  31.132  30.394  1.00  0.00     0.037 A 
BRANCH  47  61
ATOM     61  C   UNL A   1      38.860  29.153  29.093  1.00  0.00     0.057 A 
ATOM     62  C   UNL A   1      38.020  29.104  30.212  1.00  0.00     0.134 A 
ATOM     63  C   UNL A   1      38.288  29.517  27.868  1.00  0.00     0.134 A 
ATOM     64  F   UNL A   1      38.504  28.748  31.411  1.00  0.00    -0.206 F 
ATOM     65  C   UNL A   1      36.655  29.379  30.111  1.00  0.00     0.040 A 
ATOM     66  C   UNL A   1      36.930  29.817  27.759  1.00  0.00     0.040 A 
ATOM     67  F   UNL A   1      39.040  29.584  26.758  1.00  0.00    -0.206 F 
ATOM     68  C   UNL A   1      36.108  29.742  28.882  1.00  0.00     0.006 A 
ENDBRANCH  47  61
BRANCH  48  69
ATOM     69  C   UNL A   1      48.536  26.712  29.272  1.00  0.00     0.057 A 
ATOM     70  C   UNL A   1      49.133  26.102  30.382  1.00  0.00     0.134 A 
ATOM     71  C   UNL A   1      49.352  26.992  28.171  1.00  0.00     0.134 A 
ATOM     72  F   UNL A   1      48.404  25.828  31.473  1.00  0.00    -0.206 F 
ATOM     73  C   UNL A   1      50.495  25.797  30.403  1.00  0.00     0.040 A 
ATOM     74  C   UNL A   1      50.712  26.674  28.172  1.00  0.00     0.040 A 
ATOM     75  F   UNL A   1      48.837  27.569  27.076  1.00  0.00    -0.206 F 
ATOM     76  C   UNL A   1      51.287  26.080  29.293  1.00  0.00     0.006 A 
ENDBRANCH  48  69
BRANCH  60  77
ATOM     77  C   UNL A   1      44.990  32.468  30.918  1.00  0.00     0.057 A 
ATOM     78  C   UNL A   1      45.280  33.536  30.061  1.00  0.00     0.134 A 
ATOM     79  C   UNL A   1      45.049  32.705  32.297  1.00  0.00     0.134 A 
ATOM     80  F   UNL A   1      45.254  33.367  28.730  1.00  0.00    -0.206 F 
ATOM     81  C   UNL A   1      45.624  34.793  30.559  1.00  0.00     0.040 A 
ATOM     82  C   UNL A   1      45.372  33.962  32.806  1.00  0.00     0.040 A 
ATOM     83  F   UNL A   1      44.776  31.721  33.168  1.00  0.00    -0.206 F 
ATOM     84  C   UNL A   1      45.662  35.010  31.936  1.00  0.00     0.006 A 
ENDBRANCH  60  77
ENDBRANCH  34  35
ENDBRANCH  26  29
ENDBRANCH  24  25
ENDBRANCH  23  24
ENDBRANCH   1  23
TORSDOF 15
ENDMDL
MODEL 3
REMARK VINA RESULT:     -10.5      2.933      7.657
REMARK SMILES CC[C@H](C(=O)NCCCCNC(=O)c1ccc(-c2c3nc(c(-c4c(F)cccc4F)c4ccc([nH]4)c(-c4c(F)cccc4F)c4nc(c(-c5c(F)cccc5F)c5ccc2[nH]5)C=C4)C=C3)cc1)[N@H+](C)[C@H]1CC[C@H]([NH3+])CC1
REMARK SMILES IDX 8 1 7 2 6 3 4 4 5 5 3 7 2 8 1 9 68 10 69 11 70 13 71 14
REMARK SMILES IDX 76 15 72 16 75 17 73 18 74 19 9 23 10 24 11 25 12 26 13 28
REMARK SMILES IDX 14 29 15 30 67 31 16 32 66 33 17 34 18 35 19 36 60 37 20 38
REMARK SMILES IDX 65 39 59 40 61 41 21 42 64 43 58 44 57 45 22 47 48 48 31 49
REMARK SMILES IDX 47 50 32 51 35 52 46 53 62 54 33 55 34 56 45 58 63 59 36 60
REMARK SMILES IDX 23 61 24 62 29 63 25 64 26 65 28 66 30 67 27 68 49 69 50 70
REMARK SMILES IDX 55 71 51 72 52 73 54 74 56 75 53 76 37 77 38 78 43 79 39 80
REMARK SMILES IDX 40 81 42 82 44 83 41 84
REMARK H PARENT 6 6 68 12 74 20 74 21 74 22 11 27 61 46 35 57
REMARK Flexibility Score: inf
ROOT
ATOM      1  C   UNL A   1      37.180  22.053  24.289  1.00  0.00     0.023 C 
ENDROOT
BRANCH   1   2
ATOM      2  C   UNL A   1      36.834  23.278  25.134  1.00  0.00     0.116 C 
BRANCH   2   3
ATOM      3  N   UNL A   1      35.881  22.974  26.176  1.00  0.00    -0.351 N 
ATOM      4  C   UNL A   1      34.571  23.241  26.383  1.00  0.00     0.278 C 
ATOM      5  O   UNL A   1      34.206  22.940  27.533  1.00  0.00    -0.268 OA
ATOM      6  H   UNL A   1      36.278  22.447  26.907  1.00  0.00     0.163 HD
BRANCH   4   7
ATOM      7  C   UNL A   1      33.538  23.865  25.367  1.00  0.00     0.273 C 
BRANCH   7   8
ATOM      8  C   UNL A   1      33.267  23.109  24.043  1.00  0.00     0.072 C 
ATOM      9  C   UNL A   1      33.229  21.581  24.043  1.00  0.00     0.011 C 
ENDBRANCH   7   8
BRANCH   7  10
ATOM     10  N   UNL A   1      32.429  24.630  26.020  1.00  0.00    -0.325 N 
ATOM     11  C   UNL A   1      31.072  24.178  25.756  1.00  0.00     0.333 C 
ATOM     12  H   UNL A   1      32.652  24.263  26.945  1.00  0.00     0.348 HD
BRANCH  10  13
ATOM     13  C   UNL A   1      32.605  25.999  26.485  1.00  0.00     0.184 C 
ATOM     14  C   UNL A   1      31.296  26.825  26.474  1.00  0.00     0.071 C 
ATOM     15  C   UNL A   1      33.678  26.775  25.705  1.00  0.00     0.071 C 
ATOM     16  C   UNL A   1      31.509  28.197  27.119  1.00  0.00     0.071 C 
ATOM     17  C   UNL A   1      33.935  28.132  26.368  1.00  0.00     0.071 C 
ATOM     18  C   UNL A   1      32.653  28.968  26.445  1.00  0.00     0.181 C 
BRANCH  18  19
ATOM     19  N   UNL A   1      32.919  30.213  27.163  1.00  0.00    -0.355 N 
ATOM     20  H   UNL A   1      33.002  30.019  28.161  1.00  0.00     0.344 HD
ATOM     21  H   UNL A   1      32.152  30.866  27.007  1.00  0.00     0.344 HD
ATOM     22  H   UNL A   1      33.788  30.622  26.823  1.00  0.00     0.344 HD
ENDBRANCH  18  19
ENDBRANCH  10  13
ENDBRANCH   7  10
ENDBRANCH   4   7
ENDBRANCH   2   3
ENDBRANCH   1   2
BRANCH   1  23
ATOM     23  C   UNL A   1      37.673  20.834  25.062  1.00  0.00     0.023 C 
BRANCH  23  24
ATOM     24  C   UNL A   1      39.003  21.007  25.786  1.00  0.00     0.116 C 
BRANCH  24  25
ATOM     25  N   UNL A   1      39.887  19.853  25.685  1.00  0.00    -0.352 N 
ATOM     26  C   UNL A   1      41.225  19.765  26.013  1.00  0.00     0.251 C 
ATOM     27  H   UNL A   1      39.477  19.028  25.339  1.00  0.00     0.163 HD
ATOM     28  O   UNL A   1      41.856  18.740  25.837  1.00  0.00    -0.269 OA
BRANCH  26  29
ATOM     29  C   UNL A   1      41.887  20.976  26.538  1.00  0.00     0.039 A 
ATOM     30  C   UNL A   1      42.401  21.906  25.632  1.00  0.00     0.014 A 
ATOM     31  C   UNL A   1      41.867  21.241  27.908  1.00  0.00     0.014 A 
ATOM     32  C   UNL A   1      42.799  23.160  26.095  1.00  0.00     0.010 A 
ATOM     33  C   UNL A   1      42.197  22.512  28.356  1.00  0.00     0.010 A 
ATOM     34  C   UNL A   1      42.642  23.490  27.450  1.00  0.00    -0.014 A 
BRANCH  34  35
ATOM     35  C   UNL A   1      42.901  24.861  27.955  1.00  0.00     0.031 A 
ATOM     36  C   UNL A   1      44.285  25.238  28.397  1.00  0.00     0.074 A 
ATOM     37  C   UNL A   1      41.876  25.717  28.128  1.00  0.00     0.049 A 
ATOM     38  N   UNL A   1      44.687  26.306  29.035  1.00  0.00    -0.248 NA
ATOM     39  C   UNL A   1      45.351  24.263  28.116  1.00  0.00     0.031 C 
ATOM     40  C   UNL A   1      40.477  25.452  27.783  1.00  0.00     0.029 A 
ATOM     41  N   UNL A   1      41.849  26.981  28.664  1.00  0.00    -0.354 N 
ATOM     42  C   UNL A   1      46.042  26.115  29.266  1.00  0.00     0.074 A 
ATOM     43  C   UNL A   1      46.386  24.815  28.731  1.00  0.00     0.031 C 
ATOM     44  C   UNL A   1      39.733  26.524  28.103  1.00  0.00     0.029 A 
ATOM     45  C   UNL A   1      40.592  27.533  28.713  1.00  0.00     0.049 A 
ATOM     46  H   UNL A   1      42.655  27.448  28.983  1.00  0.00     0.167 HD
ATOM     47  C   UNL A   1      46.923  26.954  29.859  1.00  0.00     0.037 A 
ATOM     48  C   UNL A   1      40.178  28.715  29.208  1.00  0.00     0.037 A 
ATOM     49  C   UNL A   1      46.588  28.264  30.347  1.00  0.00     0.049 A 
ATOM     50  C   UNL A   1      41.182  29.642  29.833  1.00  0.00     0.074 A 
ATOM     51  C   UNL A   1      47.424  29.217  30.901  1.00  0.00     0.029 A 
ATOM     52  N   UNL A   1      45.314  28.808  30.327  1.00  0.00    -0.354 N 
ATOM     53  N   UNL A   1      42.470  29.469  30.005  1.00  0.00    -0.248 NA
ATOM     54  C   UNL A   1      40.676  30.929  30.334  1.00  0.00     0.031 C 
ATOM     55  C   UNL A   1      46.649  30.332  31.239  1.00  0.00     0.029 A 
ATOM     56  C   UNL A   1      45.338  30.084  30.865  1.00  0.00     0.049 A 
ATOM     57  H   UNL A   1      44.510  28.356  29.982  1.00  0.00     0.167 HD
ATOM     58  C   UNL A   1      42.932  30.630  30.608  1.00  0.00     0.074 A 
ATOM     59  C   UNL A   1      41.789  31.505  30.767  1.00  0.00     0.031 C 
ATOM     60  C   UNL A   1      44.192  30.945  30.995  1.00  0.00     0.037 A 
BRANCH  47  61
ATOM     61  C   UNL A   1      48.335  26.473  30.005  1.00  0.00     0.057 A 
ATOM     62  C   UNL A   1      48.755  25.752  31.130  1.00  0.00     0.134 A 
ATOM     63  C   UNL A   1      49.283  26.724  29.004  1.00  0.00     0.134 A 
ATOM     64  F   UNL A   1      47.900  25.494  32.130  1.00  0.00    -0.206 F 
ATOM     65  C   UNL A   1      50.076  25.321  31.268  1.00  0.00     0.040 A 
ATOM     66  C   UNL A   1      50.599  26.277  29.120  1.00  0.00     0.040 A 
ATOM     67  F   UNL A   1      48.943  27.407  27.901  1.00  0.00    -0.206 F 
ATOM     68  C   UNL A   1      51.000  25.579  30.258  1.00  0.00     0.006 A 
ENDBRANCH  47  61
BRANCH  48  69
ATOM     69  C   UNL A   1      38.748  29.101  29.117  1.00  0.00     0.057 A 
ATOM     70  C   UNL A   1      38.209  29.569  27.913  1.00  0.00     0.134 A 
ATOM     71  C   UNL A   1      37.892  29.019  30.221  1.00  0.00     0.134 A 
ATOM     72  F   UNL A   1      38.986  29.686  26.827  1.00  0.00    -0.206 F 
ATOM     73  C   UNL A   1      36.872  29.959  27.814  1.00  0.00     0.040 A 
ATOM     74  C   UNL A   1      36.549  29.388  30.131  1.00  0.00     0.040 A 
ATOM     75  F   UNL A   1      38.349  28.572  31.400  1.00  0.00    -0.206 F 
ATOM     76  C   UNL A   1      36.038  29.865  28.925  1.00  0.00     0.006 A 
ENDBRANCH  48  69
BRANCH  60  77
ATOM     77  C   UNL A   1      44.411  32.302  31.587  1.00  0.00     0.057 A 
ATOM     78  C   UNL A   1      44.353  32.521  32.968  1.00  0.00     0.134 A 
ATOM     79  C   UNL A   1      44.744  33.389  30.769  1.00  0.00     0.134 A 
ATOM     80  F   UNL A   1      44.026  31.521  33.802  1.00  0.00    -0.206 F 
ATOM     81  C   UNL A   1      44.610  33.778  33.516  1.00  0.00     0.040 A 
ATOM     82  C   UNL A   1      45.023  34.645  31.306  1.00  0.00     0.040 A 
ATOM     83  F   UNL A   1      44.820  33.240  29.438  1.00  0.00    -0.206 F 
ATOM     84  C   UNL A   1      44.955  34.842  32.684  1.00  0.00     0.006 A 
ENDBRANCH  60  77
ENDBRANCH  34  35
ENDBRANCH  26  29
ENDBRANCH  24  25
ENDBRANCH  23  24
ENDBRANCH   1  23
TORSDOF 15
ENDMDL
