MODEL 1
REMARK VINA RESULT:     -12.6      0.000      0.000
REMARK SMILES Cc1cccc2c1N=CN1C2=[NH+]NC(=O)[C@@H]1CC(=O)NCCCCNC(=O)c1ccc(-c2c3nc(c(-c4c(F)cccc4F)c4ccc([nH]4)c(-c4c(F)cccc4F)c4nc(c(-c5c(F)cccc5F)c5ccc2[nH]5)C=C4)C=C3)cc1
REMARK SMILES IDX 23 1 22 2 21 3 20 4 18 5 19 6 17 8 16 9 1 10 2 11 3 12 7 13
REMARK SMILES IDX 4 14 6 15 8 16 5 17 11 18 9 19 10 20 12 21 13 22 14 24 15 26
REMARK SMILES IDX 24 27 25 28 26 29 27 31 28 32 29 33 81 34 30 35 80 36 31 37
REMARK SMILES IDX 32 38 33 39 74 40 34 41 79 42 73 43 75 44 35 45 78 46 72 47
REMARK SMILES IDX 71 48 36 50 62 51 45 52 61 53 46 54 49 55 60 56 76 57 47 58
REMARK SMILES IDX 48 59 59 61 77 62 50 63 37 64 38 65 43 66 39 67 40 68 42 69
REMARK SMILES IDX 44 70 41 71 63 72 64 73 69 74 65 75 66 76 68 77 70 78 67 79
REMARK SMILES IDX 51 80 52 81 57 82 53 83 54 84 56 85 58 86 55 87
REMARK H PARENT 20 7 12 23 13 25 25 30 75 49 49 60
REMARK Flexibility Score: inf
ROOT
ATOM      1  C   UNL A   1      37.591  21.243  24.759  1.00  0.00     0.023 C 
ENDROOT
BRANCH   1   2
ATOM      2  C   UNL A   1      36.921  22.595  24.652  1.00  0.00     0.023 C 
BRANCH   2   3
ATOM      3  C   UNL A   1      36.265  23.141  25.905  1.00  0.00     0.116 C 
BRANCH   3   4
ATOM      4  N   UNL A   1      35.424  22.128  26.499  1.00  0.00    -0.356 N 
ATOM      5  C   UNL A   1      34.171  22.246  27.019  1.00  0.00     0.224 C 
ATOM      6  O   UNL A   1      33.669  21.241  27.522  1.00  0.00    -0.275 OA
ATOM      7  H   UNL A   1      35.812  21.223  26.534  1.00  0.00     0.163 HD
BRANCH   5   8
ATOM      8  C   UNL A   1      33.385  23.541  26.877  1.00  0.00     0.160 C 
BRANCH   8   9
ATOM      9  C   UNL A   1      32.126  23.568  25.983  1.00  0.00     0.284 C 
ATOM     10  C   UNL A   1      33.992  28.429  22.227  1.00  0.00     0.047 C 
ATOM     11  C   UNL A   1      32.615  28.068  22.714  1.00  0.00    -0.024 A 
ATOM     12  C   UNL A   1      31.603  29.045  22.689  1.00  0.00     0.006 A 
ATOM     13  C   UNL A   1      32.358  26.812  23.295  1.00  0.00     0.085 A 
ATOM     14  C   UNL A   1      30.338  28.780  23.213  1.00  0.00     0.001 A 
ATOM     15  C   UNL A   1      31.095  26.589  23.884  1.00  0.00     0.092 A 
ATOM     16  N   UNL A   1      33.398  25.851  23.358  1.00  0.00    -0.215 NA
ATOM     17  C   UNL A   1      30.081  27.553  23.818  1.00  0.00     0.019 A 
ATOM     18  C   UNL A   1      30.967  25.406  24.800  1.00  0.00     0.309 C 
ATOM     19  C   UNL A   1      33.215  24.850  24.155  1.00  0.00     0.317 C 
ATOM     20  N   UNL A   1      32.119  24.642  24.964  1.00  0.00    -0.203 N 
ATOM     21  N   UNL A   1      29.845  25.249  25.435  1.00  0.00    -0.169 N 
ATOM     22  N   UNL A   1      29.793  24.288  26.387  1.00  0.00    -0.193 N 
ATOM     23  H   UNL A   1      29.061  25.807  25.232  1.00  0.00     0.340 HD
ATOM     24  C   UNL A   1      30.833  23.497  26.791  1.00  0.00     0.300 C 
ATOM     25  H   UNL A   1      28.925  24.146  26.829  1.00  0.00     0.216 HD
ATOM     26  O   UNL A   1      30.674  22.703  27.717  1.00  0.00    -0.267 OA
ENDBRANCH   8   9
ENDBRANCH   5   8
ENDBRANCH   3   4
ENDBRANCH   2   3
ENDBRANCH   1   2
BRANCH   1  27
ATOM     27  C   UNL A   1      38.755  21.220  25.729  1.00  0.00     0.116 C 
BRANCH  27  28
ATOM     28  N   UNL A   1      39.582  20.019  25.633  1.00  0.00    -0.352 N 
ATOM     29  C   UNL A   1      40.902  19.873  25.987  1.00  0.00     0.251 C 
ATOM     30  H   UNL A   1      39.141  19.217  25.270  1.00  0.00     0.163 HD
ATOM     31  O   UNL A   1      41.515  18.827  25.805  1.00  0.00    -0.269 OA
BRANCH  29  32
ATOM     32  C   UNL A   1      41.578  21.049  26.557  1.00  0.00     0.039 A 
ATOM     33  C   UNL A   1      42.038  22.048  25.698  1.00  0.00     0.014 A 
ATOM     34  C   UNL A   1      41.582  21.218  27.944  1.00  0.00     0.014 A 
ATOM     35  C   UNL A   1      42.440  23.268  26.235  1.00  0.00     0.010 A 
ATOM     36  C   UNL A   1      41.890  22.462  28.465  1.00  0.00     0.010 A 
ATOM     37  C   UNL A   1      42.331  23.490  27.616  1.00  0.00    -0.014 A 
BRANCH  37  38
ATOM     38  C   UNL A   1      42.751  24.763  28.237  1.00  0.00     0.031 A 
ATOM     39  C   UNL A   1      41.707  25.816  28.463  1.00  0.00     0.074 A 
ATOM     40  C   UNL A   1      44.049  25.002  28.495  1.00  0.00     0.049 A 
ATOM     41  N   UNL A   1      41.849  27.063  28.821  1.00  0.00    -0.248 NA
ATOM     42  C   UNL A   1      40.314  25.415  28.201  1.00  0.00     0.031 C 
ATOM     43  C   UNL A   1      45.149  24.059  28.283  1.00  0.00     0.029 A 
ATOM     44  N   UNL A   1      44.663  26.129  28.974  1.00  0.00    -0.354 N 
ATOM     45  C   UNL A   1      40.570  27.602  28.795  1.00  0.00     0.074 A 
ATOM     46  C   UNL A   1      39.676  26.567  28.324  1.00  0.00     0.031 C 
ATOM     47  C   UNL A   1      46.303  24.644  28.651  1.00  0.00     0.029 A 
ATOM     48  C   UNL A   1      46.026  26.010  29.084  1.00  0.00     0.049 A 
ATOM     49  H   UNL A   1      44.172  26.948  29.217  1.00  0.00     0.167 HD
ATOM     50  C   UNL A   1      40.171  28.842  29.159  1.00  0.00     0.037 A 
ATOM     51  C   UNL A   1      46.940  26.913  29.481  1.00  0.00     0.037 A 
ATOM     52  C   UNL A   1      41.064  29.848  29.660  1.00  0.00     0.049 A 
ATOM     53  C   UNL A   1      46.477  28.292  29.865  1.00  0.00     0.074 A 
ATOM     54  C   UNL A   1      40.769  31.117  30.120  1.00  0.00     0.029 A 
ATOM     55  N   UNL A   1      42.439  29.688  29.767  1.00  0.00    -0.354 N 
ATOM     56  N   UNL A   1      45.260  28.781  29.883  1.00  0.00    -0.248 NA
ATOM     57  C   UNL A   1      47.516  29.246  30.276  1.00  0.00     0.031 C 
ATOM     58  C   UNL A   1      41.972  31.737  30.479  1.00  0.00     0.029 A 
ATOM     59  C   UNL A   1      43.011  30.842  30.270  1.00  0.00     0.049 A 
ATOM     60  H   UNL A   1      42.933  28.873  29.521  1.00  0.00     0.167 HD
ATOM     61  C   UNL A   1      45.383  30.091  30.324  1.00  0.00     0.074 A 
ATOM     62  C   UNL A   1      46.793  30.315  30.576  1.00  0.00     0.031 C 
ATOM     63  C   UNL A   1      44.420  31.030  30.506  1.00  0.00     0.037 A 
BRANCH  50  64
ATOM     64  C   UNL A   1      38.709  29.146  29.022  1.00  0.00     0.057 A 
ATOM     65  C   UNL A   1      37.859  29.086  30.133  1.00  0.00     0.134 A 
ATOM     66  C   UNL A   1      38.150  29.552  27.802  1.00  0.00     0.134 A 
ATOM     67  F   UNL A   1      38.328  28.709  31.332  1.00  0.00    -0.206 F 
ATOM     68  C   UNL A   1      36.510  29.435  30.037  1.00  0.00     0.040 A 
ATOM     69  C   UNL A   1      36.811  29.932  27.700  1.00  0.00     0.040 A 
ATOM     70  F   UNL A   1      38.917  29.656  26.705  1.00  0.00    -0.206 F 
ATOM     71  C   UNL A   1      35.987  29.872  28.821  1.00  0.00     0.006 A 
ENDBRANCH  50  64
BRANCH  51  72
ATOM     72  C   UNL A   1      48.374  26.541  29.565  1.00  0.00     0.057 A 
ATOM     73  C   UNL A   1      49.262  26.776  28.510  1.00  0.00     0.134 A 
ATOM     74  C   UNL A   1      48.890  25.944  30.722  1.00  0.00     0.134 A 
ATOM     75  F   UNL A   1      48.829  27.343  27.373  1.00  0.00    -0.206 F 
ATOM     76  C   UNL A   1      50.611  26.426  28.598  1.00  0.00     0.040 A 
ATOM     77  C   UNL A   1      50.239  25.606  30.831  1.00  0.00     0.040 A 
ATOM     78  F   UNL A   1      48.091  25.712  31.773  1.00  0.00    -0.206 F 
ATOM     79  C   UNL A   1      51.104  25.845  29.766  1.00  0.00     0.006 A 
ENDBRANCH  51  72
BRANCH  63  80
ATOM     80  C   UNL A   1      44.867  32.366  31.012  1.00  0.00     0.057 A 
ATOM     81  C   UNL A   1      44.930  32.623  32.387  1.00  0.00     0.134 A 
ATOM     82  C   UNL A   1      45.201  33.407  30.138  1.00  0.00     0.134 A 
ATOM     83  F   UNL A   1      44.616  31.667  33.274  1.00  0.00    -0.206 F 
ATOM     84  C   UNL A   1      45.307  33.874  32.876  1.00  0.00     0.040 A 
ATOM     85  C   UNL A   1      45.601  34.655  30.615  1.00  0.00     0.040 A 
ATOM     86  F   UNL A   1      45.174  33.215  28.811  1.00  0.00    -0.206 F 
ATOM     87  C   UNL A   1      45.648  34.892  31.989  1.00  0.00     0.006 A 
ENDBRANCH  63  80
ENDBRANCH  37  38
ENDBRANCH  29  32
ENDBRANCH  27  28
ENDBRANCH   1  27
TORSDOF 12
ENDMDL
MODEL 2
REMARK VINA RESULT:     -12.5      0.170      1.309
REMARK SMILES Cc1cccc2c1N=CN1C2=[NH+]NC(=O)[C@@H]1CC(=O)NCCCCNC(=O)c1ccc(-c2c3nc(c(-c4c(F)cccc4F)c4ccc([nH]4)c(-c4c(F)cccc4F)c4nc(c(-c5c(F)cccc5F)c5ccc2[nH]5)C=C4)C=C3)cc1
REMARK SMILES IDX 23 1 22 2 21 3 20 4 18 5 19 6 17 8 16 9 1 10 2 11 3 12 7 13
REMARK SMILES IDX 4 14 6 15 8 16 5 17 11 18 9 19 10 20 12 21 13 22 14 24 15 26
REMARK SMILES IDX 24 27 25 28 26 29 27 31 28 32 29 33 81 34 30 35 80 36 31 37
REMARK SMILES IDX 32 38 33 39 74 40 34 41 79 42 73 43 75 44 35 45 78 46 72 47
REMARK SMILES IDX 71 48 36 50 62 51 45 52 61 53 46 54 49 55 60 56 76 57 47 58
REMARK SMILES IDX 48 59 59 61 77 62 50 63 37 64 38 65 43 66 39 67 40 68 42 69
REMARK SMILES IDX 44 70 41 71 63 72 64 73 69 74 65 75 66 76 68 77 70 78 67 79
REMARK SMILES IDX 51 80 52 81 57 82 53 83 54 84 56 85 58 86 55 87
REMARK H PARENT 20 7 12 23 13 25 25 30 75 49 49 60
REMARK Flexibility Score: inf
ROOT
ATOM      1  C   UNL A   1      37.673  21.106  24.934  1.00  0.00     0.023 C 
ENDROOT
BRANCH   1   2
ATOM      2  C   UNL A   1      37.051  22.462  24.685  1.00  0.00     0.023 C 
BRANCH   2   3
ATOM      3  C   UNL A   1      36.310  23.103  25.842  1.00  0.00     0.116 C 
BRANCH   3   4
ATOM      4  N   UNL A   1      35.488  22.116  26.503  1.00  0.00    -0.356 N 
ATOM      5  C   UNL A   1      34.254  22.260  27.063  1.00  0.00     0.224 C 
ATOM      6  O   UNL A   1      33.768  21.277  27.622  1.00  0.00    -0.275 OA
ATOM      7  H   UNL A   1      35.874  21.213  26.558  1.00  0.00     0.163 HD
BRANCH   5   8
ATOM      8  C   UNL A   1      33.468  23.552  26.901  1.00  0.00     0.160 C 
BRANCH   8   9
ATOM      9  C   UNL A   1      32.214  23.566  25.999  1.00  0.00     0.284 C 
ATOM     10  C   UNL A   1      34.052  28.450  22.258  1.00  0.00     0.047 C 
ATOM     11  C   UNL A   1      32.675  28.074  22.737  1.00  0.00    -0.024 A 
ATOM     12  C   UNL A   1      31.653  29.040  22.706  1.00  0.00     0.006 A 
ATOM     13  C   UNL A   1      32.429  26.815  23.315  1.00  0.00     0.085 A 
ATOM     14  C   UNL A   1      30.389  28.761  23.222  1.00  0.00     0.001 A 
ATOM     15  C   UNL A   1      31.164  26.577  23.896  1.00  0.00     0.092 A 
ATOM     16  N   UNL A   1      33.479  25.865  23.384  1.00  0.00    -0.215 NA
ATOM     17  C   UNL A   1      30.141  27.531  23.824  1.00  0.00     0.019 A 
ATOM     18  C   UNL A   1      31.043  25.393  24.810  1.00  0.00     0.309 C 
ATOM     19  C   UNL A   1      33.300  24.861  24.179  1.00  0.00     0.317 C 
ATOM     20  N   UNL A   1      32.202  24.640  24.980  1.00  0.00    -0.203 N 
ATOM     21  N   UNL A   1      29.918  25.223  25.438  1.00  0.00    -0.169 N 
ATOM     22  N   UNL A   1      29.871  24.261  26.389  1.00  0.00    -0.193 N 
ATOM     23  H   UNL A   1      29.130  25.773  25.230  1.00  0.00     0.340 HD
ATOM     24  C   UNL A   1      30.917  23.480  26.799  1.00  0.00     0.300 C 
ATOM     25  H   UNL A   1      29.002  24.109  26.825  1.00  0.00     0.216 HD
ATOM     26  O   UNL A   1      30.760  22.684  27.723  1.00  0.00    -0.267 OA
ENDBRANCH   8   9
ENDBRANCH   5   8
ENDBRANCH   3   4
ENDBRANCH   2   3
ENDBRANCH   1   2
BRANCH   1  27
ATOM     27  C   UNL A   1      38.911  21.158  25.805  1.00  0.00     0.116 C 
BRANCH  27  28
ATOM     28  N   UNL A   1      39.756  19.969  25.705  1.00  0.00    -0.352 N 
ATOM     29  C   UNL A   1      41.085  19.849  26.035  1.00  0.00     0.251 C 
ATOM     30  H   UNL A   1      39.322  19.156  25.358  1.00  0.00     0.163 HD
ATOM     31  O   UNL A   1      41.712  18.812  25.851  1.00  0.00    -0.269 OA
BRANCH  29  32
ATOM     32  C   UNL A   1      41.751  21.041  26.582  1.00  0.00     0.039 A 
ATOM     33  C   UNL A   1      42.169  22.044  25.706  1.00  0.00     0.014 A 
ATOM     34  C   UNL A   1      41.788  21.218  27.967  1.00  0.00     0.014 A 
ATOM     35  C   UNL A   1      42.560  23.275  26.226  1.00  0.00     0.010 A 
ATOM     36  C   UNL A   1      42.085  22.470  28.474  1.00  0.00     0.010 A 
ATOM     37  C   UNL A   1      42.482  23.503  27.608  1.00  0.00    -0.014 A 
BRANCH  37  38
ATOM     38  C   UNL A   1      42.892  24.787  28.212  1.00  0.00     0.031 A 
ATOM     39  C   UNL A   1      41.835  25.823  28.453  1.00  0.00     0.074 A 
ATOM     40  C   UNL A   1      44.191  25.051  28.441  1.00  0.00     0.049 A 
ATOM     41  N   UNL A   1      41.962  27.075  28.800  1.00  0.00    -0.248 NA
ATOM     42  C   UNL A   1      40.444  25.396  28.223  1.00  0.00     0.031 C 
ATOM     43  C   UNL A   1      45.304  24.127  28.212  1.00  0.00     0.029 A 
ATOM     44  N   UNL A   1      44.795  26.192  28.899  1.00  0.00    -0.354 N 
ATOM     45  C   UNL A   1      40.673  27.591  28.797  1.00  0.00     0.074 A 
ATOM     46  C   UNL A   1      39.789  26.537  28.353  1.00  0.00     0.031 C 
ATOM     47  C   UNL A   1      46.454  24.734  28.552  1.00  0.00     0.029 A 
ATOM     48  C   UNL A   1      46.162  26.098  28.981  1.00  0.00     0.049 A 
ATOM     49  H   UNL A   1      44.295  27.004  29.148  1.00  0.00     0.167 HD
ATOM     50  C   UNL A   1      40.259  28.826  29.162  1.00  0.00     0.037 A 
ATOM     51  C   UNL A   1      47.068  27.019  29.353  1.00  0.00     0.037 A 
ATOM     52  C   UNL A   1      41.145  29.852  29.637  1.00  0.00     0.049 A 
ATOM     53  C   UNL A   1      46.589  28.393  29.737  1.00  0.00     0.074 A 
ATOM     54  C   UNL A   1      40.838  31.118  30.095  1.00  0.00     0.029 A 
ATOM     55  N   UNL A   1      42.524  29.716  29.716  1.00  0.00    -0.354 N 
ATOM     56  N   UNL A   1      45.364  28.860  29.778  1.00  0.00    -0.248 NA
ATOM     57  C   UNL A   1      47.618  29.368  30.119  1.00  0.00     0.031 C 
ATOM     58  C   UNL A   1      42.036  31.762  30.424  1.00  0.00     0.029 A 
ATOM     59  C   UNL A   1      43.086  30.884  30.199  1.00  0.00     0.049 A 
ATOM     60  H   UNL A   1      43.028  28.909  29.465  1.00  0.00     0.167 HD
ATOM     61  C   UNL A   1      45.472  30.175  30.207  1.00  0.00     0.074 A 
ATOM     62  C   UNL A   1      46.883  30.426  30.428  1.00  0.00     0.031 C 
ATOM     63  C   UNL A   1      44.496  31.098  30.403  1.00  0.00     0.037 A 
BRANCH  50  64
ATOM     64  C   UNL A   1      38.790  29.103  29.054  1.00  0.00     0.057 A 
ATOM     65  C   UNL A   1      37.957  28.993  30.174  1.00  0.00     0.134 A 
ATOM     66  C   UNL A   1      38.206  29.533  27.854  1.00  0.00     0.134 A 
ATOM     67  F   UNL A   1      38.451  28.591  31.355  1.00  0.00    -0.206 F 
ATOM     68  C   UNL A   1      36.600  29.316  30.107  1.00  0.00     0.040 A 
ATOM     69  C   UNL A   1      36.858  29.886  27.782  1.00  0.00     0.040 A 
ATOM     70  F   UNL A   1      38.954  29.684  26.750  1.00  0.00    -0.206 F 
ATOM     71  C   UNL A   1      36.051  29.777  28.912  1.00  0.00     0.006 A 
ENDBRANCH  50  64
BRANCH  51  72
ATOM     72  C   UNL A   1      48.510  26.674  29.408  1.00  0.00     0.057 A 
ATOM     73  C   UNL A   1      49.082  26.066  30.531  1.00  0.00     0.134 A 
ATOM     74  C   UNL A   1      49.349  26.941  28.320  1.00  0.00     0.134 A 
ATOM     75  F   UNL A   1      48.332  25.786  31.607  1.00  0.00    -0.206 F 
ATOM     76  C   UNL A   1      50.440  25.742  30.573  1.00  0.00     0.040 A 
ATOM     77  C   UNL A   1      50.704  26.606  28.341  1.00  0.00     0.040 A 
ATOM     78  F   UNL A   1      48.853  27.505  27.209  1.00  0.00    -0.206 F 
ATOM     79  C   UNL A   1      51.254  26.006  29.471  1.00  0.00     0.006 A 
ENDBRANCH  51  72
BRANCH  63  80
ATOM     80  C   UNL A   1      44.930  32.445  30.891  1.00  0.00     0.057 A 
ATOM     81  C   UNL A   1      45.251  33.463  29.985  1.00  0.00     0.134 A 
ATOM     82  C   UNL A   1      45.065  32.722  32.258  1.00  0.00     0.134 A 
ATOM     83  F   UNL A   1      45.148  33.256  28.664  1.00  0.00    -0.206 F 
ATOM     84  C   UNL A   1      45.694  34.712  30.421  1.00  0.00     0.040 A 
ATOM     85  C   UNL A   1      45.486  33.974  32.706  1.00  0.00     0.040 A 
ATOM     86  F   UNL A   1      44.759  31.790  33.173  1.00  0.00    -0.206 F 
ATOM     87  C   UNL A   1      45.808  34.970  31.786  1.00  0.00     0.006 A 
ENDBRANCH  63  80
ENDBRANCH  37  38
ENDBRANCH  29  32
ENDBRANCH  27  28
ENDBRANCH   1  27
TORSDOF 12
ENDMDL
MODEL 3
REMARK VINA RESULT:     -12.4      1.836      2.631
REMARK SMILES Cc1cccc2c1N=CN1C2=[NH+]NC(=O)[C@@H]1CC(=O)NCCCCNC(=O)c1ccc(-c2c3nc(c(-c4c(F)cccc4F)c4ccc([nH]4)c(-c4c(F)cccc4F)c4nc(c(-c5c(F)cccc5F)c5ccc2[nH]5)C=C4)C=C3)cc1
REMARK SMILES IDX 23 1 22 2 21 3 20 4 18 5 19 6 17 8 16 9 1 10 2 11 3 12 7 13
REMARK SMILES IDX 4 14 6 15 8 16 5 17 11 18 9 19 10 20 12 21 13 22 14 24 15 26
REMARK SMILES IDX 24 27 25 28 26 29 27 31 28 32 29 33 81 34 30 35 80 36 31 37
REMARK SMILES IDX 32 38 33 39 74 40 34 41 79 42 73 43 75 44 35 45 78 46 72 47
REMARK SMILES IDX 71 48 36 50 62 51 45 52 61 53 46 54 49 55 60 56 76 57 47 58
REMARK SMILES IDX 48 59 59 61 77 62 50 63 37 64 38 65 43 66 39 67 40 68 42 69
REMARK SMILES IDX 44 70 41 71 63 72 64 73 69 74 65 75 66 76 68 77 70 78 67 79
REMARK SMILES IDX 51 80 52 81 57 82 53 83 54 84 56 85 58 86 55 87
REMARK H PARENT 20 7 12 23 13 25 25 30 75 49 49 60
REMARK Flexibility Score: inf
ROOT
ATOM      1  C   UNL A   1      37.465  19.620  24.990  1.00  0.00     0.023 C 
ENDROOT
BRANCH   1   2
ATOM      2  C   UNL A   1      36.432  20.687  24.702  1.00  0.00     0.023 C 
BRANCH   2   3
ATOM      3  C   UNL A   1      35.409  20.965  25.786  1.00  0.00     0.116 C 
BRANCH   3   4
ATOM      4  N   UNL A   1      34.263  20.103  25.611  1.00  0.00    -0.356 N 
ATOM      5  C   UNL A   1      32.973  20.434  25.323  1.00  0.00     0.224 C 
ATOM      6  O   UNL A   1      32.151  19.519  25.273  1.00  0.00    -0.275 OA
ATOM      7  H   UNL A   1      34.439  19.140  25.715  1.00  0.00     0.163 HD
BRANCH   5   8
ATOM      8  C   UNL A   1      32.594  21.864  24.968  1.00  0.00     0.160 C 
BRANCH   8   9
ATOM      9  C   UNL A   1      33.306  22.565  23.791  1.00  0.00     0.284 C 
ATOM     10  C   UNL A   1      33.989  28.278  26.640  1.00  0.00     0.047 C 
ATOM     11  C   UNL A   1      33.729  27.953  25.194  1.00  0.00    -0.024 A 
ATOM     12  C   UNL A   1      33.209  28.952  24.351  1.00  0.00     0.006 A 
ATOM     13  C   UNL A   1      33.890  26.643  24.706  1.00  0.00     0.085 A 
ATOM     14  C   UNL A   1      32.870  28.669  23.029  1.00  0.00     0.001 A 
ATOM     15  C   UNL A   1      33.474  26.360  23.387  1.00  0.00     0.092 A 
ATOM     16  N   UNL A   1      34.369  25.632  25.576  1.00  0.00    -0.215 NA
ATOM     17  C   UNL A   1      32.995  27.371  22.544  1.00  0.00     0.019 A 
ATOM     18  C   UNL A   1      33.314  24.915  23.015  1.00  0.00     0.309 C 
ATOM     19  C   UNL A   1      34.214  24.409  25.186  1.00  0.00     0.317 C 
ATOM     20  N   UNL A   1      33.608  23.997  24.020  1.00  0.00    -0.203 N 
ATOM     21  N   UNL A   1      32.828  24.639  21.842  1.00  0.00    -0.169 N 
ATOM     22  N   UNL A   1      32.523  23.348  21.577  1.00  0.00    -0.193 N 
ATOM     23  H   UNL A   1      32.686  25.344  21.170  1.00  0.00     0.340 HD
ATOM     24  C   UNL A   1      32.623  22.300  22.452  1.00  0.00     0.300 C 
ATOM     25  H   UNL A   1      32.199  23.143  20.671  1.00  0.00     0.216 HD
ATOM     26  O   UNL A   1      32.250  21.179  22.110  1.00  0.00    -0.267 OA
ENDBRANCH   8   9
ENDBRANCH   5   8
ENDBRANCH   3   4
ENDBRANCH   2   3
ENDBRANCH   1   2
BRANCH   1  27
ATOM     27  C   UNL A   1      38.709  20.151  25.673  1.00  0.00     0.116 C 
BRANCH  27  28
ATOM     28  N   UNL A   1      39.826  19.209  25.684  1.00  0.00    -0.352 N 
ATOM     29  C   UNL A   1      41.125  19.446  26.069  1.00  0.00     0.251 C 
ATOM     30  H   UNL A   1      39.626  18.295  25.378  1.00  0.00     0.163 HD
ATOM     31  O   UNL A   1      41.998  18.590  25.978  1.00  0.00    -0.269 OA
BRANCH  29  32
ATOM     32  C   UNL A   1      41.445  20.795  26.557  1.00  0.00     0.039 A 
ATOM     33  C   UNL A   1      41.785  20.967  27.900  1.00  0.00     0.014 A 
ATOM     34  C   UNL A   1      41.574  21.835  25.632  1.00  0.00     0.014 A 
ATOM     35  C   UNL A   1      42.335  22.179  28.308  1.00  0.00     0.010 A 
ATOM     36  C   UNL A   1      42.208  23.001  26.021  1.00  0.00     0.010 A 
ATOM     37  C   UNL A   1      42.583  23.185  27.362  1.00  0.00    -0.014 A 
BRANCH  37  38
ATOM     38  C   UNL A   1      43.156  24.492  27.743  1.00  0.00     0.031 A 
ATOM     39  C   UNL A   1      42.215  25.576  28.175  1.00  0.00     0.074 A 
ATOM     40  C   UNL A   1      44.474  24.726  27.606  1.00  0.00     0.049 A 
ATOM     41  N   UNL A   1      42.448  26.843  28.384  1.00  0.00    -0.248 NA
ATOM     42  C   UNL A   1      40.806  25.182  28.346  1.00  0.00     0.031 C 
ATOM     43  C   UNL A   1      45.473  23.751  27.164  1.00  0.00     0.029 A 
ATOM     44  N   UNL A   1      45.194  25.874  27.808  1.00  0.00    -0.354 N 
ATOM     45  C   UNL A   1      41.211  27.401  28.679  1.00  0.00     0.074 A 
ATOM     46  C   UNL A   1      40.225  26.351  28.558  1.00  0.00     0.031 C 
ATOM     47  C   UNL A   1      46.681  24.340  27.148  1.00  0.00     0.029 A 
ATOM     48  C   UNL A   1      46.533  25.738  27.538  1.00  0.00     0.049 A 
ATOM     49  H   UNL A   1      44.788  26.717  28.118  1.00  0.00     0.167 HD
ATOM     50  C   UNL A   1      40.926  28.671  29.048  1.00  0.00     0.037 A 
ATOM     51  C   UNL A   1      47.519  26.651  27.593  1.00  0.00     0.037 A 
ATOM     52  C   UNL A   1      41.921  29.695  29.200  1.00  0.00     0.049 A 
ATOM     53  C   UNL A   1      47.178  28.063  27.988  1.00  0.00     0.074 A 
ATOM     54  C   UNL A   1      41.764  30.999  29.629  1.00  0.00     0.029 A 
ATOM     55  N   UNL A   1      43.271  29.519  28.928  1.00  0.00    -0.354 N 
ATOM     56  N   UNL A   1      46.014  28.573  28.312  1.00  0.00    -0.248 NA
ATOM     57  C   UNL A   1      48.287  29.025  28.017  1.00  0.00     0.031 C 
ATOM     58  C   UNL A   1      43.017  31.622  29.587  1.00  0.00     0.029 A 
ATOM     59  C   UNL A   1      43.958  30.697  29.162  1.00  0.00     0.049 A 
ATOM     60  H   UNL A   1      43.679  28.680  28.614  1.00  0.00     0.167 HD
ATOM     61  C   UNL A   1      46.251  29.910  28.601  1.00  0.00     0.074 A 
ATOM     62  C   UNL A   1      47.674  30.126  28.428  1.00  0.00     0.031 C 
ATOM     63  C   UNL A   1      45.375  30.876  28.976  1.00  0.00     0.037 A 
BRANCH  50  64
ATOM     64  C   UNL A   1      39.484  28.990  29.306  1.00  0.00     0.057 A 
ATOM     65  C   UNL A   1      38.654  29.438  28.272  1.00  0.00     0.134 A 
ATOM     66  C   UNL A   1      38.901  28.803  30.568  1.00  0.00     0.134 A 
ATOM     67  F   UNL A   1      39.146  29.636  27.039  1.00  0.00    -0.206 F 
ATOM     68  C   UNL A   1      37.294  29.672  28.479  1.00  0.00     0.040 A 
ATOM     69  C   UNL A   1      37.537  29.005  30.780  1.00  0.00     0.040 A 
ATOM     70  F   UNL A   1      39.637  28.349  31.595  1.00  0.00    -0.206 F 
ATOM     71  C   UNL A   1      36.730  29.443  29.734  1.00  0.00     0.006 A 
ENDBRANCH  50  64
BRANCH  51  72
ATOM     72  C   UNL A   1      48.919  26.262  27.297  1.00  0.00     0.057 A 
ATOM     73  C   UNL A   1      49.797  25.835  28.299  1.00  0.00     0.134 A 
ATOM     74  C   UNL A   1      49.408  26.302  25.985  1.00  0.00     0.134 A 
ATOM     75  F   UNL A   1      49.389  25.777  29.576  1.00  0.00    -0.206 F 
ATOM     76  C   UNL A   1      51.112  25.467  28.010  1.00  0.00     0.040 A 
ATOM     77  C   UNL A   1      50.715  25.919  25.679  1.00  0.00     0.040 A 
ATOM     78  F   UNL A   1      48.608  26.685  24.980  1.00  0.00    -0.206 F 
ATOM     79  C   UNL A   1      51.573  25.503  26.694  1.00  0.00     0.006 A 
ENDBRANCH  51  72
BRANCH  63  80
ATOM     80  C   UNL A   1      45.942  32.237  29.235  1.00  0.00     0.057 A 
ATOM     81  C   UNL A   1      46.389  32.592  30.514  1.00  0.00     0.134 A 
ATOM     82  C   UNL A   1      46.013  33.206  28.226  1.00  0.00     0.134 A 
ATOM     83  F   UNL A   1      46.340  31.709  31.522  1.00  0.00    -0.206 F 
ATOM     84  C   UNL A   1      46.884  33.868  30.782  1.00  0.00     0.040 A 
ATOM     85  C   UNL A   1      46.527  34.478  28.477  1.00  0.00     0.040 A 
ATOM     86  F   UNL A   1      45.614  32.918  26.979  1.00  0.00    -0.206 F 
ATOM     87  C   UNL A   1      46.958  34.814  29.761  1.00  0.00     0.006 A 
ENDBRANCH  63  80
ENDBRANCH  37  38
ENDBRANCH  29  32
ENDBRANCH  27  28
ENDBRANCH   1  27
TORSDOF 12
ENDMDL
