MODEL 1
REMARK VINA RESULT:     -12.4      0.000      0.000
REMARK SMILES C[NH+](C)CCc1nc(Nc2ccc(O)c(C(=O)NCCCCNC(=O)c3ccc(-c4c5nc(c(-c6c(F)cccc6F)c6ccc([nH]6)c(-c6c(F)cccc6F)c6nc(c(-c7c(F)cccc7F)c7ccc4[nH]7)C=C6)C=C5)cc3)c2)c2ccccc2n1
REMARK SMILES IDX 19 1 18 2 16 3 17 4 15 6 10 7 11 8 80 9 12 10 13 11 9 12
REMARK SMILES IDX 8 14 6 15 7 16 87 17 86 18 81 19 85 20 82 21 84 22 83 23
REMARK SMILES IDX 5 24 4 25 2 26 1 27 3 28 14 30 20 32 21 33 22 34 23 35 24 36
REMARK SMILES IDX 25 38 26 39 27 40 79 41 28 42 78 43 29 44 30 45 31 46 72 47
REMARK SMILES IDX 32 48 77 49 71 50 73 51 33 52 76 53 70 54 69 55 34 57 60 58
REMARK SMILES IDX 43 59 59 60 44 61 47 62 58 63 74 64 45 65 46 66 57 68 75 69
REMARK SMILES IDX 48 70 35 71 36 72 41 73 37 74 38 75 40 76 42 77 39 78 61 79
REMARK SMILES IDX 62 80 67 81 63 82 64 83 66 84 68 85 65 86 49 87 50 88 55 89
REMARK SMILES IDX 51 90 52 91 54 92 56 93 53 94
REMARK H PARENT 18 5 9 13 2 29 14 31 23 37 73 56 47 67
REMARK Flexibility Score: inf
ROOT
ATOM      1  C   UNL A   1      31.413  29.730  24.988  1.00  0.00     0.116 C 
ENDROOT
BRANCH   1   2
ATOM      2  N   UNL A   1      32.637  29.543  24.247  1.00  0.00    -0.352 N 
ATOM      3  C   UNL A   1      33.222  28.422  23.724  1.00  0.00     0.255 C 
ATOM      4  O   UNL A   1      34.360  28.574  23.267  1.00  0.00    -0.269 OA
ATOM      5  H   UNL A   1      33.144  30.373  24.089  1.00  0.00     0.163 HD
BRANCH   3   6
ATOM      6  C   UNL A   1      32.567  27.085  23.569  1.00  0.00     0.083 A 
ATOM      7  C   UNL A   1      32.471  24.850  24.598  1.00  0.00     0.041 A 
ATOM      8  C   UNL A   1      31.583  24.443  23.604  1.00  0.00     0.030 A 
ATOM      9  C   UNL A   1      32.955  26.161  24.563  1.00  0.00     0.043 A 
ATOM     10  C   UNL A   1      31.153  25.339  22.630  1.00  0.00     0.049 A 
ATOM     11  C   UNL A   1      31.625  26.657  22.624  1.00  0.00     0.128 A 
BRANCH   7  12
ATOM     12  N   UNL A   1      32.934  23.968  25.585  1.00  0.00    -0.340 N 
ATOM     13  H   UNL A   1      32.794  24.242  26.520  1.00  0.00     0.168 HD
BRANCH  12  14
ATOM     14  C   UNL A   1      33.577  22.732  25.381  1.00  0.00     0.142 A 
ATOM     15  C   UNL A   1      33.404  20.481  24.949  1.00  0.00     0.137 A 
ATOM     16  N   UNL A   1      32.800  21.656  25.150  1.00  0.00    -0.215 NA
ATOM     17  N   UNL A   1      34.728  20.296  25.013  1.00  0.00    -0.233 NA
ATOM     18  C   UNL A   1      35.497  21.369  25.210  1.00  0.00     0.076 A 
ATOM     19  C   UNL A   1      34.977  22.650  25.414  1.00  0.00     0.043 A 
ATOM     20  C   UNL A   1      36.874  21.201  25.185  1.00  0.00     0.029 A 
ATOM     21  C   UNL A   1      35.866  23.736  25.631  1.00  0.00     0.014 A 
ATOM     22  C   UNL A   1      37.751  22.273  25.366  1.00  0.00     0.002 A 
ATOM     23  C   UNL A   1      37.246  23.544  25.598  1.00  0.00     0.001 A 
BRANCH  15  24
ATOM     24  C   UNL A   1      32.533  19.307  24.617  1.00  0.00     0.138 C 
BRANCH  24  25
ATOM     25  C   UNL A   1      33.063  17.962  25.149  1.00  0.00     0.269 C 
BRANCH  25  26
ATOM     26  N   UNL A   1      34.237  17.315  24.536  1.00  0.00    -0.339 N 
ATOM     27  C   UNL A   1      34.770  16.203  25.319  1.00  0.00     0.332 C 
ATOM     28  C   UNL A   1      34.033  16.924  23.146  1.00  0.00     0.332 C 
ATOM     29  H   UNL A   1      34.948  18.048  24.539  1.00  0.00     0.347 HD
ENDBRANCH  25  26
ENDBRANCH  24  25
ENDBRANCH  15  24
ENDBRANCH  12  14
ENDBRANCH   7  12
BRANCH  11  30
ATOM     30  O   UNL A   1      31.078  27.485  21.693  1.00  0.00    -0.507 OA
ATOM     31  H   UNL A   1      31.355  27.434  20.800  1.00  0.00     0.293 HD
ENDBRANCH  11  30
ENDBRANCH   3   6
ENDBRANCH   1   2
BRANCH   1  32
ATOM     32  C   UNL A   1      31.735  30.277  26.383  1.00  0.00     0.023 C 
BRANCH  32  33
ATOM     33  C   UNL A   1      31.503  31.777  26.547  1.00  0.00     0.023 C 
BRANCH  33  34
ATOM     34  C   UNL A   1      32.664  32.526  27.181  1.00  0.00     0.116 C 
BRANCH  34  35
ATOM     35  N   UNL A   1      32.334  33.894  27.555  1.00  0.00    -0.352 N 
ATOM     36  C   UNL A   1      32.971  34.701  28.464  1.00  0.00     0.251 C 
ATOM     37  H   UNL A   1      31.558  34.290  27.098  1.00  0.00     0.163 HD
ATOM     38  O   UNL A   1      32.525  35.810  28.742  1.00  0.00    -0.269 OA
BRANCH  36  39
ATOM     39  C   UNL A   1      34.176  34.189  29.141  1.00  0.00     0.039 A 
ATOM     40  C   UNL A   1      34.020  33.401  30.283  1.00  0.00     0.014 A 
ATOM     41  C   UNL A   1      35.444  34.431  28.608  1.00  0.00     0.014 A 
ATOM     42  C   UNL A   1      35.138  32.796  30.854  1.00  0.00     0.010 A 
ATOM     43  C   UNL A   1      36.546  33.770  29.134  1.00  0.00     0.010 A 
ATOM     44  C   UNL A   1      36.401  32.946  30.261  1.00  0.00    -0.014 A 
BRANCH  44  45
ATOM     45  C   UNL A   1      37.591  32.250  30.806  1.00  0.00     0.031 A 
ATOM     46  C   UNL A   1      38.259  32.771  32.045  1.00  0.00     0.074 A 
ATOM     47  C   UNL A   1      38.106  31.198  30.143  1.00  0.00     0.049 A 
ATOM     48  N   UNL A   1      39.347  32.348  32.636  1.00  0.00    -0.248 NA
ATOM     49  C   UNL A   1      37.638  33.940  32.688  1.00  0.00     0.031 C 
ATOM     50  C   UNL A   1      37.577  30.637  28.898  1.00  0.00     0.029 A 
ATOM     51  N   UNL A   1      39.200  30.418  30.420  1.00  0.00    -0.354 N 
ATOM     52  C   UNL A   1      39.550  33.208  33.707  1.00  0.00     0.074 A 
ATOM     53  C   UNL A   1      38.504  34.205  33.656  1.00  0.00     0.031 C 
ATOM     54  C   UNL A   1      38.335  29.590  28.531  1.00  0.00     0.029 A 
ATOM     55  C   UNL A   1      39.417  29.426  29.496  1.00  0.00     0.049 A 
ATOM     56  H   UNL A   1      39.774  30.557  31.207  1.00  0.00     0.167 HD
ATOM     57  C   UNL A   1      40.509  33.156  34.661  1.00  0.00     0.037 A 
ATOM     58  C   UNL A   1      40.384  28.491  29.436  1.00  0.00     0.037 A 
ATOM     59  C   UNL A   1      41.528  32.143  34.726  1.00  0.00     0.049 A 
ATOM     60  C   UNL A   1      41.427  28.444  30.516  1.00  0.00     0.074 A 
ATOM     61  C   UNL A   1      42.505  31.964  35.689  1.00  0.00     0.029 A 
ATOM     62  N   UNL A   1      41.697  31.135  33.789  1.00  0.00    -0.354 N 
ATOM     63  N   UNL A   1      41.568  29.222  31.562  1.00  0.00    -0.248 NA
ATOM     64  C   UNL A   1      42.441  27.386  30.411  1.00  0.00     0.031 C 
ATOM     65  C   UNL A   1      43.287  30.864  35.317  1.00  0.00     0.029 A 
ATOM     66  C   UNL A   1      42.772  30.338  34.143  1.00  0.00     0.049 A 
ATOM     67  H   UNL A   1      41.136  31.006  32.991  1.00  0.00     0.167 HD
ATOM     68  C   UNL A   1      42.668  28.733  32.253  1.00  0.00     0.074 A 
ATOM     69  C   UNL A   1      43.150  27.585  31.514  1.00  0.00     0.031 C 
ATOM     70  C   UNL A   1      43.230  29.194  33.397  1.00  0.00     0.037 A 
BRANCH  57  71
ATOM     71  C   UNL A   1      40.490  34.224  35.713  1.00  0.00     0.057 A 
ATOM     72  C   UNL A   1      41.208  35.417  35.564  1.00  0.00     0.134 A 
ATOM     73  C   UNL A   1      39.729  34.068  36.879  1.00  0.00     0.134 A 
ATOM     74  F   UNL A   1      41.968  35.622  34.477  1.00  0.00    -0.206 F 
ATOM     75  C   UNL A   1      41.193  36.407  36.548  1.00  0.00     0.040 A 
ATOM     76  C   UNL A   1      39.686  35.060  37.858  1.00  0.00     0.040 A 
ATOM     77  F   UNL A   1      39.016  32.951  37.083  1.00  0.00    -0.206 F 
ATOM     78  C   UNL A   1      40.425  36.232  37.697  1.00  0.00     0.006 A 
ENDBRANCH  57  71
BRANCH  58  79
ATOM     79  C   UNL A   1      40.392  27.504  28.329  1.00  0.00     0.057 A 
ATOM     80  C   UNL A   1      39.722  26.281  28.453  1.00  0.00     0.134 A 
ATOM     81  C   UNL A   1      41.068  27.752  27.129  1.00  0.00     0.134 A 
ATOM     82  F   UNL A   1      39.071  25.980  29.586  1.00  0.00    -0.206 F 
ATOM     83  C   UNL A   1      39.737  25.332  27.429  1.00  0.00     0.040 A 
ATOM     84  C   UNL A   1      41.076  26.821  26.089  1.00  0.00     0.040 A 
ATOM     85  F   UNL A   1      41.723  28.907  26.948  1.00  0.00    -0.206 F 
ATOM     86  C   UNL A   1      40.413  25.604  26.241  1.00  0.00     0.006 A 
ENDBRANCH  58  79
BRANCH  70  87
ATOM     87  C   UNL A   1      44.407  28.437  33.934  1.00  0.00     0.057 A 
ATOM     88  C   UNL A   1      45.721  28.796  33.615  1.00  0.00     0.134 A 
ATOM     89  C   UNL A   1      44.221  27.361  34.811  1.00  0.00     0.134 A 
ATOM     90  F   UNL A   1      45.964  29.808  32.768  1.00  0.00    -0.206 F 
ATOM     91  C   UNL A   1      46.813  28.099  34.137  1.00  0.00     0.040 A 
ATOM     92  C   UNL A   1      45.303  26.672  35.358  1.00  0.00     0.040 A 
ATOM     93  F   UNL A   1      42.985  26.973  35.162  1.00  0.00    -0.206 F 
ATOM     94  C   UNL A   1      46.604  27.038  35.017  1.00  0.00     0.006 A 
ENDBRANCH  70  87
ENDBRANCH  44  45
ENDBRANCH  36  39
ENDBRANCH  34  35
ENDBRANCH  33  34
ENDBRANCH  32  33
ENDBRANCH   1  32
TORSDOF 17
ENDMDL
MODEL 2
REMARK VINA RESULT:     -12.3      4.878      9.937
REMARK SMILES C[NH+](C)CCc1nc(Nc2ccc(O)c(C(=O)NCCCCNC(=O)c3ccc(-c4c5nc(c(-c6c(F)cccc6F)c6ccc([nH]6)c(-c6c(F)cccc6F)c6nc(c(-c7c(F)cccc7F)c7ccc4[nH]7)C=C6)C=C5)cc3)c2)c2ccccc2n1
REMARK SMILES IDX 19 1 18 2 16 3 17 4 15 6 10 7 11 8 80 9 12 10 13 11 9 12
REMARK SMILES IDX 8 14 6 15 7 16 87 17 86 18 81 19 85 20 82 21 84 22 83 23
REMARK SMILES IDX 5 24 4 25 2 26 1 27 3 28 14 30 20 32 21 33 22 34 23 35 24 36
REMARK SMILES IDX 25 38 26 39 27 40 79 41 28 42 78 43 29 44 30 45 31 46 72 47
REMARK SMILES IDX 32 48 77 49 71 50 73 51 33 52 76 53 70 54 69 55 34 57 60 58
REMARK SMILES IDX 43 59 59 60 44 61 47 62 58 63 74 64 45 65 46 66 57 68 75 69
REMARK SMILES IDX 48 70 35 71 36 72 41 73 37 74 38 75 40 76 42 77 39 78 61 79
REMARK SMILES IDX 62 80 67 81 63 82 64 83 66 84 68 85 65 86 49 87 50 88 55 89
REMARK SMILES IDX 51 90 52 91 54 92 56 93 53 94
REMARK H PARENT 18 5 9 13 2 29 14 31 23 37 73 56 47 67
REMARK Flexibility Score: inf
ROOT
ATOM      1  C   UNL A   1      35.494  20.846  25.192  1.00  0.00     0.116 C 
ENDROOT
BRANCH   1   2
ATOM      2  N   UNL A   1      35.041  21.342  26.470  1.00  0.00    -0.352 N 
ATOM      3  C   UNL A   1      34.103  22.282  26.800  1.00  0.00     0.255 C 
ATOM      4  O   UNL A   1      34.054  22.593  27.995  1.00  0.00    -0.269 OA
ATOM      5  H   UNL A   1      35.491  20.931  27.244  1.00  0.00     0.163 HD
BRANCH   3   6
ATOM      6  C   UNL A   1      33.086  22.867  25.871  1.00  0.00     0.083 A 
ATOM      7  C   UNL A   1      32.655  24.855  24.484  1.00  0.00     0.041 A 
ATOM      8  C   UNL A   1      31.423  24.317  24.115  1.00  0.00     0.030 A 
ATOM      9  C   UNL A   1      33.464  24.127  25.361  1.00  0.00     0.043 A 
ATOM     10  C   UNL A   1      31.035  23.062  24.573  1.00  0.00     0.049 A 
ATOM     11  C   UNL A   1      31.869  22.332  25.429  1.00  0.00     0.128 A 
BRANCH   7  12
ATOM     12  N   UNL A   1      33.069  26.123  24.051  1.00  0.00    -0.340 N 
ATOM     13  H   UNL A   1      33.946  26.171  23.605  1.00  0.00     0.168 HD
BRANCH  12  14
ATOM     14  C   UNL A   1      32.365  27.335  24.185  1.00  0.00     0.142 A 
ATOM     15  C   UNL A   1      30.708  28.733  23.423  1.00  0.00     0.137 A 
ATOM     16  N   UNL A   1      31.384  27.587  23.297  1.00  0.00    -0.215 NA
ATOM     17  N   UNL A   1      30.976  29.667  24.344  1.00  0.00    -0.233 NA
ATOM     18  C   UNL A   1      31.926  29.400  25.241  1.00  0.00     0.076 A 
ATOM     19  C   UNL A   1      32.686  28.227  25.220  1.00  0.00     0.043 A 
ATOM     20  C   UNL A   1      32.147  30.322  26.255  1.00  0.00     0.029 A 
ATOM     21  C   UNL A   1      33.689  28.028  26.205  1.00  0.00     0.014 A 
ATOM     22  C   UNL A   1      33.111  30.113  27.245  1.00  0.00     0.002 A 
ATOM     23  C   UNL A   1      33.890  28.967  27.215  1.00  0.00     0.001 A 
BRANCH  15  24
ATOM     24  C   UNL A   1      29.569  28.968  22.477  1.00  0.00     0.138 C 
BRANCH  24  25
ATOM     25  C   UNL A   1      29.419  30.433  22.026  1.00  0.00     0.269 C 
BRANCH  25  26
ATOM     26  N   UNL A   1      28.113  31.114  22.086  1.00  0.00    -0.339 N 
ATOM     27  C   UNL A   1      27.675  31.424  23.443  1.00  0.00     0.332 C 
ATOM     28  C   UNL A   1      28.025  32.290  21.227  1.00  0.00     0.332 C 
ATOM     29  H   UNL A   1      27.460  30.423  21.713  1.00  0.00     0.347 HD
ENDBRANCH  25  26
ENDBRANCH  24  25
ENDBRANCH  15  24
ENDBRANCH  12  14
ENDBRANCH   7  12
BRANCH  11  30
ATOM     30  O   UNL A   1      31.450  21.077  25.748  1.00  0.00    -0.507 OA
ATOM     31  H   UNL A   1      30.547  20.845  25.651  1.00  0.00     0.293 HD
ENDBRANCH  11  30
ENDBRANCH   3   6
ENDBRANCH   1   2
BRANCH   1  32
ATOM     32  C   UNL A   1      36.953  21.254  24.969  1.00  0.00     0.023 C 
BRANCH  32  33
ATOM     33  C   UNL A   1      37.947  20.095  24.982  1.00  0.00     0.023 C 
BRANCH  33  34
ATOM     34  C   UNL A   1      39.218  20.367  25.771  1.00  0.00     0.116 C 
BRANCH  34  35
ATOM     35  N   UNL A   1      40.104  19.216  25.854  1.00  0.00    -0.352 N 
ATOM     36  C   UNL A   1      41.448  19.199  26.129  1.00  0.00     0.251 C 
ATOM     37  H   UNL A   1      39.687  18.338  25.694  1.00  0.00     0.163 HD
ATOM     38  O   UNL A   1      42.089  18.153  26.079  1.00  0.00    -0.269 OA
BRANCH  36  39
ATOM     39  C   UNL A   1      42.123  20.472  26.435  1.00  0.00     0.039 A 
ATOM     40  C   UNL A   1      42.559  21.273  25.377  1.00  0.00     0.014 A 
ATOM     41  C   UNL A   1      42.259  20.902  27.758  1.00  0.00     0.014 A 
ATOM     42  C   UNL A   1      43.072  22.540  25.645  1.00  0.00     0.010 A 
ATOM     43  C   UNL A   1      42.703  22.191  28.018  1.00  0.00     0.010 A 
ATOM     44  C   UNL A   1      43.112  23.022  26.963  1.00  0.00    -0.014 A 
BRANCH  44  45
ATOM     45  C   UNL A   1      43.581  24.395  27.264  1.00  0.00     0.031 A 
ATOM     46  C   UNL A   1      42.596  25.445  27.688  1.00  0.00     0.074 A 
ATOM     47  C   UNL A   1      44.877  24.708  27.083  1.00  0.00     0.049 A 
ATOM     48  N   UNL A   1      42.795  26.716  27.926  1.00  0.00    -0.248 NA
ATOM     49  C   UNL A   1      41.196  25.016  27.837  1.00  0.00     0.031 C 
ATOM     50  C   UNL A   1      45.917  23.786  26.619  1.00  0.00     0.029 A 
ATOM     51  N   UNL A   1      45.541  25.896  27.258  1.00  0.00    -0.354 N 
ATOM     52  C   UNL A   1      41.547  27.240  28.233  1.00  0.00     0.074 A 
ATOM     53  C   UNL A   1      40.590  26.164  28.103  1.00  0.00     0.031 C 
ATOM     54  C   UNL A   1      47.090  24.438  26.567  1.00  0.00     0.029 A 
ATOM     55  C   UNL A   1      46.880  25.827  26.962  1.00  0.00     0.049 A 
ATOM     56  H   UNL A   1      45.098  26.720  27.564  1.00  0.00     0.167 HD
ATOM     57  C   UNL A   1      41.231  28.500  28.613  1.00  0.00     0.037 A 
ATOM     58  C   UNL A   1      47.829  26.780  27.007  1.00  0.00     0.037 A 
ATOM     59  C   UNL A   1      42.191  29.560  28.772  1.00  0.00     0.049 A 
ATOM     60  C   UNL A   1      47.457  28.167  27.448  1.00  0.00     0.074 A 
ATOM     61  C   UNL A   1      41.982  30.853  29.215  1.00  0.00     0.029 A 
ATOM     62  N   UNL A   1      43.545  29.443  28.495  1.00  0.00    -0.354 N 
ATOM     63  N   UNL A   1      46.283  28.633  27.802  1.00  0.00    -0.248 NA
ATOM     64  C   UNL A   1      48.540  29.158  27.502  1.00  0.00     0.031 C 
ATOM     65  C   UNL A   1      43.206  31.530  29.177  1.00  0.00     0.029 A 
ATOM     66  C   UNL A   1      44.182  30.646  28.744  1.00  0.00     0.049 A 
ATOM     67  H   UNL A   1      43.987  28.626  28.169  1.00  0.00     0.167 HD
ATOM     68  C   UNL A   1      46.491  29.962  28.145  1.00  0.00     0.074 A 
ATOM     69  C   UNL A   1      47.904  30.225  27.968  1.00  0.00     0.031 C 
ATOM     70  C   UNL A   1      45.592  30.884  28.569  1.00  0.00     0.037 A 
BRANCH  57  71
ATOM     71  C   UNL A   1      39.787  28.793  28.889  1.00  0.00     0.057 A 
ATOM     72  C   UNL A   1      38.912  29.203  27.875  1.00  0.00     0.134 A 
ATOM     73  C   UNL A   1      39.259  28.644  30.177  1.00  0.00     0.134 A 
ATOM     74  F   UNL A   1      39.359  29.379  26.621  1.00  0.00    -0.206 F 
ATOM     75  C   UNL A   1      37.569  29.480  28.136  1.00  0.00     0.040 A 
ATOM     76  C   UNL A   1      37.913  28.893  30.447  1.00  0.00     0.040 A 
ATOM     77  F   UNL A   1      40.042  28.252  31.193  1.00  0.00    -0.206 F 
ATOM     78  C   UNL A   1      37.065  29.320  29.425  1.00  0.00     0.006 A 
ENDBRANCH  57  71
BRANCH  58  79
ATOM     79  C   UNL A   1      49.231  26.448  26.653  1.00  0.00     0.057 A 
ATOM     80  C   UNL A   1      49.716  26.666  25.359  1.00  0.00     0.134 A 
ATOM     81  C   UNL A   1      50.115  25.903  27.591  1.00  0.00     0.134 A 
ATOM     82  F   UNL A   1      48.911  27.171  24.412  1.00  0.00    -0.206 F 
ATOM     83  C   UNL A   1      51.026  26.339  25.004  1.00  0.00     0.040 A 
ATOM     84  C   UNL A   1      51.433  25.589  27.257  1.00  0.00     0.040 A 
ATOM     85  F   UNL A   1      49.711  25.676  28.850  1.00  0.00    -0.206 F 
ATOM     86  C   UNL A   1      51.890  25.803  25.957  1.00  0.00     0.006 A 
ENDBRANCH  58  79
BRANCH  70  87
ATOM     87  C   UNL A   1      46.116  32.248  28.898  1.00  0.00     0.057 A 
ATOM     88  C   UNL A   1      46.590  32.567  30.176  1.00  0.00     0.134 A 
ATOM     89  C   UNL A   1      46.182  33.243  27.914  1.00  0.00     0.134 A 
ATOM     90  F   UNL A   1      46.540  31.662  31.165  1.00  0.00    -0.206 F 
ATOM     91  C   UNL A   1      47.098  33.834  30.469  1.00  0.00     0.040 A 
ATOM     92  C   UNL A   1      46.708  34.505  28.188  1.00  0.00     0.040 A 
ATOM     93  F   UNL A   1      45.749  32.998  26.667  1.00  0.00    -0.206 F 
ATOM     94  C   UNL A   1      47.163  34.805  29.471  1.00  0.00     0.006 A 
ENDBRANCH  70  87
ENDBRANCH  44  45
ENDBRANCH  36  39
ENDBRANCH  34  35
ENDBRANCH  33  34
ENDBRANCH  32  33
ENDBRANCH   1  32
TORSDOF 17
ENDMDL
MODEL 3
REMARK VINA RESULT:     -12.3      4.551     10.199
REMARK SMILES C[NH+](C)CCc1nc(Nc2ccc(O)c(C(=O)NCCCCNC(=O)c3ccc(-c4c5nc(c(-c6c(F)cccc6F)c6ccc([nH]6)c(-c6c(F)cccc6F)c6nc(c(-c7c(F)cccc7F)c7ccc4[nH]7)C=C6)C=C5)cc3)c2)c2ccccc2n1
REMARK SMILES IDX 19 1 18 2 16 3 17 4 15 6 10 7 11 8 80 9 12 10 13 11 9 12
REMARK SMILES IDX 8 14 6 15 7 16 87 17 86 18 81 19 85 20 82 21 84 22 83 23
REMARK SMILES IDX 5 24 4 25 2 26 1 27 3 28 14 30 20 32 21 33 22 34 23 35 24 36
REMARK SMILES IDX 25 38 26 39 27 40 79 41 28 42 78 43 29 44 30 45 31 46 72 47
REMARK SMILES IDX 32 48 77 49 71 50 73 51 33 52 76 53 70 54 69 55 34 57 60 58
REMARK SMILES IDX 43 59 59 60 44 61 47 62 58 63 74 64 45 65 46 66 57 68 75 69
REMARK SMILES IDX 48 70 35 71 36 72 41 73 37 74 38 75 40 76 42 77 39 78 61 79
REMARK SMILES IDX 62 80 67 81 63 82 64 83 66 84 68 85 65 86 49 87 50 88 55 89
REMARK SMILES IDX 51 90 52 91 54 92 56 93 53 94
REMARK H PARENT 18 5 9 13 2 29 14 31 23 37 73 56 47 67
REMARK Flexibility Score: inf
ROOT
ATOM      1  C   UNL A   1      35.335  20.597  25.274  1.00  0.00     0.116 C 
ENDROOT
BRANCH   1   2
ATOM      2  N   UNL A   1      34.930  21.189  26.526  1.00  0.00    -0.352 N 
ATOM      3  C   UNL A   1      34.053  22.200  26.812  1.00  0.00     0.255 C 
ATOM      4  O   UNL A   1      34.038  22.579  27.989  1.00  0.00    -0.269 OA
ATOM      5  H   UNL A   1      35.363  20.795  27.318  1.00  0.00     0.163 HD
BRANCH   3   6
ATOM      6  C   UNL A   1      33.062  22.794  25.861  1.00  0.00     0.083 A 
ATOM      7  C   UNL A   1      32.698  24.765  24.431  1.00  0.00     0.041 A 
ATOM      8  C   UNL A   1      31.456  24.253  24.060  1.00  0.00     0.030 A 
ATOM      9  C   UNL A   1      33.479  24.034  25.330  1.00  0.00     0.043 A 
ATOM     10  C   UNL A   1      31.030  23.018  24.538  1.00  0.00     0.049 A 
ATOM     11  C   UNL A   1      31.835  22.283  25.417  1.00  0.00     0.128 A 
BRANCH   7  12
ATOM     12  N   UNL A   1      33.150  26.012  23.978  1.00  0.00    -0.340 N 
ATOM     13  H   UNL A   1      34.032  26.028  23.539  1.00  0.00     0.168 HD
BRANCH  12  14
ATOM     14  C   UNL A   1      32.479  27.245  24.083  1.00  0.00     0.142 A 
ATOM     15  C   UNL A   1      30.935  28.715  23.223  1.00  0.00     0.137 A 
ATOM     16  N   UNL A   1      31.581  27.550  23.126  1.00  0.00    -0.215 NA
ATOM     17  N   UNL A   1      31.160  29.621  24.183  1.00  0.00    -0.233 NA
ATOM     18  C   UNL A   1      32.027  29.304  25.147  1.00  0.00     0.076 A 
ATOM     19  C   UNL A   1      32.746  28.106  25.159  1.00  0.00     0.043 A 
ATOM     20  C   UNL A   1      32.197  30.198  26.195  1.00  0.00     0.029 A 
ATOM     21  C   UNL A   1      33.660  27.853  26.215  1.00  0.00     0.014 A 
ATOM     22  C   UNL A   1      33.071  29.936  27.252  1.00  0.00     0.002 A 
ATOM     23  C   UNL A   1      33.812  28.764  27.259  1.00  0.00     0.001 A 
BRANCH  15  24
ATOM     24  C   UNL A   1      29.884  29.009  22.196  1.00  0.00     0.138 C 
BRANCH  24  25
ATOM     25  C   UNL A   1      28.856  30.070  22.633  1.00  0.00     0.269 C 
BRANCH  25  26
ATOM     26  N   UNL A   1      29.066  31.497  22.331  1.00  0.00    -0.339 N 
ATOM     27  C   UNL A   1      28.319  31.967  21.168  1.00  0.00     0.332 C 
ATOM     28  C   UNL A   1      28.856  32.375  23.477  1.00  0.00     0.332 C 
ATOM     29  H   UNL A   1      30.056  31.553  22.091  1.00  0.00     0.347 HD
ENDBRANCH  25  26
ENDBRANCH  24  25
ENDBRANCH  15  24
ENDBRANCH  12  14
ENDBRANCH   7  12
BRANCH  11  30
ATOM     30  O   UNL A   1      31.379  21.046  25.756  1.00  0.00    -0.507 OA
ATOM     31  H   UNL A   1      30.676  20.958  26.368  1.00  0.00     0.293 HD
ENDBRANCH  11  30
ENDBRANCH   3   6
ENDBRANCH   1   2
BRANCH   1  32
ATOM     32  C   UNL A   1      36.759  21.045  24.930  1.00  0.00     0.023 C 
BRANCH  32  33
ATOM     33  C   UNL A   1      37.804  19.933  24.969  1.00  0.00     0.023 C 
BRANCH  33  34
ATOM     34  C   UNL A   1      39.066  20.284  25.740  1.00  0.00     0.116 C 
BRANCH  34  35
ATOM     35  N   UNL A   1      40.039  19.202  25.780  1.00  0.00    -0.352 N 
ATOM     36  C   UNL A   1      41.382  19.279  26.048  1.00  0.00     0.251 C 
ATOM     37  H   UNL A   1      39.689  18.301  25.591  1.00  0.00     0.163 HD
ATOM     38  O   UNL A   1      42.101  18.288  25.960  1.00  0.00    -0.269 OA
BRANCH  36  39
ATOM     39  C   UNL A   1      41.959  20.590  26.396  1.00  0.00     0.039 A 
ATOM     40  C   UNL A   1      42.313  21.462  25.364  1.00  0.00     0.014 A 
ATOM     41  C   UNL A   1      42.083  20.977  27.733  1.00  0.00     0.014 A 
ATOM     42  C   UNL A   1      42.728  22.755  25.674  1.00  0.00     0.010 A 
ATOM     43  C   UNL A   1      42.428  22.287  28.037  1.00  0.00     0.010 A 
ATOM     44  C   UNL A   1      42.752  23.188  27.010  1.00  0.00    -0.014 A 
BRANCH  44  45
ATOM     45  C   UNL A   1      43.116  24.581  27.358  1.00  0.00     0.031 A 
ATOM     46  C   UNL A   1      44.558  24.998  27.357  1.00  0.00     0.074 A 
ATOM     47  C   UNL A   1      42.157  25.443  27.742  1.00  0.00     0.049 A 
ATOM     48  N   UNL A   1      45.086  26.146  27.700  1.00  0.00    -0.248 NA
ATOM     49  C   UNL A   1      45.540  23.983  26.946  1.00  0.00     0.031 C 
ATOM     50  C   UNL A   1      40.727  25.135  27.837  1.00  0.00     0.029 A 
ATOM     51  N   UNL A   1      42.240  26.753  28.137  1.00  0.00    -0.354 N 
ATOM     52  C   UNL A   1      46.457  25.984  27.562  1.00  0.00     0.074 A 
ATOM     53  C   UNL A   1      46.686  24.615  27.155  1.00  0.00     0.031 C 
ATOM     54  C   UNL A   1      40.068  26.233  28.241  1.00  0.00     0.029 A 
ATOM     55  C   UNL A   1      41.028  27.309  28.464  1.00  0.00     0.049 A 
ATOM     56  H   UNL A   1      43.090  27.249  28.182  1.00  0.00     0.167 HD
ATOM     57  C   UNL A   1      47.437  26.901  27.737  1.00  0.00     0.037 A 
ATOM     58  C   UNL A   1      40.728  28.548  28.896  1.00  0.00     0.037 A 
ATOM     59  C   UNL A   1      47.204  28.270  28.111  1.00  0.00     0.049 A 
ATOM     60  C   UNL A   1      41.831  29.553  29.065  1.00  0.00     0.074 A 
ATOM     61  C   UNL A   1      48.123  29.294  28.250  1.00  0.00     0.029 A 
ATOM     62  N   UNL A   1      45.958  28.804  28.402  1.00  0.00    -0.354 N 
ATOM     63  N   UNL A   1      43.120  29.407  28.866  1.00  0.00    -0.248 NA
ATOM     64  C   UNL A   1      41.440  30.897  29.513  1.00  0.00     0.031 C 
ATOM     65  C   UNL A   1      47.436  30.444  28.657  1.00  0.00     0.029 A 
ATOM     66  C   UNL A   1      46.085  30.142  28.735  1.00  0.00     0.049 A 
ATOM     67  H   UNL A   1      45.109  28.307  28.377  1.00  0.00     0.167 HD
ATOM     68  C   UNL A   1      43.688  30.643  29.139  1.00  0.00     0.074 A 
ATOM     69  C   UNL A   1      42.605  31.531  29.506  1.00  0.00     0.031 C 
ATOM     70  C   UNL A   1      44.992  31.010  29.090  1.00  0.00     0.037 A 
BRANCH  57  71
ATOM     71  C   UNL A   1      48.850  26.448  27.516  1.00  0.00     0.057 A 
ATOM     72  C   UNL A   1      49.447  26.495  26.249  1.00  0.00     0.134 A 
ATOM     73  C   UNL A   1      49.628  25.981  28.582  1.00  0.00     0.134 A 
ATOM     74  F   UNL A   1      48.750  26.919  25.184  1.00  0.00    -0.206 F 
ATOM     75  C   UNL A   1      50.760  26.069  26.045  1.00  0.00     0.040 A 
ATOM     76  C   UNL A   1      50.950  25.575  28.395  1.00  0.00     0.040 A 
ATOM     77  F   UNL A   1      49.118  25.913  29.820  1.00  0.00    -0.206 F 
ATOM     78  C   UNL A   1      51.517  25.612  27.122  1.00  0.00     0.006 A 
ENDBRANCH  57  71
BRANCH  58  79
ATOM     79  C   UNL A   1      39.317  28.917  29.167  1.00  0.00     0.057 A 
ATOM     80  C   UNL A   1      38.772  28.780  30.449  1.00  0.00     0.134 A 
ATOM     81  C   UNL A   1      38.481  29.411  28.159  1.00  0.00     0.134 A 
ATOM     82  F   UNL A   1      39.520  28.296  31.451  1.00  0.00    -0.206 F 
ATOM     83  C   UNL A   1      37.441  29.103  30.716  1.00  0.00     0.040 A 
ATOM     84  C   UNL A   1      37.154  29.757  28.415  1.00  0.00     0.040 A 
ATOM     85  F   UNL A   1      38.947  29.572  26.912  1.00  0.00    -0.206 F 
ATOM     86  C   UNL A   1      36.629  29.598  29.697  1.00  0.00     0.006 A 
ENDBRANCH  58  79
BRANCH  70  87
ATOM     87  C   UNL A   1      45.312  32.439  29.411  1.00  0.00     0.057 A 
ATOM     88  C   UNL A   1      45.657  32.844  30.706  1.00  0.00     0.134 A 
ATOM     89  C   UNL A   1      45.313  33.412  28.403  1.00  0.00     0.134 A 
ATOM     90  F   UNL A   1      45.660  31.961  31.716  1.00  0.00    -0.206 F 
ATOM     91  C   UNL A   1      45.975  34.173  30.992  1.00  0.00     0.040 A 
ATOM     92  C   UNL A   1      45.651  34.738  28.672  1.00  0.00     0.040 A 
ATOM     93  F   UNL A   1      44.998  33.086  27.140  1.00  0.00    -0.206 F 
ATOM     94  C   UNL A   1      45.979  35.122  29.971  1.00  0.00     0.006 A 
ENDBRANCH  70  87
ENDBRANCH  44  45
ENDBRANCH  36  39
ENDBRANCH  34  35
ENDBRANCH  33  34
ENDBRANCH  32  33
ENDBRANCH   1  32
TORSDOF 17
ENDMDL
