MODEL 1
REMARK VINA RESULT:     -12.5      0.000      0.000
REMARK SMILES C[C@@H](Oc1ccc(-c2ccccc2)cc1)C(=O)N1CCC[C@H](C(=O)NCCCCNC(=O)c2ccc(-c3c4nc(c(-c5c(F)cccc5F)c5ccc([nH]5)c(-c5c(F)cccc5F)c5nc(c(-c6c(F)cccc6F)c6ccc3[nH]6)C=C5)C=C4)cc2)C1
REMARK SMILES IDX 26 1 25 2 23 3 24 4 22 6 18 7 19 8 87 9 20 10 21 11 16 12
REMARK SMILES IDX 17 13 2 14 1 15 3 16 4 17 5 18 15 19 6 20 14 21 7 22 8 23
REMARK SMILES IDX 9 24 13 25 10 26 12 27 11 28 27 29 28 30 29 31 30 32 31 33
REMARK SMILES IDX 32 35 33 36 34 37 86 38 35 39 85 40 36 41 37 42 38 43 79 44
REMARK SMILES IDX 39 45 84 46 78 47 80 48 40 49 83 50 77 51 76 52 41 54 67 55
REMARK SMILES IDX 50 56 66 57 51 58 54 59 65 60 81 61 52 62 53 63 64 65 82 66
REMARK SMILES IDX 55 67 42 68 43 69 48 70 44 71 45 72 47 73 49 74 46 75 68 76
REMARK SMILES IDX 69 77 74 78 70 79 71 80 73 81 75 82 72 83 56 84 57 85 62 86
REMARK SMILES IDX 58 87 59 88 61 89 63 90 60 91
REMARK H PARENT 25 5 30 34 80 53 54 64
REMARK Flexibility Score: inf
ROOT
ATOM      1  C   UNL A   1      37.128  21.933  25.964  1.00  0.00     0.116 C 
ENDROOT
BRANCH   1   2
ATOM      2  N   UNL A   1      35.924  22.411  26.603  1.00  0.00    -0.356 N 
ATOM      3  C   UNL A   1      35.073  23.415  26.271  1.00  0.00     0.224 C 
ATOM      4  O   UNL A   1      34.021  23.471  26.921  1.00  0.00    -0.275 OA
ATOM      5  H   UNL A   1      35.677  21.924  27.421  1.00  0.00     0.163 HD
BRANCH   3   6
ATOM      6  C   UNL A   1      35.340  24.472  25.188  1.00  0.00     0.098 C 
ATOM      7  N   UNL A   1      33.287  25.473  24.149  1.00  0.00    -0.339 N 
ATOM      8  C   UNL A   1      33.686  25.039  22.817  1.00  0.00     0.119 C 
ATOM      9  C   UNL A   1      34.342  25.634  25.141  1.00  0.00     0.133 C 
ATOM     10  C   UNL A   1      34.577  23.805  22.821  1.00  0.00     0.022 C 
ATOM     11  C   UNL A   1      35.719  23.894  23.823  1.00  0.00     0.017 C 
BRANCH   7  12
ATOM     12  C   UNL A   1      31.950  25.802  24.359  1.00  0.00     0.263 C 
ATOM     13  O   UNL A   1      31.517  26.907  24.015  1.00  0.00    -0.271 OA
BRANCH  12  14
ATOM     14  C   UNL A   1      31.053  24.826  25.142  1.00  0.00     0.259 C 
ATOM     15  C   UNL A   1      29.874  25.455  25.871  1.00  0.00     0.064 C 
BRANCH  14  16
ATOM     16  O   UNL A   1      30.609  23.886  24.151  1.00  0.00    -0.481 OA
BRANCH  16  17
ATOM     17  C   UNL A   1      31.321  22.724  24.157  1.00  0.00     0.120 A 
ATOM     18  C   UNL A   1      31.600  22.067  22.963  1.00  0.00     0.047 A 
ATOM     19  C   UNL A   1      31.599  22.127  25.379  1.00  0.00     0.047 A 
ATOM     20  C   UNL A   1      32.146  20.777  22.997  1.00  0.00     0.012 A 
ATOM     21  C   UNL A   1      32.151  20.850  25.408  1.00  0.00     0.012 A 
ATOM     22  C   UNL A   1      32.399  20.137  24.223  1.00  0.00    -0.018 A 
BRANCH  22  23
ATOM     23  C   UNL A   1      32.835  18.732  24.294  1.00  0.00    -0.018 A 
ATOM     24  C   UNL A   1      33.402  18.068  23.198  1.00  0.00     0.009 A 
ATOM     25  C   UNL A   1      32.697  18.018  25.500  1.00  0.00     0.009 A 
ATOM     26  C   UNL A   1      33.835  16.743  23.312  1.00  0.00     0.001 A 
ATOM     27  C   UNL A   1      33.129  16.697  25.616  1.00  0.00     0.001 A 
ATOM     28  C   UNL A   1      33.703  16.061  24.520  1.00  0.00     0.000 A 
ENDBRANCH  22  23
ENDBRANCH  16  17
ENDBRANCH  14  16
ENDBRANCH  12  14
ENDBRANCH   7  12
ENDBRANCH   3   6
ENDBRANCH   1   2
BRANCH   1  29
ATOM     29  C   UNL A   1      36.933  20.643  25.174  1.00  0.00     0.023 C 
BRANCH  29  30
ATOM     30  C   UNL A   1      38.223  19.947  24.764  1.00  0.00     0.023 C 
BRANCH  30  31
ATOM     31  C   UNL A   1      39.385  20.087  25.744  1.00  0.00     0.116 C 
BRANCH  31  32
ATOM     32  N   UNL A   1      40.304  18.958  25.772  1.00  0.00    -0.352 N 
ATOM     33  C   UNL A   1      41.652  18.964  26.066  1.00  0.00     0.251 C 
ATOM     34  H   UNL A   1      39.914  18.081  25.556  1.00  0.00     0.163 HD
ATOM     35  O   UNL A   1      42.328  17.952  25.960  1.00  0.00    -0.269 OA
BRANCH  33  36
ATOM     36  C   UNL A   1      42.289  20.239  26.467  1.00  0.00     0.039 A 
ATOM     37  C   UNL A   1      42.918  21.015  25.494  1.00  0.00     0.014 A 
ATOM     38  C   UNL A   1      42.203  20.693  27.786  1.00  0.00     0.014 A 
ATOM     39  C   UNL A   1      43.380  22.290  25.825  1.00  0.00     0.010 A 
ATOM     40  C   UNL A   1      42.576  21.997  28.091  1.00  0.00     0.010 A 
ATOM     41  C   UNL A   1      43.167  22.811  27.114  1.00  0.00    -0.014 A 
BRANCH  41  42
ATOM     42  C   UNL A   1      43.535  24.214  27.435  1.00  0.00     0.031 A 
ATOM     43  C   UNL A   1      44.958  24.679  27.314  1.00  0.00     0.074 A 
ATOM     44  C   UNL A   1      42.586  25.059  27.883  1.00  0.00     0.049 A 
ATOM     45  N   UNL A   1      45.456  25.874  27.519  1.00  0.00    -0.248 NA
ATOM     46  C   UNL A   1      45.963  23.669  26.949  1.00  0.00     0.031 C 
ATOM     47  C   UNL A   1      41.186  24.707  28.134  1.00  0.00     0.029 A 
ATOM     48  N   UNL A   1      42.652  26.391  28.204  1.00  0.00    -0.354 N 
ATOM     49  C   UNL A   1      46.824  25.753  27.314  1.00  0.00     0.074 A 
ATOM     50  C   UNL A   1      47.089  24.359  27.036  1.00  0.00     0.031 C 
ATOM     51  C   UNL A   1      40.518  25.805  28.522  1.00  0.00     0.029 A 
ATOM     52  C   UNL A   1      41.443  26.931  28.570  1.00  0.00     0.049 A 
ATOM     53  H   UNL A   1      43.488  26.911  28.175  1.00  0.00     0.167 HD
ATOM     54  C   UNL A   1      47.771  26.721  27.323  1.00  0.00     0.037 A 
ATOM     55  C   UNL A   1      41.114  28.197  28.890  1.00  0.00     0.037 A 
ATOM     56  C   UNL A   1      47.502  28.113  27.572  1.00  0.00     0.049 A 
ATOM     57  C   UNL A   1      42.174  29.262  28.849  1.00  0.00     0.074 A 
ATOM     58  C   UNL A   1      48.378  29.183  27.530  1.00  0.00     0.029 A 
ATOM     59  N   UNL A   1      46.260  28.627  27.910  1.00  0.00    -0.354 N 
ATOM     60  N   UNL A   1      43.447  29.151  28.556  1.00  0.00    -0.248 NA
ATOM     61  C   UNL A   1      41.747  30.631  29.170  1.00  0.00     0.031 C 
ATOM     62  C   UNL A   1      47.673  30.340  27.880  1.00  0.00     0.029 A 
ATOM     63  C   UNL A   1      46.349  29.996  28.097  1.00  0.00     0.049 A 
ATOM     64  H   UNL A   1      45.435  28.096  28.003  1.00  0.00     0.167 HD
ATOM     65  C   UNL A   1      43.968  30.435  28.637  1.00  0.00     0.074 A 
ATOM     66  C   UNL A   1      42.868  31.311  28.983  1.00  0.00     0.031 C 
ATOM     67  C   UNL A   1      45.244  30.852  28.447  1.00  0.00     0.037 A 
BRANCH  54  68
ATOM     68  C   UNL A   1      49.185  26.305  27.037  1.00  0.00     0.057 A 
ATOM     69  C   UNL A   1      49.706  26.313  25.735  1.00  0.00     0.134 A 
ATOM     70  C   UNL A   1      50.042  25.912  28.072  1.00  0.00     0.134 A 
ATOM     71  F   UNL A   1      48.933  26.665  24.697  1.00  0.00    -0.206 F 
ATOM     72  C   UNL A   1      51.019  25.918  25.471  1.00  0.00     0.040 A 
ATOM     73  C   UNL A   1      51.365  25.543  27.824  1.00  0.00     0.040 A 
ATOM     74  F   UNL A   1      49.610  25.885  29.343  1.00  0.00    -0.206 F 
ATOM     75  C   UNL A   1      51.854  25.538  26.519  1.00  0.00     0.006 A 
ENDBRANCH  54  68
BRANCH  55  76
ATOM     76  C   UNL A   1      39.708  28.538  29.224  1.00  0.00     0.057 A 
ATOM     77  C   UNL A   1      38.845  29.059  28.252  1.00  0.00     0.134 A 
ATOM     78  C   UNL A   1      39.197  28.358  30.513  1.00  0.00     0.134 A 
ATOM     79  F   UNL A   1      39.283  29.269  27.003  1.00  0.00    -0.206 F 
ATOM     80  C   UNL A   1      37.528  29.409  28.556  1.00  0.00     0.040 A 
ATOM     81  C   UNL A   1      37.875  28.682  30.826  1.00  0.00     0.040 A 
ATOM     82  F   UNL A   1      39.971  27.855  31.485  1.00  0.00    -0.206 F 
ATOM     83  C   UNL A   1      37.040  29.216  29.847  1.00  0.00     0.006 A 
ENDBRANCH  55  76
BRANCH  67  84
ATOM     84  C   UNL A   1      45.507  32.322  28.596  1.00  0.00     0.057 A 
ATOM     85  C   UNL A   1      45.371  33.207  27.519  1.00  0.00     0.134 A 
ATOM     86  C   UNL A   1      45.886  32.858  29.833  1.00  0.00     0.134 A 
ATOM     87  F   UNL A   1      45.025  32.753  26.305  1.00  0.00    -0.206 F 
ATOM     88  C   UNL A   1      45.636  34.570  27.660  1.00  0.00     0.040 A 
ATOM     89  C   UNL A   1      46.126  34.223  29.992  1.00  0.00     0.040 A 
ATOM     90  F   UNL A   1      46.023  32.066  30.907  1.00  0.00    -0.206 F 
ATOM     91  C   UNL A   1      46.010  35.082  28.901  1.00  0.00     0.006 A 
ENDBRANCH  67  84
ENDBRANCH  41  42
ENDBRANCH  33  36
ENDBRANCH  31  32
ENDBRANCH  30  31
ENDBRANCH  29  30
ENDBRANCH   1  29
TORSDOF 16
ENDMDL
MODEL 2
REMARK VINA RESULT:     -12.4      4.500      9.833
REMARK SMILES C[C@@H](Oc1ccc(-c2ccccc2)cc1)C(=O)N1CCC[C@H](C(=O)NCCCCNC(=O)c2ccc(-c3c4nc(c(-c5c(F)cccc5F)c5ccc([nH]5)c(-c5c(F)cccc5F)c5nc(c(-c6c(F)cccc6F)c6ccc3[nH]6)C=C5)C=C4)cc2)C1
REMARK SMILES IDX 26 1 25 2 23 3 24 4 22 6 18 7 19 8 87 9 20 10 21 11 16 12
REMARK SMILES IDX 17 13 2 14 1 15 3 16 4 17 5 18 15 19 6 20 14 21 7 22 8 23
REMARK SMILES IDX 9 24 13 25 10 26 12 27 11 28 27 29 28 30 29 31 30 32 31 33
REMARK SMILES IDX 32 35 33 36 34 37 86 38 35 39 85 40 36 41 37 42 38 43 79 44
REMARK SMILES IDX 39 45 84 46 78 47 80 48 40 49 83 50 77 51 76 52 41 54 67 55
REMARK SMILES IDX 50 56 66 57 51 58 54 59 65 60 81 61 52 62 53 63 64 65 82 66
REMARK SMILES IDX 55 67 42 68 43 69 48 70 44 71 45 72 47 73 49 74 46 75 68 76
REMARK SMILES IDX 69 77 74 78 70 79 71 80 73 81 75 82 72 83 56 84 57 85 62 86
REMARK SMILES IDX 58 87 59 88 61 89 63 90 60 91
REMARK H PARENT 25 5 30 34 80 53 54 64
REMARK Flexibility Score: inf
ROOT
ATOM      1  C   UNL A   1      31.909  27.901  27.195  1.00  0.00     0.116 C 
ENDROOT
BRANCH   1   2
ATOM      2  N   UNL A   1      31.098  26.820  26.684  1.00  0.00    -0.356 N 
ATOM      3  C   UNL A   1      31.385  25.512  26.465  1.00  0.00     0.224 C 
ATOM      4  O   UNL A   1      30.423  24.785  26.185  1.00  0.00    -0.275 OA
ATOM      5  H   UNL A   1      30.176  27.077  26.453  1.00  0.00     0.163 HD
BRANCH   3   6
ATOM      6  C   UNL A   1      32.794  24.899  26.517  1.00  0.00     0.098 C 
ATOM      7  N   UNL A   1      33.654  24.022  24.331  1.00  0.00    -0.339 N 
ATOM      8  C   UNL A   1      33.826  22.681  24.876  1.00  0.00     0.119 C 
ATOM      9  C   UNL A   1      33.660  25.131  25.276  1.00  0.00     0.133 C 
ATOM     10  C   UNL A   1      32.887  22.373  26.033  1.00  0.00     0.022 C 
ATOM     11  C   UNL A   1      32.841  23.477  27.079  1.00  0.00     0.017 C 
BRANCH   7  12
ATOM     12  C   UNL A   1      33.601  24.165  22.946  1.00  0.00     0.263 C 
ATOM     13  O   UNL A   1      34.217  23.383  22.213  1.00  0.00    -0.271 OA
BRANCH  12  14
ATOM     14  C   UNL A   1      32.875  25.383  22.347  1.00  0.00     0.259 C 
ATOM     15  C   UNL A   1      32.741  25.390  20.831  1.00  0.00     0.064 C 
BRANCH  14  16
ATOM     16  O   UNL A   1      31.586  25.370  22.982  1.00  0.00    -0.481 OA
BRANCH  16  17
ATOM     17  C   UNL A   1      31.019  26.607  23.068  1.00  0.00     0.120 A 
ATOM     18  C   UNL A   1      29.650  26.736  23.282  1.00  0.00     0.047 A 
ATOM     19  C   UNL A   1      31.798  27.712  22.760  1.00  0.00     0.047 A 
ATOM     20  C   UNL A   1      29.050  27.997  23.160  1.00  0.00     0.012 A 
ATOM     21  C   UNL A   1      31.200  28.965  22.650  1.00  0.00     0.012 A 
ATOM     22  C   UNL A   1      29.813  29.124  22.810  1.00  0.00    -0.018 A 
BRANCH  22  23
ATOM     23  C   UNL A   1      29.193  30.430  22.533  1.00  0.00    -0.018 A 
ATOM     24  C   UNL A   1      29.127  31.446  23.496  1.00  0.00     0.009 A 
ATOM     25  C   UNL A   1      28.652  30.691  21.259  1.00  0.00     0.009 A 
ATOM     26  C   UNL A   1      28.559  32.687  23.187  1.00  0.00     0.001 A 
ATOM     27  C   UNL A   1      28.087  31.928  20.949  1.00  0.00     0.001 A 
ATOM     28  C   UNL A   1      28.045  32.929  21.914  1.00  0.00     0.000 A 
ENDBRANCH  22  23
ENDBRANCH  16  17
ENDBRANCH  14  16
ENDBRANCH  12  14
ENDBRANCH   7  12
ENDBRANCH   3   6
ENDBRANCH   1   2
BRANCH   1  29
ATOM     29  C   UNL A   1      32.238  28.965  26.154  1.00  0.00     0.023 C 
BRANCH  29  30
ATOM     30  C   UNL A   1      31.759  30.367  26.504  1.00  0.00     0.023 C 
BRANCH  30  31
ATOM     31  C   UNL A   1      32.821  31.299  27.083  1.00  0.00     0.116 C 
BRANCH  31  32
ATOM     32  N   UNL A   1      32.368  32.657  27.347  1.00  0.00    -0.352 N 
ATOM     33  C   UNL A   1      33.002  33.638  28.081  1.00  0.00     0.251 C 
ATOM     34  H   UNL A   1      31.503  32.906  26.951  1.00  0.00     0.163 HD
ATOM     35  O   UNL A   1      32.462  34.712  28.301  1.00  0.00    -0.269 OA
BRANCH  33  36
ATOM     36  C   UNL A   1      34.340  33.354  28.648  1.00  0.00     0.039 A 
ATOM     37  C   UNL A   1      34.427  32.688  29.870  1.00  0.00     0.014 A 
ATOM     38  C   UNL A   1      35.498  33.684  27.939  1.00  0.00     0.014 A 
ATOM     39  C   UNL A   1      35.675  32.272  30.337  1.00  0.00     0.010 A 
ATOM     40  C   UNL A   1      36.727  33.186  28.356  1.00  0.00     0.010 A 
ATOM     41  C   UNL A   1      36.830  32.473  29.559  1.00  0.00    -0.014 A 
BRANCH  41  42
ATOM     42  C   UNL A   1      38.138  31.915  29.986  1.00  0.00     0.031 A 
ATOM     43  C   UNL A   1      38.976  32.625  31.010  1.00  0.00     0.074 A 
ATOM     44  C   UNL A   1      38.594  30.785  29.409  1.00  0.00     0.049 A 
ATOM     45  N   UNL A   1      40.126  32.268  31.527  1.00  0.00    -0.248 NA
ATOM     46  C   UNL A   1      38.480  33.921  31.498  1.00  0.00     0.031 C 
ATOM     47  C   UNL A   1      37.920  30.049  28.335  1.00  0.00     0.029 A 
ATOM     48  N   UNL A   1      39.729  30.052  29.648  1.00  0.00    -0.354 N 
ATOM     49  C   UNL A   1      40.488  33.295  32.389  1.00  0.00     0.074 A 
ATOM     50  C   UNL A   1      39.473  34.319  32.276  1.00  0.00     0.031 C 
ATOM     51  C   UNL A   1      38.630  28.947  28.044  1.00  0.00     0.029 A 
ATOM     52  C   UNL A   1      39.817  28.910  28.890  1.00  0.00     0.049 A 
ATOM     53  H   UNL A   1      40.415  30.321  30.301  1.00  0.00     0.167 HD
ATOM     54  C   UNL A   1      41.552  33.365  33.224  1.00  0.00     0.037 A 
ATOM     55  C   UNL A   1      40.742  27.932  28.892  1.00  0.00     0.037 A 
ATOM     56  C   UNL A   1      42.546  32.333  33.356  1.00  0.00     0.049 A 
ATOM     57  C   UNL A   1      41.889  28.010  29.859  1.00  0.00     0.074 A 
ATOM     58  C   UNL A   1      43.620  32.274  34.226  1.00  0.00     0.029 A 
ATOM     59  N   UNL A   1      42.586  31.176  32.593  1.00  0.00    -0.354 N 
ATOM     60  N   UNL A   1      42.166  28.940  30.741  1.00  0.00    -0.248 NA
ATOM     61  C   UNL A   1      42.845  26.894  29.842  1.00  0.00     0.031 C 
ATOM     62  C   UNL A   1      44.332  31.098  33.963  1.00  0.00     0.029 A 
ATOM     63  C   UNL A   1      43.677  30.404  32.959  1.00  0.00     0.049 A 
ATOM     64  H   UNL A   1      41.935  30.938  31.893  1.00  0.00     0.167 HD
ATOM     65  C   UNL A   1      43.313  28.513  31.395  1.00  0.00     0.074 A 
ATOM     66  C   UNL A   1      43.666  27.229  30.826  1.00  0.00     0.031 C 
ATOM     67  C   UNL A   1      44.016  29.131  32.377  1.00  0.00     0.037 A 
BRANCH  54  68
ATOM     68  C   UNL A   1      41.681  34.596  34.073  1.00  0.00     0.057 A 
ATOM     69  C   UNL A   1      41.120  34.667  35.357  1.00  0.00     0.134 A 
ATOM     70  C   UNL A   1      42.389  35.714  33.616  1.00  0.00     0.134 A 
ATOM     71  F   UNL A   1      40.418  33.636  35.849  1.00  0.00    -0.206 F 
ATOM     72  C   UNL A   1      41.236  35.816  36.142  1.00  0.00     0.040 A 
ATOM     73  C   UNL A   1      42.535  36.857  34.403  1.00  0.00     0.040 A 
ATOM     74  F   UNL A   1      42.955  35.712  32.399  1.00  0.00    -0.206 F 
ATOM     75  C   UNL A   1      41.951  36.913  35.667  1.00  0.00     0.006 A 
ENDBRANCH  54  68
BRANCH  55  76
ATOM     76  C   UNL A   1      40.592  26.765  27.985  1.00  0.00     0.057 A 
ATOM     77  C   UNL A   1      41.250  26.726  26.750  1.00  0.00     0.134 A 
ATOM     78  C   UNL A   1      39.791  25.672  28.324  1.00  0.00     0.134 A 
ATOM     79  F   UNL A   1      42.020  27.753  26.361  1.00  0.00    -0.206 F 
ATOM     80  C   UNL A   1      41.100  25.649  25.875  1.00  0.00     0.040 A 
ATOM     81  C   UNL A   1      39.649  24.577  27.470  1.00  0.00     0.040 A 
ATOM     82  F   UNL A   1      39.141  25.645  29.497  1.00  0.00    -0.206 F 
ATOM     83  C   UNL A   1      40.299  24.567  26.237  1.00  0.00     0.006 A 
ENDBRANCH  55  76
BRANCH  67  84
ATOM     84  C   UNL A   1      45.224  28.413  32.901  1.00  0.00     0.057 A 
ATOM     85  C   UNL A   1      45.148  27.548  34.000  1.00  0.00     0.134 A 
ATOM     86  C   UNL A   1      46.474  28.578  32.291  1.00  0.00     0.134 A 
ATOM     87  F   UNL A   1      43.983  27.358  34.636  1.00  0.00    -0.206 F 
ATOM     88  C   UNL A   1      46.280  26.898  34.495  1.00  0.00     0.040 A 
ATOM     89  C   UNL A   1      47.607  27.911  32.760  1.00  0.00     0.040 A 
ATOM     90  F   UNL A   1      46.613  29.384  31.228  1.00  0.00    -0.206 F 
ATOM     91  C   UNL A   1      47.513  27.076  33.870  1.00  0.00     0.006 A 
ENDBRANCH  67  84
ENDBRANCH  41  42
ENDBRANCH  33  36
ENDBRANCH  31  32
ENDBRANCH  30  31
ENDBRANCH  29  30
ENDBRANCH   1  29
TORSDOF 16
ENDMDL
MODEL 3
REMARK VINA RESULT:     -12.3      1.892      5.219
REMARK SMILES C[C@@H](Oc1ccc(-c2ccccc2)cc1)C(=O)N1CCC[C@H](C(=O)NCCCCNC(=O)c2ccc(-c3c4nc(c(-c5c(F)cccc5F)c5ccc([nH]5)c(-c5c(F)cccc5F)c5nc(c(-c6c(F)cccc6F)c6ccc3[nH]6)C=C5)C=C4)cc2)C1
REMARK SMILES IDX 26 1 25 2 23 3 24 4 22 6 18 7 19 8 87 9 20 10 21 11 16 12
REMARK SMILES IDX 17 13 2 14 1 15 3 16 4 17 5 18 15 19 6 20 14 21 7 22 8 23
REMARK SMILES IDX 9 24 13 25 10 26 12 27 11 28 27 29 28 30 29 31 30 32 31 33
REMARK SMILES IDX 32 35 33 36 34 37 86 38 35 39 85 40 36 41 37 42 38 43 79 44
REMARK SMILES IDX 39 45 84 46 78 47 80 48 40 49 83 50 77 51 76 52 41 54 67 55
REMARK SMILES IDX 50 56 66 57 51 58 54 59 65 60 81 61 52 62 53 63 64 65 82 66
REMARK SMILES IDX 55 67 42 68 43 69 48 70 44 71 45 72 47 73 49 74 46 75 68 76
REMARK SMILES IDX 69 77 74 78 70 79 71 80 73 81 75 82 72 83 56 84 57 85 62 86
REMARK SMILES IDX 58 87 59 88 61 89 63 90 60 91
REMARK H PARENT 25 5 30 34 80 53 54 64
REMARK Flexibility Score: inf
ROOT
ATOM      1  C   UNL A   1      36.851  22.444  24.307  1.00  0.00     0.116 C 
ENDROOT
BRANCH   1   2
ATOM      2  N   UNL A   1      36.191  23.611  24.845  1.00  0.00    -0.356 N 
ATOM      3  C   UNL A   1      34.984  24.164  24.566  1.00  0.00     0.224 C 
ATOM      4  O   UNL A   1      34.614  25.070  25.325  1.00  0.00    -0.275 OA
ATOM      5  H   UNL A   1      36.707  24.088  25.534  1.00  0.00     0.163 HD
BRANCH   3   6
ATOM      6  C   UNL A   1      34.084  23.766  23.385  1.00  0.00     0.098 C 
ATOM      7  N   UNL A   1      31.913  25.013  23.233  1.00  0.00    -0.339 N 
ATOM      8  C   UNL A   1      31.139  23.780  23.313  1.00  0.00     0.119 C 
ATOM      9  C   UNL A   1      33.284  24.907  22.751  1.00  0.00     0.133 C 
ATOM     10  C   UNL A   1      31.857  22.661  24.053  1.00  0.00     0.022 C 
ATOM     11  C   UNL A   1      33.298  22.472  23.601  1.00  0.00     0.017 C 
BRANCH   7  12
ATOM     12  C   UNL A   1      31.266  26.213  23.519  1.00  0.00     0.263 C 
ATOM     13  O   UNL A   1      30.635  26.808  22.639  1.00  0.00    -0.271 OA
BRANCH  12  14
ATOM     14  C   UNL A   1      31.459  26.854  24.905  1.00  0.00     0.259 C 
ATOM     15  C   UNL A   1      31.485  25.888  26.080  1.00  0.00     0.064 C 
BRANCH  14  16
ATOM     16  O   UNL A   1      32.701  27.567  24.792  1.00  0.00    -0.481 OA
BRANCH  16  17
ATOM     17  C   UNL A   1      32.821  28.581  25.695  1.00  0.00     0.120 A 
ATOM     18  C   UNL A   1      31.900  29.624  25.705  1.00  0.00     0.047 A 
ATOM     19  C   UNL A   1      33.970  28.639  26.472  1.00  0.00     0.047 A 
ATOM     20  C   UNL A   1      32.151  30.757  26.490  1.00  0.00     0.012 A 
ATOM     21  C   UNL A   1      34.209  29.762  27.259  1.00  0.00     0.012 A 
ATOM     22  C   UNL A   1      33.326  30.856  27.254  1.00  0.00    -0.018 A 
BRANCH  22  23
ATOM     23  C   UNL A   1      33.688  32.088  27.974  1.00  0.00    -0.018 A 
ATOM     24  C   UNL A   1      34.754  32.138  28.883  1.00  0.00     0.009 A 
ATOM     25  C   UNL A   1      32.958  33.271  27.746  1.00  0.00     0.009 A 
ATOM     26  C   UNL A   1      35.090  33.335  29.524  1.00  0.00     0.001 A 
ATOM     27  C   UNL A   1      33.292  34.465  28.384  1.00  0.00     0.001 A 
ATOM     28  C   UNL A   1      34.363  34.497  29.271  1.00  0.00     0.000 A 
ENDBRANCH  22  23
ENDBRANCH  16  17
ENDBRANCH  14  16
ENDBRANCH  12  14
ENDBRANCH   7  12
ENDBRANCH   3   6
ENDBRANCH   1   2
BRANCH   1  29
ATOM     29  C   UNL A   1      36.782  21.225  25.220  1.00  0.00     0.023 C 
BRANCH  29  30
ATOM     30  C   UNL A   1      37.862  20.181  24.970  1.00  0.00     0.023 C 
BRANCH  30  31
ATOM     31  C   UNL A   1      39.140  20.349  25.789  1.00  0.00     0.116 C 
BRANCH  31  32
ATOM     32  N   UNL A   1      40.043  19.207  25.757  1.00  0.00    -0.352 N 
ATOM     33  C   UNL A   1      41.406  19.194  25.972  1.00  0.00     0.251 C 
ATOM     34  H   UNL A   1      39.629  18.337  25.559  1.00  0.00     0.163 HD
ATOM     35  O   UNL A   1      42.060  18.172  25.822  1.00  0.00    -0.269 OA
BRANCH  33  36
ATOM     36  C   UNL A   1      42.083  20.457  26.342  1.00  0.00     0.039 A 
ATOM     37  C   UNL A   1      42.474  21.334  25.331  1.00  0.00     0.014 A 
ATOM     38  C   UNL A   1      42.265  20.800  27.684  1.00  0.00     0.014 A 
ATOM     39  C   UNL A   1      42.965  22.597  25.669  1.00  0.00     0.010 A 
ATOM     40  C   UNL A   1      42.663  22.090  28.018  1.00  0.00     0.010 A 
ATOM     41  C   UNL A   1      43.016  23.003  27.015  1.00  0.00    -0.014 A 
BRANCH  41  42
ATOM     42  C   UNL A   1      43.410  24.389  27.373  1.00  0.00     0.031 A 
ATOM     43  C   UNL A   1      44.840  24.834  27.257  1.00  0.00     0.074 A 
ATOM     44  C   UNL A   1      42.478  25.238  27.852  1.00  0.00     0.049 A 
ATOM     45  N   UNL A   1      45.360  26.013  27.493  1.00  0.00    -0.248 NA
ATOM     46  C   UNL A   1      45.825  23.817  26.856  1.00  0.00     0.031 C 
ATOM     47  C   UNL A   1      41.073  24.902  28.101  1.00  0.00     0.029 A 
ATOM     48  N   UNL A   1      42.569  26.559  28.210  1.00  0.00    -0.354 N 
ATOM     49  C   UNL A   1      46.724  25.875  27.276  1.00  0.00     0.074 A 
ATOM     50  C   UNL A   1      46.963  24.485  26.956  1.00  0.00     0.031 C 
ATOM     51  C   UNL A   1      40.427  26.000  28.524  1.00  0.00     0.029 A 
ATOM     52  C   UNL A   1      41.372  27.108  28.599  1.00  0.00     0.049 A 
ATOM     53  H   UNL A   1      43.414  27.065  28.191  1.00  0.00     0.167 HD
ATOM     54  C   UNL A   1      47.688  26.826  27.307  1.00  0.00     0.037 A 
ATOM     55  C   UNL A   1      41.067  28.369  28.958  1.00  0.00     0.037 A 
ATOM     56  C   UNL A   1      47.444  28.215  27.597  1.00  0.00     0.049 A 
ATOM     57  C   UNL A   1      42.144  29.417  28.941  1.00  0.00     0.074 A 
ATOM     58  C   UNL A   1      48.339  29.271  27.580  1.00  0.00     0.029 A 
ATOM     59  N   UNL A   1      46.213  28.740  27.957  1.00  0.00    -0.354 N 
ATOM     60  N   UNL A   1      43.413  29.293  28.636  1.00  0.00    -0.248 NA
ATOM     61  C   UNL A   1      41.743  30.783  29.303  1.00  0.00     0.031 C 
ATOM     62  C   UNL A   1      47.655  30.429  27.967  1.00  0.00     0.029 A 
ATOM     63  C   UNL A   1      46.326  30.102  28.183  1.00  0.00     0.049 A 
ATOM     64  H   UNL A   1      45.380  28.221  28.040  1.00  0.00     0.167 HD
ATOM     65  C   UNL A   1      43.957  30.565  28.751  1.00  0.00     0.074 A 
ATOM     66  C   UNL A   1      42.874  31.450  29.128  1.00  0.00     0.031 C 
ATOM     67  C   UNL A   1      45.239  30.966  28.565  1.00  0.00     0.037 A 
BRANCH  54  68
ATOM     68  C   UNL A   1      49.092  26.395  27.000  1.00  0.00     0.057 A 
ATOM     69  C   UNL A   1      49.970  25.973  28.010  1.00  0.00     0.134 A 
ATOM     70  C   UNL A   1      49.568  26.379  25.684  1.00  0.00     0.134 A 
ATOM     71  F   UNL A   1      49.581  25.977  29.293  1.00  0.00    -0.206 F 
ATOM     72  C   UNL A   1      51.278  25.579  27.723  1.00  0.00     0.040 A 
ATOM     73  C   UNL A   1      50.865  25.960  25.382  1.00  0.00     0.040 A 
ATOM     74  F   UNL A   1      48.780  26.766  24.669  1.00  0.00    -0.206 F 
ATOM     75  C   UNL A   1      51.726  25.565  26.404  1.00  0.00     0.006 A 
ENDBRANCH  54  68
BRANCH  55  76
ATOM     76  C   UNL A   1      39.669  28.725  29.310  1.00  0.00     0.057 A 
ATOM     77  C   UNL A   1      38.780  29.197  28.337  1.00  0.00     0.134 A 
ATOM     78  C   UNL A   1      39.190  28.607  30.619  1.00  0.00     0.134 A 
ATOM     79  F   UNL A   1      39.186  29.347  27.067  1.00  0.00    -0.206 F 
ATOM     80  C   UNL A   1      37.471  29.560  28.656  1.00  0.00     0.040 A 
ATOM     81  C   UNL A   1      37.876  28.944  30.949  1.00  0.00     0.040 A 
ATOM     82  F   UNL A   1      39.990  28.153  31.594  1.00  0.00    -0.206 F 
ATOM     83  C   UNL A   1      37.015  29.430  29.967  1.00  0.00     0.006 A 
ENDBRANCH  55  76
BRANCH  67  84
ATOM     84  C   UNL A   1      45.528  32.426  28.754  1.00  0.00     0.057 A 
ATOM     85  C   UNL A   1      45.927  32.943  29.993  1.00  0.00     0.134 A 
ATOM     86  C   UNL A   1      45.419  33.321  27.683  1.00  0.00     0.134 A 
ATOM     87  F   UNL A   1      46.036  32.140  31.062  1.00  0.00    -0.206 F 
ATOM     88  C   UNL A   1      46.175  34.305  30.168  1.00  0.00     0.040 A 
ATOM     89  C   UNL A   1      45.692  34.680  27.838  1.00  0.00     0.040 A 
ATOM     90  F   UNL A   1      45.051  32.888  26.467  1.00  0.00    -0.206 F 
ATOM     91  C   UNL A   1      46.062  35.177  29.086  1.00  0.00     0.006 A 
ENDBRANCH  67  84
ENDBRANCH  41  42
ENDBRANCH  33  36
ENDBRANCH  31  32
ENDBRANCH  30  31
ENDBRANCH  29  30
ENDBRANCH   1  29
TORSDOF 16
ENDMDL
