MODEL 1
REMARK VINA RESULT:     -10.9      0.000      0.000
REMARK SMILES CC(C)C[C@@H](CNc1ccc(C(=O)N(C)C)nn1)C(=O)NCCCCNC(=O)c1ccc(-c2c3nc(c(-c4c(F)cccc4F)c4ccc([nH]4)c(-c4c(F)cccc4F)c4nc(c(-c5c(F)cccc5F)c5ccc2[nH]5)C=C4)C=C3)cc1
REMARK SMILES IDX 22 1 21 2 19 3 20 4 5 6 4 7 2 8 1 9 3 10 6 11 7 12 8 14 9 15
REMARK SMILES IDX 18 16 10 17 17 18 11 19 12 20 13 21 14 22 15 23 16 24 23 25
REMARK SMILES IDX 24 26 25 27 26 28 27 29 28 31 29 32 30 33 82 34 31 35 81 36
REMARK SMILES IDX 32 37 33 38 34 39 75 40 35 41 80 42 74 43 76 44 36 45 79 46
REMARK SMILES IDX 73 47 72 48 37 50 63 51 46 52 62 53 47 54 50 55 61 56 77 57
REMARK SMILES IDX 48 58 49 59 60 61 78 62 51 63 38 64 39 65 44 66 40 67 41 68
REMARK SMILES IDX 43 69 45 70 42 71 64 72 65 73 70 74 66 75 67 76 69 77 71 78
REMARK SMILES IDX 68 79 52 80 53 81 58 82 54 83 55 84 57 85 59 86 56 87
REMARK H PARENT 21 5 7 13 26 30 76 49 50 60
REMARK Flexibility Score: inf
ROOT
ATOM      1  C   UNL A   1      33.426  28.749  25.401  1.00  0.00     0.116 C 
ENDROOT
BRANCH   1   2
ATOM      2  N   UNL A   1      33.538  27.977  24.181  1.00  0.00    -0.356 N 
ATOM      3  C   UNL A   1      33.649  26.638  23.982  1.00  0.00     0.224 C 
ATOM      4  O   UNL A   1      33.493  26.228  22.826  1.00  0.00    -0.275 OA
ATOM      5  H   UNL A   1      33.532  28.514  23.356  1.00  0.00     0.163 HD
BRANCH   3   6
ATOM      6  C   UNL A   1      33.945  25.639  25.100  1.00  0.00     0.098 C 
BRANCH   6   7
ATOM      7  C   UNL A   1      32.783  25.443  26.090  1.00  0.00     0.018 C 
BRANCH   7   8
ATOM      8  C   UNL A   1      31.464  24.910  25.501  1.00  0.00    -0.017 C 
ATOM      9  C   UNL A   1      31.019  23.595  26.139  1.00  0.00     0.007 C 
ATOM     10  C   UNL A   1      30.367  25.966  25.681  1.00  0.00     0.007 C 
ENDBRANCH   7   8
ENDBRANCH   6   7
BRANCH   6  11
ATOM     11  C   UNL A   1      34.725  24.410  24.601  1.00  0.00     0.128 C 
BRANCH  11  12
ATOM     12  N   UNL A   1      34.030  23.560  23.650  1.00  0.00    -0.368 N 
ATOM     13  H   UNL A   1      33.725  23.964  22.806  1.00  0.00     0.162 HD
BRANCH  12  14
ATOM     14  C   UNL A   1      33.769  22.223  23.856  1.00  0.00     0.148 A 
ATOM     15  C   UNL A   1      32.641  21.574  23.375  1.00  0.00     0.051 A 
ATOM     16  N   UNL A   1      34.655  21.525  24.595  1.00  0.00    -0.132 NA
ATOM     17  C   UNL A   1      32.387  20.244  23.724  1.00  0.00     0.040 A 
ATOM     18  N   UNL A   1      34.410  20.210  24.967  1.00  0.00    -0.143 NA
ATOM     19  C   UNL A   1      33.293  19.589  24.534  1.00  0.00     0.151 A 
BRANCH  19  20
ATOM     20  C   UNL A   1      33.016  18.238  25.101  1.00  0.00     0.273 C 
ATOM     21  O   UNL A   1      32.468  18.177  26.204  1.00  0.00    -0.267 OA
ATOM     22  N   UNL A   1      33.321  17.082  24.368  1.00  0.00    -0.343 N 
ATOM     23  C   UNL A   1      34.205  17.016  23.212  1.00  0.00     0.146 C 
ATOM     24  C   UNL A   1      32.854  15.811  24.898  1.00  0.00     0.146 C 
ENDBRANCH  19  20
ENDBRANCH  12  14
ENDBRANCH  11  12
ENDBRANCH   6  11
ENDBRANCH   3   6
ENDBRANCH   1   2
BRANCH   1  25
ATOM     25  C   UNL A   1      32.030  29.321  25.615  1.00  0.00     0.023 C 
BRANCH  25  26
ATOM     26  C   UNL A   1      31.884  30.170  26.877  1.00  0.00     0.023 C 
BRANCH  26  27
ATOM     27  C   UNL A   1      32.976  31.215  27.093  1.00  0.00     0.116 C 
BRANCH  27  28
ATOM     28  N   UNL A   1      32.462  32.553  27.359  1.00  0.00    -0.352 N 
ATOM     29  C   UNL A   1      33.043  33.562  28.087  1.00  0.00     0.251 C 
ATOM     30  H   UNL A   1      31.585  32.759  26.964  1.00  0.00     0.163 HD
ATOM     31  O   UNL A   1      32.442  34.609  28.308  1.00  0.00    -0.269 OA
BRANCH  29  32
ATOM     32  C   UNL A   1      34.384  33.341  28.660  1.00  0.00     0.039 A 
ATOM     33  C   UNL A   1      34.489  32.703  29.898  1.00  0.00     0.014 A 
ATOM     34  C   UNL A   1      35.528  33.684  27.933  1.00  0.00     0.014 A 
ATOM     35  C   UNL A   1      35.746  32.324  30.367  1.00  0.00     0.010 A 
ATOM     36  C   UNL A   1      36.770  33.237  28.367  1.00  0.00     0.010 A 
ATOM     37  C   UNL A   1      36.891  32.543  29.582  1.00  0.00    -0.014 A 
BRANCH  37  38
ATOM     38  C   UNL A   1      38.219  32.038  30.007  1.00  0.00     0.031 A 
ATOM     39  C   UNL A   1      38.720  30.718  29.495  1.00  0.00     0.074 A 
ATOM     40  C   UNL A   1      38.940  32.731  30.910  1.00  0.00     0.049 A 
ATOM     41  N   UNL A   1      39.817  30.075  29.806  1.00  0.00    -0.248 NA
ATOM     42  C   UNL A   1      37.864  30.015  28.529  1.00  0.00     0.031 C 
ATOM     43  C   UNL A   1      38.538  33.998  31.526  1.00  0.00     0.029 A 
ATOM     44  N   UNL A   1      40.161  32.462  31.476  1.00  0.00    -0.354 N 
ATOM     45  C   UNL A   1      39.772  28.888  29.087  1.00  0.00     0.074 A 
ATOM     46  C   UNL A   1      38.519  28.876  28.365  1.00  0.00     0.031 C 
ATOM     47  C   UNL A   1      39.502  34.403  32.367  1.00  0.00     0.029 A 
ATOM     48  C   UNL A   1      40.573  33.413  32.377  1.00  0.00     0.049 A 
ATOM     49  H   UNL A   1      40.690  31.661  31.258  1.00  0.00     0.167 HD
ATOM     50  C   UNL A   1      40.702  27.905  29.018  1.00  0.00     0.037 A 
ATOM     51  C   UNL A   1      41.689  33.477  33.129  1.00  0.00     0.037 A 
ATOM     52  C   UNL A   1      41.959  27.928  29.716  1.00  0.00     0.049 A 
ATOM     53  C   UNL A   1      42.712  32.381  33.023  1.00  0.00     0.074 A 
ATOM     54  C   UNL A   1      42.992  27.008  29.663  1.00  0.00     0.029 A 
ATOM     55  N   UNL A   1      42.354  28.925  30.595  1.00  0.00    -0.354 N 
ATOM     56  N   UNL A   1      42.686  31.295  32.290  1.00  0.00    -0.248 NA
ATOM     57  C   UNL A   1      43.920  32.521  33.847  1.00  0.00     0.031 C 
ATOM     58  C   UNL A   1      44.000  27.434  30.536  1.00  0.00     0.029 A 
ATOM     59  C   UNL A   1      43.611  28.638  31.101  1.00  0.00     0.049 A 
ATOM     60  H   UNL A   1      41.822  29.721  30.824  1.00  0.00     0.167 HD
ATOM     61  C   UNL A   1      43.881  30.637  32.543  1.00  0.00     0.074 A 
ATOM     62  C   UNL A   1      44.616  31.451  33.490  1.00  0.00     0.031 C 
ATOM     63  C   UNL A   1      44.330  29.462  32.037  1.00  0.00     0.037 A 
BRANCH  50  64
ATOM     64  C   UNL A   1      40.389  26.727  28.144  1.00  0.00     0.057 A 
ATOM     65  C   UNL A   1      39.510  25.718  28.559  1.00  0.00     0.134 A 
ATOM     66  C   UNL A   1      40.956  26.609  26.870  1.00  0.00     0.134 A 
ATOM     67  F   UNL A   1      38.945  25.766  29.775  1.00  0.00    -0.206 F 
ATOM     68  C   UNL A   1      39.228  24.618  27.748  1.00  0.00     0.040 A 
ATOM     69  C   UNL A   1      40.661  25.526  26.039  1.00  0.00     0.040 A 
ATOM     70  F   UNL A   1      41.801  27.543  26.410  1.00  0.00    -0.206 F 
ATOM     71  C   UNL A   1      39.800  24.524  26.481  1.00  0.00     0.006 A 
ENDBRANCH  50  64
BRANCH  51  72
ATOM     72  C   UNL A   1      41.910  34.635  34.030  1.00  0.00     0.057 A 
ATOM     73  C   UNL A   1      42.508  35.809  33.559  1.00  0.00     0.134 A 
ATOM     74  C   UNL A   1      41.538  34.595  35.378  1.00  0.00     0.134 A 
ATOM     75  F   UNL A   1      42.904  35.899  32.280  1.00  0.00    -0.206 F 
ATOM     76  C   UNL A   1      42.744  36.898  34.400  1.00  0.00     0.040 A 
ATOM     77  C   UNL A   1      41.748  35.684  36.226  1.00  0.00     0.040 A 
ATOM     78  F   UNL A   1      40.956  33.500  35.888  1.00  0.00    -0.206 F 
ATOM     79  C   UNL A   1      42.359  36.838  35.737  1.00  0.00     0.006 A 
ENDBRANCH  51  72
BRANCH  63  80
ATOM     80  C   UNL A   1      45.689  29.004  32.474  1.00  0.00     0.057 A 
ATOM     81  C   UNL A   1      45.863  28.168  33.584  1.00  0.00     0.134 A 
ATOM     82  C   UNL A   1      46.830  29.371  31.750  1.00  0.00     0.134 A 
ATOM     83  F   UNL A   1      44.810  27.793  34.325  1.00  0.00    -0.206 F 
ATOM     84  C   UNL A   1      47.131  27.727  33.970  1.00  0.00     0.040 A 
ATOM     85  C   UNL A   1      48.099  28.917  32.113  1.00  0.00     0.040 A 
ATOM     86  F   UNL A   1      46.729  30.163  30.673  1.00  0.00    -0.206 F 
ATOM     87  C   UNL A   1      48.252  28.096  33.228  1.00  0.00     0.006 A 
ENDBRANCH  63  80
ENDBRANCH  37  38
ENDBRANCH  29  32
ENDBRANCH  27  28
ENDBRANCH  26  27
ENDBRANCH  25  26
ENDBRANCH   1  25
TORSDOF 17
ENDMDL
MODEL 2
REMARK VINA RESULT:     -10.8      3.107      8.826
REMARK SMILES CC(C)C[C@@H](CNc1ccc(C(=O)N(C)C)nn1)C(=O)NCCCCNC(=O)c1ccc(-c2c3nc(c(-c4c(F)cccc4F)c4ccc([nH]4)c(-c4c(F)cccc4F)c4nc(c(-c5c(F)cccc5F)c5ccc2[nH]5)C=C4)C=C3)cc1
REMARK SMILES IDX 22 1 21 2 19 3 20 4 5 6 4 7 2 8 1 9 3 10 6 11 7 12 8 14 9 15
REMARK SMILES IDX 18 16 10 17 17 18 11 19 12 20 13 21 14 22 15 23 16 24 23 25
REMARK SMILES IDX 24 26 25 27 26 28 27 29 28 31 29 32 30 33 82 34 31 35 81 36
REMARK SMILES IDX 32 37 33 38 34 39 75 40 35 41 80 42 74 43 76 44 36 45 79 46
REMARK SMILES IDX 73 47 72 48 37 50 63 51 46 52 62 53 47 54 50 55 61 56 77 57
REMARK SMILES IDX 48 58 49 59 60 61 78 62 51 63 38 64 39 65 44 66 40 67 41 68
REMARK SMILES IDX 43 69 45 70 42 71 64 72 65 73 70 74 66 75 67 76 69 77 71 78
REMARK SMILES IDX 68 79 52 80 53 81 58 82 54 83 55 84 57 85 59 86 56 87
REMARK H PARENT 21 5 7 13 26 30 76 49 50 60
REMARK Flexibility Score: inf
ROOT
ATOM      1  C   UNL A   1      36.904  23.229  25.647  1.00  0.00     0.116 C 
ENDROOT
BRANCH   1   2
ATOM      2  N   UNL A   1      35.891  22.689  26.531  1.00  0.00    -0.356 N 
ATOM      3  C   UNL A   1      34.909  21.778  26.306  1.00  0.00     0.224 C 
ATOM      4  O   UNL A   1      34.330  21.323  27.300  1.00  0.00    -0.275 OA
ATOM      5  H   UNL A   1      35.920  23.042  27.448  1.00  0.00     0.163 HD
BRANCH   3   6
ATOM      6  C   UNL A   1      34.503  21.297  24.914  1.00  0.00     0.098 C 
BRANCH   6   7
ATOM      7  C   UNL A   1      34.345  19.770  24.800  1.00  0.00     0.018 C 
BRANCH   7   8
ATOM      8  C   UNL A   1      32.903  19.234  24.734  1.00  0.00    -0.017 C 
ATOM      9  C   UNL A   1      32.538  18.686  23.355  1.00  0.00     0.007 C 
ATOM     10  C   UNL A   1      32.724  18.135  25.788  1.00  0.00     0.007 C 
ENDBRANCH   7   8
ENDBRANCH   6   7
BRANCH   6  11
ATOM     11  C   UNL A   1      33.459  22.214  24.255  1.00  0.00     0.128 C 
BRANCH  11  12
ATOM     12  N   UNL A   1      32.443  22.758  25.138  1.00  0.00    -0.368 N 
ATOM     13  H   UNL A   1      31.805  22.131  25.549  1.00  0.00     0.162 HD
BRANCH  12  14
ATOM     14  C   UNL A   1      32.314  24.097  25.435  1.00  0.00     0.148 A 
ATOM     15  C   UNL A   1      33.341  25.021  25.298  1.00  0.00     0.051 A 
ATOM     16  N   UNL A   1      31.124  24.514  25.913  1.00  0.00    -0.132 NA
ATOM     17  C   UNL A   1      33.169  26.339  25.730  1.00  0.00     0.040 A 
ATOM     18  N   UNL A   1      30.941  25.814  26.365  1.00  0.00    -0.143 NA
ATOM     19  C   UNL A   1      31.951  26.703  26.271  1.00  0.00     0.151 A 
BRANCH  19  20
ATOM     20  C   UNL A   1      31.738  28.029  26.920  1.00  0.00     0.273 C 
ATOM     21  O   UNL A   1      31.522  28.049  28.133  1.00  0.00    -0.267 OA
ATOM     22  N   UNL A   1      31.841  29.212  26.173  1.00  0.00    -0.343 N 
ATOM     23  C   UNL A   1      31.810  29.306  24.720  1.00  0.00     0.146 C 
ATOM     24  C   UNL A   1      31.808  30.469  26.904  1.00  0.00     0.146 C 
ENDBRANCH  19  20
ENDBRANCH  12  14
ENDBRANCH  11  12
ENDBRANCH   6  11
ENDBRANCH   3   6
ENDBRANCH   1   2
BRANCH   1  25
ATOM     25  C   UNL A   1      38.314  22.790  26.023  1.00  0.00     0.023 C 
BRANCH  25  26
ATOM     26  C   UNL A   1      38.725  21.436  25.448  1.00  0.00     0.023 C 
BRANCH  26  27
ATOM     27  C   UNL A   1      39.245  20.423  26.465  1.00  0.00     0.116 C 
BRANCH  27  28
ATOM     28  N   UNL A   1      40.288  19.550  25.942  1.00  0.00    -0.352 N 
ATOM     29  C   UNL A   1      41.641  19.780  25.875  1.00  0.00     0.251 C 
ATOM     30  H   UNL A   1      39.984  18.682  25.591  1.00  0.00     0.163 HD
ATOM     31  O   UNL A   1      42.391  18.987  25.314  1.00  0.00    -0.269 OA
BRANCH  29  32
ATOM     32  C   UNL A   1      42.174  21.037  26.434  1.00  0.00     0.039 A 
ATOM     33  C   UNL A   1      42.533  22.063  25.559  1.00  0.00     0.014 A 
ATOM     34  C   UNL A   1      42.233  21.224  27.818  1.00  0.00     0.014 A 
ATOM     35  C   UNL A   1      42.864  23.316  26.073  1.00  0.00     0.010 A 
ATOM     36  C   UNL A   1      42.488  22.494  28.323  1.00  0.00     0.010 A 
ATOM     37  C   UNL A   1      42.795  23.555  27.456  1.00  0.00    -0.014 A 
BRANCH  37  38
ATOM     38  C   UNL A   1      43.023  24.911  28.012  1.00  0.00     0.031 A 
ATOM     39  C   UNL A   1      44.397  25.318  28.461  1.00  0.00     0.074 A 
ATOM     40  C   UNL A   1      41.981  25.749  28.179  1.00  0.00     0.049 A 
ATOM     41  N   UNL A   1      44.781  26.428  29.039  1.00  0.00    -0.248 NA
ATOM     42  C   UNL A   1      45.476  24.339  28.262  1.00  0.00     0.031 C 
ATOM     43  C   UNL A   1      40.589  25.450  27.835  1.00  0.00     0.029 A 
ATOM     44  N   UNL A   1      41.929  27.020  28.692  1.00  0.00    -0.354 N 
ATOM     45  C   UNL A   1      46.139  26.272  29.285  1.00  0.00     0.074 A 
ATOM     46  C   UNL A   1      46.501  24.944  28.842  1.00  0.00     0.031 C 
ATOM     47  C   UNL A   1      39.826  26.515  28.128  1.00  0.00     0.029 A 
ATOM     48  C   UNL A   1      40.665  27.557  28.710  1.00  0.00     0.049 A 
ATOM     49  H   UNL A   1      42.724  27.501  29.018  1.00  0.00     0.167 HD
ATOM     50  C   UNL A   1      47.011  27.164  29.813  1.00  0.00     0.037 A 
ATOM     51  C   UNL A   1      40.232  28.753  29.151  1.00  0.00     0.037 A 
ATOM     52  C   UNL A   1      46.657  28.494  30.230  1.00  0.00     0.049 A 
ATOM     53  C   UNL A   1      41.221  29.731  29.720  1.00  0.00     0.074 A 
ATOM     54  C   UNL A   1      47.480  29.492  30.722  1.00  0.00     0.029 A 
ATOM     55  N   UNL A   1      45.370  29.013  30.203  1.00  0.00    -0.354 N 
ATOM     56  N   UNL A   1      42.514  29.594  29.888  1.00  0.00    -0.248 NA
ATOM     57  C   UNL A   1      40.692  31.030  30.158  1.00  0.00     0.031 C 
ATOM     58  C   UNL A   1      46.686  30.605  31.023  1.00  0.00     0.029 A 
ATOM     59  C   UNL A   1      45.375  30.312  30.681  1.00  0.00     0.049 A 
ATOM     60  H   UNL A   1      44.573  28.529  29.889  1.00  0.00     0.167 HD
ATOM     61  C   UNL A   1      42.956  30.795  30.425  1.00  0.00     0.074 A 
ATOM     62  C   UNL A   1      41.796  31.654  30.545  1.00  0.00     0.031 C 
ATOM     63  C   UNL A   1      44.212  31.155  30.787  1.00  0.00     0.037 A 
BRANCH  50  64
ATOM     64  C   UNL A   1      48.437  26.725  29.957  1.00  0.00     0.057 A 
ATOM     65  C   UNL A   1      48.879  26.024  31.088  1.00  0.00     0.134 A 
ATOM     66  C   UNL A   1      49.374  26.987  28.951  1.00  0.00     0.134 A 
ATOM     67  F   UNL A   1      48.034  25.754  32.094  1.00  0.00    -0.206 F 
ATOM     68  C   UNL A   1      50.208  25.624  31.224  1.00  0.00     0.040 A 
ATOM     69  C   UNL A   1      50.701  26.569  29.063  1.00  0.00     0.040 A 
ATOM     70  F   UNL A   1      49.015  27.648  27.840  1.00  0.00    -0.206 F 
ATOM     71  C   UNL A   1      51.122  25.892  30.206  1.00  0.00     0.006 A 
ENDBRANCH  50  64
BRANCH  51  72
ATOM     72  C   UNL A   1      38.793  29.105  29.047  1.00  0.00     0.057 A 
ATOM     73  C   UNL A   1      37.950  29.022  30.160  1.00  0.00     0.134 A 
ATOM     74  C   UNL A   1      38.229  29.525  27.838  1.00  0.00     0.134 A 
ATOM     75  F   UNL A   1      38.431  28.606  31.342  1.00  0.00    -0.206 F 
ATOM     76  C   UNL A   1      36.591  29.327  30.073  1.00  0.00     0.040 A 
ATOM     77  C   UNL A   1      36.876  29.855  27.740  1.00  0.00     0.040 A 
ATOM     78  F   UNL A   1      38.986  29.631  26.736  1.00  0.00    -0.206 F 
ATOM     79  C   UNL A   1      36.052  29.750  28.860  1.00  0.00     0.006 A 
ENDBRANCH  51  72
BRANCH  63  80
ATOM     80  C   UNL A   1      44.400  32.544  31.318  1.00  0.00     0.057 A 
ATOM     81  C   UNL A   1      44.687  33.623  30.473  1.00  0.00     0.134 A 
ATOM     82  C   UNL A   1      44.250  32.810  32.684  1.00  0.00     0.134 A 
ATOM     83  F   UNL A   1      44.854  33.430  29.156  1.00  0.00    -0.206 F 
ATOM     84  C   UNL A   1      44.836  34.918  30.973  1.00  0.00     0.040 A 
ATOM     85  C   UNL A   1      44.375  34.104  33.192  1.00  0.00     0.040 A 
ATOM     86  F   UNL A   1      43.968  31.821  33.545  1.00  0.00    -0.206 F 
ATOM     87  C   UNL A   1      44.673  35.161  32.336  1.00  0.00     0.006 A 
ENDBRANCH  63  80
ENDBRANCH  37  38
ENDBRANCH  29  32
ENDBRANCH  27  28
ENDBRANCH  26  27
ENDBRANCH  25  26
ENDBRANCH   1  25
TORSDOF 17
ENDMDL
MODEL 3
REMARK VINA RESULT:     -10.7      2.262      6.763
REMARK SMILES CC(C)C[C@@H](CNc1ccc(C(=O)N(C)C)nn1)C(=O)NCCCCNC(=O)c1ccc(-c2c3nc(c(-c4c(F)cccc4F)c4ccc([nH]4)c(-c4c(F)cccc4F)c4nc(c(-c5c(F)cccc5F)c5ccc2[nH]5)C=C4)C=C3)cc1
REMARK SMILES IDX 22 1 21 2 19 3 20 4 5 6 4 7 2 8 1 9 3 10 6 11 7 12 8 14 9 15
REMARK SMILES IDX 18 16 10 17 17 18 11 19 12 20 13 21 14 22 15 23 16 24 23 25
REMARK SMILES IDX 24 26 25 27 26 28 27 29 28 31 29 32 30 33 82 34 31 35 81 36
REMARK SMILES IDX 32 37 33 38 34 39 75 40 35 41 80 42 74 43 76 44 36 45 79 46
REMARK SMILES IDX 73 47 72 48 37 50 63 51 46 52 62 53 47 54 50 55 61 56 77 57
REMARK SMILES IDX 48 58 49 59 60 61 78 62 51 63 38 64 39 65 44 66 40 67 41 68
REMARK SMILES IDX 43 69 45 70 42 71 64 72 65 73 70 74 66 75 67 76 69 77 71 78
REMARK SMILES IDX 68 79 52 80 53 81 58 82 54 83 55 84 57 85 59 86 56 87
REMARK H PARENT 21 5 7 13 26 30 76 49 50 60
REMARK Flexibility Score: inf
ROOT
ATOM      1  C   UNL A   1      32.219  29.496  25.847  1.00  0.00     0.116 C 
ENDROOT
BRANCH   1   2
ATOM      2  N   UNL A   1      31.391  28.330  25.619  1.00  0.00    -0.356 N 
ATOM      3  C   UNL A   1      30.901  27.797  24.470  1.00  0.00     0.224 C 
ATOM      4  O   UNL A   1      30.414  26.662  24.541  1.00  0.00    -0.275 OA
ATOM      5  H   UNL A   1      31.140  27.841  26.436  1.00  0.00     0.163 HD
BRANCH   3   6
ATOM      6  C   UNL A   1      30.931  28.518  23.123  1.00  0.00     0.098 C 
BRANCH   6   7
ATOM      7  C   UNL A   1      29.900  29.655  22.997  1.00  0.00     0.018 C 
BRANCH   7   8
ATOM      8  C   UNL A   1      28.615  29.331  22.215  1.00  0.00    -0.017 C 
ATOM      9  C   UNL A   1      27.442  28.973  23.126  1.00  0.00     0.007 C 
ATOM     10  C   UNL A   1      28.238  30.533  21.340  1.00  0.00     0.007 C 
ENDBRANCH   7   8
ENDBRANCH   6   7
BRANCH   6  11
ATOM     11  C   UNL A   1      32.362  28.738  22.604  1.00  0.00     0.128 C 
BRANCH  11  12
ATOM     12  N   UNL A   1      32.954  27.627  21.881  1.00  0.00    -0.368 N 
ATOM     13  H   UNL A   1      33.088  27.726  20.911  1.00  0.00     0.162 HD
BRANCH  12  14
ATOM     14  C   UNL A   1      33.338  26.440  22.468  1.00  0.00     0.148 A 
ATOM     15  C   UNL A   1      33.802  26.339  23.772  1.00  0.00     0.051 A 
ATOM     16  N   UNL A   1      33.282  25.327  21.709  1.00  0.00    -0.132 NA
ATOM     17  C   UNL A   1      34.283  25.120  24.258  1.00  0.00     0.040 A 
ATOM     18  N   UNL A   1      33.773  24.113  22.168  1.00  0.00    -0.143 NA
ATOM     19  C   UNL A   1      34.263  24.020  23.421  1.00  0.00     0.151 A 
BRANCH  19  20
ATOM     20  C   UNL A   1      34.918  22.732  23.791  1.00  0.00     0.273 C 
ATOM     21  O   UNL A   1      36.103  22.580  23.487  1.00  0.00    -0.267 OA
ATOM     22  N   UNL A   1      34.214  21.757  24.513  1.00  0.00    -0.343 N 
ATOM     23  C   UNL A   1      32.769  21.699  24.679  1.00  0.00     0.146 C 
ATOM     24  C   UNL A   1      34.968  20.612  25.000  1.00  0.00     0.146 C 
ENDBRANCH  19  20
ENDBRANCH  12  14
ENDBRANCH  11  12
ENDBRANCH   6  11
ENDBRANCH   3   6
ENDBRANCH   1   2
BRANCH   1  25
ATOM     25  C   UNL A   1      31.699  30.382  26.972  1.00  0.00     0.023 C 
BRANCH  25  26
ATOM     26  C   UNL A   1      31.708  31.876  26.651  1.00  0.00     0.023 C 
BRANCH  26  27
ATOM     27  C   UNL A   1      32.859  32.671  27.261  1.00  0.00     0.116 C 
BRANCH  27  28
ATOM     28  N   UNL A   1      32.505  34.041  27.611  1.00  0.00    -0.352 N 
ATOM     29  C   UNL A   1      33.079  34.858  28.554  1.00  0.00     0.251 C 
ATOM     30  H   UNL A   1      31.757  34.431  27.104  1.00  0.00     0.163 HD
ATOM     31  O   UNL A   1      32.606  35.962  28.807  1.00  0.00    -0.269 OA
BRANCH  29  32
ATOM     32  C   UNL A   1      34.242  34.357  29.312  1.00  0.00     0.039 A 
ATOM     33  C   UNL A   1      34.019  33.639  30.487  1.00  0.00     0.014 A 
ATOM     34  C   UNL A   1      35.536  34.524  28.810  1.00  0.00     0.014 A 
ATOM     35  C   UNL A   1      35.090  33.005  31.115  1.00  0.00     0.010 A 
ATOM     36  C   UNL A   1      36.588  33.828  29.395  1.00  0.00     0.010 A 
ATOM     37  C   UNL A   1      36.374  33.053  30.546  1.00  0.00    -0.014 A 
BRANCH  37  38
ATOM     38  C   UNL A   1      37.500  32.285  31.130  1.00  0.00     0.031 A 
ATOM     39  C   UNL A   1      38.039  32.651  32.483  1.00  0.00     0.074 A 
ATOM     40  C   UNL A   1      38.086  31.307  30.412  1.00  0.00     0.049 A 
ATOM     41  N   UNL A   1      39.061  32.149  33.128  1.00  0.00    -0.248 NA
ATOM     42  C   UNL A   1      37.356  33.743  33.193  1.00  0.00     0.031 C 
ATOM     43  C   UNL A   1      37.693  30.893  29.062  1.00  0.00     0.029 A 
ATOM     44  N   UNL A   1      39.145  30.488  30.712  1.00  0.00    -0.354 N 
ATOM     45  C   UNL A   1      39.153  32.875  34.308  1.00  0.00     0.074 A 
ATOM     46  C   UNL A   1      38.117  33.883  34.268  1.00  0.00     0.031 C 
ATOM     47  C   UNL A   1      38.486  29.888  28.661  1.00  0.00     0.029 A 
ATOM     48  C   UNL A   1      39.463  29.606  29.708  1.00  0.00     0.049 A 
ATOM     49  H   UNL A   1      39.631  30.529  31.567  1.00  0.00     0.167 HD
ATOM     50  C   UNL A   1      40.010  32.702  35.343  1.00  0.00     0.037 A 
ATOM     51  C   UNL A   1      40.437  28.679  29.638  1.00  0.00     0.037 A 
ATOM     52  C   UNL A   1      41.024  31.684  35.395  1.00  0.00     0.049 A 
ATOM     53  C   UNL A   1      41.367  28.497  30.805  1.00  0.00     0.074 A 
ATOM     54  C   UNL A   1      41.901  31.391  36.424  1.00  0.00     0.029 A 
ATOM     55  N   UNL A   1      41.295  30.789  34.370  1.00  0.00    -0.354 N 
ATOM     56  N   UNL A   1      41.401  29.148  31.942  1.00  0.00    -0.248 NA
ATOM     57  C   UNL A   1      42.390  27.451  30.680  1.00  0.00     0.031 C 
ATOM     58  C   UNL A   1      42.726  30.339  36.010  1.00  0.00     0.029 A 
ATOM     59  C   UNL A   1      42.334  29.951  34.738  1.00  0.00     0.049 A 
ATOM     60  H   UNL A   1      40.818  30.753  33.510  1.00  0.00     0.167 HD
ATOM     61  C   UNL A   1      42.429  28.575  32.677  1.00  0.00     0.074 A 
ATOM     62  C   UNL A   1      42.987  27.515  31.862  1.00  0.00     0.031 C 
ATOM     63  C   UNL A   1      42.873  28.897  33.917  1.00  0.00     0.037 A 
BRANCH  50  64
ATOM     64  C   UNL A   1      39.874  33.637  36.508  1.00  0.00     0.057 A 
ATOM     65  C   UNL A   1      39.033  33.344  37.590  1.00  0.00     0.134 A 
ATOM     66  C   UNL A   1      40.604  34.830  36.559  1.00  0.00     0.134 A 
ATOM     67  F   UNL A   1      38.296  32.223  37.595  1.00  0.00    -0.206 F 
ATOM     68  C   UNL A   1      38.901  34.219  38.668  1.00  0.00     0.040 A 
ATOM     69  C   UNL A   1      40.500  35.702  37.645  1.00  0.00     0.040 A 
ATOM     70  F   UNL A   1      41.431  35.167  35.558  1.00  0.00    -0.206 F 
ATOM     71  C   UNL A   1      39.641  35.400  38.700  1.00  0.00     0.006 A 
ENDBRANCH  50  64
BRANCH  51  72
ATOM     72  C   UNL A   1      40.567  27.830  28.427  1.00  0.00     0.057 A 
ATOM     73  C   UNL A   1      39.910  26.598  28.339  1.00  0.00     0.134 A 
ATOM     74  C   UNL A   1      41.352  28.224  27.338  1.00  0.00     0.134 A 
ATOM     75  F   UNL A   1      39.159  26.158  29.360  1.00  0.00    -0.206 F 
ATOM     76  C   UNL A   1      40.041  25.778  27.217  1.00  0.00     0.040 A 
ATOM     77  C   UNL A   1      41.475  27.425  26.200  1.00  0.00     0.040 A 
ATOM     78  F   UNL A   1      42.002  29.397  27.360  1.00  0.00    -0.206 F 
ATOM     79  C   UNL A   1      40.823  26.194  26.141  1.00  0.00     0.006 A 
ENDBRANCH  51  72
BRANCH  63  80
ATOM     80  C   UNL A   1      43.994  28.077  34.478  1.00  0.00     0.057 A 
ATOM     81  C   UNL A   1      43.759  26.880  35.165  1.00  0.00     0.134 A 
ATOM     82  C   UNL A   1      45.326  28.468  34.290  1.00  0.00     0.134 A 
ATOM     83  F   UNL A   1      42.506  26.458  35.388  1.00  0.00    -0.206 F 
ATOM     84  C   UNL A   1      44.811  26.108  35.664  1.00  0.00     0.040 A 
ATOM     85  C   UNL A   1      46.385  27.694  34.764  1.00  0.00     0.040 A 
ATOM     86  F   UNL A   1      45.617  29.601  33.634  1.00  0.00    -0.206 F 
ATOM     87  C   UNL A   1      46.129  26.513  35.456  1.00  0.00     0.006 A 
ENDBRANCH  63  80
ENDBRANCH  37  38
ENDBRANCH  29  32
ENDBRANCH  27  28
ENDBRANCH  26  27
ENDBRANCH  25  26
ENDBRANCH   1  25
TORSDOF 17
ENDMDL
