MODEL 1
REMARK VINA RESULT:     -12.1      0.000      0.000
REMARK SMILES Cc1cc2c(c(C)c1Br)C=C(C(=O)NCCCCNC(=O)c1ccc(-c3c4nc(c(-c5c(F)cccc5F)c5ccc([nH]5)c(-c5c(F)cccc5F)c5nc(c(-c6c(F)cccc6F)c6ccc3[nH]6)C=C5)C=C4)cc1)[C@@H](C(F)(F)F)O2
REMARK SMILES IDX 17 1 16 2 15 3 14 4 12 5 13 6 11 8 1 9 2 10 3 11 8 12 4 13
REMARK SMILES IDX 6 14 9 15 5 16 81 17 7 18 10 19 76 20 77 21 78 22 79 23
REMARK SMILES IDX 80 24 18 25 19 26 20 27 21 29 22 30 23 31 75 32 24 33 74 34
REMARK SMILES IDX 25 35 26 36 27 37 68 38 28 39 73 40 67 41 69 42 29 43 72 44
REMARK SMILES IDX 66 45 65 46 30 48 56 49 39 50 55 51 40 52 43 53 54 54 70 55
REMARK SMILES IDX 41 56 42 57 53 59 71 60 44 61 31 62 32 63 37 64 33 65 34 66
REMARK SMILES IDX 36 67 38 68 35 69 57 70 58 71 63 72 59 73 60 74 62 75 64 76
REMARK SMILES IDX 61 77 45 78 46 79 51 80 47 81 48 82 50 83 52 84 49 85
REMARK H PARENT 14 7 19 28 69 47 43 58
REMARK Flexibility Score: inf
ROOT
ATOM      1  C   UNL A   1      37.531  20.718  24.931  1.00  0.00     0.023 C 
ENDROOT
BRANCH   1   2
ATOM      2  C   UNL A   1      37.007  21.964  24.213  1.00  0.00     0.023 C 
BRANCH   2   3
ATOM      3  C   UNL A   1      36.789  23.165  25.128  1.00  0.00     0.116 C 
BRANCH   3   4
ATOM      4  N   UNL A   1      35.938  22.838  26.257  1.00  0.00    -0.352 N 
ATOM      5  C   UNL A   1      34.668  23.097  26.648  1.00  0.00     0.251 C 
ATOM      6  O   UNL A   1      34.347  22.607  27.735  1.00  0.00    -0.270 OA
ATOM      7  H   UNL A   1      36.411  22.279  26.915  1.00  0.00     0.163 HD
BRANCH   5   8
ATOM      8  C   UNL A   1      33.673  23.903  25.878  1.00  0.00     0.067 C 
ATOM      9  C   UNL A   1      29.959  28.430  23.043  1.00  0.00     0.046 C 
ATOM     10  C   UNL A   1      30.922  27.687  23.931  1.00  0.00    -0.033 A 
ATOM     11  C   UNL A   1      31.113  26.331  23.635  1.00  0.00     0.051 A 
ATOM     12  C   UNL A   1      31.666  28.262  24.983  1.00  0.00     0.024 A 
ATOM     13  C   UNL A   1      31.999  25.557  24.376  1.00  0.00     0.128 A 
ATOM     14  C   UNL A   1      32.563  27.476  25.757  1.00  0.00    -0.026 A 
ATOM     15  Br  UNL A   1      31.474  30.134  25.334  1.00  0.00    -0.050 Br
ATOM     16  C   UNL A   1      32.734  26.108  25.427  1.00  0.00     0.021 A 
ATOM     17  O   UNL A   1      32.123  24.261  23.967  1.00  0.00    -0.475 OA
ATOM     18  C   UNL A   1      33.358  28.053  26.908  1.00  0.00     0.046 C 
ATOM     19  C   UNL A   1      33.696  25.230  26.104  1.00  0.00     0.026 C 
ATOM     20  C   UNL A   1      32.664  23.324  24.933  1.00  0.00     0.314 C 
BRANCH  20  21
ATOM     21  C   UNL A   1      31.507  22.611  25.657  1.00  0.00     0.429 C 
ATOM     22  F   UNL A   1      31.436  23.015  26.950  1.00  0.00    -0.167 F 
ATOM     23  F   UNL A   1      30.301  22.889  25.105  1.00  0.00    -0.167 F 
ATOM     24  F   UNL A   1      31.640  21.267  25.659  1.00  0.00    -0.167 F 
ENDBRANCH  20  21
ENDBRANCH   5   8
ENDBRANCH   3   4
ENDBRANCH   2   3
ENDBRANCH   1   2
BRANCH   1  25
ATOM     25  C   UNL A   1      38.811  20.919  25.740  1.00  0.00     0.116 C 
BRANCH  25  26
ATOM     26  N   UNL A   1      39.742  19.803  25.657  1.00  0.00    -0.352 N 
ATOM     27  C   UNL A   1      41.071  19.781  26.009  1.00  0.00     0.251 C 
ATOM     28  H   UNL A   1      39.376  18.960  25.304  1.00  0.00     0.163 HD
ATOM     29  O   UNL A   1      41.757  18.783  25.817  1.00  0.00    -0.269 OA
BRANCH  27  30
ATOM     30  C   UNL A   1      41.668  20.999  26.582  1.00  0.00     0.039 A 
ATOM     31  C   UNL A   1      42.206  21.953  25.715  1.00  0.00     0.014 A 
ATOM     32  C   UNL A   1      41.622  21.226  27.960  1.00  0.00     0.014 A 
ATOM     33  C   UNL A   1      42.633  23.177  26.228  1.00  0.00     0.010 A 
ATOM     34  C   UNL A   1      41.993  22.467  28.461  1.00  0.00     0.010 A 
ATOM     35  C   UNL A   1      42.492  23.455  27.598  1.00  0.00    -0.014 A 
BRANCH  35  36
ATOM     36  C   UNL A   1      42.863  24.780  28.148  1.00  0.00     0.031 A 
ATOM     37  C   UNL A   1      41.807  25.824  28.356  1.00  0.00     0.074 A 
ATOM     38  C   UNL A   1      44.155  25.055  28.406  1.00  0.00     0.049 A 
ATOM     39  N   UNL A   1      41.939  27.057  28.771  1.00  0.00    -0.248 NA
ATOM     40  C   UNL A   1      40.424  25.440  28.034  1.00  0.00     0.031 C 
ATOM     41  C   UNL A   1      45.275  24.132  28.206  1.00  0.00     0.029 A 
ATOM     42  N   UNL A   1      44.746  26.193  28.893  1.00  0.00    -0.354 N 
ATOM     43  C   UNL A   1      40.660  27.597  28.752  1.00  0.00     0.074 A 
ATOM     44  C   UNL A   1      39.774  26.576  28.237  1.00  0.00     0.031 C 
ATOM     45  C   UNL A   1      46.412  24.730  28.596  1.00  0.00     0.029 A 
ATOM     46  C   UNL A   1      46.107  26.086  29.044  1.00  0.00     0.049 A 
ATOM     47  H   UNL A   1      44.242  27.009  29.112  1.00  0.00     0.167 HD
ATOM     48  C   UNL A   1      40.257  28.824  29.153  1.00  0.00     0.037 A 
ATOM     49  C   UNL A   1      47.004  26.980  29.498  1.00  0.00     0.037 A 
ATOM     50  C   UNL A   1      41.135  29.829  29.690  1.00  0.00     0.049 A 
ATOM     51  C   UNL A   1      46.533  28.339  29.932  1.00  0.00     0.074 A 
ATOM     52  C   UNL A   1      40.815  31.087  30.167  1.00  0.00     0.029 A 
ATOM     53  N   UNL A   1      42.507  29.682  29.827  1.00  0.00    -0.354 N 
ATOM     54  N   UNL A   1      45.314  28.823  29.946  1.00  0.00    -0.248 NA
ATOM     55  C   UNL A   1      47.559  29.277  30.408  1.00  0.00     0.031 C 
ATOM     56  C   UNL A   1      42.000  31.714  30.569  1.00  0.00     0.029 A 
ATOM     57  C   UNL A   1      43.051  30.833  30.372  1.00  0.00     0.049 A 
ATOM     58  H   UNL A   1      43.018  28.879  29.576  1.00  0.00     0.167 HD
ATOM     59  C   UNL A   1      45.423  30.112  30.451  1.00  0.00     0.074 A 
ATOM     60  C   UNL A   1      46.826  30.332  30.740  1.00  0.00     0.031 C 
ATOM     61  C   UNL A   1      44.449  31.030  30.655  1.00  0.00     0.037 A 
BRANCH  48  62
ATOM     62  C   UNL A   1      38.796  29.139  29.041  1.00  0.00     0.057 A 
ATOM     63  C   UNL A   1      37.941  29.040  30.145  1.00  0.00     0.134 A 
ATOM     64  C   UNL A   1      38.245  29.569  27.828  1.00  0.00     0.134 A 
ATOM     65  F   UNL A   1      38.407  28.618  31.330  1.00  0.00    -0.206 F 
ATOM     66  C   UNL A   1      36.582  29.341  30.043  1.00  0.00     0.040 A 
ATOM     67  C   UNL A   1      36.892  29.894  27.720  1.00  0.00     0.040 A 
ATOM     68  F   UNL A   1      39.011  29.686  26.734  1.00  0.00    -0.206 F 
ATOM     69  C   UNL A   1      36.055  29.776  28.828  1.00  0.00     0.006 A 
ENDBRANCH  48  62
BRANCH  49  70
ATOM     70  C   UNL A   1      48.433  26.602  29.606  1.00  0.00     0.057 A 
ATOM     71  C   UNL A   1      48.914  25.939  30.741  1.00  0.00     0.134 A 
ATOM     72  C   UNL A   1      49.347  26.878  28.583  1.00  0.00     0.134 A 
ATOM     73  F   UNL A   1      48.087  25.663  31.760  1.00  0.00    -0.206 F 
ATOM     74  C   UNL A   1      50.254  25.569  30.859  1.00  0.00     0.040 A 
ATOM     75  C   UNL A   1      50.687  26.498  28.680  1.00  0.00     0.040 A 
ATOM     76  F   UNL A   1      48.946  27.506  27.468  1.00  0.00    -0.206 F 
ATOM     77  C   UNL A   1      51.145  25.845  29.823  1.00  0.00     0.006 A 
ENDBRANCH  49  70
BRANCH  61  78
ATOM     78  C   UNL A   1      44.857  32.351  31.230  1.00  0.00     0.057 A 
ATOM     79  C   UNL A   1      44.928  32.556  32.613  1.00  0.00     0.134 A 
ATOM     80  C   UNL A   1      45.249  33.403  30.394  1.00  0.00     0.134 A 
ATOM     81  F   UNL A   1      44.556  31.588  33.464  1.00  0.00    -0.206 F 
ATOM     82  C   UNL A   1      45.370  33.769  33.145  1.00  0.00     0.040 A 
ATOM     83  C   UNL A   1      45.711  34.612  30.914  1.00  0.00     0.040 A 
ATOM     84  F   UNL A   1      45.209  33.264  29.060  1.00  0.00    -0.206 F 
ATOM     85  C   UNL A   1      45.772  34.797  32.294  1.00  0.00     0.006 A 
ENDBRANCH  61  78
ENDBRANCH  35  36
ENDBRANCH  27  30
ENDBRANCH  25  26
ENDBRANCH   1  25
TORSDOF 12
ENDMDL
MODEL 2
REMARK VINA RESULT:     -12.1      4.463      8.938
REMARK SMILES Cc1cc2c(c(C)c1Br)C=C(C(=O)NCCCCNC(=O)c1ccc(-c3c4nc(c(-c5c(F)cccc5F)c5ccc([nH]5)c(-c5c(F)cccc5F)c5nc(c(-c6c(F)cccc6F)c6ccc3[nH]6)C=C5)C=C4)cc1)[C@@H](C(F)(F)F)O2
REMARK SMILES IDX 17 1 16 2 15 3 14 4 12 5 13 6 11 8 1 9 2 10 3 11 8 12 4 13
REMARK SMILES IDX 6 14 9 15 5 16 81 17 7 18 10 19 76 20 77 21 78 22 79 23
REMARK SMILES IDX 80 24 18 25 19 26 20 27 21 29 22 30 23 31 75 32 24 33 74 34
REMARK SMILES IDX 25 35 26 36 27 37 68 38 28 39 73 40 67 41 69 42 29 43 72 44
REMARK SMILES IDX 66 45 65 46 30 48 56 49 39 50 55 51 40 52 43 53 54 54 70 55
REMARK SMILES IDX 41 56 42 57 53 59 71 60 44 61 31 62 32 63 37 64 33 65 34 66
REMARK SMILES IDX 36 67 38 68 35 69 57 70 58 71 63 72 59 73 60 74 62 75 64 76
REMARK SMILES IDX 61 77 45 78 46 79 51 80 47 81 48 82 50 83 52 84 49 85
REMARK H PARENT 14 7 19 28 69 47 43 58
REMARK Flexibility Score: inf
ROOT
ATOM      1  C   UNL A   1      31.543  31.931  26.711  1.00  0.00     0.023 C 
ENDROOT
BRANCH   1   2
ATOM      2  C   UNL A   1      31.818  30.435  26.538  1.00  0.00     0.023 C 
BRANCH   2   3
ATOM      3  C   UNL A   1      33.232  30.111  26.069  1.00  0.00     0.116 C 
BRANCH   3   4
ATOM      4  N   UNL A   1      33.249  29.614  24.705  1.00  0.00    -0.352 N 
ATOM      5  C   UNL A   1      33.170  28.411  24.090  1.00  0.00     0.251 C 
ATOM      6  O   UNL A   1      33.240  28.451  22.857  1.00  0.00    -0.270 OA
ATOM      7  H   UNL A   1      33.344  30.347  24.055  1.00  0.00     0.163 HD
BRANCH   5   8
ATOM      8  C   UNL A   1      33.008  27.094  24.777  1.00  0.00     0.067 C 
ATOM      9  C   UNL A   1      33.475  21.105  27.275  1.00  0.00     0.046 C 
ATOM     10  C   UNL A   1      33.661  22.362  26.465  1.00  0.00    -0.033 A 
ATOM     11  C   UNL A   1      32.835  23.441  26.802  1.00  0.00     0.051 A 
ATOM     12  C   UNL A   1      34.624  22.537  25.449  1.00  0.00     0.024 A 
ATOM     13  C   UNL A   1      32.940  24.656  26.136  1.00  0.00     0.128 A 
ATOM     14  C   UNL A   1      34.730  23.770  24.750  1.00  0.00    -0.026 A 
ATOM     15  Br  UNL A   1      35.814  21.093  25.045  1.00  0.00    -0.050 Br
ATOM     16  C   UNL A   1      33.880  24.843  25.120  1.00  0.00     0.021 A 
ATOM     17  O   UNL A   1      32.105  25.639  26.580  1.00  0.00    -0.475 OA
ATOM     18  C   UNL A   1      35.733  23.987  23.638  1.00  0.00     0.046 C 
ATOM     19  C   UNL A   1      33.964  26.181  24.524  1.00  0.00     0.026 C 
ATOM     20  C   UNL A   1      31.857  26.742  25.670  1.00  0.00     0.314 C 
BRANCH  20  21
ATOM     21  C   UNL A   1      30.555  26.480  24.893  1.00  0.00     0.429 C 
ATOM     22  F   UNL A   1      30.049  27.643  24.411  1.00  0.00    -0.167 F 
ATOM     23  F   UNL A   1      30.744  25.674  23.821  1.00  0.00    -0.167 F 
ATOM     24  F   UNL A   1      29.597  25.906  25.654  1.00  0.00    -0.167 F 
ENDBRANCH  20  21
ENDBRANCH   5   8
ENDBRANCH   3   4
ENDBRANCH   2   3
ENDBRANCH   1   2
BRANCH   1  25
ATOM     25  C   UNL A   1      32.703  32.747  27.279  1.00  0.00     0.116 C 
BRANCH  25  26
ATOM     26  N   UNL A   1      32.342  34.111  27.640  1.00  0.00    -0.352 N 
ATOM     27  C   UNL A   1      32.965  34.942  28.541  1.00  0.00     0.251 C 
ATOM     28  H   UNL A   1      31.554  34.485  27.183  1.00  0.00     0.163 HD
ATOM     29  O   UNL A   1      32.506  36.048  28.799  1.00  0.00    -0.269 OA
BRANCH  27  30
ATOM     30  C   UNL A   1      34.174  34.455  29.228  1.00  0.00     0.039 A 
ATOM     31  C   UNL A   1      34.028  33.761  30.431  1.00  0.00     0.014 A 
ATOM     32  C   UNL A   1      35.432  34.618  28.641  1.00  0.00     0.014 A 
ATOM     33  C   UNL A   1      35.144  33.161  31.012  1.00  0.00     0.010 A 
ATOM     34  C   UNL A   1      36.531  33.970  29.190  1.00  0.00     0.010 A 
ATOM     35  C   UNL A   1      36.394  33.229  30.374  1.00  0.00    -0.014 A 
BRANCH  35  36
ATOM     36  C   UNL A   1      37.573  32.528  30.933  1.00  0.00     0.031 A 
ATOM     37  C   UNL A   1      38.215  33.032  32.191  1.00  0.00     0.074 A 
ATOM     38  C   UNL A   1      38.093  31.474  30.276  1.00  0.00     0.049 A 
ATOM     39  N   UNL A   1      39.284  32.593  32.803  1.00  0.00    -0.248 NA
ATOM     40  C   UNL A   1      37.587  34.197  32.833  1.00  0.00     0.031 C 
ATOM     41  C   UNL A   1      37.578  30.918  29.023  1.00  0.00     0.029 A 
ATOM     42  N   UNL A   1      39.172  30.682  30.572  1.00  0.00    -0.354 N 
ATOM     43  C   UNL A   1      39.460  33.432  33.895  1.00  0.00     0.074 A 
ATOM     44  C   UNL A   1      38.421  34.436  33.834  1.00  0.00     0.031 C 
ATOM     45  C   UNL A   1      38.323  29.857  28.675  1.00  0.00     0.029 A 
ATOM     46  C   UNL A   1      39.384  29.675  29.662  1.00  0.00     0.049 A 
ATOM     47  H   UNL A   1      39.742  30.822  31.363  1.00  0.00     0.167 HD
ATOM     48  C   UNL A   1      40.389  33.355  34.876  1.00  0.00     0.037 A 
ATOM     49  C   UNL A   1      40.325  28.714  29.631  1.00  0.00     0.037 A 
ATOM     50  C   UNL A   1      41.405  32.340  34.950  1.00  0.00     0.049 A 
ATOM     51  C   UNL A   1      41.350  28.654  30.728  1.00  0.00     0.074 A 
ATOM     52  C   UNL A   1      42.364  32.151  35.928  1.00  0.00     0.029 A 
ATOM     53  N   UNL A   1      41.586  31.338  34.008  1.00  0.00    -0.354 N 
ATOM     54  N   UNL A   1      41.481  29.429  31.777  1.00  0.00    -0.248 NA
ATOM     55  C   UNL A   1      42.358  27.589  30.636  1.00  0.00     0.031 C 
ATOM     56  C   UNL A   1      43.145  31.048  35.564  1.00  0.00     0.029 A 
ATOM     57  C   UNL A   1      42.651  30.533  34.377  1.00  0.00     0.049 A 
ATOM     58  H   UNL A   1      41.040  31.217  33.198  1.00  0.00     0.167 HD
ATOM     59  C   UNL A   1      42.572  28.936  32.480  1.00  0.00     0.074 A 
ATOM     60  C   UNL A   1      43.061  27.787  31.744  1.00  0.00     0.031 C 
ATOM     61  C   UNL A   1      43.118  29.393  33.632  1.00  0.00     0.037 A 
BRANCH  48  62
ATOM     62  C   UNL A   1      40.334  34.391  35.957  1.00  0.00     0.057 A 
ATOM     63  C   UNL A   1      41.050  35.590  35.856  1.00  0.00     0.134 A 
ATOM     64  C   UNL A   1      39.538  34.202  37.093  1.00  0.00     0.134 A 
ATOM     65  F   UNL A   1      41.843  35.822  34.799  1.00  0.00    -0.206 F 
ATOM     66  C   UNL A   1      40.993  36.559  36.859  1.00  0.00     0.040 A 
ATOM     67  C   UNL A   1      39.456  35.174  38.091  1.00  0.00     0.040 A 
ATOM     68  F   UNL A   1      38.827  33.077  37.248  1.00  0.00    -0.206 F 
ATOM     69  C   UNL A   1      40.188  36.355  37.978  1.00  0.00     0.006 A 
ENDBRANCH  48  62
BRANCH  49  70
ATOM     70  C   UNL A   1      40.313  27.704  28.546  1.00  0.00     0.057 A 
ATOM     71  C   UNL A   1      39.608  26.505  28.693  1.00  0.00     0.134 A 
ATOM     72  C   UNL A   1      40.990  27.914  27.339  1.00  0.00     0.134 A 
ATOM     73  F   UNL A   1      38.955  26.243  29.834  1.00  0.00    -0.206 F 
ATOM     74  C   UNL A   1      39.580  25.544  27.680  1.00  0.00     0.040 A 
ATOM     75  C   UNL A   1      40.956  26.970  26.311  1.00  0.00     0.040 A 
ATOM     76  F   UNL A   1      41.679  29.046  27.136  1.00  0.00    -0.206 F 
ATOM     77  C   UNL A   1      40.252  25.778  26.482  1.00  0.00     0.006 A 
ENDBRANCH  49  70
BRANCH  61  78
ATOM     78  C   UNL A   1      44.298  28.648  34.178  1.00  0.00     0.057 A 
ATOM     79  C   UNL A   1      45.609  29.034  33.877  1.00  0.00     0.134 A 
ATOM     80  C   UNL A   1      44.119  27.582  35.068  1.00  0.00     0.134 A 
ATOM     81  F   UNL A   1      45.843  30.042  33.022  1.00  0.00    -0.206 F 
ATOM     82  C   UNL A   1      46.706  28.378  34.439  1.00  0.00     0.040 A 
ATOM     83  C   UNL A   1      45.207  26.932  35.651  1.00  0.00     0.040 A 
ATOM     84  F   UNL A   1      42.886  27.172  35.400  1.00  0.00    -0.206 F 
ATOM     85  C   UNL A   1      46.505  27.330  35.335  1.00  0.00     0.006 A 
ENDBRANCH  61  78
ENDBRANCH  35  36
ENDBRANCH  27  30
ENDBRANCH  25  26
ENDBRANCH   1  25
TORSDOF 12
ENDMDL
MODEL 3
REMARK VINA RESULT:     -12.1      0.389      6.257
REMARK SMILES Cc1cc2c(c(C)c1Br)C=C(C(=O)NCCCCNC(=O)c1ccc(-c3c4nc(c(-c5c(F)cccc5F)c5ccc([nH]5)c(-c5c(F)cccc5F)c5nc(c(-c6c(F)cccc6F)c6ccc3[nH]6)C=C5)C=C4)cc1)[C@@H](C(F)(F)F)O2
REMARK SMILES IDX 17 1 16 2 15 3 14 4 12 5 13 6 11 8 1 9 2 10 3 11 8 12 4 13
REMARK SMILES IDX 6 14 9 15 5 16 81 17 7 18 10 19 76 20 77 21 78 22 79 23
REMARK SMILES IDX 80 24 18 25 19 26 20 27 21 29 22 30 23 31 75 32 24 33 74 34
REMARK SMILES IDX 25 35 26 36 27 37 68 38 28 39 73 40 67 41 69 42 29 43 72 44
REMARK SMILES IDX 66 45 65 46 30 48 56 49 39 50 55 51 40 52 43 53 54 54 70 55
REMARK SMILES IDX 41 56 42 57 53 59 71 60 44 61 31 62 32 63 37 64 33 65 34 66
REMARK SMILES IDX 36 67 38 68 35 69 57 70 58 71 63 72 59 73 60 74 62 75 64 76
REMARK SMILES IDX 61 77 45 78 46 79 51 80 47 81 48 82 50 83 52 84 49 85
REMARK H PARENT 14 7 19 28 69 47 43 58
REMARK Flexibility Score: inf
ROOT
ATOM      1  C   UNL A   1      37.644  20.236  24.966  1.00  0.00     0.023 C 
ENDROOT
BRANCH   1   2
ATOM      2  C   UNL A   1      36.855  21.444  24.456  1.00  0.00     0.023 C 
BRANCH   2   3
ATOM      3  C   UNL A   1      36.900  22.655  25.382  1.00  0.00     0.116 C 
BRANCH   3   4
ATOM      4  N   UNL A   1      35.980  22.518  26.496  1.00  0.00    -0.352 N 
ATOM      5  C   UNL A   1      34.717  22.907  26.790  1.00  0.00     0.251 C 
ATOM      6  O   UNL A   1      34.314  22.568  27.908  1.00  0.00    -0.270 OA
ATOM      7  H   UNL A   1      36.382  22.008  27.236  1.00  0.00     0.163 HD
BRANCH   5   8
ATOM      8  C   UNL A   1      33.817  23.684  25.885  1.00  0.00     0.067 C 
ATOM      9  C   UNL A   1      30.406  28.105  22.547  1.00  0.00     0.046 C 
ATOM     10  C   UNL A   1      31.255  27.388  23.564  1.00  0.00    -0.033 A 
ATOM     11  C   UNL A   1      31.531  26.041  23.298  1.00  0.00     0.051 A 
ATOM     12  C   UNL A   1      31.819  27.981  24.714  1.00  0.00     0.024 A 
ATOM     13  C   UNL A   1      32.325  25.292  24.158  1.00  0.00     0.128 A 
ATOM     14  C   UNL A   1      32.620  27.221  25.609  1.00  0.00    -0.026 A 
ATOM     15  Br  UNL A   1      31.517  29.844  25.035  1.00  0.00    -0.050 Br
ATOM     16  C   UNL A   1      32.882  25.860  25.305  1.00  0.00     0.021 A 
ATOM     17  O   UNL A   1      32.550  24.003  23.770  1.00  0.00    -0.475 OA
ATOM     18  C   UNL A   1      33.221  27.816  26.863  1.00  0.00     0.046 C 
ATOM     19  C   UNL A   1      33.764  25.010  26.114  1.00  0.00     0.026 C 
ATOM     20  C   UNL A   1      32.975  23.078  24.804  1.00  0.00     0.314 C 
BRANCH  20  21
ATOM     21  C   UNL A   1      31.750  22.324  25.351  1.00  0.00     0.429 C 
ATOM     22  F   UNL A   1      31.999  20.992  25.404  1.00  0.00    -0.167 F 
ATOM     23  F   UNL A   1      31.430  22.701  26.612  1.00  0.00    -0.167 F 
ATOM     24  F   UNL A   1      30.645  22.501  24.594  1.00  0.00    -0.167 F 
ENDBRANCH  20  21
ENDBRANCH   5   8
ENDBRANCH   3   4
ENDBRANCH   2   3
ENDBRANCH   1   2
BRANCH   1  25
ATOM     25  C   UNL A   1      38.926  20.567  25.728  1.00  0.00     0.116 C 
BRANCH  25  26
ATOM     26  N   UNL A   1      39.924  19.506  25.692  1.00  0.00    -0.352 N 
ATOM     27  C   UNL A   1      41.245  19.574  26.065  1.00  0.00     0.251 C 
ATOM     28  H   UNL A   1      39.614  18.634  25.358  1.00  0.00     0.163 HD
ATOM     29  O   UNL A   1      41.992  18.614  25.913  1.00  0.00    -0.269 OA
BRANCH  27  30
ATOM     30  C   UNL A   1      41.759  20.842  26.610  1.00  0.00     0.039 A 
ATOM     31  C   UNL A   1      42.252  21.802  25.724  1.00  0.00     0.014 A 
ATOM     32  C   UNL A   1      41.678  21.104  27.980  1.00  0.00     0.014 A 
ATOM     33  C   UNL A   1      42.597  23.063  26.206  1.00  0.00     0.010 A 
ATOM     34  C   UNL A   1      41.966  22.379  28.450  1.00  0.00     0.010 A 
ATOM     35  C   UNL A   1      42.418  23.371  27.565  1.00  0.00    -0.014 A 
BRANCH  35  36
ATOM     36  C   UNL A   1      42.700  24.730  28.081  1.00  0.00     0.031 A 
ATOM     37  C   UNL A   1      44.101  25.111  28.461  1.00  0.00     0.074 A 
ATOM     38  C   UNL A   1      41.686  25.599  28.257  1.00  0.00     0.049 A 
ATOM     39  N   UNL A   1      44.539  26.227  28.982  1.00  0.00    -0.248 NA
ATOM     40  C   UNL A   1      45.142  24.094  28.246  1.00  0.00     0.031 C 
ATOM     41  C   UNL A   1      40.278  25.328  27.961  1.00  0.00     0.029 A 
ATOM     42  N   UNL A   1      41.685  26.886  28.729  1.00  0.00    -0.354 N 
ATOM     43  C   UNL A   1      45.902  26.044  29.166  1.00  0.00     0.074 A 
ATOM     44  C   UNL A   1      46.211  24.694  28.749  1.00  0.00     0.031 C 
ATOM     45  C   UNL A   1      39.554  26.426  28.230  1.00  0.00     0.029 A 
ATOM     46  C   UNL A   1      40.441  27.467  28.743  1.00  0.00     0.049 A 
ATOM     47  H   UNL A   1      42.499  27.350  29.030  1.00  0.00     0.167 HD
ATOM     48  C   UNL A   1      46.819  26.931  29.616  1.00  0.00     0.037 A 
ATOM     49  C   UNL A   1      40.060  28.701  29.124  1.00  0.00     0.037 A 
ATOM     50  C   UNL A   1      46.514  28.282  30.004  1.00  0.00     0.049 A 
ATOM     51  C   UNL A   1      41.096  29.666  29.627  1.00  0.00     0.074 A 
ATOM     52  C   UNL A   1      47.381  29.272  30.431  1.00  0.00     0.029 A 
ATOM     53  N   UNL A   1      45.242  28.832  30.005  1.00  0.00    -0.354 N 
ATOM     54  N   UNL A   1      42.389  29.493  29.758  1.00  0.00    -0.248 NA
ATOM     55  C   UNL A   1      40.621  30.994  30.038  1.00  0.00     0.031 C 
ATOM     56  C   UNL A   1      46.627  30.416  30.716  1.00  0.00     0.029 A 
ATOM     57  C   UNL A   1      45.297  30.147  30.436  1.00  0.00     0.049 A 
ATOM     58  H   UNL A   1      44.420  28.359  29.738  1.00  0.00     0.167 HD
ATOM     59  C   UNL A   1      42.885  30.694  30.247  1.00  0.00     0.074 A 
ATOM     60  C   UNL A   1      41.755  31.592  30.379  1.00  0.00     0.031 C 
ATOM     61  C   UNL A   1      44.161  31.023  30.557  1.00  0.00     0.037 A 
BRANCH  48  62
ATOM     62  C   UNL A   1      48.242  26.469  29.695  1.00  0.00     0.057 A 
ATOM     63  C   UNL A   1      49.141  26.692  28.645  1.00  0.00     0.134 A 
ATOM     64  C   UNL A   1      48.725  25.822  30.838  1.00  0.00     0.134 A 
ATOM     65  F   UNL A   1      48.733  27.293  27.517  1.00  0.00    -0.206 F 
ATOM     66  C   UNL A   1      50.469  26.269  28.721  1.00  0.00     0.040 A 
ATOM     67  C   UNL A   1      50.057  25.415  30.934  1.00  0.00     0.040 A 
ATOM     68  F   UNL A   1      47.915  25.580  31.879  1.00  0.00    -0.206 F 
ATOM     69  C   UNL A   1      50.932  25.634  29.872  1.00  0.00     0.006 A 
ENDBRANCH  48  62
BRANCH  49  70
ATOM     70  C   UNL A   1      38.640  29.106  29.002  1.00  0.00     0.057 A 
ATOM     71  C   UNL A   1      37.779  29.034  30.104  1.00  0.00     0.134 A 
ATOM     72  C   UNL A   1      38.111  29.583  27.798  1.00  0.00     0.134 A 
ATOM     73  F   UNL A   1      38.226  28.570  31.279  1.00  0.00    -0.206 F 
ATOM     74  C   UNL A   1      36.440  29.417  30.011  1.00  0.00     0.040 A 
ATOM     75  C   UNL A   1      36.778  29.985  27.695  1.00  0.00     0.040 A 
ATOM     76  F   UNL A   1      38.887  29.679  26.708  1.00  0.00    -0.206 F 
ATOM     77  C   UNL A   1      35.937  29.898  28.804  1.00  0.00     0.006 A 
ENDBRANCH  49  70
BRANCH  61  78
ATOM     78  C   UNL A   1      44.413  32.413  31.058  1.00  0.00     0.057 A 
ATOM     79  C   UNL A   1      44.654  33.474  30.178  1.00  0.00     0.134 A 
ATOM     80  C   UNL A   1      44.342  32.702  32.426  1.00  0.00     0.134 A 
ATOM     81  F   UNL A   1      44.743  33.257  28.857  1.00  0.00    -0.206 F 
ATOM     82  C   UNL A   1      44.824  34.779  30.645  1.00  0.00     0.040 A 
ATOM     83  C   UNL A   1      44.491  34.005  32.902  1.00  0.00     0.040 A 
ATOM     84  F   UNL A   1      44.107  31.727  33.317  1.00  0.00    -0.206 F 
ATOM     85  C   UNL A   1      44.733  35.047  32.010  1.00  0.00     0.006 A 
ENDBRANCH  61  78
ENDBRANCH  35  36
ENDBRANCH  27  30
ENDBRANCH  25  26
ENDBRANCH   1  25
TORSDOF 12
ENDMDL
