MODEL 1
REMARK VINA RESULT:     -12.4      0.000      0.000
REMARK SMILES Cn1ncc(C(=O)NCCCCNC(=O)c2ccc(-c3c4nc(c(-c5c(F)cccc5F)c5ccc([nH]5)c(-c5c(F)cccc5F)c5nc(c(-c6c(F)cccc6F)c6ccc3[nH]6)C=C5)C=C4)cc2)c1C(=O)N1CCN(S(C)(=O)=O)CC1
REMARK SMILES IDX 10 1 9 2 8 3 6 4 7 5 5 7 1 8 2 9 3 10 70 11 4 12 71 13 72 14
REMARK SMILES IDX 73 15 74 16 82 17 75 18 81 19 76 20 77 21 78 22 79 23 80 24
REMARK SMILES IDX 11 25 12 26 13 27 14 28 15 30 16 31 17 32 69 33 18 34 68 35
REMARK SMILES IDX 19 36 20 37 21 38 62 39 22 40 67 41 61 42 63 43 23 44 66 45
REMARK SMILES IDX 60 46 59 47 24 49 50 50 33 51 49 52 34 53 37 54 48 55 64 56
REMARK SMILES IDX 35 57 36 58 47 60 65 61 38 62 25 63 26 64 31 65 27 66 28 67
REMARK SMILES IDX 30 68 32 69 29 70 51 71 52 72 57 73 53 74 54 75 56 76 58 77
REMARK SMILES IDX 55 78 39 79 40 80 45 81 41 82 42 83 44 84 46 85 43 86
REMARK H PARENT 8 6 13 29 63 48 37 59
REMARK Flexibility Score: inf
ROOT
ATOM      1  C   UNL A   1      31.717  30.852  25.888  1.00  0.00     0.023 C 
ENDROOT
BRANCH   1   2
ATOM      2  C   UNL A   1      32.758  29.817  26.292  1.00  0.00     0.116 C 
BRANCH   2   3
ATOM      3  N   UNL A   1      33.572  29.322  25.212  1.00  0.00    -0.352 N 
ATOM      4  C   UNL A   1      33.217  28.666  24.059  1.00  0.00     0.255 C 
ATOM      5  O   UNL A   1      34.134  28.370  23.289  1.00  0.00    -0.269 OA
ATOM      6  H   UNL A   1      34.539  29.480  25.317  1.00  0.00     0.163 HD
BRANCH   4   7
ATOM      7  C   UNL A   1      31.855  28.221  23.788  1.00  0.00     0.090 A 
ATOM      8  C   UNL A   1      28.583  26.665  23.923  1.00  0.00     0.174 C 
ATOM      9  N   UNL A   1      29.826  27.363  23.687  1.00  0.00    -0.262 N 
ATOM     10  N   UNL A   1      29.821  28.308  22.734  1.00  0.00    -0.180 NA
ATOM     11  C   UNL A   1      31.026  27.245  24.354  1.00  0.00     0.138 A 
ATOM     12  C   UNL A   1      31.018  28.873  22.847  1.00  0.00     0.149 A 
BRANCH  11  13
ATOM     13  C   UNL A   1      31.241  26.450  25.541  1.00  0.00     0.273 C 
ATOM     14  O   UNL A   1      31.040  26.937  26.652  1.00  0.00    -0.267 OA
ATOM     15  N   UNL A   1      31.706  25.134  25.432  1.00  0.00    -0.335 N 
ATOM     16  C   UNL A   1      31.749  24.320  26.652  1.00  0.00     0.136 C 
ATOM     17  C   UNL A   1      32.336  24.493  24.263  1.00  0.00     0.136 C 
ATOM     18  C   UNL A   1      31.111  22.950  26.415  1.00  0.00     0.123 C 
ATOM     19  C   UNL A   1      31.813  23.059  24.019  1.00  0.00     0.123 C 
ATOM     20  N   UNL A   1      31.751  22.262  25.270  1.00  0.00    -0.199 NA
BRANCH  20  21
ATOM     21  S   UNL A   1      32.818  20.995  25.537  1.00  0.00     0.211 S 
ATOM     22  C   UNL A   1      34.132  21.329  24.383  1.00  0.00     0.176 C 
ATOM     23  O   UNL A   1      33.355  21.134  26.871  1.00  0.00    -0.213 OA
ATOM     24  O   UNL A   1      32.166  19.775  25.110  1.00  0.00    -0.213 OA
ENDBRANCH  20  21
ENDBRANCH  11  13
ENDBRANCH   4   7
ENDBRANCH   2   3
ENDBRANCH   1   2
BRANCH   1  25
ATOM     25  C   UNL A   1      31.470  31.990  26.869  1.00  0.00     0.023 C 
BRANCH  25  26
ATOM     26  C   UNL A   1      32.694  32.810  27.261  1.00  0.00     0.116 C 
BRANCH  26  27
ATOM     27  N   UNL A   1      32.392  34.197  27.592  1.00  0.00    -0.352 N 
ATOM     28  C   UNL A   1      32.986  35.024  28.519  1.00  0.00     0.251 C 
ATOM     29  H   UNL A   1      31.657  34.602  27.078  1.00  0.00     0.163 HD
ATOM     30  O   UNL A   1      32.529  36.142  28.734  1.00  0.00    -0.269 OA
BRANCH  28  31
ATOM     31  C   UNL A   1      34.151  34.532  29.286  1.00  0.00     0.039 A 
ATOM     32  C   UNL A   1      33.944  33.905  30.516  1.00  0.00     0.014 A 
ATOM     33  C   UNL A   1      35.436  34.622  28.749  1.00  0.00     0.014 A 
ATOM     34  C   UNL A   1      35.015  33.275  31.155  1.00  0.00     0.010 A 
ATOM     35  C   UNL A   1      36.476  33.907  29.333  1.00  0.00     0.010 A 
ATOM     36  C   UNL A   1      36.277  33.221  30.540  1.00  0.00    -0.014 A 
BRANCH  36  37
ATOM     37  C   UNL A   1      37.399  32.446  31.134  1.00  0.00     0.031 A 
ATOM     38  C   UNL A   1      37.927  32.806  32.496  1.00  0.00     0.074 A 
ATOM     39  C   UNL A   1      37.993  31.468  30.421  1.00  0.00     0.049 A 
ATOM     40  N   UNL A   1      38.937  32.295  33.154  1.00  0.00    -0.248 NA
ATOM     41  C   UNL A   1      37.250  33.907  33.199  1.00  0.00     0.031 C 
ATOM     42  C   UNL A   1      37.618  31.060  29.065  1.00  0.00     0.029 A 
ATOM     43  N   UNL A   1      39.047  30.646  30.733  1.00  0.00    -0.354 N 
ATOM     44  C   UNL A   1      39.022  33.018  34.336  1.00  0.00     0.074 A 
ATOM     45  C   UNL A   1      38.009  34.049  34.274  1.00  0.00     0.031 C 
ATOM     46  C   UNL A   1      38.408  30.047  28.676  1.00  0.00     0.029 A 
ATOM     47  C   UNL A   1      39.374  29.762  29.731  1.00  0.00     0.049 A 
ATOM     48  H   UNL A   1      39.524  30.686  31.593  1.00  0.00     0.167 HD
ATOM     49  C   UNL A   1      39.847  32.826  35.393  1.00  0.00     0.037 A 
ATOM     50  C   UNL A   1      40.347  28.833  29.667  1.00  0.00     0.037 A 
ATOM     51  C   UNL A   1      40.847  31.792  35.457  1.00  0.00     0.049 A 
ATOM     52  C   UNL A   1      41.266  28.649  30.844  1.00  0.00     0.074 A 
ATOM     53  C   UNL A   1      41.696  31.478  36.504  1.00  0.00     0.029 A 
ATOM     54  N   UNL A   1      41.138  30.909  34.428  1.00  0.00    -0.354 N 
ATOM     55  N   UNL A   1      41.283  29.289  31.988  1.00  0.00    -0.248 NA
ATOM     56  C   UNL A   1      42.295  27.607  30.724  1.00  0.00     0.031 C 
ATOM     57  C   UNL A   1      42.540  30.445  36.087  1.00  0.00     0.029 A 
ATOM     58  C   UNL A   1      42.174  30.069  34.804  1.00  0.00     0.049 A 
ATOM     59  H   UNL A   1      40.677  30.883  33.558  1.00  0.00     0.167 HD
ATOM     60  C   UNL A   1      42.303  28.710  32.734  1.00  0.00     0.074 A 
ATOM     61  C   UNL A   1      42.869  27.656  31.918  1.00  0.00     0.031 C 
ATOM     62  C   UNL A   1      42.728  29.022  33.984  1.00  0.00     0.037 A 
BRANCH  49  63
ATOM     63  C   UNL A   1      39.698  33.757  36.562  1.00  0.00     0.057 A 
ATOM     64  C   UNL A   1      38.829  33.478  37.627  1.00  0.00     0.134 A 
ATOM     65  C   UNL A   1      40.441  34.942  36.633  1.00  0.00     0.134 A 
ATOM     66  F   UNL A   1      38.078  32.366  37.619  1.00  0.00    -0.206 F 
ATOM     67  C   UNL A   1      38.676  34.360  38.699  1.00  0.00     0.040 A 
ATOM     68  C   UNL A   1      40.322  35.816  37.716  1.00  0.00     0.040 A 
ATOM     69  F   UNL A   1      41.298  35.271  35.653  1.00  0.00    -0.206 F 
ATOM     70  C   UNL A   1      39.430  35.531  38.747  1.00  0.00     0.006 A 
ENDBRANCH  49  63
BRANCH  50  71
ATOM     71  C   UNL A   1      40.490  27.991  28.451  1.00  0.00     0.057 A 
ATOM     72  C   UNL A   1      39.879  26.734  28.366  1.00  0.00     0.134 A 
ATOM     73  C   UNL A   1      41.242  28.416  27.350  1.00  0.00     0.134 A 
ATOM     74  F   UNL A   1      39.160  26.261  29.395  1.00  0.00    -0.206 F 
ATOM     75  C   UNL A   1      40.025  25.924  27.237  1.00  0.00     0.040 A 
ATOM     76  C   UNL A   1      41.373  27.629  26.204  1.00  0.00     0.040 A 
ATOM     77  F   UNL A   1      41.847  29.614  27.364  1.00  0.00    -0.206 F 
ATOM     78  C   UNL A   1      40.769  26.376  26.149  1.00  0.00     0.006 A 
ENDBRANCH  50  71
BRANCH  62  79
ATOM     79  C   UNL A   1      43.836  28.189  34.563  1.00  0.00     0.057 A 
ATOM     80  C   UNL A   1      45.180  28.570  34.471  1.00  0.00     0.134 A 
ATOM     81  C   UNL A   1      43.546  27.009  35.262  1.00  0.00     0.134 A 
ATOM     82  F   UNL A   1      45.529  29.683  33.806  1.00  0.00    -0.206 F 
ATOM     83  C   UNL A   1      46.199  27.795  35.030  1.00  0.00     0.040 A 
ATOM     84  C   UNL A   1      44.553  26.244  35.852  1.00  0.00     0.040 A 
ATOM     85  F   UNL A   1      42.279  26.590  35.397  1.00  0.00    -0.206 F 
ATOM     86  C   UNL A   1      45.885  26.633  35.730  1.00  0.00     0.006 A 
ENDBRANCH  62  79
ENDBRANCH  36  37
ENDBRANCH  28  31
ENDBRANCH  26  27
ENDBRANCH  25  26
ENDBRANCH   1  25
TORSDOF 13
ENDMDL
MODEL 2
REMARK VINA RESULT:     -12.0      0.692      6.235
REMARK SMILES Cn1ncc(C(=O)NCCCCNC(=O)c2ccc(-c3c4nc(c(-c5c(F)cccc5F)c5ccc([nH]5)c(-c5c(F)cccc5F)c5nc(c(-c6c(F)cccc6F)c6ccc3[nH]6)C=C5)C=C4)cc2)c1C(=O)N1CCN(S(C)(=O)=O)CC1
REMARK SMILES IDX 10 1 9 2 8 3 6 4 7 5 5 7 1 8 2 9 3 10 70 11 4 12 71 13 72 14
REMARK SMILES IDX 73 15 74 16 82 17 75 18 81 19 76 20 77 21 78 22 79 23 80 24
REMARK SMILES IDX 11 25 12 26 13 27 14 28 15 30 16 31 17 32 69 33 18 34 68 35
REMARK SMILES IDX 19 36 20 37 21 38 62 39 22 40 67 41 61 42 63 43 23 44 66 45
REMARK SMILES IDX 60 46 59 47 24 49 50 50 33 51 49 52 34 53 37 54 48 55 64 56
REMARK SMILES IDX 35 57 36 58 47 60 65 61 38 62 25 63 26 64 31 65 27 66 28 67
REMARK SMILES IDX 30 68 32 69 29 70 51 71 52 72 57 73 53 74 54 75 56 76 58 77
REMARK SMILES IDX 55 78 39 79 40 80 45 81 41 82 42 83 44 84 46 85 43 86
REMARK H PARENT 8 6 13 29 63 48 37 59
REMARK Flexibility Score: inf
ROOT
ATOM      1  C   UNL A   1      31.920  30.668  25.976  1.00  0.00     0.023 C 
ENDROOT
BRANCH   1   2
ATOM      2  C   UNL A   1      32.876  29.522  26.276  1.00  0.00     0.116 C 
BRANCH   2   3
ATOM      3  N   UNL A   1      33.646  29.063  25.148  1.00  0.00    -0.352 N 
ATOM      4  C   UNL A   1      33.241  28.462  23.983  1.00  0.00     0.255 C 
ATOM      5  O   UNL A   1      34.125  28.185  23.169  1.00  0.00    -0.269 OA
ATOM      6  H   UNL A   1      34.617  29.203  25.226  1.00  0.00     0.163 HD
BRANCH   4   7
ATOM      7  C   UNL A   1      31.863  28.047  23.741  1.00  0.00     0.090 A 
ATOM      8  C   UNL A   1      28.560  26.568  23.951  1.00  0.00     0.174 C 
ATOM      9  N   UNL A   1      29.813  27.235  23.686  1.00  0.00    -0.262 N 
ATOM     10  N   UNL A   1      29.811  28.176  22.728  1.00  0.00    -0.180 NA
ATOM     11  C   UNL A   1      31.024  27.092  24.329  1.00  0.00     0.138 A 
ATOM     12  C   UNL A   1      31.023  28.714  22.814  1.00  0.00     0.149 A 
BRANCH  11  13
ATOM     13  C   UNL A   1      31.245  26.298  25.516  1.00  0.00     0.273 C 
ATOM     14  O   UNL A   1      30.896  26.726  26.614  1.00  0.00    -0.267 OA
ATOM     15  N   UNL A   1      31.880  25.055  25.422  1.00  0.00    -0.335 N 
ATOM     16  C   UNL A   1      31.931  24.220  26.627  1.00  0.00     0.136 C 
ATOM     17  C   UNL A   1      32.677  24.530  24.297  1.00  0.00     0.136 C 
ATOM     18  C   UNL A   1      31.494  22.787  26.315  1.00  0.00     0.123 C 
ATOM     19  C   UNL A   1      32.362  23.050  23.986  1.00  0.00     0.123 C 
ATOM     20  N   UNL A   1      32.305  22.217  25.214  1.00  0.00    -0.199 NA
BRANCH  20  21
ATOM     21  S   UNL A   1      33.501  21.087  25.545  1.00  0.00     0.211 S 
ATOM     22  C   UNL A   1      32.741  19.551  25.064  1.00  0.00     0.176 C 
ATOM     23  O   UNL A   1      34.609  21.332  24.652  1.00  0.00    -0.213 OA
ATOM     24  O   UNL A   1      33.683  21.050  26.981  1.00  0.00    -0.213 OA
ENDBRANCH  20  21
ENDBRANCH  11  13
ENDBRANCH   4   7
ENDBRANCH   2   3
ENDBRANCH   1   2
BRANCH   1  25
ATOM     25  C   UNL A   1      31.700  31.682  27.090  1.00  0.00     0.023 C 
BRANCH  25  26
ATOM     26  C   UNL A   1      32.860  32.630  27.369  1.00  0.00     0.116 C 
BRANCH  26  27
ATOM     27  N   UNL A   1      32.452  34.008  27.609  1.00  0.00    -0.352 N 
ATOM     28  C   UNL A   1      32.963  34.931  28.495  1.00  0.00     0.251 C 
ATOM     29  H   UNL A   1      31.701  34.327  27.058  1.00  0.00     0.163 HD
ATOM     30  O   UNL A   1      32.422  36.023  28.633  1.00  0.00    -0.269 OA
BRANCH  28  31
ATOM     31  C   UNL A   1      34.143  34.572  29.311  1.00  0.00     0.039 A 
ATOM     32  C   UNL A   1      33.956  34.069  30.599  1.00  0.00     0.014 A 
ATOM     33  C   UNL A   1      35.427  34.661  28.769  1.00  0.00     0.014 A 
ATOM     34  C   UNL A   1      35.048  33.557  31.303  1.00  0.00     0.010 A 
ATOM     35  C   UNL A   1      36.492  34.057  29.427  1.00  0.00     0.010 A 
ATOM     36  C   UNL A   1      36.315  33.492  30.700  1.00  0.00    -0.014 A 
BRANCH  36  37
ATOM     37  C   UNL A   1      37.465  32.833  31.374  1.00  0.00     0.031 A 
ATOM     38  C   UNL A   1      38.132  31.644  30.738  1.00  0.00     0.074 A 
ATOM     39  C   UNL A   1      37.863  33.254  32.591  1.00  0.00     0.049 A 
ATOM     40  N   UNL A   1      39.102  30.895  31.198  1.00  0.00    -0.248 NA
ATOM     41  C   UNL A   1      37.619  31.221  29.425  1.00  0.00     0.031 C 
ATOM     42  C   UNL A   1      37.262  34.357  33.345  1.00  0.00     0.029 A 
ATOM     43  N   UNL A   1      38.861  32.797  33.415  1.00  0.00    -0.354 N 
ATOM     44  C   UNL A   1      39.306  29.911  30.239  1.00  0.00     0.074 A 
ATOM     45  C   UNL A   1      38.312  30.113  29.209  1.00  0.00     0.031 C 
ATOM     46  C   UNL A   1      37.923  34.509  34.503  1.00  0.00     0.029 A 
ATOM     47  C   UNL A   1      38.963  33.490  34.598  1.00  0.00     0.049 A 
ATOM     48  H   UNL A   1      39.450  32.043  33.180  1.00  0.00     0.167 HD
ATOM     49  C   UNL A   1      40.252  28.942  30.203  1.00  0.00     0.037 A 
ATOM     50  C   UNL A   1      39.794  33.319  35.644  1.00  0.00     0.037 A 
ATOM     51  C   UNL A   1      41.248  28.749  31.225  1.00  0.00     0.049 A 
ATOM     52  C   UNL A   1      40.825  32.225  35.592  1.00  0.00     0.074 A 
ATOM     53  C   UNL A   1      42.284  27.833  31.256  1.00  0.00     0.029 A 
ATOM     54  N   UNL A   1      41.325  29.480  32.401  1.00  0.00    -0.354 N 
ATOM     55  N   UNL A   1      41.056  31.350  34.643  1.00  0.00    -0.248 NA
ATOM     56  C   UNL A   1      41.716  32.099  36.754  1.00  0.00     0.031 C 
ATOM     57  C   UNL A   1      42.952  27.970  32.476  1.00  0.00     0.029 A 
ATOM     58  C   UNL A   1      42.374  29.016  33.178  1.00  0.00     0.049 A 
ATOM     59  H   UNL A   1      40.723  30.219  32.647  1.00  0.00     0.167 HD
ATOM     60  C   UNL A   1      42.135  30.591  35.079  1.00  0.00     0.074 A 
ATOM     61  C   UNL A   1      42.522  31.119  36.371  1.00  0.00     0.031 C 
ATOM     62  C   UNL A   1      42.751  29.552  34.462  1.00  0.00     0.037 A 
BRANCH  49  63
ATOM     63  C   UNL A   1      40.249  28.020  29.017  1.00  0.00     0.057 A 
ATOM     64  C   UNL A   1      39.529  26.817  29.014  1.00  0.00     0.134 A 
ATOM     65  C   UNL A   1      40.962  28.345  27.856  1.00  0.00     0.134 A 
ATOM     66  F   UNL A   1      38.833  26.438  30.097  1.00  0.00    -0.206 F 
ATOM     67  C   UNL A   1      39.550  25.953  27.918  1.00  0.00     0.040 A 
ATOM     68  C   UNL A   1      40.964  27.505  26.740  1.00  0.00     0.040 A 
ATOM     69  F   UNL A   1      41.668  29.484  27.784  1.00  0.00    -0.206 F 
ATOM     70  C   UNL A   1      40.265  26.300  26.774  1.00  0.00     0.006 A 
ENDBRANCH  49  63
BRANCH  50  71
ATOM     71  C   UNL A   1      39.698  34.219  36.823  1.00  0.00     0.057 A 
ATOM     72  C   UNL A   1      40.366  35.450  36.849  1.00  0.00     0.134 A 
ATOM     73  C   UNL A   1      38.945  33.873  37.950  1.00  0.00     0.134 A 
ATOM     74  F   UNL A   1      41.119  35.832  35.807  1.00  0.00    -0.206 F 
ATOM     75  C   UNL A   1      40.302  36.294  37.960  1.00  0.00     0.040 A 
ATOM     76  C   UNL A   1      38.849  34.719  39.056  1.00  0.00     0.040 A 
ATOM     77  F   UNL A   1      38.274  32.711  37.987  1.00  0.00    -0.206 F 
ATOM     78  C   UNL A   1      39.535  35.931  39.065  1.00  0.00     0.006 A 
ENDBRANCH  50  71
BRANCH  62  79
ATOM     79  C   UNL A   1      43.934  28.940  35.157  1.00  0.00     0.057 A 
ATOM     80  C   UNL A   1      43.803  27.856  36.034  1.00  0.00     0.134 A 
ATOM     81  C   UNL A   1      45.228  29.417  34.909  1.00  0.00     0.134 A 
ATOM     82  F   UNL A   1      42.592  27.357  36.325  1.00  0.00    -0.206 F 
ATOM     83  C   UNL A   1      44.914  27.285  36.660  1.00  0.00     0.040 A 
ATOM     84  C   UNL A   1      46.348  28.834  35.504  1.00  0.00     0.040 A 
ATOM     85  F   UNL A   1      45.427  30.446  34.072  1.00  0.00    -0.206 F 
ATOM     86  C   UNL A   1      46.191  27.770  36.388  1.00  0.00     0.006 A 
ENDBRANCH  62  79
ENDBRANCH  36  37
ENDBRANCH  28  31
ENDBRANCH  26  27
ENDBRANCH  25  26
ENDBRANCH   1  25
TORSDOF 13
ENDMDL
MODEL 3
REMARK VINA RESULT:     -12.0      4.862      8.592
REMARK SMILES Cn1ncc(C(=O)NCCCCNC(=O)c2ccc(-c3c4nc(c(-c5c(F)cccc5F)c5ccc([nH]5)c(-c5c(F)cccc5F)c5nc(c(-c6c(F)cccc6F)c6ccc3[nH]6)C=C5)C=C4)cc2)c1C(=O)N1CCN(S(C)(=O)=O)CC1
REMARK SMILES IDX 10 1 9 2 8 3 6 4 7 5 5 7 1 8 2 9 3 10 70 11 4 12 71 13 72 14
REMARK SMILES IDX 73 15 74 16 82 17 75 18 81 19 76 20 77 21 78 22 79 23 80 24
REMARK SMILES IDX 11 25 12 26 13 27 14 28 15 30 16 31 17 32 69 33 18 34 68 35
REMARK SMILES IDX 19 36 20 37 21 38 62 39 22 40 67 41 61 42 63 43 23 44 66 45
REMARK SMILES IDX 60 46 59 47 24 49 50 50 33 51 49 52 34 53 37 54 48 55 64 56
REMARK SMILES IDX 35 57 36 58 47 60 65 61 38 62 25 63 26 64 31 65 27 66 28 67
REMARK SMILES IDX 30 68 32 69 29 70 51 71 52 72 57 73 53 74 54 75 56 76 58 77
REMARK SMILES IDX 55 78 39 79 40 80 45 81 41 82 42 83 44 84 46 85 43 86
REMARK H PARENT 8 6 13 29 63 48 37 59
REMARK Flexibility Score: inf
ROOT
ATOM      1  C   UNL A   1      32.400  29.928  27.210  1.00  0.00     0.023 C 
ENDROOT
BRANCH   1   2
ATOM      2  C   UNL A   1      32.138  30.337  25.767  1.00  0.00     0.116 C 
BRANCH   2   3
ATOM      3  N   UNL A   1      32.957  29.669  24.789  1.00  0.00    -0.352 N 
ATOM      4  C   UNL A   1      32.610  28.808  23.778  1.00  0.00     0.255 C 
ATOM      5  O   UNL A   1      33.528  28.392  23.068  1.00  0.00    -0.269 OA
ATOM      6  H   UNL A   1      33.921  29.860  24.857  1.00  0.00     0.163 HD
BRANCH   4   7
ATOM      7  C   UNL A   1      31.255  28.297  23.602  1.00  0.00     0.090 A 
ATOM      8  C   UNL A   1      28.093  26.556  23.944  1.00  0.00     0.174 C 
ATOM      9  N   UNL A   1      29.273  27.330  23.634  1.00  0.00    -0.262 N 
ATOM     10  N   UNL A   1      29.137  28.307  22.724  1.00  0.00    -0.180 NA
ATOM     11  C   UNL A   1      30.530  27.255  24.194  1.00  0.00     0.138 A 
ATOM     12  C   UNL A   1      30.308  28.935  22.761  1.00  0.00     0.149 A 
BRANCH  11  13
ATOM     13  C   UNL A   1      30.887  26.431  25.326  1.00  0.00     0.273 C 
ATOM     14  O   UNL A   1      30.756  26.867  26.469  1.00  0.00    -0.267 OA
ATOM     15  N   UNL A   1      31.408  25.149  25.126  1.00  0.00    -0.335 N 
ATOM     16  C   UNL A   1      31.598  24.295  26.304  1.00  0.00     0.136 C 
ATOM     17  C   UNL A   1      31.969  24.585  23.883  1.00  0.00     0.136 C 
ATOM     18  C   UNL A   1      31.014  22.901  26.065  1.00  0.00     0.123 C 
ATOM     19  C   UNL A   1      31.503  23.135  23.626  1.00  0.00     0.123 C 
ATOM     20  N   UNL A   1      31.590  22.291  24.844  1.00  0.00    -0.199 NA
BRANCH  20  21
ATOM     21  S   UNL A   1      32.740  21.076  24.970  1.00  0.00     0.211 S 
ATOM     22  C   UNL A   1      33.644  21.533  26.434  1.00  0.00     0.176 C 
ATOM     23  O   UNL A   1      32.054  19.835  25.243  1.00  0.00    -0.213 OA
ATOM     24  O   UNL A   1      33.642  21.208  23.845  1.00  0.00    -0.213 OA
ENDBRANCH  20  21
ENDBRANCH  11  13
ENDBRANCH   4   7
ENDBRANCH   2   3
ENDBRANCH   1   2
BRANCH   1  25
ATOM     25  C   UNL A   1      33.444  28.842  27.432  1.00  0.00     0.023 C 
BRANCH  25  26
ATOM     26  C   UNL A   1      34.874  29.325  27.642  1.00  0.00     0.116 C 
BRANCH  26  27
ATOM     27  N   UNL A   1      35.041  30.187  28.806  1.00  0.00    -0.352 N 
ATOM     28  C   UNL A   1      36.153  30.392  29.591  1.00  0.00     0.251 C 
ATOM     29  H   UNL A   1      34.240  30.696  29.071  1.00  0.00     0.163 HD
ATOM     30  O   UNL A   1      36.080  31.083  30.601  1.00  0.00    -0.269 OA
BRANCH  28  31
ATOM     31  C   UNL A   1      37.426  29.732  29.227  1.00  0.00     0.039 A 
ATOM     32  C   UNL A   1      37.892  29.821  27.915  1.00  0.00     0.014 A 
ATOM     33  C   UNL A   1      38.192  29.093  30.204  1.00  0.00     0.014 A 
ATOM     34  C   UNL A   1      39.175  29.362  27.607  1.00  0.00     0.010 A 
ATOM     35  C   UNL A   1      39.504  28.733  29.920  1.00  0.00     0.010 A 
ATOM     36  C   UNL A   1      40.014  28.868  28.620  1.00  0.00    -0.014 A 
BRANCH  36  37
ATOM     37  C   UNL A   1      41.428  28.496  28.346  1.00  0.00     0.031 A 
ATOM     38  C   UNL A   1      41.781  27.075  28.004  1.00  0.00     0.074 A 
ATOM     39  C   UNL A   1      42.403  29.417  28.478  1.00  0.00     0.049 A 
ATOM     40  N   UNL A   1      42.959  26.541  27.798  1.00  0.00    -0.248 NA
ATOM     41  C   UNL A   1      40.667  26.119  27.913  1.00  0.00     0.031 C 
ATOM     42  C   UNL A   1      42.202  30.816  28.864  1.00  0.00     0.029 A 
ATOM     43  N   UNL A   1      43.762  29.312  28.313  1.00  0.00    -0.354 N 
ATOM     44  C   UNL A   1      42.727  25.192  27.565  1.00  0.00     0.074 A 
ATOM     45  C   UNL A   1      41.306  24.974  27.727  1.00  0.00     0.031 C 
ATOM     46  C   UNL A   1      43.388  31.444  28.876  1.00  0.00     0.029 A 
ATOM     47  C   UNL A   1      44.438  30.487  28.544  1.00  0.00     0.049 A 
ATOM     48  H   UNL A   1      44.210  28.475  28.054  1.00  0.00     0.167 HD
ATOM     49  C   UNL A   1      43.609  24.225  27.219  1.00  0.00     0.037 A 
ATOM     50  C   UNL A   1      45.757  30.761  28.501  1.00  0.00     0.037 A 
ATOM     51  C   UNL A   1      45.022  24.446  27.046  1.00  0.00     0.049 A 
ATOM     52  C   UNL A   1      46.723  29.667  28.133  1.00  0.00     0.074 A 
ATOM     53  C   UNL A   1      45.992  23.546  26.644  1.00  0.00     0.029 A 
ATOM     54  N   UNL A   1      45.666  25.652  27.277  1.00  0.00    -0.354 N 
ATOM     55  N   UNL A   1      46.479  28.413  27.839  1.00  0.00    -0.248 NA
ATOM     56  C   UNL A   1      48.146  30.030  28.084  1.00  0.00     0.031 C 
ATOM     57  C   UNL A   1      47.231  24.192  26.687  1.00  0.00     0.029 A 
ATOM     58  C   UNL A   1      47.026  25.513  27.052  1.00  0.00     0.049 A 
ATOM     59  H   UNL A   1      45.223  26.485  27.558  1.00  0.00     0.167 HD
ATOM     60  C   UNL A   1      47.712  27.845  27.542  1.00  0.00     0.074 A 
ATOM     61  C   UNL A   1      48.698  28.896  27.676  1.00  0.00     0.031 C 
ATOM     62  C   UNL A   1      47.999  26.567  27.187  1.00  0.00     0.037 A 
BRANCH  49  63
ATOM     63  C   UNL A   1      43.066  22.841  27.004  1.00  0.00     0.057 A 
ATOM     64  C   UNL A   1      42.699  22.014  28.076  1.00  0.00     0.134 A 
ATOM     65  C   UNL A   1      42.892  22.332  25.711  1.00  0.00     0.134 A 
ATOM     66  F   UNL A   1      42.850  22.433  29.342  1.00  0.00    -0.206 F 
ATOM     67  C   UNL A   1      42.218  20.719  27.871  1.00  0.00     0.040 A 
ATOM     68  C   UNL A   1      42.381  21.051  25.492  1.00  0.00     0.040 A 
ATOM     69  F   UNL A   1      43.214  23.070  24.638  1.00  0.00    -0.206 F 
ATOM     70  C   UNL A   1      42.052  20.237  26.574  1.00  0.00     0.006 A 
ENDBRANCH  49  63
BRANCH  50  71
ATOM     71  C   UNL A   1      46.240  32.135  28.796  1.00  0.00     0.057 A 
ATOM     72  C   UNL A   1      46.580  32.519  30.099  1.00  0.00     0.134 A 
ATOM     73  C   UNL A   1      46.369  33.098  27.788  1.00  0.00     0.134 A 
ATOM     74  F   UNL A   1      46.460  31.648  31.112  1.00  0.00    -0.206 F 
ATOM     75  C   UNL A   1      47.012  33.814  30.391  1.00  0.00     0.040 A 
ATOM     76  C   UNL A   1      46.828  34.388  28.061  1.00  0.00     0.040 A 
ATOM     77  F   UNL A   1      46.067  32.793  26.516  1.00  0.00    -0.206 F 
ATOM     78  C   UNL A   1      47.144  34.751  29.368  1.00  0.00     0.006 A 
ENDBRANCH  50  71
BRANCH  62  79
ATOM     79  C   UNL A   1      49.433  26.243  26.880  1.00  0.00     0.057 A 
ATOM     80  C   UNL A   1      50.304  25.727  27.848  1.00  0.00     0.134 A 
ATOM     81  C   UNL A   1      49.936  26.408  25.582  1.00  0.00     0.134 A 
ATOM     82  F   UNL A   1      49.890  25.554  29.113  1.00  0.00    -0.206 F 
ATOM     83  C   UNL A   1      51.630  25.413  27.543  1.00  0.00     0.040 A 
ATOM     84  C   UNL A   1      51.250  26.067  25.259  1.00  0.00     0.040 A 
ATOM     85  F   UNL A   1      49.154  26.888  24.603  1.00  0.00    -0.206 F 
ATOM     86  C   UNL A   1      52.103  25.575  26.243  1.00  0.00     0.006 A 
ENDBRANCH  62  79
ENDBRANCH  36  37
ENDBRANCH  28  31
ENDBRANCH  26  27
ENDBRANCH  25  26
ENDBRANCH   1  25
TORSDOF 13
ENDMDL
