MODEL 1
REMARK VINA RESULT:     -11.8      0.000      0.000
REMARK SMILES CCCc1cc2c(cc1Cl)C=C(C(=O)NCCCCNC(=O)c1ccc(-c3c4nc(c(-c5c(F)cccc5F)c5ccc([nH]5)c(-c5c(F)cccc5F)c5nc(c(-c6c(F)cccc6F)c6ccc3[nH]6)C=C5)C=C4)cc1)[C@@H](C(F)(F)F)O2
REMARK SMILES IDX 17 1 16 2 15 3 13 4 14 5 12 7 4 8 5 9 9 10 6 11 8 12 10 13
REMARK SMILES IDX 7 14 82 15 11 16 77 17 3 18 2 19 1 20 78 21 79 22 80 23
REMARK SMILES IDX 81 24 18 25 19 26 20 27 21 28 22 30 23 31 24 32 76 33 25 34
REMARK SMILES IDX 75 35 26 36 27 37 28 38 69 39 29 40 74 41 68 42 70 43 30 44
REMARK SMILES IDX 73 45 67 46 66 47 31 49 57 50 40 51 56 52 41 53 44 54 55 55
REMARK SMILES IDX 71 56 42 57 43 58 54 60 72 61 45 62 32 63 33 64 38 65 34 66
REMARK SMILES IDX 35 67 37 68 39 69 36 70 58 71 59 72 64 73 60 74 61 75 63 76
REMARK SMILES IDX 65 77 62 78 46 79 47 80 52 81 48 82 49 83 51 84 53 85 50 86
REMARK H PARENT 15 6 20 29 70 48 44 59
REMARK Flexibility Score: inf
ROOT
ATOM      1  C   UNL A   1      37.293  21.799  24.687  1.00  0.00     0.023 C 
ENDROOT
BRANCH   1   2
ATOM      2  C   UNL A   1      36.307  20.985  25.518  1.00  0.00     0.116 C 
BRANCH   2   3
ATOM      3  N   UNL A   1      35.123  20.618  24.763  1.00  0.00    -0.352 N 
ATOM      4  C   UNL A   1      33.910  21.163  24.509  1.00  0.00     0.251 C 
ATOM      5  O   UNL A   1      33.172  20.488  23.784  1.00  0.00    -0.270 OA
ATOM      6  H   UNL A   1      35.231  19.746  24.319  1.00  0.00     0.163 HD
BRANCH   4   7
ATOM      7  C   UNL A   1      33.427  22.475  25.035  1.00  0.00     0.067 C 
ATOM      8  C   UNL A   1      32.506  27.426  25.585  1.00  0.00    -0.026 A 
ATOM      9  C   UNL A   1      32.102  26.262  26.259  1.00  0.00     0.052 A 
ATOM     10  C   UNL A   1      33.352  27.287  24.473  1.00  0.00     0.045 A 
ATOM     11  C   UNL A   1      32.530  25.003  25.839  1.00  0.00     0.128 A 
ATOM     12  C   UNL A   1      33.784  26.021  24.058  1.00  0.00     0.032 A 
ATOM     13  Cl  UNL A   1      33.893  28.645  23.553  1.00  0.00    -0.084 Cl
ATOM     14  C   UNL A   1      33.371  24.873  24.741  1.00  0.00     0.019 A 
ATOM     15  O   UNL A   1      32.040  23.941  26.536  1.00  0.00    -0.475 OA
ATOM     16  C   UNL A   1      33.775  23.546  24.299  1.00  0.00     0.025 C 
ATOM     17  C   UNL A   1      32.653  22.642  26.314  1.00  0.00     0.314 C 
BRANCH   8  18
ATOM     18  C   UNL A   1      32.013  28.758  26.104  1.00  0.00     0.037 C 
BRANCH  18  19
ATOM     19  C   UNL A   1      32.686  29.194  27.411  1.00  0.00     0.001 C 
ATOM     20  C   UNL A   1      34.033  29.871  27.203  1.00  0.00     0.004 C 
ENDBRANCH  18  19
ENDBRANCH   8  18
BRANCH  17  21
ATOM     21  C   UNL A   1      33.470  22.281  27.568  1.00  0.00     0.429 C 
ATOM     22  F   UNL A   1      33.735  20.950  27.589  1.00  0.00    -0.167 F 
ATOM     23  F   UNL A   1      34.670  22.906  27.614  1.00  0.00    -0.167 F 
ATOM     24  F   UNL A   1      32.821  22.584  28.713  1.00  0.00    -0.167 F 
ENDBRANCH  17  21
ENDBRANCH   4   7
ENDBRANCH   2   3
ENDBRANCH   1   2
BRANCH   1  25
ATOM     25  C   UNL A   1      37.200  23.311  24.901  1.00  0.00     0.023 C 
BRANCH  25  26
ATOM     26  C   UNL A   1      38.015  23.863  26.070  1.00  0.00     0.116 C 
BRANCH  26  27
ATOM     27  N   UNL A   1      39.442  23.573  25.998  1.00  0.00    -0.352 N 
ATOM     28  C   UNL A   1      40.484  24.271  26.566  1.00  0.00     0.251 C 
ATOM     29  H   UNL A   1      39.692  22.777  25.475  1.00  0.00     0.163 HD
ATOM     30  O   UNL A   1      41.645  23.937  26.366  1.00  0.00    -0.269 OA
BRANCH  28  31
ATOM     31  C   UNL A   1      40.179  25.468  27.374  1.00  0.00     0.039 A 
ATOM     32  C   UNL A   1      40.794  26.687  27.084  1.00  0.00     0.014 A 
ATOM     33  C   UNL A   1      39.349  25.338  28.489  1.00  0.00     0.014 A 
ATOM     34  C   UNL A   1      40.729  27.719  28.011  1.00  0.00     0.010 A 
ATOM     35  C   UNL A   1      39.220  26.406  29.380  1.00  0.00     0.010 A 
ATOM     36  C   UNL A   1      39.962  27.581  29.180  1.00  0.00    -0.014 A 
BRANCH  36  37
ATOM     37  C   UNL A   1      39.990  28.665  30.195  1.00  0.00     0.031 A 
ATOM     38  C   UNL A   1      38.979  29.780  30.156  1.00  0.00     0.074 A 
ATOM     39  C   UNL A   1      40.880  28.598  31.202  1.00  0.00     0.049 A 
ATOM     40  N   UNL A   1      38.820  30.780  30.986  1.00  0.00    -0.248 NA
ATOM     41  C   UNL A   1      38.024  29.778  29.036  1.00  0.00     0.031 C 
ATOM     42  C   UNL A   1      41.901  27.560  31.356  1.00  0.00     0.029 A 
ATOM     43  N   UNL A   1      41.047  29.397  32.303  1.00  0.00    -0.354 N 
ATOM     44  C   UNL A   1      37.767  31.534  30.481  1.00  0.00     0.074 A 
ATOM     45  C   UNL A   1      37.340  30.892  29.257  1.00  0.00     0.031 C 
ATOM     46  C   UNL A   1      42.549  27.751  32.515  1.00  0.00     0.029 A 
ATOM     47  C   UNL A   1      42.026  28.952  33.157  1.00  0.00     0.049 A 
ATOM     48  H   UNL A   1      40.517  30.211  32.464  1.00  0.00     0.167 HD
ATOM     49  C   UNL A   1      37.201  32.652  30.995  1.00  0.00     0.037 A 
ATOM     50  C   UNL A   1      42.456  29.458  34.327  1.00  0.00     0.037 A 
ATOM     51  C   UNL A   1      37.607  33.277  32.228  1.00  0.00     0.049 A 
ATOM     52  C   UNL A   1      41.826  30.709  34.862  1.00  0.00     0.074 A 
ATOM     53  C   UNL A   1      37.081  34.400  32.841  1.00  0.00     0.029 A 
ATOM     54  N   UNL A   1      38.638  32.826  33.037  1.00  0.00    -0.354 N 
ATOM     55  N   UNL A   1      40.830  31.407  34.372  1.00  0.00    -0.248 NA
ATOM     56  C   UNL A   1      42.388  31.249  36.107  1.00  0.00     0.031 C 
ATOM     57  C   UNL A   1      37.815  34.646  34.008  1.00  0.00     0.029 A 
ATOM     58  C   UNL A   1      38.774  33.657  34.137  1.00  0.00     0.049 A 
ATOM     59  H   UNL A   1      39.192  32.031  32.856  1.00  0.00     0.167 HD
ATOM     60  C   UNL A   1      40.639  32.463  35.253  1.00  0.00     0.074 A 
ATOM     61  C   UNL A   1      41.607  32.299  36.319  1.00  0.00     0.031 C 
ATOM     62  C   UNL A   1      39.747  33.480  35.184  1.00  0.00     0.037 A 
BRANCH  49  63
ATOM     63  C   UNL A   1      36.085  33.281  30.214  1.00  0.00     0.057 A 
ATOM     64  C   UNL A   1      34.750  33.081  30.589  1.00  0.00     0.134 A 
ATOM     65  C   UNL A   1      36.327  34.061  29.076  1.00  0.00     0.134 A 
ATOM     66  F   UNL A   1      34.450  32.340  31.666  1.00  0.00    -0.206 F 
ATOM     67  C   UNL A   1      33.696  33.633  29.860  1.00  0.00     0.040 A 
ATOM     68  C   UNL A   1      35.282  34.636  28.350  1.00  0.00     0.040 A 
ATOM     69  F   UNL A   1      37.583  34.304  28.673  1.00  0.00    -0.206 F 
ATOM     70  C   UNL A   1      33.961  34.418  28.740  1.00  0.00     0.006 A 
ENDBRANCH  49  63
BRANCH  50  71
ATOM     71  C   UNL A   1      43.542  28.775  35.071  1.00  0.00     0.057 A 
ATOM     72  C   UNL A   1      44.889  29.022  34.782  1.00  0.00     0.134 A 
ATOM     73  C   UNL A   1      43.253  27.857  36.085  1.00  0.00     0.134 A 
ATOM     74  F   UNL A   1      45.227  29.889  33.816  1.00  0.00    -0.206 F 
ATOM     75  C   UNL A   1      45.912  28.370  35.470  1.00  0.00     0.040 A 
ATOM     76  C   UNL A   1      44.266  27.215  36.797  1.00  0.00     0.040 A 
ATOM     77  F   UNL A   1      41.980  27.596  36.417  1.00  0.00    -0.206 F 
ATOM     78  C   UNL A   1      45.601  27.467  36.485  1.00  0.00     0.006 A 
ENDBRANCH  50  71
BRANCH  62  79
ATOM     79  C   UNL A   1      39.776  34.479  36.300  1.00  0.00     0.057 A 
ATOM     80  C   UNL A   1      40.558  35.635  36.206  1.00  0.00     0.134 A 
ATOM     81  C   UNL A   1      39.031  34.290  37.471  1.00  0.00     0.134 A 
ATOM     82  F   UNL A   1      41.298  35.870  35.111  1.00  0.00    -0.206 F 
ATOM     83  C   UNL A   1      40.597  36.573  37.238  1.00  0.00     0.040 A 
ATOM     84  C   UNL A   1      39.044  35.233  38.501  1.00  0.00     0.040 A 
ATOM     85  F   UNL A   1      38.248  33.210  37.613  1.00  0.00    -0.206 F 
ATOM     86  C   UNL A   1      39.832  36.377  38.386  1.00  0.00     0.006 A 
ENDBRANCH  62  79
ENDBRANCH  36  37
ENDBRANCH  28  31
ENDBRANCH  26  27
ENDBRANCH  25  26
ENDBRANCH   1  25
TORSDOF 14
ENDMDL
MODEL 2
REMARK VINA RESULT:     -11.5      3.979      5.743
REMARK SMILES CCCc1cc2c(cc1Cl)C=C(C(=O)NCCCCNC(=O)c1ccc(-c3c4nc(c(-c5c(F)cccc5F)c5ccc([nH]5)c(-c5c(F)cccc5F)c5nc(c(-c6c(F)cccc6F)c6ccc3[nH]6)C=C5)C=C4)cc1)[C@@H](C(F)(F)F)O2
REMARK SMILES IDX 17 1 16 2 15 3 13 4 14 5 12 7 4 8 5 9 9 10 6 11 8 12 10 13
REMARK SMILES IDX 7 14 82 15 11 16 77 17 3 18 2 19 1 20 78 21 79 22 80 23
REMARK SMILES IDX 81 24 18 25 19 26 20 27 21 28 22 30 23 31 24 32 76 33 25 34
REMARK SMILES IDX 75 35 26 36 27 37 28 38 69 39 29 40 74 41 68 42 70 43 30 44
REMARK SMILES IDX 73 45 67 46 66 47 31 49 57 50 40 51 56 52 41 53 44 54 55 55
REMARK SMILES IDX 71 56 42 57 43 58 54 60 72 61 45 62 32 63 33 64 38 65 34 66
REMARK SMILES IDX 35 67 37 68 39 69 36 70 58 71 59 72 64 73 60 74 61 75 63 76
REMARK SMILES IDX 65 77 62 78 46 79 47 80 52 81 48 82 49 83 51 84 53 85 50 86
REMARK H PARENT 15 6 20 29 70 48 44 59
REMARK Flexibility Score: inf
ROOT
ATOM      1  C   UNL A   1      36.917  22.403  24.112  1.00  0.00     0.023 C 
ENDROOT
BRANCH   1   2
ATOM      2  C   UNL A   1      36.588  23.625  24.962  1.00  0.00     0.116 C 
BRANCH   2   3
ATOM      3  N   UNL A   1      35.594  23.337  25.980  1.00  0.00    -0.352 N 
ATOM      4  C   UNL A   1      34.306  23.677  26.222  1.00  0.00     0.251 C 
ATOM      5  O   UNL A   1      33.816  23.186  27.244  1.00  0.00    -0.270 OA
ATOM      6  H   UNL A   1      35.949  22.736  26.675  1.00  0.00     0.163 HD
BRANCH   4   7
ATOM      7  C   UNL A   1      33.476  24.576  25.365  1.00  0.00     0.067 C 
ATOM      8  C   UNL A   1      30.975  28.600  23.571  1.00  0.00    -0.026 A 
ATOM      9  C   UNL A   1      31.261  27.313  23.085  1.00  0.00     0.052 A 
ATOM     10  C   UNL A   1      31.468  28.954  24.836  1.00  0.00     0.045 A 
ATOM     11  C   UNL A   1      32.013  26.411  23.838  1.00  0.00     0.128 A 
ATOM     12  C   UNL A   1      32.218  28.043  25.591  1.00  0.00     0.032 A 
ATOM     13  Cl  UNL A   1      31.200  30.515  25.525  1.00  0.00    -0.084 Cl
ATOM     14  C   UNL A   1      32.494  26.767  25.091  1.00  0.00     0.019 A 
ATOM     15  O   UNL A   1      32.270  25.210  23.251  1.00  0.00    -0.475 OA
ATOM     16  C   UNL A   1      33.308  25.822  25.843  1.00  0.00     0.025 C 
ATOM     17  C   UNL A   1      32.813  24.149  24.083  1.00  0.00     0.314 C 
BRANCH   8  18
ATOM     18  C   UNL A   1      30.143  29.519  22.705  1.00  0.00     0.037 C 
BRANCH  18  19
ATOM     19  C   UNL A   1      28.635  29.389  22.944  1.00  0.00     0.001 C 
ATOM     20  C   UNL A   1      27.942  30.721  23.190  1.00  0.00     0.004 C 
ENDBRANCH  18  19
ENDBRANCH   8  18
BRANCH  17  21
ATOM     21  C   UNL A   1      31.709  23.097  24.293  1.00  0.00     0.429 C 
ATOM     22  F   UNL A   1      31.036  23.345  25.445  1.00  0.00    -0.167 F 
ATOM     23  F   UNL A   1      30.782  23.100  23.307  1.00  0.00    -0.167 F 
ATOM     24  F   UNL A   1      32.201  21.841  24.372  1.00  0.00    -0.167 F 
ENDBRANCH  17  21
ENDBRANCH   4   7
ENDBRANCH   2   3
ENDBRANCH   1   2
BRANCH   1  25
ATOM     25  C   UNL A   1      37.285  21.155  24.918  1.00  0.00     0.023 C 
BRANCH  25  26
ATOM     26  C   UNL A   1      38.588  21.243  25.711  1.00  0.00     0.116 C 
BRANCH  26  27
ATOM     27  N   UNL A   1      39.409  20.040  25.654  1.00  0.00    -0.352 N 
ATOM     28  C   UNL A   1      40.728  19.890  26.022  1.00  0.00     0.251 C 
ATOM     29  H   UNL A   1      38.965  19.233  25.308  1.00  0.00     0.163 HD
ATOM     30  O   UNL A   1      41.306  18.822  25.858  1.00  0.00    -0.269 OA
BRANCH  28  31
ATOM     31  C   UNL A   1      41.453  21.058  26.561  1.00  0.00     0.039 A 
ATOM     32  C   UNL A   1      41.477  21.296  27.935  1.00  0.00     0.014 A 
ATOM     33  C   UNL A   1      42.024  21.969  25.670  1.00  0.00     0.014 A 
ATOM     34  C   UNL A   1      41.903  22.532  28.403  1.00  0.00     0.010 A 
ATOM     35  C   UNL A   1      42.526  23.180  26.153  1.00  0.00     0.010 A 
ATOM     36  C   UNL A   1      42.409  23.497  27.515  1.00  0.00    -0.014 A 
BRANCH  36  37
ATOM     37  C   UNL A   1      42.766  24.841  28.035  1.00  0.00     0.031 A 
ATOM     38  C   UNL A   1      41.700  25.875  28.286  1.00  0.00     0.074 A 
ATOM     39  C   UNL A   1      44.045  25.101  28.359  1.00  0.00     0.049 A 
ATOM     40  N   UNL A   1      41.820  27.079  28.785  1.00  0.00    -0.248 NA
ATOM     41  C   UNL A   1      40.319  25.513  27.927  1.00  0.00     0.031 C 
ATOM     42  C   UNL A   1      45.166  24.176  28.173  1.00  0.00     0.029 A 
ATOM     43  N   UNL A   1      44.615  26.203  28.941  1.00  0.00    -0.354 N 
ATOM     44  C   UNL A   1      40.541  27.625  28.780  1.00  0.00     0.074 A 
ATOM     45  C   UNL A   1      39.662  26.630  28.204  1.00  0.00     0.031 C 
ATOM     46  C   UNL A   1      46.276  24.725  28.687  1.00  0.00     0.029 A 
ATOM     47  C   UNL A   1      45.958  26.058  29.188  1.00  0.00     0.049 A 
ATOM     48  H   UNL A   1      44.109  27.019  29.160  1.00  0.00     0.167 HD
ATOM     49  C   UNL A   1      40.135  28.839  29.224  1.00  0.00     0.037 A 
ATOM     50  C   UNL A   1      46.836  26.906  29.752  1.00  0.00     0.037 A 
ATOM     51  C   UNL A   1      41.004  29.819  29.822  1.00  0.00     0.049 A 
ATOM     52  C   UNL A   1      46.362  28.252  30.215  1.00  0.00     0.074 A 
ATOM     53  C   UNL A   1      40.682  31.069  30.321  1.00  0.00     0.029 A 
ATOM     54  N   UNL A   1      42.368  29.655  30.006  1.00  0.00    -0.354 N 
ATOM     55  N   UNL A   1      45.150  28.750  30.204  1.00  0.00    -0.248 NA
ATOM     56  C   UNL A   1      47.384  29.158  30.758  1.00  0.00     0.031 C 
ATOM     57  C   UNL A   1      41.859  31.674  30.780  1.00  0.00     0.029 A 
ATOM     58  C   UNL A   1      42.905  30.787  30.597  1.00  0.00     0.049 A 
ATOM     59  H   UNL A   1      42.879  28.852  29.753  1.00  0.00     0.167 HD
ATOM     60  C   UNL A   1      45.259  30.023  30.747  1.00  0.00     0.074 A 
ATOM     61  C   UNL A   1      46.653  30.211  31.098  1.00  0.00     0.031 C 
ATOM     62  C   UNL A   1      44.295  30.956  30.933  1.00  0.00     0.037 A 
BRANCH  49  63
ATOM     63  C   UNL A   1      38.683  29.180  29.065  1.00  0.00     0.057 A 
ATOM     64  C   UNL A   1      38.177  29.589  27.824  1.00  0.00     0.134 A 
ATOM     65  C   UNL A   1      37.789  29.133  30.143  1.00  0.00     0.134 A 
ATOM     66  F   UNL A   1      38.980  29.661  26.752  1.00  0.00    -0.206 F 
ATOM     67  C   UNL A   1      36.836  29.939  27.661  1.00  0.00     0.040 A 
ATOM     68  C   UNL A   1      36.441  29.460  29.989  1.00  0.00     0.040 A 
ATOM     69  F   UNL A   1      38.207  28.735  31.354  1.00  0.00    -0.206 F 
ATOM     70  C   UNL A   1      35.962  29.870  28.744  1.00  0.00     0.006 A 
ENDBRANCH  49  63
BRANCH  50  71
ATOM     71  C   UNL A   1      48.253  26.503  29.911  1.00  0.00     0.057 A 
ATOM     72  C   UNL A   1      48.688  25.807  31.046  1.00  0.00     0.134 A 
ATOM     73  C   UNL A   1      49.204  26.807  28.932  1.00  0.00     0.134 A 
ATOM     74  F   UNL A   1      47.823  25.492  32.021  1.00  0.00    -0.206 F 
ATOM     75  C   UNL A   1      50.024  25.439  31.206  1.00  0.00     0.040 A 
ATOM     76  C   UNL A   1      50.539  26.425  29.069  1.00  0.00     0.040 A 
ATOM     77  F   UNL A   1      48.840  27.455  27.817  1.00  0.00    -0.206 F 
ATOM     78  C   UNL A   1      50.953  25.743  30.212  1.00  0.00     0.006 A 
ENDBRANCH  50  71
BRANCH  62  79
ATOM     79  C   UNL A   1      44.721  32.251  31.555  1.00  0.00     0.057 A 
ATOM     80  C   UNL A   1      45.141  33.323  30.760  1.00  0.00     0.134 A 
ATOM     81  C   UNL A   1      44.720  32.432  32.944  1.00  0.00     0.134 A 
ATOM     82  F   UNL A   1      45.168  33.209  29.423  1.00  0.00    -0.206 F 
ATOM     83  C   UNL A   1      45.542  34.534  31.324  1.00  0.00     0.040 A 
ATOM     84  C   UNL A   1      45.097  33.646  33.519  1.00  0.00     0.040 A 
ATOM     85  F   UNL A   1      44.311  31.446  33.758  1.00  0.00    -0.206 F 
ATOM     86  C   UNL A   1      45.513  34.700  32.708  1.00  0.00     0.006 A 
ENDBRANCH  62  79
ENDBRANCH  36  37
ENDBRANCH  28  31
ENDBRANCH  26  27
ENDBRANCH  25  26
ENDBRANCH   1  25
TORSDOF 14
ENDMDL
MODEL 3
REMARK VINA RESULT:     -11.5      1.282      2.108
REMARK SMILES CCCc1cc2c(cc1Cl)C=C(C(=O)NCCCCNC(=O)c1ccc(-c3c4nc(c(-c5c(F)cccc5F)c5ccc([nH]5)c(-c5c(F)cccc5F)c5nc(c(-c6c(F)cccc6F)c6ccc3[nH]6)C=C5)C=C4)cc1)[C@@H](C(F)(F)F)O2
REMARK SMILES IDX 17 1 16 2 15 3 13 4 14 5 12 7 4 8 5 9 9 10 6 11 8 12 10 13
REMARK SMILES IDX 7 14 82 15 11 16 77 17 3 18 2 19 1 20 78 21 79 22 80 23
REMARK SMILES IDX 81 24 18 25 19 26 20 27 21 28 22 30 23 31 24 32 76 33 25 34
REMARK SMILES IDX 75 35 26 36 27 37 28 38 69 39 29 40 74 41 68 42 70 43 30 44
REMARK SMILES IDX 73 45 67 46 66 47 31 49 57 50 40 51 56 52 41 53 44 54 55 55
REMARK SMILES IDX 71 56 42 57 43 58 54 60 72 61 45 62 32 63 33 64 38 65 34 66
REMARK SMILES IDX 35 67 37 68 39 69 36 70 58 71 59 72 64 73 60 74 61 75 63 76
REMARK SMILES IDX 65 77 62 78 46 79 47 80 52 81 48 82 49 83 51 84 53 85 50 86
REMARK H PARENT 15 6 20 29 70 48 44 59
REMARK Flexibility Score: inf
ROOT
ATOM      1  C   UNL A   1      37.677  21.610  25.121  1.00  0.00     0.023 C 
ENDROOT
BRANCH   1   2
ATOM      2  C   UNL A   1      36.373  20.840  24.938  1.00  0.00     0.116 C 
BRANCH   2   3
ATOM      3  N   UNL A   1      35.448  21.058  26.035  1.00  0.00    -0.352 N 
ATOM      4  C   UNL A   1      34.457  21.932  26.327  1.00  0.00     0.251 C 
ATOM      5  O   UNL A   1      33.899  21.750  27.414  1.00  0.00    -0.270 OA
ATOM      6  H   UNL A   1      35.574  20.396  26.753  1.00  0.00     0.163 HD
BRANCH   4   7
ATOM      7  C   UNL A   1      34.016  23.061  25.452  1.00  0.00     0.067 C 
ATOM      8  C   UNL A   1      32.927  27.688  23.704  1.00  0.00    -0.026 A 
ATOM      9  C   UNL A   1      32.929  26.396  23.153  1.00  0.00     0.052 A 
ATOM     10  C   UNL A   1      33.318  27.838  25.043  1.00  0.00     0.045 A 
ATOM     11  C   UNL A   1      33.309  25.291  23.915  1.00  0.00     0.128 A 
ATOM     12  C   UNL A   1      33.693  26.724  25.806  1.00  0.00     0.032 A 
ATOM     13  Cl  UNL A   1      33.377  29.380  25.818  1.00  0.00    -0.084 Cl
ATOM     14  C   UNL A   1      33.690  25.446  25.241  1.00  0.00     0.019 A 
ATOM     15  O   UNL A   1      33.319  24.093  23.268  1.00  0.00    -0.475 OA
ATOM     16  C   UNL A   1      34.117  24.282  26.007  1.00  0.00     0.025 C 
ATOM     17  C   UNL A   1      33.446  22.888  24.071  1.00  0.00     0.314 C 
BRANCH   8  18
ATOM     18  C   UNL A   1      32.492  28.837  22.822  1.00  0.00     0.037 C 
BRANCH  18  19
ATOM     19  C   UNL A   1      30.983  28.869  22.556  1.00  0.00     0.001 C 
ATOM     20  C   UNL A   1      30.190  29.576  23.646  1.00  0.00     0.004 C 
ENDBRANCH  18  19
ENDBRANCH   8  18
BRANCH  17  21
ATOM     21  C   UNL A   1      32.087  22.165  24.062  1.00  0.00     0.429 C 
ATOM     22  F   UNL A   1      31.447  22.352  25.244  1.00  0.00    -0.167 F 
ATOM     23  F   UNL A   1      31.250  22.626  23.103  1.00  0.00    -0.167 F 
ATOM     24  F   UNL A   1      32.211  20.833  23.873  1.00  0.00    -0.167 F 
ENDBRANCH  17  21
ENDBRANCH   4   7
ENDBRANCH   2   3
ENDBRANCH   1   2
BRANCH   1  25
ATOM     25  C   UNL A   1      37.512  23.131  25.150  1.00  0.00     0.023 C 
BRANCH  25  26
ATOM     26  C   UNL A   1      38.349  23.865  26.196  1.00  0.00     0.116 C 
BRANCH  26  27
ATOM     27  N   UNL A   1      39.785  23.642  26.081  1.00  0.00    -0.352 N 
ATOM     28  C   UNL A   1      40.810  24.394  26.612  1.00  0.00     0.251 C 
ATOM     29  H   UNL A   1      40.057  22.854  25.557  1.00  0.00     0.163 HD
ATOM     30  O   UNL A   1      41.979  24.113  26.377  1.00  0.00    -0.269 OA
BRANCH  28  31
ATOM     31  C   UNL A   1      40.474  25.583  27.420  1.00  0.00     0.039 A 
ATOM     32  C   UNL A   1      41.126  26.795  27.192  1.00  0.00     0.014 A 
ATOM     33  C   UNL A   1      39.571  25.448  28.477  1.00  0.00     0.014 A 
ATOM     34  C   UNL A   1      41.018  27.812  28.132  1.00  0.00     0.010 A 
ATOM     35  C   UNL A   1      39.403  26.503  29.377  1.00  0.00     0.010 A 
ATOM     36  C   UNL A   1      40.175  27.668  29.247  1.00  0.00    -0.014 A 
BRANCH  36  37
ATOM     37  C   UNL A   1      40.157  28.734  30.280  1.00  0.00     0.031 A 
ATOM     38  C   UNL A   1      39.123  29.827  30.237  1.00  0.00     0.074 A 
ATOM     39  C   UNL A   1      41.024  28.668  31.307  1.00  0.00     0.049 A 
ATOM     40  N   UNL A   1      38.922  30.808  31.081  1.00  0.00    -0.248 NA
ATOM     41  C   UNL A   1      38.194  29.825  29.095  1.00  0.00     0.031 C 
ATOM     42  C   UNL A   1      42.064  27.649  31.466  1.00  0.00     0.029 A 
ATOM     43  N   UNL A   1      41.148  29.451  32.425  1.00  0.00    -0.354 N 
ATOM     44  C   UNL A   1      37.865  31.548  30.564  1.00  0.00     0.074 A 
ATOM     45  C   UNL A   1      37.480  30.919  29.319  1.00  0.00     0.031 C 
ATOM     46  C   UNL A   1      42.680  27.834  32.644  1.00  0.00     0.029 A 
ATOM     47  C   UNL A   1      42.116  29.012  33.294  1.00  0.00     0.049 A 
ATOM     48  H   UNL A   1      40.597  30.250  32.588  1.00  0.00     0.167 HD
ATOM     49  C   UNL A   1      37.262  32.644  31.084  1.00  0.00     0.037 A 
ATOM     50  C   UNL A   1      42.509  29.506  34.482  1.00  0.00     0.037 A 
ATOM     51  C   UNL A   1      37.626  33.256  32.337  1.00  0.00     0.049 A 
ATOM     52  C   UNL A   1      41.838  30.733  35.024  1.00  0.00     0.074 A 
ATOM     53  C   UNL A   1      37.061  34.356  32.957  1.00  0.00     0.029 A 
ATOM     54  N   UNL A   1      38.648  32.812  33.162  1.00  0.00    -0.354 N 
ATOM     55  N   UNL A   1      40.839  31.418  34.523  1.00  0.00    -0.248 NA
ATOM     56  C   UNL A   1      42.360  31.263  36.291  1.00  0.00     0.031 C 
ATOM     57  C   UNL A   1      37.762  34.597  34.145  1.00  0.00     0.029 A 
ATOM     58  C   UNL A   1      38.740  33.626  34.279  1.00  0.00     0.049 A 
ATOM     59  H   UNL A   1      39.223  32.034  32.981  1.00  0.00     0.167 HD
ATOM     60  C   UNL A   1      40.604  32.453  35.418  1.00  0.00     0.074 A 
ATOM     61  C   UNL A   1      41.551  32.292  36.503  1.00  0.00     0.031 C 
ATOM     62  C   UNL A   1      39.692  33.452  35.346  1.00  0.00     0.037 A 
BRANCH  49  63
ATOM     63  C   UNL A   1      36.151  33.263  30.289  1.00  0.00     0.057 A 
ATOM     64  C   UNL A   1      36.433  34.125  29.220  1.00  0.00     0.134 A 
ATOM     65  C   UNL A   1      34.804  33.032  30.595  1.00  0.00     0.134 A 
ATOM     66  F   UNL A   1      37.702  34.392  28.878  1.00  0.00    -0.206 F 
ATOM     67  C   UNL A   1      35.415  34.734  28.485  1.00  0.00     0.040 A 
ATOM     68  C   UNL A   1      33.776  33.619  29.854  1.00  0.00     0.040 A 
ATOM     69  F   UNL A   1      34.467  32.206  31.596  1.00  0.00    -0.206 F 
ATOM     70  C   UNL A   1      34.082  34.478  28.798  1.00  0.00     0.006 A 
ENDBRANCH  49  63
BRANCH  50  71
ATOM     71  C   UNL A   1      43.591  28.834  35.239  1.00  0.00     0.057 A 
ATOM     72  C   UNL A   1      44.938  29.135  35.006  1.00  0.00     0.134 A 
ATOM     73  C   UNL A   1      43.300  27.871  36.211  1.00  0.00     0.134 A 
ATOM     74  F   UNL A   1      45.279  30.046  34.082  1.00  0.00    -0.206 F 
ATOM     75  C   UNL A   1      45.959  28.493  35.706  1.00  0.00     0.040 A 
ATOM     76  C   UNL A   1      44.311  27.238  36.935  1.00  0.00     0.040 A 
ATOM     77  F   UNL A   1      42.027  27.556  36.489  1.00  0.00    -0.206 F 
ATOM     78  C   UNL A   1      45.646  27.545  36.679  1.00  0.00     0.006 A 
ENDBRANCH  50  71
BRANCH  62  79
ATOM     79  C   UNL A   1      39.673  34.431  36.479  1.00  0.00     0.057 A 
ATOM     80  C   UNL A   1      38.913  34.181  37.628  1.00  0.00     0.134 A 
ATOM     81  C   UNL A   1      40.403  35.625  36.429  1.00  0.00     0.134 A 
ATOM     82  F   UNL A   1      38.188  33.057  37.734  1.00  0.00    -0.206 F 
ATOM     83  C   UNL A   1      38.883  35.083  38.691  1.00  0.00     0.040 A 
ATOM     84  C   UNL A   1      40.399  36.525  37.496  1.00  0.00     0.040 A 
ATOM     85  F   UNL A   1      41.164  35.912  35.362  1.00  0.00    -0.206 F 
ATOM     86  C   UNL A   1      39.634  36.256  38.630  1.00  0.00     0.006 A 
ENDBRANCH  62  79
ENDBRANCH  36  37
ENDBRANCH  28  31
ENDBRANCH  26  27
ENDBRANCH  25  26
ENDBRANCH   1  25
TORSDOF 14
ENDMDL
