MODEL 1
REMARK VINA RESULT:     -11.8      0.000      0.000
REMARK SMILES Cc1nsc(N[C@H](C)c2cccs2)c1C(=O)NCCCCNC(=O)c1ccc(-c2c3nc(c(-c4c(F)cccc4F)c4ccc([nH]4)c(-c4c(F)cccc4F)c4nc(c(-c5c(F)cccc5F)c5ccc2[nH]5)C=C4)C=C3)cc1
REMARK SMILES IDX 19 1 18 2 17 3 15 4 16 5 14 7 1 8 2 9 3 10 4 11 5 12 6 13
REMARK SMILES IDX 7 15 8 16 9 17 10 18 13 19 11 20 12 21 20 22 21 23 22 24
REMARK SMILES IDX 23 25 24 27 25 28 26 29 78 30 27 31 77 32 28 33 29 34 30 35
REMARK SMILES IDX 71 36 31 37 76 38 70 39 72 40 32 41 75 42 69 43 68 44 33 46
REMARK SMILES IDX 59 47 42 48 58 49 43 50 46 51 57 52 73 53 44 54 45 55 56 57
REMARK SMILES IDX 74 58 47 59 34 60 35 61 40 62 36 63 37 64 39 65 41 66 38 67
REMARK SMILES IDX 60 68 61 69 66 70 62 71 63 72 65 73 67 74 64 75 48 76 49 77
REMARK SMILES IDX 54 78 50 79 51 80 53 81 55 82 52 83
REMARK H PARENT 17 6 6 14 22 26 72 45 46 56
REMARK Flexibility Score: inf
ROOT
ATOM      1  C   UNL A   1      36.639  20.410  24.729  1.00  0.00     0.023 C 
ENDROOT
BRANCH   1   2
ATOM      2  C   UNL A   1      36.584  21.632  25.644  1.00  0.00     0.116 C 
BRANCH   2   3
ATOM      3  N   UNL A   1      35.564  21.565  26.658  1.00  0.00    -0.352 N 
ATOM      4  C   UNL A   1      34.222  21.828  26.718  1.00  0.00     0.256 C 
ATOM      5  O   UNL A   1      33.712  21.387  27.761  1.00  0.00    -0.269 OA
ATOM      6  H   UNL A   1      35.919  21.251  27.521  1.00  0.00     0.163 HD
BRANCH   4   7
ATOM      7  C   UNL A   1      33.422  22.622  25.762  1.00  0.00     0.097 A 
ATOM      8  C   UNL A   1      34.416  25.103  25.502  1.00  0.00     0.069 C 
ATOM      9  C   UNL A   1      33.421  24.015  25.322  1.00  0.00     0.066 A 
ATOM     10  N   UNL A   1      32.370  24.401  24.595  1.00  0.00    -0.195 NA
ATOM     11  S   UNL A   1      31.411  23.115  24.289  1.00  0.00    -0.018 S 
ATOM     12  C   UNL A   1      32.450  21.945  24.991  1.00  0.00     0.123 A 
BRANCH  12  13
ATOM     13  N   UNL A   1      32.328  20.592  24.845  1.00  0.00    -0.368 N 
ATOM     14  H   UNL A   1      31.686  20.145  25.442  1.00  0.00     0.162 HD
BRANCH  13  15
ATOM     15  C   UNL A   1      33.046  19.732  23.903  1.00  0.00     0.117 C 
ATOM     16  C   UNL A   1      32.151  19.550  22.664  1.00  0.00     0.037 C 
BRANCH  15  17
ATOM     17  C   UNL A   1      33.476  18.366  24.410  1.00  0.00     0.027 A 
ATOM     18  C   UNL A   1      34.478  17.530  23.949  1.00  0.00     0.017 A 
ATOM     19  S   UNL A   1      32.624  17.638  25.717  1.00  0.00    -0.147 S 
ATOM     20  C   UNL A   1      34.466  16.256  24.587  1.00  0.00     0.012 A 
ATOM     21  C   UNL A   1      33.518  16.188  25.582  1.00  0.00     0.065 A 
ENDBRANCH  15  17
ENDBRANCH  13  15
ENDBRANCH  12  13
ENDBRANCH   4   7
ENDBRANCH   2   3
ENDBRANCH   1   2
BRANCH   1  22
ATOM     22  C   UNL A   1      37.774  19.415  25.018  1.00  0.00     0.023 C 
BRANCH  22  23
ATOM     23  C   UNL A   1      39.056  20.034  25.573  1.00  0.00     0.116 C 
BRANCH  23  24
ATOM     24  N   UNL A   1      40.122  19.055  25.826  1.00  0.00    -0.352 N 
ATOM     25  C   UNL A   1      41.478  19.289  26.013  1.00  0.00     0.251 C 
ATOM     26  H   UNL A   1      39.839  18.113  25.868  1.00  0.00     0.163 HD
ATOM     27  O   UNL A   1      42.314  18.422  25.827  1.00  0.00    -0.269 OA
BRANCH  25  28
ATOM     28  C   UNL A   1      41.880  20.617  26.507  1.00  0.00     0.039 A 
ATOM     29  C   UNL A   1      42.623  21.533  25.753  1.00  0.00     0.014 A 
ATOM     30  C   UNL A   1      41.427  20.934  27.779  1.00  0.00     0.014 A 
ATOM     31  C   UNL A   1      42.857  22.799  26.288  1.00  0.00     0.010 A 
ATOM     32  C   UNL A   1      41.434  22.233  28.178  1.00  0.00     0.010 A 
ATOM     33  C   UNL A   1      42.253  23.129  27.505  1.00  0.00    -0.014 A 
BRANCH  33  34
ATOM     34  C   UNL A   1      42.382  24.422  28.152  1.00  0.00     0.031 A 
ATOM     35  C   UNL A   1      41.172  25.276  28.071  1.00  0.00     0.074 A 
ATOM     36  C   UNL A   1      43.369  24.609  29.059  1.00  0.00     0.049 A 
ATOM     37  N   UNL A   1      41.046  26.409  27.466  1.00  0.00    -0.248 NA
ATOM     38  C   UNL A   1      39.898  24.734  28.581  1.00  0.00     0.031 C 
ATOM     39  C   UNL A   1      44.403  23.653  29.486  1.00  0.00     0.029 A 
ATOM     40  N   UNL A   1      43.538  25.636  29.933  1.00  0.00    -0.354 N 
ATOM     41  C   UNL A   1      39.746  26.832  27.733  1.00  0.00     0.074 A 
ATOM     42  C   UNL A   1      39.034  25.668  28.181  1.00  0.00     0.031 C 
ATOM     43  C   UNL A   1      44.912  24.036  30.676  1.00  0.00     0.029 A 
ATOM     44  C   UNL A   1      44.355  25.328  31.022  1.00  0.00     0.049 A 
ATOM     45  H   UNL A   1      43.121  26.520  29.809  1.00  0.00     0.167 HD
ATOM     46  C   UNL A   1      39.447  28.156  27.855  1.00  0.00     0.037 A 
ATOM     47  C   UNL A   1      44.460  26.071  32.153  1.00  0.00     0.037 A 
ATOM     48  C   UNL A   1      40.534  28.973  27.367  1.00  0.00     0.049 A 
ATOM     49  C   UNL A   1      43.963  27.436  31.811  1.00  0.00     0.074 A 
ATOM     50  C   UNL A   1      41.225  29.049  26.171  1.00  0.00     0.029 A 
ATOM     51  N   UNL A   1      41.346  29.578  28.300  1.00  0.00    -0.354 N 
ATOM     52  N   UNL A   1      44.559  28.226  30.956  1.00  0.00    -0.248 NA
ATOM     53  C   UNL A   1      42.541  27.692  32.006  1.00  0.00     0.031 C 
ATOM     54  C   UNL A   1      42.592  29.191  26.553  1.00  0.00     0.029 A 
ATOM     55  C   UNL A   1      42.642  29.306  27.942  1.00  0.00     0.049 A 
ATOM     56  H   UNL A   1      41.052  30.107  29.078  1.00  0.00     0.167 HD
ATOM     57  C   UNL A   1      43.529  28.770  30.197  1.00  0.00     0.074 A 
ATOM     58  C   UNL A   1      42.305  28.447  30.929  1.00  0.00     0.031 C 
ATOM     59  C   UNL A   1      43.717  29.150  28.896  1.00  0.00     0.037 A 
BRANCH  46  60
ATOM     60  C   UNL A   1      38.379  28.722  28.762  1.00  0.00     0.057 A 
ATOM     61  C   UNL A   1      37.535  29.731  28.262  1.00  0.00     0.134 A 
ATOM     62  C   UNL A   1      38.318  28.538  30.159  1.00  0.00     0.134 A 
ATOM     63  F   UNL A   1      37.497  30.009  26.949  1.00  0.00    -0.206 F 
ATOM     64  C   UNL A   1      36.764  30.551  29.095  1.00  0.00     0.040 A 
ATOM     65  C   UNL A   1      37.509  29.314  30.994  1.00  0.00     0.040 A 
ATOM     66  F   UNL A   1      39.104  27.676  30.812  1.00  0.00    -0.206 F 
ATOM     67  C   UNL A   1      36.757  30.349  30.469  1.00  0.00     0.006 A 
ENDBRANCH  46  60
BRANCH  47  68
ATOM     68  C   UNL A   1      44.606  25.576  33.547  1.00  0.00     0.057 A 
ATOM     69  C   UNL A   1      43.497  25.423  34.391  1.00  0.00     0.134 A 
ATOM     70  C   UNL A   1      45.806  25.004  34.012  1.00  0.00     0.134 A 
ATOM     71  F   UNL A   1      42.294  25.887  34.023  1.00  0.00    -0.206 F 
ATOM     72  C   UNL A   1      43.574  24.736  35.614  1.00  0.00     0.040 A 
ATOM     73  C   UNL A   1      45.901  24.326  35.233  1.00  0.00     0.040 A 
ATOM     74  F   UNL A   1      46.917  25.007  33.261  1.00  0.00    -0.206 F 
ATOM     75  C   UNL A   1      44.778  24.179  36.034  1.00  0.00     0.006 A 
ENDBRANCH  47  68
BRANCH  59  76
ATOM     76  C   UNL A   1      45.114  29.169  28.330  1.00  0.00     0.057 A 
ATOM     77  C   UNL A   1      45.703  28.099  27.637  1.00  0.00     0.134 A 
ATOM     78  C   UNL A   1      45.805  30.386  28.302  1.00  0.00     0.134 A 
ATOM     79  F   UNL A   1      45.076  26.925  27.511  1.00  0.00    -0.206 F 
ATOM     80  C   UNL A   1      46.932  28.224  26.980  1.00  0.00     0.040 A 
ATOM     81  C   UNL A   1      47.017  30.535  27.621  1.00  0.00     0.040 A 
ATOM     82  F   UNL A   1      45.281  31.474  28.887  1.00  0.00    -0.206 F 
ATOM     83  C   UNL A   1      47.588  29.450  26.963  1.00  0.00     0.006 A 
ENDBRANCH  59  76
ENDBRANCH  33  34
ENDBRANCH  25  28
ENDBRANCH  23  24
ENDBRANCH  22  23
ENDBRANCH   1  22
TORSDOF 14
ENDMDL
MODEL 2
REMARK VINA RESULT:     -11.5      3.463      7.656
REMARK SMILES Cc1nsc(N[C@H](C)c2cccs2)c1C(=O)NCCCCNC(=O)c1ccc(-c2c3nc(c(-c4c(F)cccc4F)c4ccc([nH]4)c(-c4c(F)cccc4F)c4nc(c(-c5c(F)cccc5F)c5ccc2[nH]5)C=C4)C=C3)cc1
REMARK SMILES IDX 19 1 18 2 17 3 15 4 16 5 14 7 1 8 2 9 3 10 4 11 5 12 6 13
REMARK SMILES IDX 7 15 8 16 9 17 10 18 13 19 11 20 12 21 20 22 21 23 22 24
REMARK SMILES IDX 23 25 24 27 25 28 26 29 78 30 27 31 77 32 28 33 29 34 30 35
REMARK SMILES IDX 71 36 31 37 76 38 70 39 72 40 32 41 75 42 69 43 68 44 33 46
REMARK SMILES IDX 59 47 42 48 58 49 43 50 46 51 57 52 73 53 44 54 45 55 56 57
REMARK SMILES IDX 74 58 47 59 34 60 35 61 40 62 36 63 37 64 39 65 41 66 38 67
REMARK SMILES IDX 60 68 61 69 66 70 62 71 63 72 65 73 67 74 64 75 48 76 49 77
REMARK SMILES IDX 54 78 50 79 51 80 53 81 55 82 52 83
REMARK H PARENT 17 6 6 14 22 26 72 45 46 56
REMARK Flexibility Score: inf
ROOT
ATOM      1  C   UNL A   1      35.103  29.740  27.259  1.00  0.00     0.023 C 
ENDROOT
BRANCH   1   2
ATOM      2  C   UNL A   1      34.270  28.540  26.810  1.00  0.00     0.116 C 
BRANCH   2   3
ATOM      3  N   UNL A   1      32.994  28.428  27.468  1.00  0.00    -0.352 N 
ATOM      4  C   UNL A   1      31.777  27.884  27.160  1.00  0.00     0.256 C 
ATOM      5  O   UNL A   1      31.035  27.822  28.154  1.00  0.00    -0.269 OA
ATOM      6  H   UNL A   1      33.000  28.844  28.360  1.00  0.00     0.163 HD
BRANCH   4   7
ATOM      7  C   UNL A   1      31.284  27.493  25.823  1.00  0.00     0.097 A 
ATOM      8  C   UNL A   1      32.033  29.277  23.961  1.00  0.00     0.069 C 
ATOM      9  C   UNL A   1      31.287  28.110  24.499  1.00  0.00     0.066 A 
ATOM     10  N   UNL A   1      30.524  27.523  23.574  1.00  0.00    -0.195 NA
ATOM     11  S   UNL A   1      29.878  26.153  24.184  1.00  0.00    -0.018 S 
ATOM     12  C   UNL A   1      30.723  26.204  25.675  1.00  0.00     0.123 A 
BRANCH  12  13
ATOM     13  N   UNL A   1      30.806  25.176  26.571  1.00  0.00    -0.368 N 
ATOM     14  H   UNL A   1      30.773  25.423  27.523  1.00  0.00     0.162 HD
BRANCH  13  15
ATOM     15  C   UNL A   1      30.943  23.749  26.275  1.00  0.00     0.117 C 
ATOM     16  C   UNL A   1      29.864  23.001  27.079  1.00  0.00     0.037 C 
BRANCH  15  17
ATOM     17  C   UNL A   1      32.296  23.115  26.554  1.00  0.00     0.027 A 
ATOM     18  C   UNL A   1      32.755  22.482  27.696  1.00  0.00     0.017 A 
ATOM     19  S   UNL A   1      33.528  23.183  25.354  1.00  0.00    -0.147 S 
ATOM     20  C   UNL A   1      34.142  22.164  27.626  1.00  0.00     0.012 A 
ATOM     21  C   UNL A   1      34.680  22.475  26.399  1.00  0.00     0.065 A 
ENDBRANCH  15  17
ENDBRANCH  13  15
ENDBRANCH  12  13
ENDBRANCH   4   7
ENDBRANCH   2   3
ENDBRANCH   1   2
BRANCH   1  22
ATOM     22  C   UNL A   1      34.312  31.021  27.564  1.00  0.00     0.023 C 
BRANCH  22  23
ATOM     23  C   UNL A   1      35.153  32.213  28.020  1.00  0.00     0.116 C 
BRANCH  23  24
ATOM     24  N   UNL A   1      34.814  32.693  29.366  1.00  0.00    -0.352 N 
ATOM     25  C   UNL A   1      35.177  32.146  30.591  1.00  0.00     0.251 C 
ATOM     26  H   UNL A   1      34.258  33.505  29.406  1.00  0.00     0.163 HD
ATOM     27  O   UNL A   1      34.545  32.371  31.610  1.00  0.00    -0.269 OA
BRANCH  25  28
ATOM     28  C   UNL A   1      36.397  31.324  30.637  1.00  0.00     0.039 A 
ATOM     29  C   UNL A   1      36.390  29.924  30.633  1.00  0.00     0.014 A 
ATOM     30  C   UNL A   1      37.587  32.036  30.636  1.00  0.00     0.014 A 
ATOM     31  C   UNL A   1      37.611  29.253  30.577  1.00  0.00     0.010 A 
ATOM     32  C   UNL A   1      38.742  31.393  30.323  1.00  0.00     0.010 A 
ATOM     33  C   UNL A   1      38.778  30.009  30.423  1.00  0.00    -0.014 A 
BRANCH  33  34
ATOM     34  C   UNL A   1      40.107  29.436  30.311  1.00  0.00     0.031 A 
ATOM     35  C   UNL A   1      40.795  29.214  31.606  1.00  0.00     0.074 A 
ATOM     36  C   UNL A   1      40.463  28.818  29.160  1.00  0.00     0.049 A 
ATOM     37  N   UNL A   1      41.871  29.782  32.034  1.00  0.00    -0.248 NA
ATOM     38  C   UNL A   1      40.121  28.383  32.622  1.00  0.00     0.031 C 
ATOM     39  C   UNL A   1      39.668  28.659  27.932  1.00  0.00     0.029 A 
ATOM     40  N   UNL A   1      41.545  28.033  28.915  1.00  0.00    -0.354 N 
ATOM     41  C   UNL A   1      42.139  29.194  33.267  1.00  0.00     0.074 A 
ATOM     42  C   UNL A   1      40.917  28.560  33.678  1.00  0.00     0.031 C 
ATOM     43  C   UNL A   1      40.171  27.647  27.193  1.00  0.00     0.029 A 
ATOM     44  C   UNL A   1      41.396  27.187  27.814  1.00  0.00     0.049 A 
ATOM     45  H   UNL A   1      42.361  28.058  29.466  1.00  0.00     0.167 HD
ATOM     46  C   UNL A   1      43.418  29.019  33.703  1.00  0.00     0.037 A 
ATOM     47  C   UNL A   1      42.202  26.133  27.526  1.00  0.00     0.037 A 
ATOM     48  C   UNL A   1      44.342  29.783  32.897  1.00  0.00     0.049 A 
ATOM     49  C   UNL A   1      43.474  26.355  28.274  1.00  0.00     0.074 A 
ATOM     50  C   UNL A   1      44.446  31.118  32.549  1.00  0.00     0.029 A 
ATOM     51  N   UNL A   1      45.091  29.101  31.964  1.00  0.00    -0.354 N 
ATOM     52  N   UNL A   1      44.290  27.347  28.029  1.00  0.00    -0.248 NA
ATOM     53  C   UNL A   1      43.556  25.803  29.621  1.00  0.00     0.031 C 
ATOM     54  C   UNL A   1      44.780  31.105  31.163  1.00  0.00     0.029 A 
ATOM     55  C   UNL A   1      44.969  29.777  30.777  1.00  0.00     0.049 A 
ATOM     56  H   UNL A   1      45.615  28.281  32.120  1.00  0.00     0.167 HD
ATOM     57  C   UNL A   1      44.661  27.822  29.281  1.00  0.00     0.074 A 
ATOM     58  C   UNL A   1      44.221  26.793  30.223  1.00  0.00     0.031 C 
ATOM     59  C   UNL A   1      44.998  29.132  29.484  1.00  0.00     0.037 A 
BRANCH  46  60
ATOM     60  C   UNL A   1      43.887  27.874  34.572  1.00  0.00     0.057 A 
ATOM     61  C   UNL A   1      44.583  28.171  35.759  1.00  0.00     0.134 A 
ATOM     62  C   UNL A   1      43.945  26.522  34.174  1.00  0.00     0.134 A 
ATOM     63  F   UNL A   1      44.609  29.420  36.248  1.00  0.00    -0.206 F 
ATOM     64  C   UNL A   1      45.348  27.217  36.442  1.00  0.00     0.040 A 
ATOM     65  C   UNL A   1      44.659  25.551  34.881  1.00  0.00     0.040 A 
ATOM     66  F   UNL A   1      43.405  26.078  33.034  1.00  0.00    -0.206 F 
ATOM     67  C   UNL A   1      45.396  25.903  35.997  1.00  0.00     0.006 A 
ENDBRANCH  46  60
BRANCH  47  68
ATOM     68  C   UNL A   1      41.798  24.817  26.965  1.00  0.00     0.057 A 
ATOM     69  C   UNL A   1      42.615  24.123  26.063  1.00  0.00     0.134 A 
ATOM     70  C   UNL A   1      40.712  24.088  27.487  1.00  0.00     0.134 A 
ATOM     71  F   UNL A   1      43.704  24.708  25.542  1.00  0.00    -0.206 F 
ATOM     72  C   UNL A   1      42.374  22.784  25.710  1.00  0.00     0.040 A 
ATOM     73  C   UNL A   1      40.455  22.757  27.138  1.00  0.00     0.040 A 
ATOM     74  F   UNL A   1      39.907  24.610  28.424  1.00  0.00    -0.206 F 
ATOM     75  C   UNL A   1      41.295  22.096  26.255  1.00  0.00     0.006 A 
ENDBRANCH  47  68
BRANCH  59  76
ATOM     76  C   UNL A   1      45.166  30.041  28.293  1.00  0.00     0.057 A 
ATOM     77  C   UNL A   1      44.146  30.842  27.756  1.00  0.00     0.134 A 
ATOM     78  C   UNL A   1      46.458  30.269  27.807  1.00  0.00     0.134 A 
ATOM     79  F   UNL A   1      42.896  30.780  28.226  1.00  0.00    -0.206 F 
ATOM     80  C   UNL A   1      44.393  31.797  26.764  1.00  0.00     0.040 A 
ATOM     81  C   UNL A   1      46.727  31.243  26.841  1.00  0.00     0.040 A 
ATOM     82  F   UNL A   1      47.499  29.588  28.311  1.00  0.00    -0.206 F 
ATOM     83  C   UNL A   1      45.690  32.006  26.310  1.00  0.00     0.006 A 
ENDBRANCH  59  76
ENDBRANCH  33  34
ENDBRANCH  25  28
ENDBRANCH  23  24
ENDBRANCH  22  23
ENDBRANCH   1  22
TORSDOF 14
ENDMDL
MODEL 3
REMARK VINA RESULT:     -11.5      4.309      9.188
REMARK SMILES Cc1nsc(N[C@H](C)c2cccs2)c1C(=O)NCCCCNC(=O)c1ccc(-c2c3nc(c(-c4c(F)cccc4F)c4ccc([nH]4)c(-c4c(F)cccc4F)c4nc(c(-c5c(F)cccc5F)c5ccc2[nH]5)C=C4)C=C3)cc1
REMARK SMILES IDX 19 1 18 2 17 3 15 4 16 5 14 7 1 8 2 9 3 10 4 11 5 12 6 13
REMARK SMILES IDX 7 15 8 16 9 17 10 18 13 19 11 20 12 21 20 22 21 23 22 24
REMARK SMILES IDX 23 25 24 27 25 28 26 29 78 30 27 31 77 32 28 33 29 34 30 35
REMARK SMILES IDX 71 36 31 37 76 38 70 39 72 40 32 41 75 42 69 43 68 44 33 46
REMARK SMILES IDX 59 47 42 48 58 49 43 50 46 51 57 52 73 53 44 54 45 55 56 57
REMARK SMILES IDX 74 58 47 59 34 60 35 61 40 62 36 63 37 64 39 65 41 66 38 67
REMARK SMILES IDX 60 68 61 69 66 70 62 71 63 72 65 73 67 74 64 75 48 76 49 77
REMARK SMILES IDX 54 78 50 79 51 80 53 81 55 82 52 83
REMARK H PARENT 17 6 6 14 22 26 72 45 46 56
REMARK Flexibility Score: inf
ROOT
ATOM      1  C   UNL A   1      31.050  31.540  26.382  1.00  0.00     0.023 C 
ENDROOT
BRANCH   1   2
ATOM      2  C   UNL A   1      32.125  30.455  26.337  1.00  0.00     0.116 C 
BRANCH   2   3
ATOM      3  N   UNL A   1      31.699  29.181  26.857  1.00  0.00    -0.352 N 
ATOM      4  C   UNL A   1      31.506  27.928  26.344  1.00  0.00     0.256 C 
ATOM      5  O   UNL A   1      31.359  27.080  27.239  1.00  0.00    -0.269 OA
ATOM      6  H   UNL A   1      31.497  29.223  27.820  1.00  0.00     0.163 HD
BRANCH   4   7
ATOM      7  C   UNL A   1      31.369  27.555  24.920  1.00  0.00     0.097 A 
ATOM      8  C   UNL A   1      30.080  29.468  23.544  1.00  0.00     0.069 C 
ATOM      9  C   UNL A   1      30.688  28.129  23.762  1.00  0.00     0.066 A 
ATOM     10  N   UNL A   1      30.616  27.353  22.678  1.00  0.00    -0.195 NA
ATOM     11  S   UNL A   1      31.455  25.976  22.930  1.00  0.00    -0.018 S 
ATOM     12  C   UNL A   1      32.088  26.428  24.459  1.00  0.00     0.123 A 
BRANCH  12  13
ATOM     13  N   UNL A   1      33.096  25.783  25.118  1.00  0.00    -0.368 N 
ATOM     14  H   UNL A   1      33.728  26.353  25.612  1.00  0.00     0.162 HD
BRANCH  13  15
ATOM     15  C   UNL A   1      33.343  24.342  25.171  1.00  0.00     0.117 C 
ATOM     16  C   UNL A   1      32.901  23.845  26.560  1.00  0.00     0.037 C 
BRANCH  15  17
ATOM     17  C   UNL A   1      34.766  23.878  24.908  1.00  0.00     0.027 A 
ATOM     18  C   UNL A   1      35.895  24.006  25.698  1.00  0.00     0.017 A 
ATOM     19  S   UNL A   1      35.146  23.111  23.415  1.00  0.00    -0.147 S 
ATOM     20  C   UNL A   1      37.082  23.586  25.030  1.00  0.00     0.012 A 
ATOM     21  C   UNL A   1      36.813  23.059  23.788  1.00  0.00     0.065 A 
ENDBRANCH  15  17
ENDBRANCH  13  15
ENDBRANCH  12  13
ENDBRANCH   4   7
ENDBRANCH   2   3
ENDBRANCH   1   2
BRANCH   1  22
ATOM     22  C   UNL A   1      31.568  32.982  26.493  1.00  0.00     0.023 C 
BRANCH  22  23
ATOM     23  C   UNL A   1      32.602  33.220  27.593  1.00  0.00     0.116 C 
BRANCH  23  24
ATOM     24  N   UNL A   1      32.557  34.574  28.161  1.00  0.00    -0.352 N 
ATOM     25  C   UNL A   1      33.229  35.061  29.276  1.00  0.00     0.251 C 
ATOM     26  H   UNL A   1      31.977  35.218  27.694  1.00  0.00     0.163 HD
ATOM     27  O   UNL A   1      32.840  36.043  29.884  1.00  0.00    -0.269 OA
BRANCH  25  28
ATOM     28  C   UNL A   1      34.474  34.384  29.673  1.00  0.00     0.039 A 
ATOM     29  C   UNL A   1      34.607  33.626  30.843  1.00  0.00     0.014 A 
ATOM     30  C   UNL A   1      35.522  34.503  28.772  1.00  0.00     0.014 A 
ATOM     31  C   UNL A   1      35.805  32.948  31.063  1.00  0.00     0.010 A 
ATOM     32  C   UNL A   1      36.572  33.645  28.861  1.00  0.00     0.010 A 
ATOM     33  C   UNL A   1      36.777  32.971  30.058  1.00  0.00    -0.014 A 
BRANCH  33  34
ATOM     34  C   UNL A   1      38.049  32.276  30.141  1.00  0.00     0.031 A 
ATOM     35  C   UNL A   1      38.077  30.957  29.462  1.00  0.00     0.074 A 
ATOM     36  C   UNL A   1      39.162  32.977  30.459  1.00  0.00     0.049 A 
ATOM     37  N   UNL A   1      38.239  29.797  30.002  1.00  0.00    -0.248 NA
ATOM     38  C   UNL A   1      37.718  30.899  28.033  1.00  0.00     0.031 C 
ATOM     39  C   UNL A   1      39.273  34.409  30.778  1.00  0.00     0.029 A 
ATOM     40  N   UNL A   1      40.463  32.591  30.376  1.00  0.00    -0.354 N 
ATOM     41  C   UNL A   1      38.249  28.891  28.944  1.00  0.00     0.074 A 
ATOM     42  C   UNL A   1      37.671  29.582  27.825  1.00  0.00     0.031 C 
ATOM     43  C   UNL A   1      40.551  34.813  30.616  1.00  0.00     0.029 A 
ATOM     44  C   UNL A   1      41.369  33.653  30.327  1.00  0.00     0.049 A 
ATOM     45  H   UNL A   1      40.741  31.647  30.353  1.00  0.00     0.167 HD
ATOM     46  C   UNL A   1      39.004  27.758  28.993  1.00  0.00     0.037 A 
ATOM     47  C   UNL A   1      42.676  33.547  29.976  1.00  0.00     0.037 A 
ATOM     48  C   UNL A   1      39.476  27.515  30.337  1.00  0.00     0.049 A 
ATOM     49  C   UNL A   1      43.044  32.109  30.139  1.00  0.00     0.074 A 
ATOM     50  C   UNL A   1      38.860  27.380  31.568  1.00  0.00     0.029 A 
ATOM     51  N   UNL A   1      40.792  27.812  30.614  1.00  0.00    -0.354 N 
ATOM     52  N   UNL A   1      43.061  31.498  31.295  1.00  0.00    -0.248 NA
ATOM     53  C   UNL A   1      42.861  31.243  28.981  1.00  0.00     0.031 C 
ATOM     54  C   UNL A   1      39.683  28.121  32.466  1.00  0.00     0.029 A 
ATOM     55  C   UNL A   1      40.801  28.566  31.760  1.00  0.00     0.049 A 
ATOM     56  H   UNL A   1      41.578  27.534  30.089  1.00  0.00     0.167 HD
ATOM     57  C   UNL A   1      42.467  30.265  31.055  1.00  0.00     0.074 A 
ATOM     58  C   UNL A   1      42.416  30.144  29.598  1.00  0.00     0.031 C 
ATOM     59  C   UNL A   1      41.781  29.594  32.030  1.00  0.00     0.037 A 
BRANCH  46  60
ATOM     60  C   UNL A   1      39.649  27.096  27.797  1.00  0.00     0.057 A 
ATOM     61  C   UNL A   1      39.591  25.694  27.690  1.00  0.00     0.134 A 
ATOM     62  C   UNL A   1      40.552  27.721  26.911  1.00  0.00     0.134 A 
ATOM     63  F   UNL A   1      38.773  24.977  28.475  1.00  0.00    -0.206 F 
ATOM     64  C   UNL A   1      40.430  24.968  26.836  1.00  0.00     0.040 A 
ATOM     65  C   UNL A   1      41.353  27.009  26.015  1.00  0.00     0.040 A 
ATOM     66  F   UNL A   1      40.790  29.037  26.927  1.00  0.00    -0.206 F 
ATOM     67  C   UNL A   1      41.323  25.626  26.001  1.00  0.00     0.006 A 
ENDBRANCH  46  60
BRANCH  47  68
ATOM     68  C   UNL A   1      43.476  34.513  29.180  1.00  0.00     0.057 A 
ATOM     69  C   UNL A   1      44.852  34.675  29.390  1.00  0.00     0.134 A 
ATOM     70  C   UNL A   1      42.962  35.129  28.021  1.00  0.00     0.134 A 
ATOM     71  F   UNL A   1      45.453  34.090  30.437  1.00  0.00    -0.206 F 
ATOM     72  C   UNL A   1      45.668  35.394  28.500  1.00  0.00     0.040 A 
ATOM     73  C   UNL A   1      43.760  35.856  27.131  1.00  0.00     0.040 A 
ATOM     74  F   UNL A   1      41.679  34.977  27.662  1.00  0.00    -0.206 F 
ATOM     75  C   UNL A   1      45.122  35.981  27.362  1.00  0.00     0.006 A 
ENDBRANCH  47  68
BRANCH  59  76
ATOM     76  C   UNL A   1      41.837  30.100  33.449  1.00  0.00     0.057 A 
ATOM     77  C   UNL A   1      40.904  30.986  34.012  1.00  0.00     0.134 A 
ATOM     78  C   UNL A   1      42.744  29.506  34.333  1.00  0.00     0.134 A 
ATOM     79  F   UNL A   1      39.927  31.525  33.276  1.00  0.00    -0.206 F 
ATOM     80  C   UNL A   1      40.897  31.289  35.378  1.00  0.00     0.040 A 
ATOM     81  C   UNL A   1      42.728  29.773  35.704  1.00  0.00     0.040 A 
ATOM     82  F   UNL A   1      43.629  28.601  33.885  1.00  0.00    -0.206 F 
ATOM     83  C   UNL A   1      41.806  30.674  36.230  1.00  0.00     0.006 A 
ENDBRANCH  59  76
ENDBRANCH  33  34
ENDBRANCH  25  28
ENDBRANCH  23  24
ENDBRANCH  22  23
ENDBRANCH   1  22
TORSDOF 14
ENDMDL
