MODEL 1
REMARK VINA RESULT:     -11.7      0.000      0.000
REMARK SMILES O=C(CC[C@@H]1CN(c2ccncc2)CC[C@@H]1[NH+]1CCOCC1)NCCCCNC(=O)c1ccc(-c2c3nc(c(-c4c(F)cccc4F)c4ccc([nH]4)c(-c4c(F)cccc4F)c4nc(c(-c5c(F)cccc5F)c5ccc2[nH]5)C=C4)C=C3)cc1
REMARK SMILES IDX 25 1 24 2 23 3 1 4 2 5 3 7 4 8 5 9 6 10 16 11 7 12 15 13
REMARK SMILES IDX 14 14 17 15 18 16 22 17 19 19 21 20 20 21 8 22 9 23 13 24
REMARK SMILES IDX 10 25 12 26 11 27 26 28 27 29 28 30 29 31 30 33 31 34 32 35
REMARK SMILES IDX 84 36 33 37 83 38 34 39 35 40 36 41 77 42 37 43 82 44 76 45
REMARK SMILES IDX 78 46 38 47 81 48 75 49 74 50 39 52 65 53 48 54 64 55 49 56
REMARK SMILES IDX 52 57 63 58 79 59 50 60 51 61 62 63 80 64 53 65 40 66 41 67
REMARK SMILES IDX 46 68 42 69 43 70 45 71 47 72 44 73 66 74 67 75 72 76 68 77
REMARK SMILES IDX 69 78 71 79 73 80 70 81 54 82 55 83 60 84 56 85 57 86 59 87
REMARK SMILES IDX 61 88 58 89
REMARK H PARENT 23 6 17 18 28 32 78 51 52 62
REMARK Flexibility Score: inf
ROOT
ATOM      1  C   UNL A   1      34.447  33.647  28.433  1.00  0.00     0.023 C 
ENDROOT
BRANCH   1   2
ATOM      2  C   UNL A   1      34.482  32.326  29.213  1.00  0.00     0.116 C 
BRANCH   2   3
ATOM      3  N   UNL A   1      34.213  31.146  28.399  1.00  0.00    -0.356 N 
ATOM      4  O   UNL A   1      36.394  30.849  27.740  1.00  0.00    -0.275 OA
ATOM      5  C   UNL A   1      35.226  30.466  27.747  1.00  0.00     0.220 C 
ATOM      6  H   UNL A   1      33.288  30.824  28.312  1.00  0.00     0.163 HD
BRANCH   5   7
ATOM      7  C   UNL A   1      34.817  29.180  27.040  1.00  0.00     0.100 C 
BRANCH   7   8
ATOM      8  C   UNL A   1      33.293  29.030  26.879  1.00  0.00     0.021 C 
BRANCH   8   9
ATOM      9  C   UNL A   1      32.877  28.936  25.397  1.00  0.00     0.067 C 
ATOM     10  C   UNL A   1      31.383  29.138  25.214  1.00  0.00     0.126 C 
ATOM     11  C   UNL A   1      33.393  27.690  24.624  1.00  0.00     0.190 C 
ATOM     12  N   UNL A   1      31.037  29.165  23.790  1.00  0.00    -0.371 N 
ATOM     13  C   UNL A   1      33.134  27.970  23.137  1.00  0.00     0.087 C 
ATOM     14  C   UNL A   1      31.702  28.349  22.783  1.00  0.00     0.122 C 
BRANCH  11  15
ATOM     15  N   UNL A   1      33.041  26.361  25.158  1.00  0.00    -0.328 N 
ATOM     16  C   UNL A   1      34.197  25.588  25.666  1.00  0.00     0.291 C 
ATOM     17  C   UNL A   1      32.141  25.454  24.428  1.00  0.00     0.291 C 
ATOM     18  H   UNL A   1      32.445  26.709  25.908  1.00  0.00     0.348 HD
ATOM     19  C   UNL A   1      34.819  24.599  24.665  1.00  0.00     0.221 C 
ATOM     20  C   UNL A   1      32.801  24.418  23.499  1.00  0.00     0.221 C 
ATOM     21  O   UNL A   1      33.835  23.691  24.162  1.00  0.00    -0.370 OA
ENDBRANCH  11  15
BRANCH  12  22
ATOM     22  C   UNL A   1      29.798  29.711  23.482  1.00  0.00     0.040 A 
ATOM     23  C   UNL A   1      28.784  29.028  22.810  1.00  0.00     0.046 A 
ATOM     24  C   UNL A   1      29.539  31.011  23.887  1.00  0.00     0.046 A 
ATOM     25  C   UNL A   1      27.579  29.678  22.578  1.00  0.00     0.113 A 
ATOM     26  C   UNL A   1      28.295  31.555  23.662  1.00  0.00     0.113 A 
ATOM     27  N   UNL A   1      27.310  30.935  22.990  1.00  0.00    -0.265 NA
ENDBRANCH  12  22
ENDBRANCH   8   9
ENDBRANCH   7   8
ENDBRANCH   5   7
ENDBRANCH   2   3
ENDBRANCH   1   2
BRANCH   1  28
ATOM     28  C   UNL A   1      33.206  34.531  28.647  1.00  0.00     0.023 C 
BRANCH  28  29
ATOM     29  C   UNL A   1      33.432  35.847  29.408  1.00  0.00     0.116 C 
BRANCH  29  30
ATOM     30  N   UNL A   1      32.431  36.135  30.423  1.00  0.00    -0.352 N 
ATOM     31  C   UNL A   1      32.452  35.878  31.781  1.00  0.00     0.251 C 
ATOM     32  H   UNL A   1      31.616  36.579  30.093  1.00  0.00     0.163 HD
ATOM     33  O   UNL A   1      31.498  36.199  32.482  1.00  0.00    -0.269 OA
BRANCH  31  34
ATOM     34  C   UNL A   1      33.611  35.192  32.403  1.00  0.00     0.039 A 
ATOM     35  C   UNL A   1      33.520  33.856  32.778  1.00  0.00     0.014 A 
ATOM     36  C   UNL A   1      34.790  35.878  32.663  1.00  0.00     0.014 A 
ATOM     37  C   UNL A   1      34.646  33.201  33.313  1.00  0.00     0.010 A 
ATOM     38  C   UNL A   1      35.946  35.193  33.070  1.00  0.00     0.010 A 
ATOM     39  C   UNL A   1      35.911  33.828  33.388  1.00  0.00    -0.014 A 
BRANCH  39  40
ATOM     40  C   UNL A   1      37.158  33.041  33.724  1.00  0.00     0.031 A 
ATOM     41  C   UNL A   1      37.784  32.014  32.792  1.00  0.00     0.074 A 
ATOM     42  C   UNL A   1      37.727  33.183  34.946  1.00  0.00     0.049 A 
ATOM     43  N   UNL A   1      38.853  31.267  32.984  1.00  0.00    -0.248 NA
ATOM     44  C   UNL A   1      37.112  31.745  31.514  1.00  0.00     0.031 C 
ATOM     45  C   UNL A   1      37.199  34.002  36.040  1.00  0.00     0.029 A 
ATOM     46  N   UNL A   1      38.884  32.651  35.475  1.00  0.00    -0.354 N 
ATOM     47  C   UNL A   1      38.939  30.414  31.886  1.00  0.00     0.074 A 
ATOM     48  C   UNL A   1      37.788  30.699  31.058  1.00  0.00     0.031 C 
ATOM     49  C   UNL A   1      38.067  33.995  37.061  1.00  0.00     0.029 A 
ATOM     50  C   UNL A   1      39.190  33.124  36.730  1.00  0.00     0.049 A 
ATOM     51  H   UNL A   1      39.440  31.992  34.998  1.00  0.00     0.167 HD
ATOM     52  C   UNL A   1      39.896  29.501  31.568  1.00  0.00     0.037 A 
ATOM     53  C   UNL A   1      40.246  32.907  37.537  1.00  0.00     0.037 A 
ATOM     54  C   UNL A   1      41.104  29.266  32.320  1.00  0.00     0.049 A 
ATOM     55  C   UNL A   1      41.354  31.985  37.114  1.00  0.00     0.074 A 
ATOM     56  C   UNL A   1      42.188  28.471  31.977  1.00  0.00     0.029 A 
ATOM     57  N   UNL A   1      41.399  29.822  33.552  1.00  0.00    -0.354 N 
ATOM     58  N   UNL A   1      41.469  31.284  36.015  1.00  0.00    -0.248 NA
ATOM     59  C   UNL A   1      42.481  31.827  38.046  1.00  0.00     0.031 C 
ATOM     60  C   UNL A   1      43.122  28.518  33.018  1.00  0.00     0.029 A 
ATOM     61  C   UNL A   1      42.639  29.377  33.988  1.00  0.00     0.049 A 
ATOM     62  H   UNL A   1      40.815  30.443  34.046  1.00  0.00     0.167 HD
ATOM     63  C   UNL A   1      42.689  30.627  36.111  1.00  0.00     0.074 A 
ATOM     64  C   UNL A   1      43.286  31.023  37.367  1.00  0.00     0.031 C 
ATOM     65  C   UNL A   1      43.255  29.770  35.229  1.00  0.00     0.037 A 
BRANCH  52  66
ATOM     66  C   UNL A   1      39.711  28.693  30.309  1.00  0.00     0.057 A 
ATOM     67  C   UNL A   1      40.206  29.128  29.073  1.00  0.00     0.134 A 
ATOM     68  C   UNL A   1      39.117  27.423  30.353  1.00  0.00     0.134 A 
ATOM     69  F   UNL A   1      40.794  30.328  28.961  1.00  0.00    -0.206 F 
ATOM     70  C   UNL A   1      40.086  28.348  27.921  1.00  0.00     0.040 A 
ATOM     71  C   UNL A   1      39.022  26.620  29.214  1.00  0.00     0.040 A 
ATOM     72  F   UNL A   1      38.646  26.929  31.508  1.00  0.00    -0.206 F 
ATOM     73  C   UNL A   1      39.500  27.086  27.991  1.00  0.00     0.006 A 
ENDBRANCH  52  66
BRANCH  53  74
ATOM     74  C   UNL A   1      40.347  33.630  38.832  1.00  0.00     0.057 A 
ATOM     75  C   UNL A   1      41.161  34.762  38.954  1.00  0.00     0.134 A 
ATOM     76  C   UNL A   1      39.650  33.207  39.969  1.00  0.00     0.134 A 
ATOM     77  F   UNL A   1      41.870  35.201  37.903  1.00  0.00    -0.206 F 
ATOM     78  C   UNL A   1      41.296  35.438  40.166  1.00  0.00     0.040 A 
ATOM     79  C   UNL A   1      39.754  33.890  41.181  1.00  0.00     0.040 A 
ATOM     80  F   UNL A   1      38.847  32.135  39.912  1.00  0.00    -0.206 F 
ATOM     81  C   UNL A   1      40.587  35.004  41.284  1.00  0.00     0.006 A 
ENDBRANCH  53  74
BRANCH  65  82
ATOM     82  C   UNL A   1      44.614  29.223  35.561  1.00  0.00     0.057 A 
ATOM     83  C   UNL A   1      44.779  28.026  36.269  1.00  0.00     0.134 A 
ATOM     84  C   UNL A   1      45.772  29.891  35.144  1.00  0.00     0.134 A 
ATOM     85  F   UNL A   1      43.712  27.344  36.711  1.00  0.00    -0.206 F 
ATOM     86  C   UNL A   1      46.048  27.524  36.567  1.00  0.00     0.040 A 
ATOM     87  C   UNL A   1      47.046  29.386  35.416  1.00  0.00     0.040 A 
ATOM     88  F   UNL A   1      45.687  31.040  34.458  1.00  0.00    -0.206 F 
ATOM     89  C   UNL A   1      47.185  28.202  36.135  1.00  0.00     0.006 A 
ENDBRANCH  65  82
ENDBRANCH  39  40
ENDBRANCH  31  34
ENDBRANCH  29  30
ENDBRANCH  28  29
ENDBRANCH   1  28
TORSDOF 15
ENDMDL
MODEL 2
REMARK VINA RESULT:     -11.6      1.160      3.497
REMARK SMILES O=C(CC[C@@H]1CN(c2ccncc2)CC[C@@H]1[NH+]1CCOCC1)NCCCCNC(=O)c1ccc(-c2c3nc(c(-c4c(F)cccc4F)c4ccc([nH]4)c(-c4c(F)cccc4F)c4nc(c(-c5c(F)cccc5F)c5ccc2[nH]5)C=C4)C=C3)cc1
REMARK SMILES IDX 25 1 24 2 23 3 1 4 2 5 3 7 4 8 5 9 6 10 16 11 7 12 15 13
REMARK SMILES IDX 14 14 17 15 18 16 22 17 19 19 21 20 20 21 8 22 9 23 13 24
REMARK SMILES IDX 10 25 12 26 11 27 26 28 27 29 28 30 29 31 30 33 31 34 32 35
REMARK SMILES IDX 84 36 33 37 83 38 34 39 35 40 36 41 77 42 37 43 82 44 76 45
REMARK SMILES IDX 78 46 38 47 81 48 75 49 74 50 39 52 65 53 48 54 64 55 49 56
REMARK SMILES IDX 52 57 63 58 79 59 50 60 51 61 62 63 80 64 53 65 40 66 41 67
REMARK SMILES IDX 46 68 42 69 43 70 45 71 47 72 44 73 66 74 67 75 72 76 68 77
REMARK SMILES IDX 69 78 71 79 73 80 70 81 54 82 55 83 60 84 56 85 57 86 59 87
REMARK SMILES IDX 61 88 58 89
REMARK H PARENT 23 6 17 18 28 32 78 51 52 62
REMARK Flexibility Score: inf
ROOT
ATOM      1  C   UNL A   1      34.592  33.408  29.299  1.00  0.00     0.023 C 
ENDROOT
BRANCH   1   2
ATOM      2  C   UNL A   1      35.394  32.842  28.120  1.00  0.00     0.116 C 
BRANCH   2   3
ATOM      3  N   UNL A   1      34.888  31.571  27.611  1.00  0.00    -0.356 N 
ATOM      4  O   UNL A   1      36.873  30.442  27.871  1.00  0.00    -0.275 OA
ATOM      5  C   UNL A   1      35.681  30.439  27.567  1.00  0.00     0.220 C 
ATOM      6  H   UNL A   1      33.959  31.518  27.293  1.00  0.00     0.163 HD
BRANCH   5   7
ATOM      7  C   UNL A   1      34.985  29.155  27.133  1.00  0.00     0.100 C 
BRANCH   7   8
ATOM      8  C   UNL A   1      33.469  29.323  26.925  1.00  0.00     0.021 C 
BRANCH   8   9
ATOM      9  C   UNL A   1      32.774  27.974  26.643  1.00  0.00     0.067 C 
ATOM     10  C   UNL A   1      33.762  26.910  26.200  1.00  0.00     0.126 C 
ATOM     11  C   UNL A   1      31.529  28.033  25.714  1.00  0.00     0.190 C 
ATOM     12  N   UNL A   1      33.093  25.614  26.058  1.00  0.00    -0.371 N 
ATOM     13  C   UNL A   1      30.837  26.669  25.837  1.00  0.00     0.087 C 
ATOM     14  C   UNL A   1      31.726  25.460  25.578  1.00  0.00     0.122 C 
BRANCH  11  15
ATOM     15  N   UNL A   1      31.707  28.609  24.369  1.00  0.00    -0.328 N 
ATOM     16  C   UNL A   1      30.662  29.586  23.985  1.00  0.00     0.291 C 
ATOM     17  C   UNL A   1      32.023  27.763  23.206  1.00  0.00     0.291 C 
ATOM     18  H   UNL A   1      32.603  29.055  24.568  1.00  0.00     0.348 HD
ATOM     19  C   UNL A   1      29.493  29.010  23.167  1.00  0.00     0.221 C 
ATOM     20  C   UNL A   1      30.835  27.275  22.358  1.00  0.00     0.221 C 
ATOM     21  O   UNL A   1      29.967  28.347  21.991  1.00  0.00    -0.370 OA
ENDBRANCH  11  15
BRANCH  12  22
ATOM     22  C   UNL A   1      33.929  24.505  26.032  1.00  0.00     0.040 A 
ATOM     23  C   UNL A   1      33.622  23.276  26.615  1.00  0.00     0.046 A 
ATOM     24  C   UNL A   1      35.139  24.616  25.364  1.00  0.00     0.046 A 
ATOM     25  C   UNL A   1      34.535  22.235  26.503  1.00  0.00     0.113 A 
ATOM     26  C   UNL A   1      35.956  23.514  25.257  1.00  0.00     0.113 A 
ATOM     27  N   UNL A   1      35.703  22.327  25.835  1.00  0.00    -0.265 NA
ENDBRANCH  12  22
ENDBRANCH   8   9
ENDBRANCH   7   8
ENDBRANCH   5   7
ENDBRANCH   2   3
ENDBRANCH   1   2
BRANCH   1  28
ATOM     28  C   UNL A   1      33.379  34.284  28.941  1.00  0.00     0.023 C 
BRANCH  28  29
ATOM     29  C   UNL A   1      33.421  35.738  29.436  1.00  0.00     0.116 C 
BRANCH  29  30
ATOM     30  N   UNL A   1      32.428  36.058  30.449  1.00  0.00    -0.352 N 
ATOM     31  C   UNL A   1      32.465  35.850  31.816  1.00  0.00     0.251 C 
ATOM     32  H   UNL A   1      31.608  36.485  30.113  1.00  0.00     0.163 HD
ATOM     33  O   UNL A   1      31.516  36.192  32.515  1.00  0.00    -0.269 OA
BRANCH  31  34
ATOM     34  C   UNL A   1      33.634  35.194  32.451  1.00  0.00     0.039 A 
ATOM     35  C   UNL A   1      33.536  33.892  32.928  1.00  0.00     0.014 A 
ATOM     36  C   UNL A   1      34.831  35.877  32.620  1.00  0.00     0.014 A 
ATOM     37  C   UNL A   1      34.670  33.260  33.474  1.00  0.00     0.010 A 
ATOM     38  C   UNL A   1      35.990  35.205  33.040  1.00  0.00     0.010 A 
ATOM     39  C   UNL A   1      35.946  33.869  33.461  1.00  0.00    -0.014 A 
BRANCH  39  40
ATOM     40  C   UNL A   1      37.192  33.089  33.815  1.00  0.00     0.031 A 
ATOM     41  C   UNL A   1      37.832  32.059  32.897  1.00  0.00     0.074 A 
ATOM     42  C   UNL A   1      37.746  33.240  35.043  1.00  0.00     0.049 A 
ATOM     43  N   UNL A   1      38.901  31.317  33.104  1.00  0.00    -0.248 NA
ATOM     44  C   UNL A   1      37.175  31.780  31.613  1.00  0.00     0.031 C 
ATOM     45  C   UNL A   1      37.203  34.063  36.126  1.00  0.00     0.029 A 
ATOM     46  N   UNL A   1      38.899  32.715  35.587  1.00  0.00    -0.354 N 
ATOM     47  C   UNL A   1      39.003  30.458  32.012  1.00  0.00     0.074 A 
ATOM     48  C   UNL A   1      37.860  30.735  31.169  1.00  0.00     0.031 C 
ATOM     49  C   UNL A   1      38.060  34.064  37.157  1.00  0.00     0.029 A 
ATOM     50  C   UNL A   1      39.190  33.196  36.844  1.00  0.00     0.049 A 
ATOM     51  H   UNL A   1      39.463  32.056  35.121  1.00  0.00     0.167 HD
ATOM     52  C   UNL A   1      39.966  29.548  31.710  1.00  0.00     0.037 A 
ATOM     53  C   UNL A   1      40.238  32.987  37.664  1.00  0.00     0.037 A 
ATOM     54  C   UNL A   1      41.167  29.321  32.477  1.00  0.00     0.049 A 
ATOM     55  C   UNL A   1      41.353  32.067  37.258  1.00  0.00     0.074 A 
ATOM     56  C   UNL A   1      42.258  28.528  32.151  1.00  0.00     0.029 A 
ATOM     57  N   UNL A   1      41.446  29.885  33.709  1.00  0.00    -0.354 N 
ATOM     58  N   UNL A   1      41.483  31.361  36.164  1.00  0.00    -0.248 NA
ATOM     59  C   UNL A   1      42.471  31.919  38.204  1.00  0.00     0.031 C 
ATOM     60  C   UNL A   1      43.180  28.585  33.201  1.00  0.00     0.029 A 
ATOM     61  C   UNL A   1      42.683  29.447  34.161  1.00  0.00     0.049 A 
ATOM     62  H   UNL A   1      40.855  30.507  34.193  1.00  0.00     0.167 HD
ATOM     63  C   UNL A   1      42.705  30.709  36.277  1.00  0.00     0.074 A 
ATOM     64  C   UNL A   1      43.286  31.114  37.538  1.00  0.00     0.031 C 
ATOM     65  C   UNL A   1      43.284  29.849  35.406  1.00  0.00     0.037 A 
BRANCH  52  66
ATOM     66  C   UNL A   1      39.799  28.732  30.454  1.00  0.00     0.057 A 
ATOM     67  C   UNL A   1      39.104  27.516  30.449  1.00  0.00     0.134 A 
ATOM     68  C   UNL A   1      40.256  29.215  29.219  1.00  0.00     0.134 A 
ATOM     69  F   UNL A   1      38.631  27.000  31.594  1.00  0.00    -0.206 F 
ATOM     70  C   UNL A   1      38.898  26.794  29.272  1.00  0.00     0.040 A 
ATOM     71  C   UNL A   1      40.027  28.518  28.030  1.00  0.00     0.040 A 
ATOM     72  F   UNL A   1      40.906  30.387  29.142  1.00  0.00    -0.206 F 
ATOM     73  C   UNL A   1      39.354  27.298  28.056  1.00  0.00     0.006 A 
ENDBRANCH  52  66
BRANCH  53  74
ATOM     74  C   UNL A   1      40.321  33.718  38.955  1.00  0.00     0.057 A 
ATOM     75  C   UNL A   1      39.649  33.244  40.087  1.00  0.00     0.134 A 
ATOM     76  C   UNL A   1      41.059  34.900  39.087  1.00  0.00     0.134 A 
ATOM     77  F   UNL A   1      38.909  32.127  40.014  1.00  0.00    -0.206 F 
ATOM     78  C   UNL A   1      39.687  33.929  41.301  1.00  0.00     0.040 A 
ATOM     79  C   UNL A   1      41.128  35.581  40.303  1.00  0.00     0.040 A 
ATOM     80  F   UNL A   1      41.733  35.398  38.041  1.00  0.00    -0.206 F 
ATOM     81  C   UNL A   1      40.433  35.100  41.411  1.00  0.00     0.006 A 
ENDBRANCH  53  74
BRANCH  65  82
ATOM     82  C   UNL A   1      44.641  29.310  35.757  1.00  0.00     0.057 A 
ATOM     83  C   UNL A   1      45.819  29.972  35.392  1.00  0.00     0.134 A 
ATOM     84  C   UNL A   1      44.769  28.125  36.493  1.00  0.00     0.134 A 
ATOM     85  F   UNL A   1      45.769  31.105  34.674  1.00  0.00    -0.206 F 
ATOM     86  C   UNL A   1      47.077  29.465  35.728  1.00  0.00     0.040 A 
ATOM     87  C   UNL A   1      46.020  27.621  36.855  1.00  0.00     0.040 A 
ATOM     88  F   UNL A   1      43.681  27.442  36.880  1.00  0.00    -0.206 F 
ATOM     89  C   UNL A   1      47.178  28.289  36.467  1.00  0.00     0.006 A 
ENDBRANCH  65  82
ENDBRANCH  39  40
ENDBRANCH  31  34
ENDBRANCH  29  30
ENDBRANCH  28  29
ENDBRANCH   1  28
TORSDOF 15
ENDMDL
MODEL 3
REMARK VINA RESULT:     -11.5      3.310      8.463
REMARK SMILES O=C(CC[C@@H]1CN(c2ccncc2)CC[C@@H]1[NH+]1CCOCC1)NCCCCNC(=O)c1ccc(-c2c3nc(c(-c4c(F)cccc4F)c4ccc([nH]4)c(-c4c(F)cccc4F)c4nc(c(-c5c(F)cccc5F)c5ccc2[nH]5)C=C4)C=C3)cc1
REMARK SMILES IDX 25 1 24 2 23 3 1 4 2 5 3 7 4 8 5 9 6 10 16 11 7 12 15 13
REMARK SMILES IDX 14 14 17 15 18 16 22 17 19 19 21 20 20 21 8 22 9 23 13 24
REMARK SMILES IDX 10 25 12 26 11 27 26 28 27 29 28 30 29 31 30 33 31 34 32 35
REMARK SMILES IDX 84 36 33 37 83 38 34 39 35 40 36 41 77 42 37 43 82 44 76 45
REMARK SMILES IDX 78 46 38 47 81 48 75 49 74 50 39 52 65 53 48 54 64 55 49 56
REMARK SMILES IDX 52 57 63 58 79 59 50 60 51 61 62 63 80 64 53 65 40 66 41 67
REMARK SMILES IDX 46 68 42 69 43 70 45 71 47 72 44 73 66 74 67 75 72 76 68 77
REMARK SMILES IDX 69 78 71 79 73 80 70 81 54 82 55 83 60 84 56 85 57 86 59 87
REMARK SMILES IDX 61 88 58 89
REMARK H PARENT 23 6 17 18 28 32 78 51 52 62
REMARK Flexibility Score: inf
ROOT
ATOM      1  C   UNL A   1      33.075  28.519  24.580  1.00  0.00     0.023 C 
ENDROOT
BRANCH   1   2
ATOM      2  C   UNL A   1      32.915  27.636  23.335  1.00  0.00     0.116 C 
BRANCH   2   3
ATOM      3  N   UNL A   1      33.464  26.293  23.482  1.00  0.00    -0.356 N 
ATOM      4  O   UNL A   1      33.294  25.756  21.255  1.00  0.00    -0.275 OA
ATOM      5  C   UNL A   1      33.649  25.460  22.394  1.00  0.00     0.220 C 
ATOM      6  H   UNL A   1      33.711  25.971  24.379  1.00  0.00     0.163 HD
BRANCH   5   7
ATOM      7  C   UNL A   1      34.349  24.137  22.680  1.00  0.00     0.100 C 
BRANCH   7   8
ATOM      8  C   UNL A   1      33.390  22.932  22.703  1.00  0.00     0.021 C 
BRANCH   8   9
ATOM      9  C   UNL A   1      33.501  22.134  24.019  1.00  0.00     0.067 C 
ATOM     10  C   UNL A   1      33.175  20.664  23.819  1.00  0.00     0.126 C 
ATOM     11  C   UNL A   1      32.750  22.734  25.241  1.00  0.00     0.190 C 
ATOM     12  N   UNL A   1      33.405  19.913  25.057  1.00  0.00    -0.371 N 
ATOM     13  C   UNL A   1      33.255  21.968  26.472  1.00  0.00     0.087 C 
ATOM     14  C   UNL A   1      33.151  20.452  26.386  1.00  0.00     0.122 C 
BRANCH  11  15
ATOM     15  N   UNL A   1      31.300  22.965  25.106  1.00  0.00    -0.328 N 
ATOM     16  C   UNL A   1      30.932  24.380  24.871  1.00  0.00     0.291 C 
ATOM     17  C   UNL A   1      30.337  22.369  26.046  1.00  0.00     0.291 C 
ATOM     18  H   UNL A   1      31.183  22.389  24.273  1.00  0.00     0.348 HD
ATOM     19  C   UNL A   1      30.556  25.180  26.131  1.00  0.00     0.221 C 
ATOM     20  C   UNL A   1      29.914  23.231  27.250  1.00  0.00     0.221 C 
ATOM     21  O   UNL A   1      29.501  24.537  26.851  1.00  0.00    -0.370 OA
ENDBRANCH  11  15
BRANCH  12  22
ATOM     22  C   UNL A   1      33.512  18.536  24.913  1.00  0.00     0.040 A 
ATOM     23  C   UNL A   1      34.557  17.895  24.249  1.00  0.00     0.046 A 
ATOM     24  C   UNL A   1      32.530  17.742  25.485  1.00  0.00     0.046 A 
ATOM     25  C   UNL A   1      34.561  16.507  24.190  1.00  0.00     0.113 A 
ATOM     26  C   UNL A   1      32.646  16.373  25.423  1.00  0.00     0.113 A 
ATOM     27  N   UNL A   1      33.623  15.726  24.764  1.00  0.00    -0.265 NA
ENDBRANCH  12  22
ENDBRANCH   8   9
ENDBRANCH   7   8
ENDBRANCH   5   7
ENDBRANCH   2   3
ENDBRANCH   1   2
BRANCH   1  28
ATOM     28  C   UNL A   1      31.853  29.364  24.978  1.00  0.00     0.023 C 
BRANCH  28  29
ATOM     29  C   UNL A   1      31.782  29.806  26.448  1.00  0.00     0.116 C 
BRANCH  29  30
ATOM     30  N   UNL A   1      31.632  31.240  26.639  1.00  0.00    -0.352 N 
ATOM     31  C   UNL A   1      32.523  32.157  27.167  1.00  0.00     0.251 C 
ATOM     32  H   UNL A   1      30.768  31.614  26.351  1.00  0.00     0.163 HD
ATOM     33  O   UNL A   1      32.210  33.340  27.249  1.00  0.00    -0.269 OA
BRANCH  31  34
ATOM     34  C   UNL A   1      33.852  31.723  27.662  1.00  0.00     0.039 A 
ATOM     35  C   UNL A   1      34.809  32.664  28.026  1.00  0.00     0.014 A 
ATOM     36  C   UNL A   1      34.182  30.376  27.732  1.00  0.00     0.014 A 
ATOM     37  C   UNL A   1      36.044  32.238  28.550  1.00  0.00     0.010 A 
ATOM     38  C   UNL A   1      35.357  29.955  28.376  1.00  0.00     0.010 A 
ATOM     39  C   UNL A   1      36.314  30.877  28.822  1.00  0.00    -0.014 A 
BRANCH  39  40
ATOM     40  C   UNL A   1      37.534  30.461  29.613  1.00  0.00     0.031 A 
ATOM     41  C   UNL A   1      37.772  30.852  31.064  1.00  0.00     0.074 A 
ATOM     42  C   UNL A   1      38.521  29.766  28.998  1.00  0.00     0.049 A 
ATOM     43  N   UNL A   1      38.795  30.560  31.842  1.00  0.00    -0.248 NA
ATOM     44  C   UNL A   1      36.779  31.717  31.715  1.00  0.00     0.031 C 
ATOM     45  C   UNL A   1      38.560  29.420  27.576  1.00  0.00     0.029 A 
ATOM     46  N   UNL A   1      39.683  29.212  29.494  1.00  0.00    -0.354 N 
ATOM     47  C   UNL A   1      38.591  31.247  33.036  1.00  0.00     0.074 A 
ATOM     48  C   UNL A   1      37.374  32.010  32.863  1.00  0.00     0.031 C 
ATOM     49  C   UNL A   1      39.624  28.641  27.334  1.00  0.00     0.029 A 
ATOM     50  C   UNL A   1      40.386  28.475  28.567  1.00  0.00     0.049 A 
ATOM     51  H   UNL A   1      39.983  29.332  30.424  1.00  0.00     0.167 HD
ATOM     52  C   UNL A   1      39.318  31.227  34.185  1.00  0.00     0.037 A 
ATOM     53  C   UNL A   1      41.508  27.737  28.674  1.00  0.00     0.037 A 
ATOM     54  C   UNL A   1      40.475  30.400  34.423  1.00  0.00     0.049 A 
ATOM     55  C   UNL A   1      42.231  27.632  29.986  1.00  0.00     0.074 A 
ATOM     56  C   UNL A   1      41.168  30.213  35.610  1.00  0.00     0.029 A 
ATOM     57  N   UNL A   1      41.108  29.619  33.472  1.00  0.00    -0.354 N 
ATOM     58  N   UNL A   1      41.946  28.195  31.132  1.00  0.00    -0.248 NA
ATOM     59  C   UNL A   1      43.432  26.782  30.017  1.00  0.00     0.031 C 
ATOM     60  C   UNL A   1      42.240  29.347  35.369  1.00  0.00     0.029 A 
ATOM     61  C   UNL A   1      42.189  28.962  34.042  1.00  0.00     0.049 A 
ATOM     62  H   UNL A   1      40.831  29.541  32.530  1.00  0.00     0.167 HD
ATOM     63  C   UNL A   1      42.913  27.747  32.024  1.00  0.00     0.074 A 
ATOM     64  C   UNL A   1      43.784  26.854  31.292  1.00  0.00     0.031 C 
ATOM     65  C   UNL A   1      43.059  28.059  33.334  1.00  0.00     0.037 A 
BRANCH  52  66
ATOM     66  C   UNL A   1      38.864  32.103  35.324  1.00  0.00     0.057 A 
ATOM     67  C   UNL A   1      38.154  31.587  36.416  1.00  0.00     0.134 A 
ATOM     68  C   UNL A   1      39.224  33.458  35.374  1.00  0.00     0.134 A 
ATOM     69  F   UNL A   1      37.785  30.298  36.438  1.00  0.00    -0.206 F 
ATOM     70  C   UNL A   1      37.788  32.391  37.498  1.00  0.00     0.040 A 
ATOM     71  C   UNL A   1      38.893  34.263  36.467  1.00  0.00     0.040 A 
ATOM     72  F   UNL A   1      39.929  34.015  34.378  1.00  0.00    -0.206 F 
ATOM     73  C   UNL A   1      38.165  33.732  37.529  1.00  0.00     0.006 A 
ENDBRANCH  52  66
BRANCH  53  74
ATOM     74  C   UNL A   1      42.003  26.973  27.499  1.00  0.00     0.057 A 
ATOM     75  C   UNL A   1      42.824  27.585  26.545  1.00  0.00     0.134 A 
ATOM     76  C   UNL A   1      41.663  25.631  27.296  1.00  0.00     0.134 A 
ATOM     77  F   UNL A   1      43.165  28.876  26.676  1.00  0.00    -0.206 F 
ATOM     78  C   UNL A   1      43.274  26.897  25.419  1.00  0.00     0.040 A 
ATOM     79  C   UNL A   1      42.129  24.922  26.188  1.00  0.00     0.040 A 
ATOM     80  F   UNL A   1      40.888  24.987  28.181  1.00  0.00    -0.206 F 
ATOM     81  C   UNL A   1      42.929  25.559  25.241  1.00  0.00     0.006 A 
ENDBRANCH  53  74
BRANCH  65  82
ATOM     82  C   UNL A   1      44.178  27.400  34.087  1.00  0.00     0.057 A 
ATOM     83  C   UNL A   1      44.008  26.180  34.753  1.00  0.00     0.134 A 
ATOM     84  C   UNL A   1      45.452  27.982  34.124  1.00  0.00     0.134 A 
ATOM     85  F   UNL A   1      42.810  25.576  34.769  1.00  0.00    -0.206 F 
ATOM     86  C   UNL A   1      45.058  25.573  35.446  1.00  0.00     0.040 A 
ATOM     87  C   UNL A   1      46.516  27.372  34.793  1.00  0.00     0.040 A 
ATOM     88  F   UNL A   1      45.688  29.148  33.503  1.00  0.00    -0.206 F 
ATOM     89  C   UNL A   1      46.318  26.167  35.462  1.00  0.00     0.006 A 
ENDBRANCH  65  82
ENDBRANCH  39  40
ENDBRANCH  31  34
ENDBRANCH  29  30
ENDBRANCH  28  29
ENDBRANCH   1  28
TORSDOF 15
ENDMDL
