MODEL 1
REMARK VINA RESULT:     -12.3      0.000      0.000
REMARK SMILES [NH3+]Cc1ccc(C(=O)N2[C@@H](C(=O)NCCCCNC(=O)c3ccc(-c4c5nc(c(-c6c(F)cccc6F)c6ccc([nH]6)c(-c6c(F)cccc6F)c6nc(c(-c7c(F)cccc7F)c7ccc4[nH]7)C=C6)C=C5)cc3)C[C@H]3CCCC[C@@H]32)o1
REMARK SMILES IDX 14 1 13 2 11 3 12 4 10 6 9 7 81 8 75 9 76 10 80 11 77 12
REMARK SMILES IDX 79 13 78 14 7 15 8 16 6 17 3 18 4 19 82 20 5 21 2 22 1 23
REMARK SMILES IDX 15 27 16 28 17 29 18 30 19 31 20 33 21 34 22 35 74 36 23 37
REMARK SMILES IDX 73 38 24 39 25 40 26 41 67 42 27 43 72 44 66 45 68 46 28 47
REMARK SMILES IDX 71 48 65 49 64 50 29 52 55 53 38 54 54 55 39 56 42 57 53 58
REMARK SMILES IDX 69 59 40 60 41 61 52 63 70 64 43 65 30 66 31 67 36 68 32 69
REMARK SMILES IDX 33 70 35 71 37 72 34 73 56 74 57 75 62 76 58 77 59 78 61 79
REMARK SMILES IDX 63 80 60 81 44 82 45 83 50 84 46 85 47 86 49 87 51 88 48 89
REMARK H PARENT 13 5 1 24 1 25 1 26 18 32 68 51 42 62
REMARK Flexibility Score: inf
ROOT
ATOM      1  C   UNL A   1      37.111  21.836  24.838  1.00  0.00     0.116 C 
ENDROOT
BRANCH   1   2
ATOM      2  N   UNL A   1      36.372  22.416  23.733  1.00  0.00    -0.354 N 
ATOM      3  C   UNL A   1      35.344  23.317  23.751  1.00  0.00     0.242 C 
ATOM      4  O   UNL A   1      34.862  23.651  22.668  1.00  0.00    -0.273 OA
ATOM      5  H   UNL A   1      36.652  22.117  22.838  1.00  0.00     0.163 HD
BRANCH   3   6
ATOM      6  C   UNL A   1      34.900  23.938  25.099  1.00  0.00     0.175 C 
ATOM      7  N   UNL A   1      33.734  23.227  25.670  1.00  0.00    -0.321 N 
ATOM      8  C   UNL A   1      32.532  24.025  25.473  1.00  0.00     0.089 C 
ATOM      9  C   UNL A   1      34.388  25.374  24.816  1.00  0.00     0.041 C 
ATOM     10  C   UNL A   1      33.098  25.442  25.622  1.00  0.00     0.014 C 
ATOM     11  C   UNL A   1      31.355  23.870  26.438  1.00  0.00     0.025 C 
ATOM     12  C   UNL A   1      32.084  26.503  25.230  1.00  0.00     0.006 C 
ATOM     13  C   UNL A   1      30.288  24.935  26.141  1.00  0.00     0.002 C 
ATOM     14  C   UNL A   1      30.847  26.364  26.126  1.00  0.00     0.000 C 
BRANCH   7  15
ATOM     15  C   UNL A   1      33.704  21.898  26.099  1.00  0.00     0.290 C 
ATOM     16  O   UNL A   1      34.191  21.581  27.182  1.00  0.00    -0.265 OA
BRANCH  15  17
ATOM     17  C   UNL A   1      33.151  20.893  25.195  1.00  0.00     0.192 A 
ATOM     18  C   UNL A   1      32.642  18.814  24.615  1.00  0.00     0.159 A 
ATOM     19  C   UNL A   1      32.411  19.592  23.501  1.00  0.00     0.052 A 
ATOM     20  O   UNL A   1      33.087  19.594  25.641  1.00  0.00    -0.450 OA
ATOM     21  C   UNL A   1      32.761  20.917  23.865  1.00  0.00     0.057 A 
BRANCH  18  22
ATOM     22  C   UNL A   1      32.546  17.349  24.871  1.00  0.00     0.335 C 
BRANCH  22  23
ATOM     23  N   UNL A   1      33.227  16.997  26.125  1.00  0.00    -0.351 N 
ATOM     24  H   UNL A   1      32.533  16.846  26.858  1.00  0.00     0.344 HD
ATOM     25  H   UNL A   1      33.849  17.757  26.399  1.00  0.00     0.344 HD
ATOM     26  H   UNL A   1      33.769  16.144  25.989  1.00  0.00     0.344 HD
ENDBRANCH  22  23
ENDBRANCH  18  22
ENDBRANCH  15  17
ENDBRANCH   7  15
ENDBRANCH   3   6
ENDBRANCH   1   2
BRANCH   1  27
ATOM     27  C   UNL A   1      36.804  20.347  25.001  1.00  0.00     0.023 C 
BRANCH  27  28
ATOM     28  C   UNL A   1      38.033  19.421  24.980  1.00  0.00     0.023 C 
BRANCH  28  29
ATOM     29  C   UNL A   1      39.256  19.916  25.760  1.00  0.00     0.116 C 
BRANCH  29  30
ATOM     30  N   UNL A   1      40.336  18.943  25.788  1.00  0.00    -0.352 N 
ATOM     31  C   UNL A   1      41.676  19.138  26.020  1.00  0.00     0.251 C 
ATOM     32  H   UNL A   1      40.069  18.011  25.616  1.00  0.00     0.163 HD
ATOM     33  O   UNL A   1      42.458  18.202  25.887  1.00  0.00    -0.269 OA
BRANCH  31  34
ATOM     34  C   UNL A   1      42.192  20.475  26.393  1.00  0.00     0.039 A 
ATOM     35  C   UNL A   1      42.685  21.301  25.376  1.00  0.00     0.014 A 
ATOM     36  C   UNL A   1      42.249  20.892  27.727  1.00  0.00     0.014 A 
ATOM     37  C   UNL A   1      43.184  22.569  25.685  1.00  0.00     0.010 A 
ATOM     38  C   UNL A   1      42.739  22.164  28.036  1.00  0.00     0.010 A 
ATOM     39  C   UNL A   1      43.197  23.014  27.016  1.00  0.00    -0.014 A 
BRANCH  39  40
ATOM     40  C   UNL A   1      43.641  24.386  27.350  1.00  0.00     0.031 A 
ATOM     41  C   UNL A   1      42.654  25.431  27.778  1.00  0.00     0.074 A 
ATOM     42  C   UNL A   1      44.940  24.705  27.212  1.00  0.00     0.049 A 
ATOM     43  N   UNL A   1      42.858  26.699  28.030  1.00  0.00    -0.248 NA
ATOM     44  C   UNL A   1      41.259  24.996  27.940  1.00  0.00     0.031 C 
ATOM     45  C   UNL A   1      45.998  23.783  26.796  1.00  0.00     0.029 A 
ATOM     46  N   UNL A   1      45.586  25.902  27.389  1.00  0.00    -0.354 N 
ATOM     47  C   UNL A   1      41.617  27.220  28.367  1.00  0.00     0.074 A 
ATOM     48  C   UNL A   1      40.665  26.130  28.291  1.00  0.00     0.031 C 
ATOM     49  C   UNL A   1      47.161  24.453  26.736  1.00  0.00     0.029 A 
ATOM     50  C   UNL A   1      46.925  25.850  27.090  1.00  0.00     0.049 A 
ATOM     51  H   UNL A   1      45.134  26.718  27.701  1.00  0.00     0.167 HD
ATOM     52  C   UNL A   1      41.302  28.490  28.715  1.00  0.00     0.037 A 
ATOM     53  C   UNL A   1      47.852  26.823  27.077  1.00  0.00     0.037 A 
ATOM     54  C   UNL A   1      42.244  29.570  28.831  1.00  0.00     0.049 A 
ATOM     55  C   UNL A   1      47.466  28.231  27.416  1.00  0.00     0.074 A 
ATOM     56  C   UNL A   1      42.033  30.859  29.291  1.00  0.00     0.029 A 
ATOM     57  N   UNL A   1      43.579  29.488  28.472  1.00  0.00    -0.354 N 
ATOM     58  N   UNL A   1      46.299  28.698  27.779  1.00  0.00    -0.248 NA
ATOM     59  C   UNL A   1      48.524  29.248  27.325  1.00  0.00     0.031 C 
ATOM     60  C   UNL A   1      43.239  31.564  29.190  1.00  0.00     0.029 A 
ATOM     61  C   UNL A   1      44.196  30.712  28.666  1.00  0.00     0.049 A 
ATOM     62  H   UNL A   1      44.022  28.678  28.128  1.00  0.00     0.167 HD
ATOM     63  C   UNL A   1      46.478  30.061  27.960  1.00  0.00     0.074 A 
ATOM     64  C   UNL A   1      47.866  30.349  27.664  1.00  0.00     0.031 C 
ATOM     65  C   UNL A   1      45.570  30.988  28.346  1.00  0.00     0.037 A 
BRANCH  52  66
ATOM     66  C   UNL A   1      39.864  28.778  28.997  1.00  0.00     0.057 A 
ATOM     67  C   UNL A   1      39.338  28.657  30.287  1.00  0.00     0.134 A 
ATOM     68  C   UNL A   1      39.007  29.205  27.976  1.00  0.00     0.134 A 
ATOM     69  F   UNL A   1      40.112  28.242  31.301  1.00  0.00    -0.206 F 
ATOM     70  C   UNL A   1      38.001  28.953  30.555  1.00  0.00     0.040 A 
ATOM     71  C   UNL A   1      37.668  29.503  28.230  1.00  0.00     0.040 A 
ATOM     72  F   UNL A   1      39.457  29.328  26.717  1.00  0.00    -0.206 F 
ATOM     73  C   UNL A   1      37.163  29.380  29.524  1.00  0.00     0.006 A 
ENDBRANCH  52  66
BRANCH  53  74
ATOM     74  C   UNL A   1      49.240  26.500  26.685  1.00  0.00     0.057 A 
ATOM     75  C   UNL A   1      49.665  26.636  25.361  1.00  0.00     0.134 A 
ATOM     76  C   UNL A   1      50.170  26.064  27.635  1.00  0.00     0.134 A 
ATOM     77  F   UNL A   1      48.808  27.042  24.414  1.00  0.00    -0.206 F 
ATOM     78  C   UNL A   1      50.978  26.347  24.991  1.00  0.00     0.040 A 
ATOM     79  C   UNL A   1      51.486  25.774  27.279  1.00  0.00     0.040 A 
ATOM     80  F   UNL A   1      49.808  25.914  28.918  1.00  0.00    -0.206 F 
ATOM     81  C   UNL A   1      51.893  25.917  25.952  1.00  0.00     0.006 A 
ENDBRANCH  53  74
BRANCH  65  82
ATOM     82  C   UNL A   1      46.051  32.398  28.451  1.00  0.00     0.057 A 
ATOM     83  C   UNL A   1      46.619  32.875  29.639  1.00  0.00     0.134 A 
ATOM     84  C   UNL A   1      45.958  33.277  27.367  1.00  0.00     0.134 A 
ATOM     85  F   UNL A   1      46.718  32.080  30.714  1.00  0.00    -0.206 F 
ATOM     86  C   UNL A   1      47.076  34.190  29.745  1.00  0.00     0.040 A 
ATOM     87  C   UNL A   1      46.413  34.592  27.461  1.00  0.00     0.040 A 
ATOM     88  F   UNL A   1      45.415  32.874  26.209  1.00  0.00    -0.206 F 
ATOM     89  C   UNL A   1      46.974  35.051  28.652  1.00  0.00     0.006 A 
ENDBRANCH  65  82
ENDBRANCH  39  40
ENDBRANCH  31  34
ENDBRANCH  29  30
ENDBRANCH  28  29
ENDBRANCH  27  28
ENDBRANCH   1  27
TORSDOF 15
ENDMDL
MODEL 2
REMARK VINA RESULT:     -12.3      5.833     10.868
REMARK SMILES [NH3+]Cc1ccc(C(=O)N2[C@@H](C(=O)NCCCCNC(=O)c3ccc(-c4c5nc(c(-c6c(F)cccc6F)c6ccc([nH]6)c(-c6c(F)cccc6F)c6nc(c(-c7c(F)cccc7F)c7ccc4[nH]7)C=C6)C=C5)cc3)C[C@H]3CCCC[C@@H]32)o1
REMARK SMILES IDX 14 1 13 2 11 3 12 4 10 6 9 7 81 8 75 9 76 10 80 11 77 12
REMARK SMILES IDX 79 13 78 14 7 15 8 16 6 17 3 18 4 19 82 20 5 21 2 22 1 23
REMARK SMILES IDX 15 27 16 28 17 29 18 30 19 31 20 33 21 34 22 35 74 36 23 37
REMARK SMILES IDX 73 38 24 39 25 40 26 41 67 42 27 43 72 44 66 45 68 46 28 47
REMARK SMILES IDX 71 48 65 49 64 50 29 52 55 53 38 54 54 55 39 56 42 57 53 58
REMARK SMILES IDX 69 59 40 60 41 61 52 63 70 64 43 65 30 66 31 67 36 68 32 69
REMARK SMILES IDX 33 70 35 71 37 72 34 73 56 74 57 75 62 76 58 77 59 78 61 79
REMARK SMILES IDX 63 80 60 81 44 82 45 83 50 84 46 85 47 86 49 87 51 88 48 89
REMARK H PARENT 13 5 1 24 1 25 1 26 18 32 68 51 42 62
REMARK Flexibility Score: inf
ROOT
ATOM      1  C   UNL A   1      32.411  29.796  26.726  1.00  0.00     0.116 C 
ENDROOT
BRANCH   1   2
ATOM      2  N   UNL A   1      31.687  28.569  26.997  1.00  0.00    -0.354 N 
ATOM      3  C   UNL A   1      31.917  27.302  26.536  1.00  0.00     0.242 C 
ATOM      4  O   UNL A   1      31.143  26.416  26.901  1.00  0.00    -0.273 OA
ATOM      5  H   UNL A   1      30.916  28.661  27.603  1.00  0.00     0.163 HD
BRANCH   3   6
ATOM      6  C   UNL A   1      33.168  27.025  25.668  1.00  0.00     0.175 C 
ATOM      7  N   UNL A   1      32.849  27.056  24.222  1.00  0.00    -0.321 N 
ATOM      8  C   UNL A   1      32.798  25.697  23.704  1.00  0.00     0.089 C 
ATOM      9  C   UNL A   1      33.623  25.567  25.939  1.00  0.00     0.041 C 
ATOM     10  C   UNL A   1      33.893  25.026  24.542  1.00  0.00     0.014 C 
ATOM     11  C   UNL A   1      33.095  25.440  22.225  1.00  0.00     0.025 C 
ATOM     12  C   UNL A   1      33.899  23.517  24.366  1.00  0.00     0.006 C 
ATOM     13  C   UNL A   1      33.160  23.928  21.958  1.00  0.00     0.002 C 
ATOM     14  C   UNL A   1      34.134  23.191  22.886  1.00  0.00     0.000 C 
BRANCH   7  15
ATOM     15  C   UNL A   1      32.406  28.165  23.498  1.00  0.00     0.290 C 
ATOM     16  O   UNL A   1      33.191  29.055  23.178  1.00  0.00    -0.265 OA
BRANCH  15  17
ATOM     17  C   UNL A   1      30.980  28.272  23.202  1.00  0.00     0.192 A 
ATOM     18  C   UNL A   1      29.189  29.325  22.426  1.00  0.00     0.159 A 
ATOM     19  C   UNL A   1      28.724  28.199  23.072  1.00  0.00     0.052 A 
ATOM     20  O   UNL A   1      30.550  29.373  22.500  1.00  0.00    -0.450 OA
ATOM     21  C   UNL A   1      29.867  27.541  23.589  1.00  0.00     0.057 A 
BRANCH  18  22
ATOM     22  C   UNL A   1      28.508  30.461  21.742  1.00  0.00     0.335 C 
BRANCH  22  23
ATOM     23  N   UNL A   1      29.380  31.644  21.713  1.00  0.00    -0.351 N 
ATOM     24  H   UNL A   1      30.190  31.484  22.312  1.00  0.00     0.344 HD
ATOM     25  H   UNL A   1      28.863  32.456  22.050  1.00  0.00     0.344 HD
ATOM     26  H   UNL A   1      29.692  31.812  20.757  1.00  0.00     0.344 HD
ENDBRANCH  22  23
ENDBRANCH  18  22
ENDBRANCH  15  17
ENDBRANCH   7  15
ENDBRANCH   3   6
ENDBRANCH   1   2
BRANCH   1  27
ATOM     27  C   UNL A   1      31.555  30.794  25.945  1.00  0.00     0.023 C 
BRANCH  27  28
ATOM     28  C   UNL A   1      31.334  32.148  26.640  1.00  0.00     0.023 C 
BRANCH  28  29
ATOM     29  C   UNL A   1      32.594  32.840  27.172  1.00  0.00     0.116 C 
BRANCH  29  30
ATOM     30  N   UNL A   1      32.341  34.199  27.621  1.00  0.00    -0.352 N 
ATOM     31  C   UNL A   1      32.998  34.935  28.577  1.00  0.00     0.251 C 
ATOM     32  H   UNL A   1      31.592  34.658  27.176  1.00  0.00     0.163 HD
ATOM     33  O   UNL A   1      32.563  36.036  28.901  1.00  0.00    -0.269 OA
BRANCH  31  34
ATOM     34  C   UNL A   1      34.205  34.400  29.246  1.00  0.00     0.039 A 
ATOM     35  C   UNL A   1      34.049  33.772  30.488  1.00  0.00     0.014 A 
ATOM     36  C   UNL A   1      35.481  34.562  28.696  1.00  0.00     0.014 A 
ATOM     37  C   UNL A   1      35.163  33.255  31.156  1.00  0.00     0.010 A 
ATOM     38  C   UNL A   1      36.594  34.038  29.359  1.00  0.00     0.010 A 
ATOM     39  C   UNL A   1      36.439  33.370  30.585  1.00  0.00    -0.014 A 
BRANCH  39  40
ATOM     40  C   UNL A   1      37.617  32.752  31.236  1.00  0.00     0.031 A 
ATOM     41  C   UNL A   1      38.276  31.542  30.646  1.00  0.00     0.074 A 
ATOM     42  C   UNL A   1      38.060  33.258  32.400  1.00  0.00     0.049 A 
ATOM     43  N   UNL A   1      39.262  30.828  31.124  1.00  0.00    -0.248 NA
ATOM     44  C   UNL A   1      37.756  31.071  29.353  1.00  0.00     0.031 C 
ATOM     45  C   UNL A   1      37.502  34.427  33.083  1.00  0.00     0.029 A 
ATOM     46  N   UNL A   1      39.072  32.837  33.225  1.00  0.00    -0.354 N 
ATOM     47  C   UNL A   1      39.476  29.814  30.201  1.00  0.00     0.074 A 
ATOM     48  C   UNL A   1      38.517  30.006  29.132  1.00  0.00     0.031 C 
ATOM     49  C   UNL A   1      38.171  34.621  34.232  1.00  0.00     0.029 A 
ATOM     50  C   UNL A   1      39.188  33.582  34.373  1.00  0.00     0.049 A 
ATOM     51  H   UNL A   1      39.658  32.076  33.015  1.00  0.00     0.167 HD
ATOM     52  C   UNL A   1      40.392  28.817  30.240  1.00  0.00     0.037 A 
ATOM     53  C   UNL A   1      40.004  33.430  35.430  1.00  0.00     0.037 A 
ATOM     54  C   UNL A   1      41.372  28.640  31.277  1.00  0.00     0.049 A 
ATOM     55  C   UNL A   1      40.973  32.288  35.472  1.00  0.00     0.074 A 
ATOM     56  C   UNL A   1      42.414  27.729  31.338  1.00  0.00     0.029 A 
ATOM     57  N   UNL A   1      41.423  29.384  32.443  1.00  0.00    -0.354 N 
ATOM     58  N   UNL A   1      41.195  31.366  34.570  1.00  0.00    -0.248 NA
ATOM     59  C   UNL A   1      41.790  32.157  36.687  1.00  0.00     0.031 C 
ATOM     60  C   UNL A   1      43.084  27.910  32.556  1.00  0.00     0.029 A 
ATOM     61  C   UNL A   1      42.456  28.932  33.247  1.00  0.00     0.049 A 
ATOM     62  H   UNL A   1      40.813  30.125  32.668  1.00  0.00     0.167 HD
ATOM     63  C   UNL A   1      42.176  30.545  35.104  1.00  0.00     0.074 A 
ATOM     64  C   UNL A   1      42.506  31.074  36.412  1.00  0.00     0.031 C 
ATOM     65  C   UNL A   1      42.756  29.453  34.554  1.00  0.00     0.037 A 
BRANCH  52  66
ATOM     66  C   UNL A   1      40.372  27.835  29.115  1.00  0.00     0.057 A 
ATOM     67  C   UNL A   1      39.541  26.711  29.146  1.00  0.00     0.134 A 
ATOM     68  C   UNL A   1      41.170  28.032  27.982  1.00  0.00     0.134 A 
ATOM     69  F   UNL A   1      38.764  26.468  30.213  1.00  0.00    -0.206 F 
ATOM     70  C   UNL A   1      39.503  25.809  28.082  1.00  0.00     0.040 A 
ATOM     71  C   UNL A   1      41.142  27.138  26.912  1.00  0.00     0.040 A 
ATOM     72  F   UNL A   1      41.993  29.090  27.904  1.00  0.00    -0.206 F 
ATOM     73  C   UNL A   1      40.304  26.023  26.959  1.00  0.00     0.006 A 
ENDBRANCH  52  66
BRANCH  53  74
ATOM     74  C   UNL A   1      39.904  34.370  36.566  1.00  0.00     0.057 A 
ATOM     75  C   UNL A   1      40.610  35.577  36.566  1.00  0.00     0.134 A 
ATOM     76  C   UNL A   1      39.088  34.084  37.665  1.00  0.00     0.134 A 
ATOM     77  F   UNL A   1      41.412  35.892  35.539  1.00  0.00    -0.206 F 
ATOM     78  C   UNL A   1      40.506  36.474  37.629  1.00  0.00     0.040 A 
ATOM     79  C   UNL A   1      38.974  34.972  38.734  1.00  0.00     0.040 A 
ATOM     80  F   UNL A   1      38.395  32.936  37.713  1.00  0.00    -0.206 F 
ATOM     81  C   UNL A   1      39.684  36.173  38.716  1.00  0.00     0.006 A 
ENDBRANCH  53  74
BRANCH  65  82
ATOM     82  C   UNL A   1      43.791  28.755  35.372  1.00  0.00     0.057 A 
ATOM     83  C   UNL A   1      43.428  27.779  36.308  1.00  0.00     0.134 A 
ATOM     84  C   UNL A   1      45.151  29.047  35.222  1.00  0.00     0.134 A 
ATOM     85  F   UNL A   1      42.137  27.470  36.504  1.00  0.00    -0.206 F 
ATOM     86  C   UNL A   1      44.389  27.117  37.074  1.00  0.00     0.040 A 
ATOM     87  C   UNL A   1      46.120  28.392  35.980  1.00  0.00     0.040 A 
ATOM     88  F   UNL A   1      45.553  29.980  34.346  1.00  0.00    -0.206 F 
ATOM     89  C   UNL A   1      45.740  27.423  36.909  1.00  0.00     0.006 A 
ENDBRANCH  65  82
ENDBRANCH  39  40
ENDBRANCH  31  34
ENDBRANCH  29  30
ENDBRANCH  28  29
ENDBRANCH  27  28
ENDBRANCH   1  27
TORSDOF 15
ENDMDL
MODEL 3
REMARK VINA RESULT:     -12.0      0.831      6.153
REMARK SMILES [NH3+]Cc1ccc(C(=O)N2[C@@H](C(=O)NCCCCNC(=O)c3ccc(-c4c5nc(c(-c6c(F)cccc6F)c6ccc([nH]6)c(-c6c(F)cccc6F)c6nc(c(-c7c(F)cccc7F)c7ccc4[nH]7)C=C6)C=C5)cc3)C[C@H]3CCCC[C@@H]32)o1
REMARK SMILES IDX 14 1 13 2 11 3 12 4 10 6 9 7 81 8 75 9 76 10 80 11 77 12
REMARK SMILES IDX 79 13 78 14 7 15 8 16 6 17 3 18 4 19 82 20 5 21 2 22 1 23
REMARK SMILES IDX 15 27 16 28 17 29 18 30 19 31 20 33 21 34 22 35 74 36 23 37
REMARK SMILES IDX 73 38 24 39 25 40 26 41 67 42 27 43 72 44 66 45 68 46 28 47
REMARK SMILES IDX 71 48 65 49 64 50 29 52 55 53 38 54 54 55 39 56 42 57 53 58
REMARK SMILES IDX 69 59 40 60 41 61 52 63 70 64 43 65 30 66 31 67 36 68 32 69
REMARK SMILES IDX 33 70 35 71 37 72 34 73 56 74 57 75 62 76 58 77 59 78 61 79
REMARK SMILES IDX 63 80 60 81 44 82 45 83 50 84 46 85 47 86 49 87 51 88 48 89
REMARK H PARENT 13 5 1 24 1 25 1 26 18 32 68 51 42 62
REMARK Flexibility Score: inf
ROOT
ATOM      1  C   UNL A   1      36.871  21.595  25.003  1.00  0.00     0.116 C 
ENDROOT
BRANCH   1   2
ATOM      2  N   UNL A   1      36.225  22.237  23.874  1.00  0.00    -0.354 N 
ATOM      3  C   UNL A   1      35.280  23.225  23.858  1.00  0.00     0.242 C 
ATOM      4  O   UNL A   1      34.869  23.598  22.759  1.00  0.00    -0.273 OA
ATOM      5  H   UNL A   1      36.509  21.914  22.989  1.00  0.00     0.163 HD
BRANCH   3   6
ATOM      6  C   UNL A   1      34.845  23.883  25.190  1.00  0.00     0.175 C 
ATOM      7  N   UNL A   1      33.639  23.234  25.752  1.00  0.00    -0.321 N 
ATOM      8  C   UNL A   1      32.478  24.083  25.526  1.00  0.00     0.089 C 
ATOM      9  C   UNL A   1      34.403  25.337  24.882  1.00  0.00     0.041 C 
ATOM     10  C   UNL A   1      33.106  25.475  25.667  1.00  0.00     0.014 C 
ATOM     11  C   UNL A   1      31.281  23.995  26.475  1.00  0.00     0.025 C 
ATOM     12  C   UNL A   1      32.148  26.576  25.245  1.00  0.00     0.006 C 
ATOM     13  C   UNL A   1      30.269  25.104  26.148  1.00  0.00     0.002 C 
ATOM     14  C   UNL A   1      30.893  26.505  26.123  1.00  0.00     0.000 C 
BRANCH   7  15
ATOM     15  C   UNL A   1      33.542  21.914  26.197  1.00  0.00     0.290 C 
ATOM     16  O   UNL A   1      33.928  21.605  27.322  1.00  0.00    -0.265 OA
BRANCH  15  17
ATOM     17  C   UNL A   1      33.043  20.906  25.266  1.00  0.00     0.192 A 
ATOM     18  C   UNL A   1      32.579  18.823  24.659  1.00  0.00     0.159 A 
ATOM     19  C   UNL A   1      32.400  19.602  23.535  1.00  0.00     0.052 A 
ATOM     20  O   UNL A   1      32.965  19.606  25.707  1.00  0.00    -0.450 OA
ATOM     21  C   UNL A   1      32.721  20.928  23.918  1.00  0.00     0.057 A 
BRANCH  18  22
ATOM     22  C   UNL A   1      32.480  17.357  24.909  1.00  0.00     0.335 C 
BRANCH  22  23
ATOM     23  N   UNL A   1      33.225  16.988  26.120  1.00  0.00    -0.351 N 
ATOM     24  H   UNL A   1      34.057  16.459  25.860  1.00  0.00     0.344 HD
ATOM     25  H   UNL A   1      32.634  16.416  26.722  1.00  0.00     0.344 HD
ATOM     26  H   UNL A   1      33.502  17.834  26.619  1.00  0.00     0.344 HD
ENDBRANCH  22  23
ENDBRANCH  18  22
ENDBRANCH  15  17
ENDBRANCH   7  15
ENDBRANCH   3   6
ENDBRANCH   1   2
BRANCH   1  27
ATOM     27  C   UNL A   1      36.657  20.081  24.989  1.00  0.00     0.023 C 
BRANCH  27  28
ATOM     28  C   UNL A   1      37.945  19.239  24.996  1.00  0.00     0.023 C 
BRANCH  28  29
ATOM     29  C   UNL A   1      39.158  19.881  25.680  1.00  0.00     0.116 C 
BRANCH  29  30
ATOM     30  N   UNL A   1      40.270  18.956  25.834  1.00  0.00    -0.352 N 
ATOM     31  C   UNL A   1      41.577  19.217  26.163  1.00  0.00     0.251 C 
ATOM     32  H   UNL A   1      40.054  18.008  25.681  1.00  0.00     0.163 HD
ATOM     33  O   UNL A   1      42.404  18.310  26.132  1.00  0.00    -0.269 OA
BRANCH  31  34
ATOM     34  C   UNL A   1      42.009  20.587  26.519  1.00  0.00     0.039 A 
ATOM     35  C   UNL A   1      42.434  21.436  25.490  1.00  0.00     0.014 A 
ATOM     36  C   UNL A   1      42.054  21.019  27.849  1.00  0.00     0.014 A 
ATOM     37  C   UNL A   1      42.852  22.737  25.783  1.00  0.00     0.010 A 
ATOM     38  C   UNL A   1      42.463  22.323  28.142  1.00  0.00     0.010 A 
ATOM     39  C   UNL A   1      42.852  23.192  27.110  1.00  0.00    -0.014 A 
BRANCH  39  40
ATOM     40  C   UNL A   1      43.208  24.594  27.428  1.00  0.00     0.031 A 
ATOM     41  C   UNL A   1      44.639  25.039  27.444  1.00  0.00     0.074 A 
ATOM     42  C   UNL A   1      42.231  25.457  27.761  1.00  0.00     0.049 A 
ATOM     43  N   UNL A   1      45.134  26.204  27.778  1.00  0.00    -0.248 NA
ATOM     44  C   UNL A   1      45.644  24.048  27.034  1.00  0.00     0.031 C 
ATOM     45  C   UNL A   1      40.802  25.146  27.793  1.00  0.00     0.029 A 
ATOM     46  N   UNL A   1      42.300  26.769  28.156  1.00  0.00    -0.354 N 
ATOM     47  C   UNL A   1      46.509  26.085  27.635  1.00  0.00     0.074 A 
ATOM     48  C   UNL A   1      46.771  24.735  27.179  1.00  0.00     0.031 C 
ATOM     49  C   UNL A   1      40.128  26.234  28.201  1.00  0.00     0.029 A 
ATOM     50  C   UNL A   1      41.079  27.308  28.476  1.00  0.00     0.049 A 
ATOM     51  H   UNL A   1      43.143  27.273  28.206  1.00  0.00     0.167 HD
ATOM     52  C   UNL A   1      47.464  27.019  27.856  1.00  0.00     0.037 A 
ATOM     53  C   UNL A   1      40.764  28.522  28.960  1.00  0.00     0.037 A 
ATOM     54  C   UNL A   1      47.211  28.372  28.271  1.00  0.00     0.049 A 
ATOM     55  C   UNL A   1      41.845  29.520  29.245  1.00  0.00     0.074 A 
ATOM     56  C   UNL A   1      48.108  29.419  28.406  1.00  0.00     0.029 A 
ATOM     57  N   UNL A   1      45.968  28.863  28.631  1.00  0.00    -0.354 N 
ATOM     58  N   UNL A   1      43.135  29.408  29.058  1.00  0.00    -0.248 NA
ATOM     59  C   UNL A   1      41.425  30.803  29.826  1.00  0.00     0.031 C 
ATOM     60  C   UNL A   1      47.407  30.540  28.869  1.00  0.00     0.029 A 
ATOM     61  C   UNL A   1      46.077  30.187  29.021  1.00  0.00     0.049 A 
ATOM     62  H   UNL A   1      45.130  28.346  28.613  1.00  0.00     0.167 HD
ATOM     63  C   UNL A   1      43.684  30.604  29.497  1.00  0.00     0.074 A 
ATOM     64  C   UNL A   1      42.587  31.427  29.963  1.00  0.00     0.031 C 
ATOM     65  C   UNL A   1      44.983  30.985  29.504  1.00  0.00     0.037 A 
BRANCH  52  66
ATOM     66  C   UNL A   1      48.882  26.599  27.650  1.00  0.00     0.057 A 
ATOM     67  C   UNL A   1      49.659  26.118  28.709  1.00  0.00     0.134 A 
ATOM     68  C   UNL A   1      49.464  26.651  26.378  1.00  0.00     0.134 A 
ATOM     69  F   UNL A   1      49.154  26.057  29.950  1.00  0.00    -0.206 F 
ATOM     70  C   UNL A   1      50.975  25.700  28.510  1.00  0.00     0.040 A 
ATOM     71  C   UNL A   1      50.779  26.237  26.166  1.00  0.00     0.040 A 
ATOM     72  F   UNL A   1      48.767  27.114  25.328  1.00  0.00    -0.206 F 
ATOM     73  C   UNL A   1      51.538  25.756  27.234  1.00  0.00     0.006 A 
ENDBRANCH  52  66
BRANCH  53  74
ATOM     74  C   UNL A   1      39.351  28.846  29.247  1.00  0.00     0.057 A 
ATOM     75  C   UNL A   1      38.798  28.605  30.508  1.00  0.00     0.134 A 
ATOM     76  C   UNL A   1      38.533  29.417  28.266  1.00  0.00     0.134 A 
ATOM     77  F   UNL A   1      39.540  28.051  31.477  1.00  0.00    -0.206 F 
ATOM     78  C   UNL A   1      37.470  28.924  30.787  1.00  0.00     0.040 A 
ATOM     79  C   UNL A   1      37.203  29.742  28.532  1.00  0.00     0.040 A 
ATOM     80  F   UNL A   1      39.016  29.662  27.039  1.00  0.00    -0.206 F 
ATOM     81  C   UNL A   1      36.669  29.496  29.798  1.00  0.00     0.006 A 
ENDBRANCH  53  74
BRANCH  65  82
ATOM     82  C   UNL A   1      45.283  32.343  30.046  1.00  0.00     0.057 A 
ATOM     83  C   UNL A   1      45.632  32.518  31.391  1.00  0.00     0.134 A 
ATOM     84  C   UNL A   1      45.235  33.476  29.227  1.00  0.00     0.134 A 
ATOM     85  F   UNL A   1      45.678  31.468  32.224  1.00  0.00    -0.206 F 
ATOM     86  C   UNL A   1      45.920  33.783  31.905  1.00  0.00     0.040 A 
ATOM     87  C   UNL A   1      45.522  34.745  29.729  1.00  0.00     0.040 A 
ATOM     88  F   UNL A   1      44.899  33.366  27.933  1.00  0.00    -0.206 F 
ATOM     89  C   UNL A   1      45.866  34.901  31.072  1.00  0.00     0.006 A 
ENDBRANCH  65  82
ENDBRANCH  39  40
ENDBRANCH  31  34
ENDBRANCH  29  30
ENDBRANCH  28  29
ENDBRANCH  27  28
ENDBRANCH   1  27
TORSDOF 15
ENDMDL
