MODEL 1
REMARK VINA RESULT:     -11.4      0.000      0.000
REMARK SMILES C[C@@H](O)[C@@H](NC(=O)c1csc(-c2ccsc2)n1)C(=O)NCCCCNC(=O)c1ccc(-c2c3nc(c(-c4c(F)cccc4F)c4ccc([nH]4)c(-c4c(F)cccc4F)c4nc(c(-c5c(F)cccc5F)c5ccc2[nH]5)C=C4)C=C3)cc1
REMARK SMILES IDX 22 1 21 2 20 3 18 4 19 5 4 7 2 8 1 9 3 10 5 12 6 13 7 15
REMARK SMILES IDX 8 16 9 17 17 18 10 19 11 20 12 21 13 22 16 23 14 24 15 25
REMARK SMILES IDX 23 26 24 27 25 28 26 29 27 31 28 32 29 33 81 34 30 35 80 36
REMARK SMILES IDX 31 37 32 38 33 39 74 40 34 41 79 42 73 43 75 44 35 45 78 46
REMARK SMILES IDX 72 47 71 48 36 50 62 51 45 52 61 53 46 54 49 55 60 56 76 57
REMARK SMILES IDX 47 58 48 59 59 61 77 62 50 63 37 64 38 65 43 66 39 67 40 68
REMARK SMILES IDX 42 69 44 70 41 71 63 72 64 73 69 74 65 75 66 76 68 77 70 78
REMARK SMILES IDX 67 79 51 80 52 81 57 82 53 83 54 84 56 85 58 86 55 87
REMARK H PARENT 20 6 3 11 5 14 25 30 75 49 49 60
REMARK Flexibility Score: inf
ROOT
ATOM      1  C   UNL A   1      36.896  22.035  24.109  1.00  0.00     0.023 C 
ENDROOT
BRANCH   1   2
ATOM      2  C   UNL A   1      35.469  22.342  24.553  1.00  0.00     0.116 C 
BRANCH   2   3
ATOM      3  N   UNL A   1      35.258  21.905  25.917  1.00  0.00    -0.354 N 
ATOM      4  C   UNL A   1      34.105  21.676  26.608  1.00  0.00     0.245 C 
ATOM      5  O   UNL A   1      34.226  21.511  27.826  1.00  0.00    -0.273 OA
ATOM      6  H   UNL A   1      36.083  21.747  26.430  1.00  0.00     0.163 HD
BRANCH   4   7
ATOM      7  C   UNL A   1      32.718  21.800  25.939  1.00  0.00     0.200 C 
BRANCH   7   8
ATOM      8  C   UNL A   1      32.471  20.405  25.267  1.00  0.00     0.143 C 
ATOM      9  C   UNL A   1      32.455  20.406  23.743  1.00  0.00     0.041 C 
BRANCH   8  10
ATOM     10  O   UNL A   1      33.501  19.485  25.640  1.00  0.00    -0.391 OA
ATOM     11  H   UNL A   1      34.063  19.299  24.871  1.00  0.00     0.211 HD
ENDBRANCH   8  10
ENDBRANCH   7   8
BRANCH   7  12
ATOM     12  N   UNL A   1      31.605  22.198  26.829  1.00  0.00    -0.337 N 
ATOM     13  C   UNL A   1      30.692  23.225  26.730  1.00  0.00     0.271 C 
ATOM     14  H   UNL A   1      31.498  21.633  27.627  1.00  0.00     0.164 HD
ATOM     15  O   UNL A   1      29.704  23.182  27.462  1.00  0.00    -0.267 OA
BRANCH  13  16
ATOM     16  C   UNL A   1      31.016  24.415  25.949  1.00  0.00     0.139 A 
ATOM     17  C   UNL A   1      30.804  24.460  24.580  1.00  0.00     0.101 A 
ATOM     18  N   UNL A   1      31.501  25.599  26.492  1.00  0.00    -0.231 NA
ATOM     19  S   UNL A   1      30.904  26.074  24.029  1.00  0.00    -0.122 S 
ATOM     20  C   UNL A   1      31.413  26.565  25.599  1.00  0.00     0.125 A 
BRANCH  20  21
ATOM     21  C   UNL A   1      31.711  27.995  25.938  1.00  0.00     0.021 A 
ATOM     22  C   UNL A   1      31.339  29.114  25.136  1.00  0.00     0.023 A 
ATOM     23  C   UNL A   1      32.410  28.379  27.063  1.00  0.00     0.076 A 
ATOM     24  C   UNL A   1      31.723  30.308  25.707  1.00  0.00     0.065 A 
ATOM     25  S   UNL A   1      32.602  30.078  27.157  1.00  0.00    -0.152 S 
ENDBRANCH  20  21
ENDBRANCH  13  16
ENDBRANCH   7  12
ENDBRANCH   4   7
ENDBRANCH   2   3
ENDBRANCH   1   2
BRANCH   1  26
ATOM     26  C   UNL A   1      37.448  20.704  24.630  1.00  0.00     0.023 C 
BRANCH  26  27
ATOM     27  C   UNL A   1      38.505  20.831  25.721  1.00  0.00     0.116 C 
BRANCH  27  28
ATOM     28  N   UNL A   1      39.487  19.759  25.668  1.00  0.00    -0.352 N 
ATOM     29  C   UNL A   1      40.827  19.809  25.960  1.00  0.00     0.251 C 
ATOM     30  H   UNL A   1      39.144  18.880  25.386  1.00  0.00     0.163 HD
ATOM     31  O   UNL A   1      41.556  18.855  25.709  1.00  0.00    -0.269 OA
BRANCH  29  32
ATOM     32  C   UNL A   1      41.390  21.037  26.555  1.00  0.00     0.039 A 
ATOM     33  C   UNL A   1      41.936  22.006  25.712  1.00  0.00     0.014 A 
ATOM     34  C   UNL A   1      41.345  21.238  27.938  1.00  0.00     0.014 A 
ATOM     35  C   UNL A   1      42.382  23.212  26.253  1.00  0.00     0.010 A 
ATOM     36  C   UNL A   1      41.732  22.465  28.466  1.00  0.00     0.010 A 
ATOM     37  C   UNL A   1      42.253  23.463  27.629  1.00  0.00    -0.014 A 
BRANCH  37  38
ATOM     38  C   UNL A   1      42.655  24.768  28.209  1.00  0.00     0.031 A 
ATOM     39  C   UNL A   1      41.629  25.843  28.427  1.00  0.00     0.074 A 
ATOM     40  C   UNL A   1      43.952  25.005  28.482  1.00  0.00     0.049 A 
ATOM     41  N   UNL A   1      41.793  27.065  28.865  1.00  0.00    -0.248 NA
ATOM     42  C   UNL A   1      40.237  25.508  28.084  1.00  0.00     0.031 C 
ATOM     43  C   UNL A   1      45.048  24.058  28.270  1.00  0.00     0.029 A 
ATOM     44  N   UNL A   1      44.569  26.121  28.986  1.00  0.00    -0.354 N 
ATOM     45  C   UNL A   1      40.532  27.648  28.836  1.00  0.00     0.074 A 
ATOM     46  C   UNL A   1      39.622  26.663  28.292  1.00  0.00     0.031 C 
ATOM     47  C   UNL A   1      46.200  24.626  28.663  1.00  0.00     0.029 A 
ATOM     48  C   UNL A   1      45.929  25.985  29.121  1.00  0.00     0.049 A 
ATOM     49  H   UNL A   1      44.083  26.942  29.229  1.00  0.00     0.167 HD
ATOM     50  C   UNL A   1      40.162  28.883  29.249  1.00  0.00     0.037 A 
ATOM     51  C   UNL A   1      46.853  26.860  29.562  1.00  0.00     0.037 A 
ATOM     52  C   UNL A   1      41.064  29.853  29.813  1.00  0.00     0.049 A 
ATOM     53  C   UNL A   1      46.418  28.226  30.011  1.00  0.00     0.074 A 
ATOM     54  C   UNL A   1      40.776  31.110  30.315  1.00  0.00     0.029 A 
ATOM     55  N   UNL A   1      42.432  29.671  29.949  1.00  0.00    -0.354 N 
ATOM     56  N   UNL A   1      45.212  28.740  30.042  1.00  0.00    -0.248 NA
ATOM     57  C   UNL A   1      47.469  29.131  30.493  1.00  0.00     0.031 C 
ATOM     58  C   UNL A   1      41.975  31.703  30.721  1.00  0.00     0.029 A 
ATOM     59  C   UNL A   1      43.005  30.800  30.510  1.00  0.00     0.049 A 
ATOM     60  H   UNL A   1      42.924  28.859  29.686  1.00  0.00     0.167 HD
ATOM     61  C   UNL A   1      45.356  30.016  30.570  1.00  0.00     0.074 A 
ATOM     62  C   UNL A   1      46.764  30.194  30.856  1.00  0.00     0.031 C 
ATOM     63  C   UNL A   1      44.408  30.957  30.797  1.00  0.00     0.037 A 
BRANCH  50  64
ATOM     64  C   UNL A   1      38.715  29.251  29.110  1.00  0.00     0.057 A 
ATOM     65  C   UNL A   1      38.166  29.632  27.878  1.00  0.00     0.134 A 
ATOM     66  C   UNL A   1      37.853  29.198  30.212  1.00  0.00     0.134 A 
ATOM     67  F   UNL A   1      38.942  29.716  26.786  1.00  0.00    -0.206 F 
ATOM     68  C   UNL A   1      36.819  29.973  27.752  1.00  0.00     0.040 A 
ATOM     69  C   UNL A   1      36.498  29.512  30.094  1.00  0.00     0.040 A 
ATOM     70  F   UNL A   1      38.312  28.836  31.419  1.00  0.00    -0.206 F 
ATOM     71  C   UNL A   1      35.979  29.907  28.862  1.00  0.00     0.006 A 
ENDBRANCH  50  64
BRANCH  51  72
ATOM     72  C   UNL A   1      48.282  26.461  29.627  1.00  0.00     0.057 A 
ATOM     73  C   UNL A   1      48.803  25.839  30.766  1.00  0.00     0.134 A 
ATOM     74  C   UNL A   1      49.157  26.697  28.561  1.00  0.00     0.134 A 
ATOM     75  F   UNL A   1      48.016  25.603  31.827  1.00  0.00    -0.206 F 
ATOM     76  C   UNL A   1      50.149  25.481  30.853  1.00  0.00     0.040 A 
ATOM     77  C   UNL A   1      50.501  26.325  28.624  1.00  0.00     0.040 A 
ATOM     78  F   UNL A   1      48.715  27.283  27.439  1.00  0.00    -0.206 F 
ATOM     79  C   UNL A   1      51.001  25.720  29.776  1.00  0.00     0.006 A 
ENDBRANCH  51  72
BRANCH  63  80
ATOM     80  C   UNL A   1      44.857  32.247  31.415  1.00  0.00     0.057 A 
ATOM     81  C   UNL A   1      44.926  32.417  32.802  1.00  0.00     0.134 A 
ATOM     82  C   UNL A   1      45.263  33.319  30.609  1.00  0.00     0.134 A 
ATOM     83  F   UNL A   1      44.539  31.432  33.627  1.00  0.00    -0.206 F 
ATOM     84  C   UNL A   1      45.364  33.615  33.368  1.00  0.00     0.040 A 
ATOM     85  C   UNL A   1      45.725  34.512  31.162  1.00  0.00     0.040 A 
ATOM     86  F   UNL A   1      45.227  33.217  29.272  1.00  0.00    -0.206 F 
ATOM     87  C   UNL A   1      45.772  34.665  32.546  1.00  0.00     0.006 A 
ENDBRANCH  63  80
ENDBRANCH  37  38
ENDBRANCH  29  32
ENDBRANCH  27  28
ENDBRANCH  26  27
ENDBRANCH   1  26
TORSDOF 16
ENDMDL
MODEL 2
REMARK VINA RESULT:     -11.3      3.009      7.612
REMARK SMILES C[C@@H](O)[C@@H](NC(=O)c1csc(-c2ccsc2)n1)C(=O)NCCCCNC(=O)c1ccc(-c2c3nc(c(-c4c(F)cccc4F)c4ccc([nH]4)c(-c4c(F)cccc4F)c4nc(c(-c5c(F)cccc5F)c5ccc2[nH]5)C=C4)C=C3)cc1
REMARK SMILES IDX 22 1 21 2 20 3 18 4 19 5 4 7 2 8 1 9 3 10 5 12 6 13 7 15
REMARK SMILES IDX 8 16 9 17 17 18 10 19 11 20 12 21 13 22 16 23 14 24 15 25
REMARK SMILES IDX 23 26 24 27 25 28 26 29 27 31 28 32 29 33 81 34 30 35 80 36
REMARK SMILES IDX 31 37 32 38 33 39 74 40 34 41 79 42 73 43 75 44 35 45 78 46
REMARK SMILES IDX 72 47 71 48 36 50 62 51 45 52 61 53 46 54 49 55 60 56 76 57
REMARK SMILES IDX 47 58 48 59 59 61 77 62 50 63 37 64 38 65 43 66 39 67 40 68
REMARK SMILES IDX 42 69 44 70 41 71 63 72 64 73 69 74 65 75 66 76 68 77 70 78
REMARK SMILES IDX 67 79 51 80 52 81 57 82 53 83 54 84 56 85 58 86 55 87
REMARK H PARENT 20 6 3 11 5 14 25 30 75 49 49 60
REMARK Flexibility Score: inf
ROOT
ATOM      1  C   UNL A   1      33.055  29.693  25.181  1.00  0.00     0.023 C 
ENDROOT
BRANCH   1   2
ATOM      2  C   UNL A   1      31.544  29.487  25.203  1.00  0.00     0.116 C 
BRANCH   2   3
ATOM      3  N   UNL A   1      30.988  29.674  23.879  1.00  0.00    -0.354 N 
ATOM      4  C   UNL A   1      30.967  28.843  22.799  1.00  0.00     0.245 C 
ATOM      5  O   UNL A   1      30.606  29.348  21.732  1.00  0.00    -0.273 OA
ATOM      6  H   UNL A   1      30.552  30.545  23.735  1.00  0.00     0.163 HD
BRANCH   4   7
ATOM      7  C   UNL A   1      31.536  27.408  22.866  1.00  0.00     0.200 C 
BRANCH   7   8
ATOM      8  C   UNL A   1      30.315  26.511  23.267  1.00  0.00     0.143 C 
ATOM      9  C   UNL A   1      30.355  25.941  24.680  1.00  0.00     0.041 C 
BRANCH   8  10
ATOM     10  O   UNL A   1      29.099  27.263  23.191  1.00  0.00    -0.391 OA
ATOM     11  H   UNL A   1      28.962  27.740  24.024  1.00  0.00     0.211 HD
ENDBRANCH   8  10
ENDBRANCH   7   8
BRANCH   7  12
ATOM     12  N   UNL A   1      32.210  26.922  21.641  1.00  0.00    -0.337 N 
ATOM     13  C   UNL A   1      32.683  25.673  21.305  1.00  0.00     0.271 C 
ATOM     14  H   UNL A   1      32.343  27.608  20.949  1.00  0.00     0.164 HD
ATOM     15  O   UNL A   1      32.964  25.468  20.125  1.00  0.00    -0.267 OA
BRANCH  13  16
ATOM     16  C   UNL A   1      33.040  24.723  22.355  1.00  0.00     0.139 A 
ATOM     17  C   UNL A   1      32.220  23.651  22.667  1.00  0.00     0.101 A 
ATOM     18  N   UNL A   1      34.225  24.769  23.080  1.00  0.00    -0.231 NA
ATOM     19  S   UNL A   1      33.074  22.528  23.633  1.00  0.00    -0.122 S 
ATOM     20  C   UNL A   1      34.392  23.632  23.728  1.00  0.00     0.125 A 
BRANCH  20  21
ATOM     21  C   UNL A   1      35.654  23.316  24.472  1.00  0.00     0.021 A 
ATOM     22  C   UNL A   1      36.218  24.131  25.497  1.00  0.00     0.023 A 
ATOM     23  C   UNL A   1      36.427  22.202  24.219  1.00  0.00     0.076 A 
ATOM     24  C   UNL A   1      37.368  23.581  26.020  1.00  0.00     0.065 A 
ATOM     25  S   UNL A   1      37.814  22.135  25.221  1.00  0.00    -0.152 S 
ENDBRANCH  20  21
ENDBRANCH  13  16
ENDBRANCH   7  12
ENDBRANCH   4   7
ENDBRANCH   2   3
ENDBRANCH   1   2
BRANCH   1  26
ATOM     26  C   UNL A   1      33.854  28.590  25.883  1.00  0.00     0.023 C 
BRANCH  26  27
ATOM     27  C   UNL A   1      33.868  28.678  27.405  1.00  0.00     0.116 C 
BRANCH  27  28
ATOM     28  N   UNL A   1      33.838  30.052  27.882  1.00  0.00    -0.352 N 
ATOM     29  C   UNL A   1      34.827  30.761  28.518  1.00  0.00     0.251 C 
ATOM     30  H   UNL A   1      32.997  30.539  27.726  1.00  0.00     0.163 HD
ATOM     31  O   UNL A   1      34.590  31.862  29.004  1.00  0.00    -0.269 OA
BRANCH  29  32
ATOM     32  C   UNL A   1      36.173  30.170  28.637  1.00  0.00     0.039 A 
ATOM     33  C   UNL A   1      37.035  30.227  27.542  1.00  0.00     0.014 A 
ATOM     34  C   UNL A   1      36.588  29.593  29.842  1.00  0.00     0.014 A 
ATOM     35  C   UNL A   1      38.343  29.759  27.673  1.00  0.00     0.010 A 
ATOM     36  C   UNL A   1      37.910  29.187  29.989  1.00  0.00     0.010 A 
ATOM     37  C   UNL A   1      38.800  29.267  28.907  1.00  0.00    -0.014 A 
BRANCH  37  38
ATOM     38  C   UNL A   1      40.207  28.834  29.084  1.00  0.00     0.031 A 
ATOM     39  C   UNL A   1      41.218  29.779  29.669  1.00  0.00     0.074 A 
ATOM     40  C   UNL A   1      40.587  27.613  28.660  1.00  0.00     0.049 A 
ATOM     41  N   UNL A   1      42.503  29.608  29.847  1.00  0.00    -0.248 NA
ATOM     42  C   UNL A   1      40.723  31.101  30.086  1.00  0.00     0.031 C 
ATOM     43  C   UNL A   1      39.710  26.623  28.034  1.00  0.00     0.029 A 
ATOM     44  N   UNL A   1      41.815  27.002  28.685  1.00  0.00    -0.354 N 
ATOM     45  C   UNL A   1      42.971  30.801  30.382  1.00  0.00     0.074 A 
ATOM     46  C   UNL A   1      41.843  31.704  30.454  1.00  0.00     0.031 C 
ATOM     47  C   UNL A   1      40.423  25.520  27.754  1.00  0.00     0.029 A 
ATOM     48  C   UNL A   1      41.812  25.737  28.150  1.00  0.00     0.049 A 
ATOM     49  H   UNL A   1      42.623  27.429  29.053  1.00  0.00     0.167 HD
ATOM     50  C   UNL A   1      44.222  31.108  30.799  1.00  0.00     0.037 A 
ATOM     51  C   UNL A   1      42.816  24.854  27.993  1.00  0.00     0.037 A 
ATOM     52  C   UNL A   1      45.337  30.199  30.749  1.00  0.00     0.049 A 
ATOM     53  C   UNL A   1      44.197  25.219  28.460  1.00  0.00     0.074 A 
ATOM     54  C   UNL A   1      46.631  30.395  31.201  1.00  0.00     0.029 A 
ATOM     55  N   UNL A   1      45.290  28.920  30.216  1.00  0.00    -0.354 N 
ATOM     56  N   UNL A   1      44.610  26.326  29.026  1.00  0.00    -0.248 NA
ATOM     57  C   UNL A   1      45.248  24.210  28.273  1.00  0.00     0.031 C 
ATOM     58  C   UNL A   1      47.375  29.249  30.907  1.00  0.00     0.029 A 
ATOM     59  C   UNL A   1      46.535  28.322  30.309  1.00  0.00     0.049 A 
ATOM     60  H   UNL A   1      44.489  28.500  29.827  1.00  0.00     0.167 HD
ATOM     61  C   UNL A   1      45.961  26.138  29.287  1.00  0.00     0.074 A 
ATOM     62  C   UNL A   1      46.294  24.806  28.828  1.00  0.00     0.031 C 
ATOM     63  C   UNL A   1      46.847  26.992  29.855  1.00  0.00     0.037 A 
BRANCH  50  64
ATOM     64  C   UNL A   1      44.446  32.484  31.350  1.00  0.00     0.057 A 
ATOM     65  C   UNL A   1      44.834  33.553  30.532  1.00  0.00     0.134 A 
ATOM     66  C   UNL A   1      44.246  32.752  32.710  1.00  0.00     0.134 A 
ATOM     67  F   UNL A   1      45.056  33.359  29.222  1.00  0.00    -0.206 F 
ATOM     68  C   UNL A   1      45.041  34.832  31.049  1.00  0.00     0.040 A 
ATOM     69  C   UNL A   1      44.425  34.033  33.236  1.00  0.00     0.040 A 
ATOM     70  F   UNL A   1      43.869  31.775  33.549  1.00  0.00    -0.206 F 
ATOM     71  C   UNL A   1      44.830  35.076  32.405  1.00  0.00     0.006 A 
ENDBRANCH  50  64
BRANCH  51  72
ATOM     72  C   UNL A   1      42.548  23.525  27.388  1.00  0.00     0.057 A 
ATOM     73  C   UNL A   1      42.213  22.426  28.187  1.00  0.00     0.134 A 
ATOM     74  C   UNL A   1      42.627  23.320  26.006  1.00  0.00     0.134 A 
ATOM     75  F   UNL A   1      42.141  22.558  29.520  1.00  0.00    -0.206 F 
ATOM     76  C   UNL A   1      41.984  21.164  27.637  1.00  0.00     0.040 A 
ATOM     77  C   UNL A   1      42.378  22.068  25.439  1.00  0.00     0.040 A 
ATOM     78  F   UNL A   1      42.935  24.335  25.187  1.00  0.00    -0.206 F 
ATOM     79  C   UNL A   1      42.062  20.985  26.257  1.00  0.00     0.006 A 
ENDBRANCH  51  72
BRANCH  63  80
ATOM     80  C   UNL A   1      48.251  26.498  30.043  1.00  0.00     0.057 A 
ATOM     81  C   UNL A   1      49.249  26.732  29.090  1.00  0.00     0.134 A 
ATOM     82  C   UNL A   1      48.615  25.816  31.211  1.00  0.00     0.134 A 
ATOM     83  F   UNL A   1      48.959  27.368  27.945  1.00  0.00    -0.206 F 
ATOM     84  C   UNL A   1      50.558  26.286  29.282  1.00  0.00     0.040 A 
ATOM     85  C   UNL A   1      49.925  25.387  31.425  1.00  0.00     0.040 A 
ATOM     86  F   UNL A   1      47.707  25.567  32.166  1.00  0.00    -0.206 F 
ATOM     87  C   UNL A   1      50.899  25.617  30.456  1.00  0.00     0.006 A 
ENDBRANCH  63  80
ENDBRANCH  37  38
ENDBRANCH  29  32
ENDBRANCH  27  28
ENDBRANCH  26  27
ENDBRANCH   1  26
TORSDOF 16
ENDMDL
MODEL 3
REMARK VINA RESULT:     -11.2      1.351      1.596
REMARK SMILES C[C@@H](O)[C@@H](NC(=O)c1csc(-c2ccsc2)n1)C(=O)NCCCCNC(=O)c1ccc(-c2c3nc(c(-c4c(F)cccc4F)c4ccc([nH]4)c(-c4c(F)cccc4F)c4nc(c(-c5c(F)cccc5F)c5ccc2[nH]5)C=C4)C=C3)cc1
REMARK SMILES IDX 22 1 21 2 20 3 18 4 19 5 4 7 2 8 1 9 3 10 5 12 6 13 7 15
REMARK SMILES IDX 8 16 9 17 17 18 10 19 11 20 12 21 13 22 16 23 14 24 15 25
REMARK SMILES IDX 23 26 24 27 25 28 26 29 27 31 28 32 29 33 81 34 30 35 80 36
REMARK SMILES IDX 31 37 32 38 33 39 74 40 34 41 79 42 73 43 75 44 35 45 78 46
REMARK SMILES IDX 72 47 71 48 36 50 62 51 45 52 61 53 46 54 49 55 60 56 76 57
REMARK SMILES IDX 47 58 48 59 59 61 77 62 50 63 37 64 38 65 43 66 39 67 40 68
REMARK SMILES IDX 42 69 44 70 41 71 63 72 64 73 69 74 65 75 66 76 68 77 70 78
REMARK SMILES IDX 67 79 51 80 52 81 57 82 53 83 54 84 56 85 58 86 55 87
REMARK H PARENT 20 6 3 11 5 14 25 30 75 49 49 60
REMARK Flexibility Score: inf
ROOT
ATOM      1  C   UNL A   1      36.950  21.378  24.547  1.00  0.00     0.023 C 
ENDROOT
BRANCH   1   2
ATOM      2  C   UNL A   1      35.918  21.754  25.607  1.00  0.00     0.116 C 
BRANCH   2   3
ATOM      3  N   UNL A   1      34.991  20.662  25.821  1.00  0.00    -0.354 N 
ATOM      4  C   UNL A   1      33.629  20.650  25.863  1.00  0.00     0.245 C 
ATOM      5  O   UNL A   1      33.108  19.607  26.271  1.00  0.00    -0.273 OA
ATOM      6  H   UNL A   1      35.414  19.784  25.956  1.00  0.00     0.163 HD
BRANCH   4   7
ATOM      7  C   UNL A   1      32.795  21.923  25.596  1.00  0.00     0.200 C 
BRANCH   7   8
ATOM      8  C   UNL A   1      32.210  21.723  24.155  1.00  0.00     0.143 C 
ATOM      9  C   UNL A   1      32.824  22.601  23.071  1.00  0.00     0.041 C 
BRANCH   8  10
ATOM     10  O   UNL A   1      32.413  20.376  23.718  1.00  0.00    -0.391 OA
ATOM     11  H   UNL A   1      31.735  19.803  24.110  1.00  0.00     0.211 HD
ENDBRANCH   8  10
ENDBRANCH   7   8
BRANCH   7  12
ATOM     12  N   UNL A   1      31.743  22.227  26.590  1.00  0.00    -0.337 N 
ATOM     13  C   UNL A   1      30.844  23.268  26.665  1.00  0.00     0.271 C 
ATOM     14  H   UNL A   1      31.672  21.574  27.323  1.00  0.00     0.164 HD
ATOM     15  O   UNL A   1      29.899  23.151  27.445  1.00  0.00    -0.267 OA
BRANCH  13  16
ATOM     16  C   UNL A   1      31.143  24.537  26.007  1.00  0.00     0.139 A 
ATOM     17  C   UNL A   1      30.540  24.889  24.811  1.00  0.00     0.101 A 
ATOM     18  N   UNL A   1      31.991  25.506  26.529  1.00  0.00    -0.231 NA
ATOM     19  S   UNL A   1      30.782  26.554  24.505  1.00  0.00    -0.122 S 
ATOM     20  C   UNL A   1      31.828  26.638  25.871  1.00  0.00     0.125 A 
BRANCH  20  21
ATOM     21  C   UNL A   1      32.488  27.913  26.301  1.00  0.00     0.021 A 
ATOM     22  C   UNL A   1      33.895  28.090  26.448  1.00  0.00     0.023 A 
ATOM     23  C   UNL A   1      31.789  29.056  26.634  1.00  0.00     0.076 A 
ATOM     24  C   UNL A   1      34.217  29.374  26.833  1.00  0.00     0.065 A 
ATOM     25  S   UNL A   1      32.827  30.335  27.103  1.00  0.00    -0.152 S 
ENDBRANCH  20  21
ENDBRANCH  13  16
ENDBRANCH   7  12
ENDBRANCH   4   7
ENDBRANCH   2   3
ENDBRANCH   1   2
BRANCH   1  26
ATOM     26  C   UNL A   1      37.790  20.145  24.894  1.00  0.00     0.023 C 
BRANCH  26  27
ATOM     27  C   UNL A   1      38.958  20.409  25.837  1.00  0.00     0.116 C 
BRANCH  27  28
ATOM     28  N   UNL A   1      39.909  19.308  25.866  1.00  0.00    -0.352 N 
ATOM     29  C   UNL A   1      41.265  19.350  26.072  1.00  0.00     0.251 C 
ATOM     30  H   UNL A   1      39.527  18.412  25.719  1.00  0.00     0.163 HD
ATOM     31  O   UNL A   1      41.953  18.349  25.904  1.00  0.00    -0.269 OA
BRANCH  29  32
ATOM     32  C   UNL A   1      41.893  20.624  26.471  1.00  0.00     0.039 A 
ATOM     33  C   UNL A   1      42.348  21.493  25.479  1.00  0.00     0.014 A 
ATOM     34  C   UNL A   1      41.999  20.968  27.823  1.00  0.00     0.014 A 
ATOM     35  C   UNL A   1      42.855  22.742  25.840  1.00  0.00     0.010 A 
ATOM     36  C   UNL A   1      42.446  22.236  28.175  1.00  0.00     0.010 A 
ATOM     37  C   UNL A   1      42.877  23.136  27.188  1.00  0.00    -0.014 A 
BRANCH  37  38
ATOM     38  C   UNL A   1      43.344  24.487  27.583  1.00  0.00     0.031 A 
ATOM     39  C   UNL A   1      42.352  25.536  27.997  1.00  0.00     0.074 A 
ATOM     40  C   UNL A   1      44.655  24.786  27.508  1.00  0.00     0.049 A 
ATOM     41  N   UNL A   1      42.558  26.788  28.318  1.00  0.00    -0.248 NA
ATOM     42  C   UNL A   1      40.937  25.130  28.031  1.00  0.00     0.031 C 
ATOM     43  C   UNL A   1      45.711  23.869  27.075  1.00  0.00     0.029 A 
ATOM     44  N   UNL A   1      45.321  25.953  27.785  1.00  0.00    -0.354 N 
ATOM     45  C   UNL A   1      41.303  27.321  28.577  1.00  0.00     0.074 A 
ATOM     46  C   UNL A   1      40.337  26.273  28.329  1.00  0.00     0.031 C 
ATOM     47  C   UNL A   1      46.894  24.501  27.138  1.00  0.00     0.029 A 
ATOM     48  C   UNL A   1      46.677  25.875  27.581  1.00  0.00     0.049 A 
ATOM     49  H   UNL A   1      44.870  26.769  28.101  1.00  0.00     0.167 HD
ATOM     50  C   UNL A   1      40.985  28.565  29.007  1.00  0.00     0.037 A 
ATOM     51  C   UNL A   1      47.637  26.807  27.731  1.00  0.00     0.037 A 
ATOM     52  C   UNL A   1      41.949  29.599  29.277  1.00  0.00     0.049 A 
ATOM     53  C   UNL A   1      47.259  28.182  28.207  1.00  0.00     0.074 A 
ATOM     54  C   UNL A   1      41.732  30.874  29.772  1.00  0.00     0.029 A 
ATOM     55  N   UNL A   1      43.315  29.476  29.075  1.00  0.00    -0.354 N 
ATOM     56  N   UNL A   1      46.075  28.653  28.513  1.00  0.00    -0.248 NA
ATOM     57  C   UNL A   1      48.350  29.152  28.363  1.00  0.00     0.031 C 
ATOM     58  C   UNL A   1      42.963  31.534  29.834  1.00  0.00     0.029 A 
ATOM     59  C   UNL A   1      43.952  30.657  29.417  1.00  0.00     0.049 A 
ATOM     60  H   UNL A   1      43.766  28.668  28.737  1.00  0.00     0.167 HD
ATOM     61  C   UNL A   1      46.281  29.963  28.923  1.00  0.00     0.074 A 
ATOM     62  C   UNL A   1      47.705  30.209  28.838  1.00  0.00     0.031 C 
ATOM     63  C   UNL A   1      45.373  30.881  29.334  1.00  0.00     0.037 A 
BRANCH  50  64
ATOM     64  C   UNL A   1      39.533  28.871  29.217  1.00  0.00     0.057 A 
ATOM     65  C   UNL A   1      38.717  29.330  28.175  1.00  0.00     0.134 A 
ATOM     66  C   UNL A   1      38.933  28.681  30.469  1.00  0.00     0.134 A 
ATOM     67  F   UNL A   1      39.233  29.548  26.955  1.00  0.00    -0.206 F 
ATOM     68  C   UNL A   1      37.365  29.613  28.374  1.00  0.00     0.040 A 
ATOM     69  C   UNL A   1      37.577  28.935  30.675  1.00  0.00     0.040 A 
ATOM     70  F   UNL A   1      39.656  28.238  31.509  1.00  0.00    -0.206 F 
ATOM     71  C   UNL A   1      36.790  29.410  29.627  1.00  0.00     0.006 A 
ENDBRANCH  50  64
BRANCH  51  72
ATOM     72  C   UNL A   1      49.055  26.465  27.455  1.00  0.00     0.057 A 
ATOM     73  C   UNL A   1      49.887  25.978  28.469  1.00  0.00     0.134 A 
ATOM     74  C   UNL A   1      49.611  26.623  26.181  1.00  0.00     0.134 A 
ATOM     75  F   UNL A   1      49.414  25.824  29.715  1.00  0.00    -0.206 F 
ATOM     76  C   UNL A   1      51.229  25.677  28.231  1.00  0.00     0.040 A 
ATOM     77  C   UNL A   1      50.946  26.303  25.923  1.00  0.00     0.040 A 
ATOM     78  F   UNL A   1      48.862  27.078  25.166  1.00  0.00    -0.206 F 
ATOM     79  C   UNL A   1      51.759  25.835  26.953  1.00  0.00     0.006 A 
ENDBRANCH  51  72
BRANCH  63  80
ATOM     80  C   UNL A   1      45.896  32.223  29.753  1.00  0.00     0.057 A 
ATOM     81  C   UNL A   1      46.304  32.478  31.068  1.00  0.00     0.134 A 
ATOM     82  C   UNL A   1      46.029  33.258  28.820  1.00  0.00     0.134 A 
ATOM     83  F   UNL A   1      46.189  31.530  32.011  1.00  0.00    -0.206 F 
ATOM     84  C   UNL A   1      46.809  33.723  31.445  1.00  0.00     0.040 A 
ATOM     85  C   UNL A   1      46.554  34.500  29.179  1.00  0.00     0.040 A 
ATOM     86  F   UNL A   1      45.662  33.076  27.542  1.00  0.00    -0.206 F 
ATOM     87  C   UNL A   1      46.941  34.736  30.496  1.00  0.00     0.006 A 
ENDBRANCH  63  80
ENDBRANCH  37  38
ENDBRANCH  29  32
ENDBRANCH  27  28
ENDBRANCH  26  27
ENDBRANCH   1  26
TORSDOF 16
ENDMDL
