MODEL 1
REMARK VINA RESULT:     -11.5      0.000      0.000
REMARK SMILES O=C(NCCCCNC(=O)c1ccc(S(=O)(=O)NCC[NH+]2CCCC2)c(F)c1)c1ccc(-c2c3nc(c(-c4c(F)cccc4F)c4ccc([nH]4)c(-c4c(F)cccc4F)c4nc(c(-c5c(F)cccc5F)c5ccc2[nH]5)C=C4)C=C3)cc1
REMARK SMILES IDX 7 1 6 2 5 3 4 4 3 5 1 6 2 7 29 9 30 10 82 11 31 12 81 13
REMARK SMILES IDX 32 14 33 15 34 16 75 17 35 18 80 19 74 20 76 21 36 22 79 23
REMARK SMILES IDX 73 24 72 25 37 27 63 28 46 29 62 30 47 31 50 32 61 33 77 34
REMARK SMILES IDX 48 35 49 36 60 38 78 39 51 40 38 41 39 42 44 43 40 44 41 45
REMARK SMILES IDX 43 46 45 47 42 48 64 49 65 50 70 51 66 52 67 53 69 54 71 55
REMARK SMILES IDX 68 56 52 57 53 58 58 59 54 60 55 61 57 62 59 63 56 64 8 65
REMARK SMILES IDX 9 66 10 68 11 69 12 70 28 71 13 72 26 73 14 74 27 75 15 76
REMARK SMILES IDX 16 77 17 78 18 79 19 81 20 82 21 83 22 84 25 85 23 87 24 88
REMARK H PARENT 3 8 76 26 50 37 8 67 18 80 21 86
REMARK Flexibility Score: inf
ROOT
ATOM      1  C   UNL A   1      36.715  21.522  25.683  1.00  0.00     0.116 C 
ENDROOT
BRANCH   1   2
ATOM      2  C   UNL A   1      36.815  20.344  24.717  1.00  0.00     0.023 C 
BRANCH   2   3
ATOM      3  C   UNL A   1      37.943  19.352  24.993  1.00  0.00     0.023 C 
BRANCH   3   4
ATOM      4  C   UNL A   1      39.135  19.909  25.763  1.00  0.00     0.116 C 
BRANCH   4   5
ATOM      5  N   UNL A   1      40.236  18.965  25.860  1.00  0.00    -0.352 N 
ATOM      6  O   UNL A   1      42.372  18.267  26.016  1.00  0.00    -0.269 OA
ATOM      7  C   UNL A   1      41.567  19.189  26.115  1.00  0.00     0.251 C 
ATOM      8  H   UNL A   1      39.989  18.022  25.723  1.00  0.00     0.163 HD
BRANCH   7   9
ATOM      9  C   UNL A   1      42.042  20.542  26.478  1.00  0.00     0.039 A 
ATOM     10  C   UNL A   1      42.150  20.937  27.814  1.00  0.00     0.014 A 
ATOM     11  C   UNL A   1      42.405  21.421  25.454  1.00  0.00     0.014 A 
ATOM     12  C   UNL A   1      42.494  22.251  28.122  1.00  0.00     0.010 A 
ATOM     13  C   UNL A   1      42.813  22.720  25.767  1.00  0.00     0.010 A 
ATOM     14  C   UNL A   1      42.829  23.155  27.101  1.00  0.00    -0.014 A 
BRANCH  14  15
ATOM     15  C   UNL A   1      43.227  24.543  27.437  1.00  0.00     0.031 A 
ATOM     16  C   UNL A   1      44.664  24.972  27.355  1.00  0.00     0.074 A 
ATOM     17  C   UNL A   1      42.283  25.423  27.820  1.00  0.00     0.049 A 
ATOM     18  N   UNL A   1      45.199  26.126  27.665  1.00  0.00    -0.248 NA
ATOM     19  C   UNL A   1      45.628  23.974  26.866  1.00  0.00     0.031 C 
ATOM     20  C   UNL A   1      40.853  25.129  27.929  1.00  0.00     0.029 A 
ATOM     21  N   UNL A   1      42.381  26.742  28.184  1.00  0.00    -0.354 N 
ATOM     22  C   UNL A   1      46.561  25.987  27.430  1.00  0.00     0.074 A 
ATOM     23  C   UNL A   1      46.774  24.633  26.967  1.00  0.00     0.031 C 
ATOM     24  C   UNL A   1      40.205  26.241  28.307  1.00  0.00     0.029 A 
ATOM     25  C   UNL A   1      41.177  27.308  28.519  1.00  0.00     0.049 A 
ATOM     26  H   UNL A   1      43.233  27.233  28.203  1.00  0.00     0.167 HD
ATOM     27  C   UNL A   1      47.540  26.911  27.584  1.00  0.00     0.037 A 
ATOM     28  C   UNL A   1      40.886  28.543  28.967  1.00  0.00     0.037 A 
ATOM     29  C   UNL A   1      47.322  28.263  28.024  1.00  0.00     0.049 A 
ATOM     30  C   UNL A   1      41.992  29.537  29.163  1.00  0.00     0.074 A 
ATOM     31  C   UNL A   1      48.249  29.281  28.174  1.00  0.00     0.029 A 
ATOM     32  N   UNL A   1      46.090  28.788  28.384  1.00  0.00    -0.354 N 
ATOM     33  N   UNL A   1      43.274  29.394  28.932  1.00  0.00    -0.248 NA
ATOM     34  C   UNL A   1      41.616  30.856  29.691  1.00  0.00     0.031 C 
ATOM     35  C   UNL A   1      47.584  30.410  28.659  1.00  0.00     0.029 A 
ATOM     36  C   UNL A   1      46.237  30.108  28.776  1.00  0.00     0.049 A 
ATOM     37  H   UNL A   1      45.239  28.295  28.365  1.00  0.00     0.167 HD
ATOM     38  C   UNL A   1      43.858  30.606  29.275  1.00  0.00     0.074 A 
ATOM     39  C   UNL A   1      42.790  31.475  29.722  1.00  0.00     0.031 C 
ATOM     40  C   UNL A   1      45.163  30.961  29.220  1.00  0.00     0.037 A 
BRANCH  27  41
ATOM     41  C   UNL A   1      48.947  26.486  27.287  1.00  0.00     0.057 A 
ATOM     42  C   UNL A   1      49.459  26.575  25.987  1.00  0.00     0.134 A 
ATOM     43  C   UNL A   1      49.775  25.935  28.273  1.00  0.00     0.134 A 
ATOM     44  F   UNL A   1      48.714  27.087  24.996  1.00  0.00    -0.206 F 
ATOM     45  C   UNL A   1      50.743  26.127  25.675  1.00  0.00     0.040 A 
ATOM     46  C   UNL A   1      51.068  25.500  27.978  1.00  0.00     0.040 A 
ATOM     47  F   UNL A   1      49.348  25.831  29.540  1.00  0.00    -0.206 F 
ATOM     48  C   UNL A   1      51.553  25.589  26.674  1.00  0.00     0.006 A 
ENDBRANCH  27  41
BRANCH  28  49
ATOM     49  C   UNL A   1      39.476  28.890  29.256  1.00  0.00     0.057 A 
ATOM     50  C   UNL A   1      38.915  28.666  30.518  1.00  0.00     0.134 A 
ATOM     51  C   UNL A   1      38.639  29.390  28.253  1.00  0.00     0.134 A 
ATOM     52  F   UNL A   1      39.667  28.180  31.517  1.00  0.00    -0.206 F 
ATOM     53  C   UNL A   1      37.563  28.902  30.767  1.00  0.00     0.040 A 
ATOM     54  C   UNL A   1      37.289  29.647  28.493  1.00  0.00     0.040 A 
ATOM     55  F   UNL A   1      39.126  29.635  27.028  1.00  0.00    -0.206 F 
ATOM     56  C   UNL A   1      36.745  29.393  29.752  1.00  0.00     0.006 A 
ENDBRANCH  28  49
BRANCH  40  57
ATOM     57  C   UNL A   1      45.518  32.354  29.638  1.00  0.00     0.057 A 
ATOM     58  C   UNL A   1      45.843  32.638  30.971  1.00  0.00     0.134 A 
ATOM     59  C   UNL A   1      45.458  33.426  28.741  1.00  0.00     0.134 A 
ATOM     60  F   UNL A   1      45.910  31.653  31.880  1.00  0.00    -0.206 F 
ATOM     61  C   UNL A   1      46.082  33.944  31.399  1.00  0.00     0.040 A 
ATOM     62  C   UNL A   1      45.711  34.735  29.153  1.00  0.00     0.040 A 
ATOM     63  F   UNL A   1      45.162  33.215  27.450  1.00  0.00    -0.206 F 
ATOM     64  C   UNL A   1      46.015  34.997  30.489  1.00  0.00     0.006 A 
ENDBRANCH  40  57
ENDBRANCH  14  15
ENDBRANCH   7   9
ENDBRANCH   4   5
ENDBRANCH   3   4
ENDBRANCH   2   3
ENDBRANCH   1   2
BRANCH   1  65
ATOM     65  N   UNL A   1      35.530  21.473  26.526  1.00  0.00    -0.352 N 
ATOM     66  C   UNL A   1      34.373  22.207  26.444  1.00  0.00     0.251 C 
ATOM     67  H   UNL A   1      35.563  20.819  27.261  1.00  0.00     0.163 HD
ATOM     68  O   UNL A   1      33.507  22.106  27.306  1.00  0.00    -0.269 OA
BRANCH  66  69
ATOM     69  C   UNL A   1      34.186  23.159  25.331  1.00  0.00     0.042 A 
ATOM     70  C   UNL A   1      34.585  24.493  25.453  1.00  0.00     0.015 A 
ATOM     71  C   UNL A   1      33.585  22.704  24.153  1.00  0.00     0.054 A 
ATOM     72  C   UNL A   1      34.264  25.397  24.443  1.00  0.00     0.026 A 
ATOM     73  C   UNL A   1      33.292  23.610  23.136  1.00  0.00     0.144 A 
ATOM     74  C   UNL A   1      33.589  24.956  23.295  1.00  0.00     0.118 A 
ATOM     75  F   UNL A   1      32.694  23.142  22.033  1.00  0.00    -0.205 F 
BRANCH  74  76
ATOM     76  S   UNL A   1      33.060  26.192  22.158  1.00  0.00     0.243 S 
ATOM     77  O   UNL A   1      33.670  27.426  22.598  1.00  0.00    -0.207 OA
ATOM     78  O   UNL A   1      33.304  25.664  20.833  1.00  0.00    -0.207 OA
BRANCH  76  79
ATOM     79  N   UNL A   1      31.414  26.365  22.291  1.00  0.00    -0.205 NA
ATOM     80  H   UNL A   1      31.104  25.603  22.893  1.00  0.00     0.141 HD
BRANCH  79  81
ATOM     81  C   UNL A   1      30.755  27.565  22.800  1.00  0.00     0.160 C 
BRANCH  81  82
ATOM     82  C   UNL A   1      30.615  27.638  24.334  1.00  0.00     0.278 C 
BRANCH  82  83
ATOM     83  N   UNL A   1      31.784  27.876  25.186  1.00  0.00    -0.334 N 
ATOM     84  C   UNL A   1      31.806  27.171  26.462  1.00  0.00     0.262 C 
ATOM     85  C   UNL A   1      32.093  29.283  25.433  1.00  0.00     0.262 C 
ATOM     86  H   UNL A   1      32.512  27.472  24.597  1.00  0.00     0.348 HD
ATOM     87  C   UNL A   1      31.454  28.211  27.504  1.00  0.00     0.067 C 
ATOM     88  C   UNL A   1      32.014  29.502  26.937  1.00  0.00     0.067 C 
ENDBRANCH  82  83
ENDBRANCH  81  82
ENDBRANCH  79  81
ENDBRANCH  76  79
ENDBRANCH  74  76
ENDBRANCH  66  69
ENDBRANCH   1  65
TORSDOF 16
ENDMDL
MODEL 2
REMARK VINA RESULT:     -11.4      0.512      6.142
REMARK SMILES O=C(NCCCCNC(=O)c1ccc(S(=O)(=O)NCC[NH+]2CCCC2)c(F)c1)c1ccc(-c2c3nc(c(-c4c(F)cccc4F)c4ccc([nH]4)c(-c4c(F)cccc4F)c4nc(c(-c5c(F)cccc5F)c5ccc2[nH]5)C=C4)C=C3)cc1
REMARK SMILES IDX 7 1 6 2 5 3 4 4 3 5 1 6 2 7 29 9 30 10 82 11 31 12 81 13
REMARK SMILES IDX 32 14 33 15 34 16 75 17 35 18 80 19 74 20 76 21 36 22 79 23
REMARK SMILES IDX 73 24 72 25 37 27 63 28 46 29 62 30 47 31 50 32 61 33 77 34
REMARK SMILES IDX 48 35 49 36 60 38 78 39 51 40 38 41 39 42 44 43 40 44 41 45
REMARK SMILES IDX 43 46 45 47 42 48 64 49 65 50 70 51 66 52 67 53 69 54 71 55
REMARK SMILES IDX 68 56 52 57 53 58 58 59 54 60 55 61 57 62 59 63 56 64 8 65
REMARK SMILES IDX 9 66 10 68 11 69 12 70 28 71 13 72 26 73 14 74 27 75 15 76
REMARK SMILES IDX 16 77 17 78 18 79 19 81 20 82 21 83 22 84 25 85 23 87 24 88
REMARK H PARENT 3 8 76 26 50 37 8 67 18 80 21 86
REMARK Flexibility Score: inf
ROOT
ATOM      1  C   UNL A   1      36.913  21.886  25.459  1.00  0.00     0.116 C 
ENDROOT
BRANCH   1   2
ATOM      2  C   UNL A   1      36.845  20.592  24.651  1.00  0.00     0.023 C 
BRANCH   2   3
ATOM      3  C   UNL A   1      37.878  19.526  25.014  1.00  0.00     0.023 C 
BRANCH   3   4
ATOM      4  C   UNL A   1      39.077  20.020  25.815  1.00  0.00     0.116 C 
BRANCH   4   5
ATOM      5  N   UNL A   1      40.173  19.065  25.836  1.00  0.00    -0.352 N 
ATOM      6  O   UNL A   1      42.307  18.348  25.906  1.00  0.00    -0.269 OA
ATOM      7  C   UNL A   1      41.511  19.267  26.073  1.00  0.00     0.251 C 
ATOM      8  H   UNL A   1      39.917  18.132  25.655  1.00  0.00     0.163 HD
BRANCH   7   9
ATOM      9  C   UNL A   1      42.004  20.596  26.497  1.00  0.00     0.039 A 
ATOM     10  C   UNL A   1      42.120  20.928  27.849  1.00  0.00     0.014 A 
ATOM     11  C   UNL A   1      42.376  21.518  25.514  1.00  0.00     0.014 A 
ATOM     12  C   UNL A   1      42.480  22.222  28.217  1.00  0.00     0.010 A 
ATOM     13  C   UNL A   1      42.801  22.796  25.886  1.00  0.00     0.010 A 
ATOM     14  C   UNL A   1      42.825  23.168  27.238  1.00  0.00    -0.014 A 
BRANCH  14  15
ATOM     15  C   UNL A   1      43.240  24.534  27.637  1.00  0.00     0.031 A 
ATOM     16  C   UNL A   1      42.220  25.555  28.056  1.00  0.00     0.074 A 
ATOM     17  C   UNL A   1      44.547  24.856  27.619  1.00  0.00     0.049 A 
ATOM     18  N   UNL A   1      42.397  26.812  28.380  1.00  0.00    -0.248 NA
ATOM     19  C   UNL A   1      40.819  25.111  28.112  1.00  0.00     0.031 C 
ATOM     20  C   UNL A   1      45.631  23.949  27.240  1.00  0.00     0.029 A 
ATOM     21  N   UNL A   1      45.185  26.029  27.930  1.00  0.00    -0.354 N 
ATOM     22  C   UNL A   1      41.133  27.312  28.658  1.00  0.00     0.074 A 
ATOM     23  C   UNL A   1      40.194  26.231  28.449  1.00  0.00     0.031 C 
ATOM     24  C   UNL A   1      46.803  24.590  27.366  1.00  0.00     0.029 A 
ATOM     25  C   UNL A   1      46.548  25.966  27.780  1.00  0.00     0.049 A 
ATOM     26  H   UNL A   1      44.712  26.837  28.230  1.00  0.00     0.167 HD
ATOM     27  C   UNL A   1      40.790  28.561  29.057  1.00  0.00     0.037 A 
ATOM     28  C   UNL A   1      47.490  26.914  27.939  1.00  0.00     0.037 A 
ATOM     29  C   UNL A   1      41.728  29.629  29.285  1.00  0.00     0.049 A 
ATOM     30  C   UNL A   1      47.083  28.299  28.347  1.00  0.00     0.074 A 
ATOM     31  C   UNL A   1      41.476  30.917  29.725  1.00  0.00     0.029 A 
ATOM     32  N   UNL A   1      43.098  29.532  29.091  1.00  0.00    -0.354 N 
ATOM     33  N   UNL A   1      45.884  28.757  28.611  1.00  0.00    -0.248 NA
ATOM     34  C   UNL A   1      48.152  29.299  28.465  1.00  0.00     0.031 C 
ATOM     35  C   UNL A   1      42.689  31.610  29.764  1.00  0.00     0.029 A 
ATOM     36  C   UNL A   1      43.701  30.743  29.383  1.00  0.00     0.049 A 
ATOM     37  H   UNL A   1      43.570  28.723  28.790  1.00  0.00     0.167 HD
ATOM     38  C   UNL A   1      46.054  30.095  28.939  1.00  0.00     0.074 A 
ATOM     39  C   UNL A   1      47.472  30.373  28.848  1.00  0.00     0.031 C 
ATOM     40  C   UNL A   1      45.115  31.006  29.286  1.00  0.00     0.037 A 
BRANCH  27  41
ATOM     41  C   UNL A   1      39.332  28.849  29.259  1.00  0.00     0.057 A 
ATOM     42  C   UNL A   1      38.551  29.339  28.205  1.00  0.00     0.134 A 
ATOM     43  C   UNL A   1      38.717  28.700  30.507  1.00  0.00     0.134 A 
ATOM     44  F   UNL A   1      39.083  29.512  26.986  1.00  0.00    -0.206 F 
ATOM     45  C   UNL A   1      37.208  29.674  28.386  1.00  0.00     0.040 A 
ATOM     46  C   UNL A   1      37.370  29.014  30.697  1.00  0.00     0.040 A 
ATOM     47  F   UNL A   1      39.409  28.225  31.554  1.00  0.00    -0.206 F 
ATOM     48  C   UNL A   1      36.614  29.509  29.636  1.00  0.00     0.006 A 
ENDBRANCH  27  41
BRANCH  28  49
ATOM     49  C   UNL A   1      48.910  26.564  27.706  1.00  0.00     0.057 A 
ATOM     50  C   UNL A   1      49.466  26.591  26.422  1.00  0.00     0.134 A 
ATOM     51  C   UNL A   1      49.723  26.126  28.756  1.00  0.00     0.134 A 
ATOM     52  F   UNL A   1      48.730  26.994  25.375  1.00  0.00    -0.206 F 
ATOM     53  C   UNL A   1      50.774  26.170  26.185  1.00  0.00     0.040 A 
ATOM     54  C   UNL A   1      51.040  25.719  28.536  1.00  0.00     0.040 A 
ATOM     55  F   UNL A   1      49.247  26.090  30.009  1.00  0.00    -0.206 F 
ATOM     56  C   UNL A   1      51.565  25.731  27.244  1.00  0.00     0.006 A 
ENDBRANCH  28  49
BRANCH  40  57
ATOM     57  C   UNL A   1      45.582  32.391  29.610  1.00  0.00     0.057 A 
ATOM     58  C   UNL A   1      45.911  32.744  30.926  1.00  0.00     0.134 A 
ATOM     59  C   UNL A   1      45.627  33.395  28.637  1.00  0.00     0.134 A 
ATOM     60  F   UNL A   1      45.880  31.826  31.904  1.00  0.00    -0.206 F 
ATOM     61  C   UNL A   1      46.255  34.052  31.264  1.00  0.00     0.040 A 
ATOM     62  C   UNL A   1      45.985  34.704  28.959  1.00  0.00     0.040 A 
ATOM     63  F   UNL A   1      45.332  33.116  27.359  1.00  0.00    -0.206 F 
ATOM     64  C   UNL A   1      46.292  35.038  30.279  1.00  0.00     0.006 A 
ENDBRANCH  40  57
ENDBRANCH  14  15
ENDBRANCH   7   9
ENDBRANCH   4   5
ENDBRANCH   3   4
ENDBRANCH   2   3
ENDBRANCH   1   2
BRANCH   1  65
ATOM     65  N   UNL A   1      35.891  21.970  26.492  1.00  0.00    -0.352 N 
ATOM     66  C   UNL A   1      34.723  22.690  26.503  1.00  0.00     0.251 C 
ATOM     67  H   UNL A   1      36.063  21.432  27.299  1.00  0.00     0.163 HD
ATOM     68  O   UNL A   1      34.020  22.724  27.507  1.00  0.00    -0.269 OA
BRANCH  66  69
ATOM     69  C   UNL A   1      34.329  23.468  25.311  1.00  0.00     0.042 A 
ATOM     70  C   UNL A   1      34.594  24.838  25.228  1.00  0.00     0.015 A 
ATOM     71  C   UNL A   1      33.670  22.809  24.269  1.00  0.00     0.054 A 
ATOM     72  C   UNL A   1      34.082  25.568  24.159  1.00  0.00     0.026 A 
ATOM     73  C   UNL A   1      33.185  23.543  23.188  1.00  0.00     0.144 A 
ATOM     74  C   UNL A   1      33.350  24.920  23.152  1.00  0.00     0.118 A 
ATOM     75  F   UNL A   1      32.538  22.881  22.221  1.00  0.00    -0.205 F 
BRANCH  74  76
ATOM     76  S   UNL A   1      32.586  25.942  21.939  1.00  0.00     0.243 S 
ATOM     77  O   UNL A   1      33.330  25.736  20.717  1.00  0.00    -0.207 OA
ATOM     78  O   UNL A   1      31.166  25.670  22.007  1.00  0.00    -0.207 OA
BRANCH  76  79
ATOM     79  N   UNL A   1      32.775  27.529  22.387  1.00  0.00    -0.205 NA
ATOM     80  H   UNL A   1      33.232  27.985  21.599  1.00  0.00     0.141 HD
BRANCH  79  81
ATOM     81  C   UNL A   1      31.673  28.409  22.769  1.00  0.00     0.160 C 
BRANCH  81  82
ATOM     82  C   UNL A   1      31.234  28.311  24.244  1.00  0.00     0.278 C 
BRANCH  82  83
ATOM     83  N   UNL A   1      32.198  27.967  25.294  1.00  0.00    -0.334 N 
ATOM     84  C   UNL A   1      31.664  27.256  26.450  1.00  0.00     0.262 C 
ATOM     85  C   UNL A   1      33.012  29.081  25.775  1.00  0.00     0.262 C 
ATOM     86  H   UNL A   1      32.791  27.317  24.778  1.00  0.00     0.348 HD
ATOM     87  C   UNL A   1      31.580  28.288  27.555  1.00  0.00     0.067 C 
ATOM     88  C   UNL A   1      32.731  29.231  27.264  1.00  0.00     0.067 C 
ENDBRANCH  82  83
ENDBRANCH  81  82
ENDBRANCH  79  81
ENDBRANCH  76  79
ENDBRANCH  74  76
ENDBRANCH  66  69
ENDBRANCH   1  65
TORSDOF 16
ENDMDL
MODEL 3
REMARK VINA RESULT:     -11.4      1.192      6.300
REMARK SMILES O=C(NCCCCNC(=O)c1ccc(S(=O)(=O)NCC[NH+]2CCCC2)c(F)c1)c1ccc(-c2c3nc(c(-c4c(F)cccc4F)c4ccc([nH]4)c(-c4c(F)cccc4F)c4nc(c(-c5c(F)cccc5F)c5ccc2[nH]5)C=C4)C=C3)cc1
REMARK SMILES IDX 7 1 6 2 5 3 4 4 3 5 1 6 2 7 29 9 30 10 82 11 31 12 81 13
REMARK SMILES IDX 32 14 33 15 34 16 75 17 35 18 80 19 74 20 76 21 36 22 79 23
REMARK SMILES IDX 73 24 72 25 37 27 63 28 46 29 62 30 47 31 50 32 61 33 77 34
REMARK SMILES IDX 48 35 49 36 60 38 78 39 51 40 38 41 39 42 44 43 40 44 41 45
REMARK SMILES IDX 43 46 45 47 42 48 64 49 65 50 70 51 66 52 67 53 69 54 71 55
REMARK SMILES IDX 68 56 52 57 53 58 58 59 54 60 55 61 57 62 59 63 56 64 8 65
REMARK SMILES IDX 9 66 10 68 11 69 12 70 28 71 13 72 26 73 14 74 27 75 15 76
REMARK SMILES IDX 16 77 17 78 18 79 19 81 20 82 21 83 22 84 25 85 23 87 24 88
REMARK H PARENT 3 8 76 26 50 37 8 67 18 80 21 86
REMARK Flexibility Score: inf
ROOT
ATOM      1  C   UNL A   1      36.821  21.753  25.720  1.00  0.00     0.116 C 
ENDROOT
BRANCH   1   2
ATOM      2  C   UNL A   1      37.097  20.721  24.629  1.00  0.00     0.023 C 
BRANCH   2   3
ATOM      3  C   UNL A   1      38.091  19.620  24.992  1.00  0.00     0.023 C 
BRANCH   3   4
ATOM      4  C   UNL A   1      39.249  20.047  25.887  1.00  0.00     0.116 C 
BRANCH   4   5
ATOM      5  N   UNL A   1      40.327  19.073  25.920  1.00  0.00    -0.352 N 
ATOM      6  O   UNL A   1      42.448  18.317  25.946  1.00  0.00    -0.269 OA
ATOM      7  C   UNL A   1      41.677  19.261  26.091  1.00  0.00     0.251 C 
ATOM      8  H   UNL A   1      40.047  18.137  25.802  1.00  0.00     0.163 HD
BRANCH   7   9
ATOM      9  C   UNL A   1      42.210  20.601  26.419  1.00  0.00     0.039 A 
ATOM     10  C   UNL A   1      42.287  21.047  27.741  1.00  0.00     0.014 A 
ATOM     11  C   UNL A   1      42.662  21.415  25.376  1.00  0.00     0.014 A 
ATOM     12  C   UNL A   1      42.689  22.353  28.009  1.00  0.00     0.010 A 
ATOM     13  C   UNL A   1      43.128  22.703  25.653  1.00  0.00     0.010 A 
ATOM     14  C   UNL A   1      43.114  23.193  26.968  1.00  0.00    -0.014 A 
BRANCH  14  15
ATOM     15  C   UNL A   1      43.573  24.571  27.263  1.00  0.00     0.031 A 
ATOM     16  C   UNL A   1      42.606  25.618  27.738  1.00  0.00     0.074 A 
ATOM     17  C   UNL A   1      44.873  24.881  27.101  1.00  0.00     0.049 A 
ATOM     18  N   UNL A   1      42.820  26.885  27.988  1.00  0.00    -0.248 NA
ATOM     19  C   UNL A   1      41.215  25.189  27.953  1.00  0.00     0.031 C 
ATOM     20  C   UNL A   1      45.910  23.949  26.655  1.00  0.00     0.029 A 
ATOM     21  N   UNL A   1      45.545  26.060  27.295  1.00  0.00    -0.354 N 
ATOM     22  C   UNL A   1      41.591  27.408  28.370  1.00  0.00     0.074 A 
ATOM     23  C   UNL A   1      40.632  26.327  28.303  1.00  0.00     0.031 C 
ATOM     24  C   UNL A   1      47.091  24.585  26.635  1.00  0.00     0.029 A 
ATOM     25  C   UNL A   1      46.886  25.979  27.013  1.00  0.00     0.049 A 
ATOM     26  H   UNL A   1      45.108  26.885  27.606  1.00  0.00     0.167 HD
ATOM     27  C   UNL A   1      41.296  28.676  28.746  1.00  0.00     0.037 A 
ATOM     28  C   UNL A   1      47.843  26.924  27.035  1.00  0.00     0.037 A 
ATOM     29  C   UNL A   1      42.257  29.744  28.832  1.00  0.00     0.049 A 
ATOM     30  C   UNL A   1      47.484  28.329  27.421  1.00  0.00     0.074 A 
ATOM     31  C   UNL A   1      42.056  31.052  29.240  1.00  0.00     0.029 A 
ATOM     32  N   UNL A   1      43.600  29.627  28.507  1.00  0.00    -0.354 N 
ATOM     33  N   UNL A   1      46.320  28.808  27.785  1.00  0.00    -0.248 NA
ATOM     34  C   UNL A   1      48.565  29.324  27.389  1.00  0.00     0.031 C 
ATOM     35  C   UNL A   1      43.270  31.736  29.127  1.00  0.00     0.029 A 
ATOM     36  C   UNL A   1      44.234  30.845  28.685  1.00  0.00     0.049 A 
ATOM     37  H   UNL A   1      44.036  28.803  28.196  1.00  0.00     0.167 HD
ATOM     38  C   UNL A   1      46.528  30.157  28.036  1.00  0.00     0.074 A 
ATOM     39  C   UNL A   1      47.931  30.419  27.791  1.00  0.00     0.031 C 
ATOM     40  C   UNL A   1      45.632  31.091  28.435  1.00  0.00     0.037 A 
BRANCH  27  41
ATOM     41  C   UNL A   1      39.867  28.985  29.081  1.00  0.00     0.057 A 
ATOM     42  C   UNL A   1      38.958  29.328  28.072  1.00  0.00     0.134 A 
ATOM     43  C   UNL A   1      39.406  29.002  30.402  1.00  0.00     0.134 A 
ATOM     44  F   UNL A   1      39.340  29.337  26.786  1.00  0.00    -0.206 F 
ATOM     45  C   UNL A   1      37.640  29.681  28.366  1.00  0.00     0.040 A 
ATOM     46  C   UNL A   1      38.085  29.336  30.708  1.00  0.00     0.040 A 
ATOM     47  F   UNL A   1      40.225  28.674  31.413  1.00  0.00    -0.206 F 
ATOM     48  C   UNL A   1      37.200  29.683  29.688  1.00  0.00     0.006 A 
ENDBRANCH  27  41
BRANCH  28  49
ATOM     49  C   UNL A   1      49.231  26.552  26.677  1.00  0.00     0.057 A 
ATOM     50  C   UNL A   1      49.700  26.671  25.364  1.00  0.00     0.134 A 
ATOM     51  C   UNL A   1      50.095  26.003  27.628  1.00  0.00     0.134 A 
ATOM     52  F   UNL A   1      48.912  27.183  24.407  1.00  0.00    -0.206 F 
ATOM     53  C   UNL A   1      50.974  26.233  25.003  1.00  0.00     0.040 A 
ATOM     54  C   UNL A   1      51.379  25.577  27.286  1.00  0.00     0.040 A 
ATOM     55  F   UNL A   1      49.702  25.877  28.905  1.00  0.00    -0.206 F 
ATOM     56  C   UNL A   1      51.818  25.682  25.966  1.00  0.00     0.006 A 
ENDBRANCH  28  49
BRANCH  40  57
ATOM     57  C   UNL A   1      46.136  32.484  28.651  1.00  0.00     0.057 A 
ATOM     58  C   UNL A   1      46.585  32.894  29.913  1.00  0.00     0.134 A 
ATOM     59  C   UNL A   1      46.099  33.442  27.631  1.00  0.00     0.134 A 
ATOM     60  F   UNL A   1      46.637  32.023  30.933  1.00  0.00    -0.206 F 
ATOM     61  C   UNL A   1      46.967  34.213  30.157  1.00  0.00     0.040 A 
ATOM     62  C   UNL A   1      46.494  34.761  27.858  1.00  0.00     0.040 A 
ATOM     63  F   UNL A   1      45.688  33.107  26.399  1.00  0.00    -0.206 F 
ATOM     64  C   UNL A   1      46.920  35.151  29.128  1.00  0.00     0.006 A 
ENDBRANCH  40  57
ENDBRANCH  14  15
ENDBRANCH   7   9
ENDBRANCH   4   5
ENDBRANCH   3   4
ENDBRANCH   2   3
ENDBRANCH   1   2
BRANCH   1  65
ATOM     65  N   UNL A   1      35.633  21.453  26.506  1.00  0.00    -0.352 N 
ATOM     66  C   UNL A   1      34.390  22.033  26.459  1.00  0.00     0.251 C 
ATOM     67  H   UNL A   1      35.736  20.728  27.165  1.00  0.00     0.163 HD
ATOM     68  O   UNL A   1      33.525  21.721  27.270  1.00  0.00    -0.269 OA
BRANCH  66  69
ATOM     69  C   UNL A   1      34.104  23.074  25.451  1.00  0.00     0.042 A 
ATOM     70  C   UNL A   1      34.053  24.424  25.809  1.00  0.00     0.015 A 
ATOM     71  C   UNL A   1      33.868  22.681  24.131  1.00  0.00     0.054 A 
ATOM     72  C   UNL A   1      33.639  25.364  24.869  1.00  0.00     0.026 A 
ATOM     73  C   UNL A   1      33.480  23.632  23.189  1.00  0.00     0.144 A 
ATOM     74  C   UNL A   1      33.324  24.959  23.563  1.00  0.00     0.118 A 
ATOM     75  F   UNL A   1      33.239  23.215  21.939  1.00  0.00    -0.205 F 
BRANCH  74  76
ATOM     76  S   UNL A   1      32.634  26.177  22.496  1.00  0.00     0.243 S 
ATOM     77  O   UNL A   1      33.705  26.590  21.616  1.00  0.00    -0.207 OA
ATOM     78  O   UNL A   1      31.406  25.618  21.971  1.00  0.00    -0.207 OA
BRANCH  76  79
ATOM     79  N   UNL A   1      32.192  27.492  23.407  1.00  0.00    -0.205 NA
ATOM     80  H   UNL A   1      32.705  28.282  23.018  1.00  0.00     0.141 HD
BRANCH  79  81
ATOM     81  C   UNL A   1      30.815  27.953  23.565  1.00  0.00     0.160 C 
BRANCH  81  82
ATOM     82  C   UNL A   1      30.660  29.398  24.080  1.00  0.00     0.278 C 
BRANCH  82  83
ATOM     83  N   UNL A   1      30.064  30.438  23.236  1.00  0.00    -0.334 N 
ATOM     84  C   UNL A   1      29.077  31.300  23.876  1.00  0.00     0.262 C 
ATOM     85  C   UNL A   1      29.508  29.963  21.970  1.00  0.00     0.262 C 
ATOM     86  H   UNL A   1      30.892  31.003  23.047  1.00  0.00     0.348 HD
ATOM     87  C   UNL A   1      27.732  30.817  23.373  1.00  0.00     0.067 C 
ATOM     88  C   UNL A   1      28.026  30.310  21.974  1.00  0.00     0.067 C 
ENDBRANCH  82  83
ENDBRANCH  81  82
ENDBRANCH  79  81
ENDBRANCH  76  79
ENDBRANCH  74  76
ENDBRANCH  66  69
ENDBRANCH   1  65
TORSDOF 16
ENDMDL
