MODEL 1
REMARK VINA RESULT:     -12.7      0.000      0.000
REMARK SMILES Cc1ccc(C(=O)NCCCCNC(=O)c2ccc(-c3c4nc(c(-c5c(F)cccc5F)c5ccc([nH]5)c(-c5c(F)cccc5F)c5nc(c(-c6c(F)cccc6F)c6ccc3[nH]6)C=C5)C=C4)cc2)cc1NC(=O)c1ccc(Br)o1
REMARK SMILES IDX 10 1 9 2 8 3 6 4 7 5 5 7 1 8 2 9 3 10 71 11 4 12 70 13 72 14
REMARK SMILES IDX 73 15 74 17 75 18 76 19 80 20 77 21 78 22 79 23 11 24 12 25
REMARK SMILES IDX 13 26 14 27 15 29 16 30 17 31 69 32 18 33 68 34 19 35 20 36
REMARK SMILES IDX 21 37 62 38 22 39 67 40 61 41 63 42 23 43 66 44 60 45 59 46
REMARK SMILES IDX 24 48 50 49 33 50 49 51 34 52 37 53 48 54 64 55 35 56 36 57
REMARK SMILES IDX 47 59 65 60 38 61 25 62 26 63 31 64 27 65 28 66 30 67 32 68
REMARK SMILES IDX 29 69 51 70 52 71 57 72 53 73 54 74 56 75 58 76 55 77 39 78
REMARK SMILES IDX 40 79 45 80 41 81 42 82 44 83 46 84 43 85
REMARK H PARENT 8 6 72 16 13 28 63 47 37 58
REMARK Flexibility Score: inf
ROOT
ATOM      1  C   UNL A   1      32.862  29.705  24.982  1.00  0.00     0.023 C 
ENDROOT
BRANCH   1   2
ATOM      2  C   UNL A   1      31.382  30.070  25.078  1.00  0.00     0.116 C 
BRANCH   2   3
ATOM      3  N   UNL A   1      30.660  30.070  23.816  1.00  0.00    -0.352 N 
ATOM      4  C   UNL A   1      30.193  29.039  23.030  1.00  0.00     0.251 C 
ATOM      5  O   UNL A   1      29.583  29.329  22.002  1.00  0.00    -0.269 OA
ATOM      6  H   UNL A   1      30.471  30.968  23.459  1.00  0.00     0.163 HD
BRANCH   4   7
ATOM      7  C   UNL A   1      30.437  27.601  23.341  1.00  0.00     0.041 A 
ATOM      8  C   UNL A   1      30.750  23.420  24.391  1.00  0.00     0.046 C 
ATOM      9  C   UNL A   1      30.714  24.869  23.967  1.00  0.00    -0.027 A 
ATOM     10  C   UNL A   1      29.968  25.729  24.795  1.00  0.00     0.006 A 
ATOM     11  C   UNL A   1      31.386  25.399  22.837  1.00  0.00     0.045 A 
ATOM     12  C   UNL A   1      29.816  27.076  24.476  1.00  0.00     0.014 A 
ATOM     13  C   UNL A   1      31.275  26.770  22.584  1.00  0.00     0.040 A 
BRANCH  11  14
ATOM     14  N   UNL A   1      32.110  24.517  22.011  1.00  0.00    -0.319 N 
ATOM     15  C   UNL A   1      33.356  23.927  22.022  1.00  0.00     0.291 C 
ATOM     16  H   UNL A   1      31.590  24.253  21.217  1.00  0.00     0.170 HD
ATOM     17  O   UNL A   1      33.654  23.318  20.990  1.00  0.00    -0.265 OA
BRANCH  15  18
ATOM     18  C   UNL A   1      34.284  24.018  23.122  1.00  0.00     0.193 A 
ATOM     19  C   UNL A   1      34.358  24.857  24.222  1.00  0.00     0.057 A 
ATOM     20  O   UNL A   1      35.181  22.994  23.278  1.00  0.00    -0.444 OA
ATOM     21  C   UNL A   1      35.356  24.323  25.078  1.00  0.00     0.059 A 
ATOM     22  C   UNL A   1      35.808  23.176  24.469  1.00  0.00     0.170 A 
ATOM     23  Br  UNL A   1      37.072  22.005  25.178  1.00  0.00    -0.008 Br
ENDBRANCH  15  18
ENDBRANCH  11  14
ENDBRANCH   4   7
ENDBRANCH   2   3
ENDBRANCH   1   2
BRANCH   1  24
ATOM     24  C   UNL A   1      33.514  29.153  26.242  1.00  0.00     0.023 C 
BRANCH  24  25
ATOM     25  C   UNL A   1      33.381  30.003  27.498  1.00  0.00     0.116 C 
BRANCH  25  26
ATOM     26  N   UNL A   1      34.155  31.237  27.529  1.00  0.00    -0.352 N 
ATOM     27  C   UNL A   1      35.474  31.450  27.908  1.00  0.00     0.251 C 
ATOM     28  H   UNL A   1      33.669  32.042  27.239  1.00  0.00     0.163 HD
ATOM     29  O   UNL A   1      35.918  32.595  27.924  1.00  0.00    -0.269 OA
BRANCH  27  30
ATOM     30  C   UNL A   1      36.398  30.310  28.160  1.00  0.00     0.039 A 
ATOM     31  C   UNL A   1      36.359  29.666  29.409  1.00  0.00     0.014 A 
ATOM     32  C   UNL A   1      37.395  29.970  27.258  1.00  0.00     0.014 A 
ATOM     33  C   UNL A   1      37.440  28.886  29.827  1.00  0.00     0.010 A 
ATOM     34  C   UNL A   1      38.518  29.321  27.708  1.00  0.00     0.010 A 
ATOM     35  C   UNL A   1      38.561  28.821  29.011  1.00  0.00    -0.014 A 
BRANCH  35  36
ATOM     36  C   UNL A   1      39.867  28.307  29.390  1.00  0.00     0.031 A 
ATOM     37  C   UNL A   1      40.263  26.951  28.956  1.00  0.00     0.074 A 
ATOM     38  C   UNL A   1      40.782  29.215  29.798  1.00  0.00     0.049 A 
ATOM     39  N   UNL A   1      41.390  26.402  29.245  1.00  0.00    -0.248 NA
ATOM     40  C   UNL A   1      39.391  26.076  28.167  1.00  0.00     0.031 C 
ATOM     41  C   UNL A   1      42.238  29.124  29.728  1.00  0.00     0.029 A 
ATOM     42  N   UNL A   1      40.548  30.357  30.580  1.00  0.00    -0.354 N 
ATOM     43  C   UNL A   1      41.534  25.314  28.416  1.00  0.00     0.074 A 
ATOM     44  C   UNL A   1      40.222  25.068  27.882  1.00  0.00     0.031 C 
ATOM     45  C   UNL A   1      42.767  29.944  30.651  1.00  0.00     0.029 A 
ATOM     46  C   UNL A   1      41.659  30.430  31.454  1.00  0.00     0.049 A 
ATOM     47  H   UNL A   1      39.780  30.971  30.531  1.00  0.00     0.167 HD
ATOM     48  C   UNL A   1      42.791  24.865  28.157  1.00  0.00     0.037 A 
ATOM     49  C   UNL A   1      41.511  30.177  32.789  1.00  0.00     0.037 A 
ATOM     50  C   UNL A   1      43.740  25.407  29.128  1.00  0.00     0.049 A 
ATOM     51  C   UNL A   1      42.333  29.006  33.283  1.00  0.00     0.074 A 
ATOM     52  C   UNL A   1      44.744  26.354  29.061  1.00  0.00     0.029 A 
ATOM     53  N   UNL A   1      43.518  25.161  30.482  1.00  0.00    -0.354 N 
ATOM     54  N   UNL A   1      42.807  28.068  32.509  1.00  0.00    -0.248 NA
ATOM     55  C   UNL A   1      42.685  28.800  34.686  1.00  0.00     0.031 C 
ATOM     56  C   UNL A   1      45.012  26.788  30.391  1.00  0.00     0.029 A 
ATOM     57  C   UNL A   1      44.219  26.058  31.262  1.00  0.00     0.049 A 
ATOM     58  H   UNL A   1      42.939  24.447  30.834  1.00  0.00     0.167 HD
ATOM     59  C   UNL A   1      43.492  27.151  33.262  1.00  0.00     0.074 A 
ATOM     60  C   UNL A   1      43.399  27.662  34.618  1.00  0.00     0.031 C 
ATOM     61  C   UNL A   1      44.071  26.043  32.713  1.00  0.00     0.037 A 
BRANCH  48  62
ATOM     62  C   UNL A   1      43.198  24.096  26.919  1.00  0.00     0.057 A 
ATOM     63  C   UNL A   1      43.062  22.695  26.882  1.00  0.00     0.134 A 
ATOM     64  C   UNL A   1      43.859  24.642  25.799  1.00  0.00     0.134 A 
ATOM     65  F   UNL A   1      42.479  22.025  27.887  1.00  0.00    -0.206 F 
ATOM     66  C   UNL A   1      43.542  21.909  25.822  1.00  0.00     0.040 A 
ATOM     67  C   UNL A   1      44.295  23.874  24.710  1.00  0.00     0.040 A 
ATOM     68  F   UNL A   1      44.186  25.937  25.717  1.00  0.00    -0.206 F 
ATOM     69  C   UNL A   1      44.149  22.498  24.723  1.00  0.00     0.006 A 
ENDBRANCH  48  62
BRANCH  49  70
ATOM     70  C   UNL A   1      40.165  30.568  33.297  1.00  0.00     0.057 A 
ATOM     71  C   UNL A   1      39.920  31.931  33.549  1.00  0.00     0.134 A 
ATOM     72  C   UNL A   1      39.050  29.742  33.132  1.00  0.00     0.134 A 
ATOM     73  F   UNL A   1      40.949  32.780  33.713  1.00  0.00    -0.206 F 
ATOM     74  C   UNL A   1      38.633  32.473  33.505  1.00  0.00     0.040 A 
ATOM     75  C   UNL A   1      37.753  30.272  33.108  1.00  0.00     0.040 A 
ATOM     76  F   UNL A   1      39.198  28.436  32.867  1.00  0.00    -0.206 F 
ATOM     77  C   UNL A   1      37.546  31.644  33.247  1.00  0.00     0.006 A 
ENDBRANCH  49  70
BRANCH  61  78
ATOM     78  C   UNL A   1      44.607  24.864  33.488  1.00  0.00     0.057 A 
ATOM     79  C   UNL A   1      45.966  24.525  33.566  1.00  0.00     0.134 A 
ATOM     80  C   UNL A   1      43.753  24.111  34.324  1.00  0.00     0.134 A 
ATOM     81  F   UNL A   1      46.904  25.230  32.921  1.00  0.00    -0.206 F 
ATOM     82  C   UNL A   1      46.434  23.473  34.367  1.00  0.00     0.040 A 
ATOM     83  C   UNL A   1      44.215  23.097  35.168  1.00  0.00     0.040 A 
ATOM     84  F   UNL A   1      42.434  24.346  34.378  1.00  0.00    -0.206 F 
ATOM     85  C   UNL A   1      45.560  22.762  35.179  1.00  0.00     0.006 A 
ENDBRANCH  61  78
ENDBRANCH  35  36
ENDBRANCH  27  30
ENDBRANCH  25  26
ENDBRANCH  24  25
ENDBRANCH   1  24
TORSDOF 13
ENDMDL
MODEL 2
REMARK VINA RESULT:     -12.6      1.433      2.135
REMARK SMILES Cc1ccc(C(=O)NCCCCNC(=O)c2ccc(-c3c4nc(c(-c5c(F)cccc5F)c5ccc([nH]5)c(-c5c(F)cccc5F)c5nc(c(-c6c(F)cccc6F)c6ccc3[nH]6)C=C5)C=C4)cc2)cc1NC(=O)c1ccc(Br)o1
REMARK SMILES IDX 10 1 9 2 8 3 6 4 7 5 5 7 1 8 2 9 3 10 71 11 4 12 70 13 72 14
REMARK SMILES IDX 73 15 74 17 75 18 76 19 80 20 77 21 78 22 79 23 11 24 12 25
REMARK SMILES IDX 13 26 14 27 15 29 16 30 17 31 69 32 18 33 68 34 19 35 20 36
REMARK SMILES IDX 21 37 62 38 22 39 67 40 61 41 63 42 23 43 66 44 60 45 59 46
REMARK SMILES IDX 24 48 50 49 33 50 49 51 34 52 37 53 48 54 64 55 35 56 36 57
REMARK SMILES IDX 47 59 65 60 38 61 25 62 26 63 31 64 27 65 28 66 30 67 32 68
REMARK SMILES IDX 29 69 51 70 52 71 57 72 53 73 54 74 56 75 58 76 55 77 39 78
REMARK SMILES IDX 40 79 45 80 41 81 42 82 44 83 46 84 43 85
REMARK H PARENT 8 6 72 16 13 28 63 47 37 58
REMARK Flexibility Score: inf
ROOT
ATOM      1  C   UNL A   1      31.772  30.446  25.933  1.00  0.00     0.023 C 
ENDROOT
BRANCH   1   2
ATOM      2  C   UNL A   1      31.526  29.569  24.707  1.00  0.00     0.116 C 
BRANCH   2   3
ATOM      3  N   UNL A   1      32.670  29.399  23.827  1.00  0.00    -0.352 N 
ATOM      4  C   UNL A   1      33.274  28.268  23.323  1.00  0.00     0.251 C 
ATOM      5  O   UNL A   1      34.234  28.416  22.566  1.00  0.00    -0.269 OA
ATOM      6  H   UNL A   1      33.088  30.243  23.539  1.00  0.00     0.163 HD
BRANCH   4   7
ATOM      7  C   UNL A   1      32.855  26.884  23.690  1.00  0.00     0.041 A 
ATOM      8  C   UNL A   1      31.661  22.783  24.346  1.00  0.00     0.046 C 
ATOM      9  C   UNL A   1      32.100  24.221  24.208  1.00  0.00    -0.027 A 
ATOM     10  C   UNL A   1      31.670  24.882  23.042  1.00  0.00     0.006 A 
ATOM     11  C   UNL A   1      32.873  24.927  25.163  1.00  0.00     0.045 A 
ATOM     12  C   UNL A   1      32.057  26.193  22.777  1.00  0.00     0.014 A 
ATOM     13  C   UNL A   1      33.185  26.266  24.904  1.00  0.00     0.040 A 
BRANCH  11  14
ATOM     14  N   UNL A   1      33.311  24.240  26.313  1.00  0.00    -0.319 N 
ATOM     15  C   UNL A   1      34.275  23.303  26.616  1.00  0.00     0.291 C 
ATOM     16  H   UNL A   1      32.793  24.498  27.110  1.00  0.00     0.170 HD
ATOM     17  O   UNL A   1      34.217  22.846  27.762  1.00  0.00    -0.265 OA
BRANCH  15  18
ATOM     18  C   UNL A   1      35.272  22.839  25.683  1.00  0.00     0.193 A 
ATOM     19  C   UNL A   1      36.056  23.490  24.744  1.00  0.00     0.057 A 
ATOM     20  O   UNL A   1      35.719  21.551  25.824  1.00  0.00    -0.444 OA
ATOM     21  C   UNL A   1      37.014  22.548  24.286  1.00  0.00     0.059 A 
ATOM     22  C   UNL A   1      36.780  21.391  24.993  1.00  0.00     0.170 A 
ATOM     23  Br  UNL A   1      37.791  19.830  24.870  1.00  0.00    -0.008 Br
ENDBRANCH  15  18
ENDBRANCH  11  14
ENDBRANCH   4   7
ENDBRANCH   2   3
ENDBRANCH   1   2
BRANCH   1  24
ATOM     24  C   UNL A   1      32.525  29.808  27.093  1.00  0.00     0.023 C 
BRANCH  24  25
ATOM     25  C   UNL A   1      34.043  29.777  26.974  1.00  0.00     0.116 C 
BRANCH  25  26
ATOM     26  N   UNL A   1      34.744  31.009  27.312  1.00  0.00    -0.352 N 
ATOM     27  C   UNL A   1      35.972  31.192  27.932  1.00  0.00     0.251 C 
ATOM     28  H   UNL A   1      34.275  31.837  27.061  1.00  0.00     0.163 HD
ATOM     29  O   UNL A   1      36.354  32.331  28.187  1.00  0.00    -0.269 OA
BRANCH  27  30
ATOM     30  C   UNL A   1      36.895  30.048  28.170  1.00  0.00     0.039 A 
ATOM     31  C   UNL A   1      36.843  29.377  29.405  1.00  0.00     0.014 A 
ATOM     32  C   UNL A   1      37.901  29.727  27.273  1.00  0.00     0.014 A 
ATOM     33  C   UNL A   1      37.919  28.589  29.818  1.00  0.00     0.010 A 
ATOM     34  C   UNL A   1      39.020  29.070  27.721  1.00  0.00     0.010 A 
ATOM     35  C   UNL A   1      39.050  28.542  29.013  1.00  0.00    -0.014 A 
BRANCH  35  36
ATOM     36  C   UNL A   1      40.351  28.021  29.395  1.00  0.00     0.031 A 
ATOM     37  C   UNL A   1      40.751  26.672  28.943  1.00  0.00     0.074 A 
ATOM     38  C   UNL A   1      41.264  28.921  29.826  1.00  0.00     0.049 A 
ATOM     39  N   UNL A   1      41.875  26.117  29.233  1.00  0.00    -0.248 NA
ATOM     40  C   UNL A   1      39.885  25.810  28.133  1.00  0.00     0.031 C 
ATOM     41  C   UNL A   1      42.720  28.830  29.767  1.00  0.00     0.029 A 
ATOM     42  N   UNL A   1      41.023  30.051  30.624  1.00  0.00    -0.354 N 
ATOM     43  C   UNL A   1      42.025  25.043  28.389  1.00  0.00     0.074 A 
ATOM     44  C   UNL A   1      40.718  24.807  27.839  1.00  0.00     0.031 C 
ATOM     45  C   UNL A   1      43.242  29.635  30.708  1.00  0.00     0.029 A 
ATOM     46  C   UNL A   1      42.127  30.110  31.509  1.00  0.00     0.049 A 
ATOM     47  H   UNL A   1      40.256  30.667  30.578  1.00  0.00     0.167 HD
ATOM     48  C   UNL A   1      43.284  24.597  28.134  1.00  0.00     0.037 A 
ATOM     49  C   UNL A   1      41.967  29.835  32.838  1.00  0.00     0.037 A 
ATOM     50  C   UNL A   1      44.225  25.123  29.121  1.00  0.00     0.049 A 
ATOM     51  C   UNL A   1      42.783  28.656  33.321  1.00  0.00     0.074 A 
ATOM     52  C   UNL A   1      45.230  26.070  29.078  1.00  0.00     0.029 A 
ATOM     53  N   UNL A   1      43.990  24.856  30.469  1.00  0.00    -0.354 N 
ATOM     54  N   UNL A   1      43.264  27.730  32.537  1.00  0.00    -0.248 NA
ATOM     55  C   UNL A   1      43.123  28.427  34.723  1.00  0.00     0.031 C 
ATOM     56  C   UNL A   1      45.487  26.483  30.418  1.00  0.00     0.029 A 
ATOM     57  C   UNL A   1      44.686  25.739  31.270  1.00  0.00     0.049 A 
ATOM     58  H   UNL A   1      43.408  24.136  30.805  1.00  0.00     0.167 HD
ATOM     59  C   UNL A   1      43.941  26.801  33.281  1.00  0.00     0.074 A 
ATOM     60  C   UNL A   1      43.837  27.290  34.644  1.00  0.00     0.031 C 
ATOM     61  C   UNL A   1      44.525  25.701  32.719  1.00  0.00     0.037 A 
BRANCH  48  62
ATOM     62  C   UNL A   1      43.702  23.848  26.888  1.00  0.00     0.057 A 
ATOM     63  C   UNL A   1      44.267  24.544  25.802  1.00  0.00     0.134 A 
ATOM     64  C   UNL A   1      43.445  22.484  26.629  1.00  0.00     0.134 A 
ATOM     65  F   UNL A   1      44.544  25.853  25.883  1.00  0.00    -0.206 F 
ATOM     66  C   UNL A   1      44.552  23.935  24.569  1.00  0.00     0.040 A 
ATOM     67  C   UNL A   1      43.774  21.853  25.421  1.00  0.00     0.040 A 
ATOM     68  F   UNL A   1      42.800  21.697  27.497  1.00  0.00    -0.206 F 
ATOM     69  C   UNL A   1      44.319  22.581  24.378  1.00  0.00     0.006 A 
ENDBRANCH  48  62
BRANCH  49  70
ATOM     70  C   UNL A   1      40.617  30.219  33.341  1.00  0.00     0.057 A 
ATOM     71  C   UNL A   1      40.370  31.578  33.613  1.00  0.00     0.134 A 
ATOM     72  C   UNL A   1      39.502  29.398  33.152  1.00  0.00     0.134 A 
ATOM     73  F   UNL A   1      41.398  32.424  33.799  1.00  0.00    -0.206 F 
ATOM     74  C   UNL A   1      39.084  32.122  33.566  1.00  0.00     0.040 A 
ATOM     75  C   UNL A   1      38.206  29.928  33.125  1.00  0.00     0.040 A 
ATOM     76  F   UNL A   1      39.652  28.096  32.868  1.00  0.00    -0.206 F 
ATOM     77  C   UNL A   1      37.999  31.298  33.285  1.00  0.00     0.006 A 
ENDBRANCH  49  70
BRANCH  61  78
ATOM     78  C   UNL A   1      45.053  24.509  33.480  1.00  0.00     0.057 A 
ATOM     79  C   UNL A   1      44.346  23.310  33.655  1.00  0.00     0.134 A 
ATOM     80  C   UNL A   1      46.390  24.489  33.936  1.00  0.00     0.134 A 
ATOM     81  F   UNL A   1      43.111  23.144  33.164  1.00  0.00    -0.206 F 
ATOM     82  C   UNL A   1      44.905  22.194  34.294  1.00  0.00     0.040 A 
ATOM     83  C   UNL A   1      46.975  23.364  34.525  1.00  0.00     0.040 A 
ATOM     84  F   UNL A   1      47.195  25.553  33.805  1.00  0.00    -0.206 F 
ATOM     85  C   UNL A   1      46.226  22.215  34.722  1.00  0.00     0.006 A 
ENDBRANCH  61  78
ENDBRANCH  35  36
ENDBRANCH  27  30
ENDBRANCH  25  26
ENDBRANCH  24  25
ENDBRANCH   1  24
TORSDOF 13
ENDMDL
MODEL 3
REMARK VINA RESULT:     -12.6      1.798      2.590
REMARK SMILES Cc1ccc(C(=O)NCCCCNC(=O)c2ccc(-c3c4nc(c(-c5c(F)cccc5F)c5ccc([nH]5)c(-c5c(F)cccc5F)c5nc(c(-c6c(F)cccc6F)c6ccc3[nH]6)C=C5)C=C4)cc2)cc1NC(=O)c1ccc(Br)o1
REMARK SMILES IDX 10 1 9 2 8 3 6 4 7 5 5 7 1 8 2 9 3 10 71 11 4 12 70 13 72 14
REMARK SMILES IDX 73 15 74 17 75 18 76 19 80 20 77 21 78 22 79 23 11 24 12 25
REMARK SMILES IDX 13 26 14 27 15 29 16 30 17 31 69 32 18 33 68 34 19 35 20 36
REMARK SMILES IDX 21 37 62 38 22 39 67 40 61 41 63 42 23 43 66 44 60 45 59 46
REMARK SMILES IDX 24 48 50 49 33 50 49 51 34 52 37 53 48 54 64 55 35 56 36 57
REMARK SMILES IDX 47 59 65 60 38 61 25 62 26 63 31 64 27 65 28 66 30 67 32 68
REMARK SMILES IDX 29 69 51 70 52 71 57 72 53 73 54 74 56 75 58 76 55 77 39 78
REMARK SMILES IDX 40 79 45 80 41 81 42 82 44 83 46 84 43 85
REMARK H PARENT 8 6 72 16 13 28 63 47 37 58
REMARK Flexibility Score: inf
ROOT
ATOM      1  C   UNL A   1      31.865  28.863  26.000  1.00  0.00     0.023 C 
ENDROOT
BRANCH   1   2
ATOM      2  C   UNL A   1      32.029  27.577  26.808  1.00  0.00     0.116 C 
BRANCH   2   3
ATOM      3  N   UNL A   1      30.826  26.772  26.942  1.00  0.00    -0.352 N 
ATOM      4  C   UNL A   1      30.442  25.595  26.337  1.00  0.00     0.251 C 
ATOM      5  O   UNL A   1      29.359  25.108  26.658  1.00  0.00    -0.269 OA
ATOM      6  H   UNL A   1      30.168  27.131  27.581  1.00  0.00     0.163 HD
BRANCH   4   7
ATOM      7  C   UNL A   1      31.250  24.919  25.280  1.00  0.00     0.041 A 
ATOM      8  C   UNL A   1      33.492  23.281  21.969  1.00  0.00     0.046 C 
ATOM      9  C   UNL A   1      32.757  23.797  23.183  1.00  0.00    -0.027 A 
ATOM     10  C   UNL A   1      31.561  24.492  22.923  1.00  0.00     0.006 A 
ATOM     11  C   UNL A   1      33.176  23.607  24.523  1.00  0.00     0.045 A 
ATOM     12  C   UNL A   1      30.825  25.062  23.958  1.00  0.00     0.014 A 
ATOM     13  C   UNL A   1      32.376  24.128  25.546  1.00  0.00     0.040 A 
BRANCH  11  14
ATOM     14  N   UNL A   1      34.387  22.927  24.760  1.00  0.00    -0.319 N 
ATOM     15  C   UNL A   1      34.793  21.616  24.887  1.00  0.00     0.291 C 
ATOM     16  H   UNL A   1      35.141  23.552  24.861  1.00  0.00     0.170 HD
ATOM     17  O   UNL A   1      35.963  21.465  25.253  1.00  0.00    -0.265 OA
BRANCH  15  18
ATOM     18  C   UNL A   1      33.938  20.479  24.653  1.00  0.00     0.193 A 
ATOM     19  C   UNL A   1      32.605  20.363  24.296  1.00  0.00     0.057 A 
ATOM     20  O   UNL A   1      34.534  19.248  24.563  1.00  0.00    -0.444 OA
ATOM     21  C   UNL A   1      32.379  18.996  23.987  1.00  0.00     0.059 A 
ATOM     22  C   UNL A   1      33.592  18.365  24.143  1.00  0.00     0.170 A 
ATOM     23  Br  UNL A   1      33.923  16.565  23.792  1.00  0.00    -0.008 Br
ENDBRANCH  15  18
ENDBRANCH  11  14
ENDBRANCH   4   7
ENDBRANCH   2   3
ENDBRANCH   1   2
BRANCH   1  24
ATOM     24  C   UNL A   1      32.552  30.108  26.545  1.00  0.00     0.023 C 
BRANCH  24  25
ATOM     25  C   UNL A   1      34.003  29.943  26.975  1.00  0.00     0.116 C 
BRANCH  25  26
ATOM     26  N   UNL A   1      34.712  31.163  27.340  1.00  0.00    -0.352 N 
ATOM     27  C   UNL A   1      35.937  31.324  27.973  1.00  0.00     0.251 C 
ATOM     28  H   UNL A   1      34.252  32.000  27.102  1.00  0.00     0.163 HD
ATOM     29  O   UNL A   1      36.327  32.455  28.252  1.00  0.00    -0.269 OA
BRANCH  27  30
ATOM     30  C   UNL A   1      36.848  30.168  28.197  1.00  0.00     0.039 A 
ATOM     31  C   UNL A   1      36.742  29.439  29.395  1.00  0.00     0.014 A 
ATOM     32  C   UNL A   1      37.894  29.888  27.330  1.00  0.00     0.014 A 
ATOM     33  C   UNL A   1      37.799  28.630  29.817  1.00  0.00     0.010 A 
ATOM     34  C   UNL A   1      38.992  29.208  27.796  1.00  0.00     0.010 A 
ATOM     35  C   UNL A   1      38.964  28.619  29.061  1.00  0.00    -0.014 A 
BRANCH  35  36
ATOM     36  C   UNL A   1      40.247  28.077  29.475  1.00  0.00     0.031 A 
ATOM     37  C   UNL A   1      40.650  26.734  29.008  1.00  0.00     0.074 A 
ATOM     38  C   UNL A   1      41.153  28.960  29.955  1.00  0.00     0.049 A 
ATOM     39  N   UNL A   1      41.758  26.163  29.323  1.00  0.00    -0.248 NA
ATOM     40  C   UNL A   1      39.804  25.898  28.151  1.00  0.00     0.031 C 
ATOM     41  C   UNL A   1      42.610  28.856  29.943  1.00  0.00     0.029 A 
ATOM     42  N   UNL A   1      40.896  30.075  30.768  1.00  0.00    -0.354 N 
ATOM     43  C   UNL A   1      41.927  25.105  28.461  1.00  0.00     0.074 A 
ATOM     44  C   UNL A   1      40.637  24.893  27.863  1.00  0.00     0.031 C 
ATOM     45  C   UNL A   1      43.107  29.636  30.917  1.00  0.00     0.029 A 
ATOM     46  C   UNL A   1      41.970  30.104  31.691  1.00  0.00     0.049 A 
ATOM     47  H   UNL A   1      40.137  30.699  30.710  1.00  0.00     0.167 HD
ATOM     48  C   UNL A   1      43.190  24.652  28.238  1.00  0.00     0.037 A 
ATOM     49  C   UNL A   1      41.764  29.803  33.008  1.00  0.00     0.037 A 
ATOM     50  C   UNL A   1      44.102  25.148  29.267  1.00  0.00     0.049 A 
ATOM     51  C   UNL A   1      42.553  28.606  33.492  1.00  0.00     0.074 A 
ATOM     52  C   UNL A   1      45.117  26.087  29.278  1.00  0.00     0.029 A 
ATOM     53  N   UNL A   1      43.820  24.855  30.601  1.00  0.00    -0.354 N 
ATOM     54  N   UNL A   1      43.051  27.692  32.704  1.00  0.00    -0.248 NA
ATOM     55  C   UNL A   1      42.844  28.345  34.899  1.00  0.00     0.031 C 
ATOM     56  C   UNL A   1      45.332  26.468  30.634  1.00  0.00     0.029 A 
ATOM     57  C   UNL A   1      44.496  25.715  31.443  1.00  0.00     0.049 A 
ATOM     58  H   UNL A   1      43.221  24.134  30.902  1.00  0.00     0.167 HD
ATOM     59  C   UNL A   1      43.695  26.741  33.450  1.00  0.00     0.074 A 
ATOM     60  C   UNL A   1      43.549  27.202  34.819  1.00  0.00     0.031 C 
ATOM     61  C   UNL A   1      44.287  25.648  32.884  1.00  0.00     0.037 A 
BRANCH  48  62
ATOM     62  C   UNL A   1      43.642  23.926  26.991  1.00  0.00     0.057 A 
ATOM     63  C   UNL A   1      44.195  24.648  25.915  1.00  0.00     0.134 A 
ATOM     64  C   UNL A   1      43.431  22.557  26.720  1.00  0.00     0.134 A 
ATOM     65  F   UNL A   1      44.430  25.964  26.008  1.00  0.00    -0.206 F 
ATOM     66  C   UNL A   1      44.510  24.057  24.681  1.00  0.00     0.040 A 
ATOM     67  C   UNL A   1      43.791  21.945  25.511  1.00  0.00     0.040 A 
ATOM     68  F   UNL A   1      42.803  21.743  27.577  1.00  0.00    -0.206 F 
ATOM     69  C   UNL A   1      44.322  22.697  24.479  1.00  0.00     0.006 A 
ENDBRANCH  48  62
BRANCH  49  70
ATOM     70  C   UNL A   1      40.401  30.189  33.473  1.00  0.00     0.057 A 
ATOM     71  C   UNL A   1      40.162  31.542  33.782  1.00  0.00     0.134 A 
ATOM     72  C   UNL A   1      39.283  29.390  33.217  1.00  0.00     0.134 A 
ATOM     73  F   UNL A   1      41.193  32.366  34.033  1.00  0.00    -0.206 F 
ATOM     74  C   UNL A   1      38.886  32.105  33.706  1.00  0.00     0.040 A 
ATOM     75  C   UNL A   1      37.996  29.940  33.160  1.00  0.00     0.040 A 
ATOM     76  F   UNL A   1      39.427  28.097  32.894  1.00  0.00    -0.206 F 
ATOM     77  C   UNL A   1      37.801  31.307  33.358  1.00  0.00     0.006 A 
ENDBRANCH  49  70
BRANCH  61  78
ATOM     78  C   UNL A   1      44.779  24.435  33.637  1.00  0.00     0.057 A 
ATOM     79  C   UNL A   1      43.964  23.356  34.012  1.00  0.00     0.134 A 
ATOM     80  C   UNL A   1      46.159  24.252  33.872  1.00  0.00     0.134 A 
ATOM     81  F   UNL A   1      42.652  23.340  33.741  1.00  0.00    -0.206 F 
ATOM     82  C   UNL A   1      44.474  22.209  34.634  1.00  0.00     0.040 A 
ATOM     83  C   UNL A   1      46.686  23.090  34.441  1.00  0.00     0.040 A 
ATOM     84  F   UNL A   1      47.061  25.186  33.534  1.00  0.00    -0.206 F 
ATOM     85  C   UNL A   1      45.841  22.067  34.841  1.00  0.00     0.006 A 
ENDBRANCH  61  78
ENDBRANCH  35  36
ENDBRANCH  27  30
ENDBRANCH  25  26
ENDBRANCH  24  25
ENDBRANCH   1  24
TORSDOF 13
ENDMDL
