MODEL 1
REMARK VINA RESULT:     -12.1      0.000      0.000
REMARK SMILES O=C(NCCCCNC(=O)[C@H]1CC[C@@H](CNC(=O)[C@@H]2C[C@H]3CC[C@@H]2[NH2+]3)O1)c1ccc(-c2c3nc(c(-c4c(F)cccc4F)c4ccc([nH]4)c(-c4c(F)cccc4F)c4nc(c(-c5c(F)cccc5F)c5ccc2[nH]5)C=C4)C=C3)cc1
REMARK SMILES IDX 6 1 5 2 4 3 3 4 1 5 2 6 27 8 28 9 80 10 29 11 79 12 30 13
REMARK SMILES IDX 31 14 32 15 73 16 33 17 78 18 72 19 74 20 34 21 77 22 71 23
REMARK SMILES IDX 70 24 35 26 61 27 44 28 60 29 45 30 48 31 59 32 75 33 46 34
REMARK SMILES IDX 47 35 58 37 76 38 49 39 36 40 37 41 42 42 38 43 39 44 41 45
REMARK SMILES IDX 43 46 40 47 62 48 63 49 68 50 64 51 65 52 67 53 69 54 66 55
REMARK SMILES IDX 50 56 51 57 56 58 52 59 53 60 55 61 57 62 54 63 7 64 8 65
REMARK SMILES IDX 9 66 10 68 11 69 12 70 26 71 13 72 14 73 15 74 16 75 17 76
REMARK SMILES IDX 18 78 19 79 20 80 24 81 21 82 23 83 25 84 22 85
REMARK H PARENT 3 7 74 25 48 36 8 67 16 77 25 86 25 87
REMARK Flexibility Score: inf
ROOT
ATOM      1  C   UNL A   1      31.508  30.776  26.153  1.00  0.00     0.023 C 
ENDROOT
BRANCH   1   2
ATOM      2  C   UNL A   1      31.419  32.256  26.526  1.00  0.00     0.023 C 
BRANCH   2   3
ATOM      3  C   UNL A   1      32.680  32.845  27.144  1.00  0.00     0.116 C 
BRANCH   3   4
ATOM      4  N   UNL A   1      32.474  34.179  27.684  1.00  0.00    -0.352 N 
ATOM      5  O   UNL A   1      32.742  35.876  29.150  1.00  0.00    -0.269 OA
ATOM      6  C   UNL A   1      33.135  34.796  28.718  1.00  0.00     0.251 C 
ATOM      7  H   UNL A   1      31.766  34.709  27.252  1.00  0.00     0.163 HD
BRANCH   6   8
ATOM      8  C   UNL A   1      34.319  34.148  29.321  1.00  0.00     0.039 A 
ATOM      9  C   UNL A   1      34.172  33.257  30.388  1.00  0.00     0.014 A 
ATOM     10  C   UNL A   1      35.587  34.422  28.802  1.00  0.00     0.014 A 
ATOM     11  C   UNL A   1      35.298  32.726  31.005  1.00  0.00     0.010 A 
ATOM     12  C   UNL A   1      36.714  33.821  29.371  1.00  0.00     0.010 A 
ATOM     13  C   UNL A   1      36.577  32.974  30.482  1.00  0.00    -0.014 A 
BRANCH  13  14
ATOM     14  C   UNL A   1      37.738  32.226  31.026  1.00  0.00     0.031 A 
ATOM     15  C   UNL A   1      38.407  31.133  30.246  1.00  0.00     0.074 A 
ATOM     16  C   UNL A   1      38.174  32.552  32.258  1.00  0.00     0.049 A 
ATOM     17  N   UNL A   1      39.415  30.375  30.599  1.00  0.00    -0.248 NA
ATOM     18  C   UNL A   1      37.882  30.844  28.903  1.00  0.00     0.031 C 
ATOM     19  C   UNL A   1      37.582  33.584  33.114  1.00  0.00     0.029 A 
ATOM     20  N   UNL A   1      39.210  32.057  33.008  1.00  0.00    -0.354 N 
ATOM     21  C   UNL A   1      39.634  29.509  29.534  1.00  0.00     0.074 A 
ATOM     22  C   UNL A   1      38.645  29.825  28.525  1.00  0.00     0.031 C 
ATOM     23  C   UNL A   1      38.275  33.661  34.259  1.00  0.00     0.029 A 
ATOM     24  C   UNL A   1      39.315  32.640  34.247  1.00  0.00     0.049 A 
ATOM     25  H   UNL A   1      39.818  31.352  32.689  1.00  0.00     0.167 HD
ATOM     26  C   UNL A   1      40.576  28.543  29.421  1.00  0.00     0.037 A 
ATOM     27  C   UNL A   1      40.131  32.361  35.280  1.00  0.00     0.037 A 
ATOM     28  C   UNL A   1      41.567  28.252  30.426  1.00  0.00     0.049 A 
ATOM     29  C   UNL A   1      41.137  31.258  35.129  1.00  0.00     0.074 A 
ATOM     30  C   UNL A   1      42.613  27.346  30.365  1.00  0.00     0.029 A 
ATOM     31  N   UNL A   1      41.626  28.846  31.677  1.00  0.00    -0.354 N 
ATOM     32  N   UNL A   1      41.382  30.502  34.087  1.00  0.00    -0.248 NA
ATOM     33  C   UNL A   1      41.974  30.962  36.300  1.00  0.00     0.031 C 
ATOM     34  C   UNL A   1      43.265  27.348  31.601  1.00  0.00     0.029 A 
ATOM     35  C   UNL A   1      42.661  28.292  32.414  1.00  0.00     0.049 A 
ATOM     36  H   UNL A   1      41.023  29.556  31.995  1.00  0.00     0.167 HD
ATOM     37  C   UNL A   1      42.404  29.647  34.473  1.00  0.00     0.074 A 
ATOM     38  C   UNL A   1      42.756  30.000  35.833  1.00  0.00     0.031 C 
ATOM     39  C   UNL A   1      42.992  28.650  33.768  1.00  0.00     0.037 A 
BRANCH  26  40
ATOM     40  C   UNL A   1      40.590  27.704  28.176  1.00  0.00     0.057 A 
ATOM     41  C   UNL A   1      41.328  28.068  27.043  1.00  0.00     0.134 A 
ATOM     42  C   UNL A   1      39.944  26.459  28.155  1.00  0.00     0.134 A 
ATOM     43  F   UNL A   1      41.965  29.247  26.997  1.00  0.00    -0.206 F 
ATOM     44  C   UNL A   1      41.424  27.223  25.935  1.00  0.00     0.040 A 
ATOM     45  C   UNL A   1      40.050  25.599  27.061  1.00  0.00     0.040 A 
ATOM     46  F   UNL A   1      39.229  26.046  29.212  1.00  0.00    -0.206 F 
ATOM     47  C   UNL A   1      40.793  25.980  25.946  1.00  0.00     0.006 A 
ENDBRANCH  26  40
BRANCH  27  48
ATOM     48  C   UNL A   1      39.993  33.100  36.559  1.00  0.00     0.057 A 
ATOM     49  C   UNL A   1      39.065  32.709  37.530  1.00  0.00     0.134 A 
ATOM     50  C   UNL A   1      40.774  34.231  36.831  1.00  0.00     0.134 A 
ATOM     51  F   UNL A   1      38.276  31.645  37.322  1.00  0.00    -0.206 F 
ATOM     52  C   UNL A   1      38.899  33.432  38.714  1.00  0.00     0.040 A 
ATOM     53  C   UNL A   1      40.642  34.943  38.022  1.00  0.00     0.040 A 
ATOM     54  F   UNL A   1      41.688  34.652  35.945  1.00  0.00    -0.206 F 
ATOM     55  C   UNL A   1      39.692  34.551  38.963  1.00  0.00     0.006 A 
ENDBRANCH  27  48
BRANCH  39  56
ATOM     56  C   UNL A   1      44.078  27.880  34.458  1.00  0.00     0.057 A 
ATOM     57  C   UNL A   1      45.403  28.334  34.471  1.00  0.00     0.134 A 
ATOM     58  C   UNL A   1      43.792  26.692  35.141  1.00  0.00     0.134 A 
ATOM     59  F   UNL A   1      45.744  29.457  33.820  1.00  0.00    -0.206 F 
ATOM     60  C   UNL A   1      46.410  27.620  35.120  1.00  0.00     0.040 A 
ATOM     61  C   UNL A   1      44.785  25.984  35.818  1.00  0.00     0.040 A 
ATOM     62  F   UNL A   1      42.542  26.207  35.171  1.00  0.00    -0.206 F 
ATOM     63  C   UNL A   1      46.101  26.445  35.803  1.00  0.00     0.006 A 
ENDBRANCH  39  56
ENDBRANCH  13  14
ENDBRANCH   6   8
ENDBRANCH   3   4
ENDBRANCH   2   3
ENDBRANCH   1   2
BRANCH   1  64
ATOM     64  C   UNL A   1      32.287  29.909  27.138  1.00  0.00     0.116 C 
BRANCH  64  65
ATOM     65  N   UNL A   1      31.757  28.561  27.222  1.00  0.00    -0.354 N 
ATOM     66  C   UNL A   1      32.271  27.413  26.684  1.00  0.00     0.249 C 
ATOM     67  H   UNL A   1      30.920  28.459  27.731  1.00  0.00     0.163 HD
ATOM     68  O   UNL A   1      31.659  26.359  26.861  1.00  0.00    -0.272 OA
BRANCH  66  69
ATOM     69  C   UNL A   1      33.591  27.496  25.897  1.00  0.00     0.207 C 
ATOM     70  C   UNL A   1      33.918  26.218  25.143  1.00  0.00     0.045 C 
ATOM     71  O   UNL A   1      33.502  28.540  24.911  1.00  0.00    -0.363 OA
ATOM     72  C   UNL A   1      33.247  26.445  23.812  1.00  0.00     0.037 C 
ATOM     73  C   UNL A   1      33.442  27.937  23.601  1.00  0.00     0.138 C 
BRANCH  73  74
ATOM     74  C   UNL A   1      32.310  28.566  22.780  1.00  0.00     0.147 C 
BRANCH  74  75
ATOM     75  N   UNL A   1      31.046  27.886  23.024  1.00  0.00    -0.353 N 
ATOM     76  C   UNL A   1      29.771  28.379  23.010  1.00  0.00     0.229 C 
ATOM     77  H   UNL A   1      31.121  26.927  23.230  1.00  0.00     0.163 HD
ATOM     78  O   UNL A   1      28.867  27.648  23.408  1.00  0.00    -0.275 OA
BRANCH  76  79
ATOM     79  C   UNL A   1      29.552  29.817  22.550  1.00  0.00     0.142 C 
ATOM     80  C   UNL A   1      29.159  30.796  23.672  1.00  0.00     0.084 C 
ATOM     81  C   UNL A   1      28.352  29.933  21.591  1.00  0.00     0.195 C 
ATOM     82  C   UNL A   1      27.851  31.401  23.153  1.00  0.00     0.183 C 
ATOM     83  C   UNL A   1      28.429  31.264  20.834  1.00  0.00     0.072 C 
ATOM     84  N   UNL A   1      27.246  30.216  22.526  1.00  0.00    -0.341 N 
ATOM     85  C   UNL A   1      28.110  32.288  21.931  1.00  0.00     0.071 C 
ATOM     86  H   UNL A   1      26.373  30.431  22.046  1.00  0.00     0.346 HD
ATOM     87  H   UNL A   1      26.966  29.459  23.150  1.00  0.00     0.346 HD
ENDBRANCH  76  79
ENDBRANCH  74  75
ENDBRANCH  73  74
ENDBRANCH  66  69
ENDBRANCH  64  65
ENDBRANCH   1  64
TORSDOF 14
ENDMDL
MODEL 2
REMARK VINA RESULT:     -12.1      6.108     10.969
REMARK SMILES O=C(NCCCCNC(=O)[C@H]1CC[C@@H](CNC(=O)[C@@H]2C[C@H]3CC[C@@H]2[NH2+]3)O1)c1ccc(-c2c3nc(c(-c4c(F)cccc4F)c4ccc([nH]4)c(-c4c(F)cccc4F)c4nc(c(-c5c(F)cccc5F)c5ccc2[nH]5)C=C4)C=C3)cc1
REMARK SMILES IDX 6 1 5 2 4 3 3 4 1 5 2 6 27 8 28 9 80 10 29 11 79 12 30 13
REMARK SMILES IDX 31 14 32 15 73 16 33 17 78 18 72 19 74 20 34 21 77 22 71 23
REMARK SMILES IDX 70 24 35 26 61 27 44 28 60 29 45 30 48 31 59 32 75 33 46 34
REMARK SMILES IDX 47 35 58 37 76 38 49 39 36 40 37 41 42 42 38 43 39 44 41 45
REMARK SMILES IDX 43 46 40 47 62 48 63 49 68 50 64 51 65 52 67 53 69 54 66 55
REMARK SMILES IDX 50 56 51 57 56 58 52 59 53 60 55 61 57 62 54 63 7 64 8 65
REMARK SMILES IDX 9 66 10 68 11 69 12 70 26 71 13 72 14 73 15 74 16 75 17 76
REMARK SMILES IDX 18 78 19 79 20 80 24 81 21 82 23 83 25 84 22 85
REMARK H PARENT 3 7 74 25 48 36 8 67 16 77 25 86 25 87
REMARK Flexibility Score: inf
ROOT
ATOM      1  C   UNL A   1      36.922  20.629  24.877  1.00  0.00     0.023 C 
ENDROOT
BRANCH   1   2
ATOM      2  C   UNL A   1      38.075  19.630  24.976  1.00  0.00     0.023 C 
BRANCH   2   3
ATOM      3  C   UNL A   1      39.276  20.106  25.782  1.00  0.00     0.116 C 
BRANCH   3   4
ATOM      4  N   UNL A   1      40.327  19.105  25.872  1.00  0.00    -0.352 N 
ATOM      5  O   UNL A   1      42.450  18.349  26.018  1.00  0.00    -0.269 OA
ATOM      6  C   UNL A   1      41.666  19.288  26.120  1.00  0.00     0.251 C 
ATOM      7  H   UNL A   1      40.041  18.173  25.737  1.00  0.00     0.163 HD
BRANCH   6   8
ATOM      8  C   UNL A   1      42.164  20.628  26.497  1.00  0.00     0.039 A 
ATOM      9  C   UNL A   1      42.602  21.523  25.517  1.00  0.00     0.014 A 
ATOM     10  C   UNL A   1      42.177  20.998  27.845  1.00  0.00     0.014 A 
ATOM     11  C   UNL A   1      43.153  22.742  25.891  1.00  0.00     0.010 A 
ATOM     12  C   UNL A   1      42.655  22.259  28.213  1.00  0.00     0.010 A 
ATOM     13  C   UNL A   1      43.154  23.138  27.238  1.00  0.00    -0.014 A 
BRANCH  13  14
ATOM     14  C   UNL A   1      43.548  24.525  27.584  1.00  0.00     0.031 A 
ATOM     15  C   UNL A   1      42.532  25.564  27.959  1.00  0.00     0.074 A 
ATOM     16  C   UNL A   1      44.859  24.835  27.543  1.00  0.00     0.049 A 
ATOM     17  N   UNL A   1      42.724  26.823  28.263  1.00  0.00    -0.248 NA
ATOM     18  C   UNL A   1      41.123  25.147  27.995  1.00  0.00     0.031 C 
ATOM     19  C   UNL A   1      45.931  23.907  27.169  1.00  0.00     0.029 A 
ATOM     20  N   UNL A   1      45.518  26.006  27.815  1.00  0.00    -0.354 N 
ATOM     21  C   UNL A   1      41.463  27.354  28.507  1.00  0.00     0.074 A 
ATOM     22  C   UNL A   1      40.510  26.284  28.304  1.00  0.00     0.031 C 
ATOM     23  C   UNL A   1      47.111  24.536  27.256  1.00  0.00     0.029 A 
ATOM     24  C   UNL A   1      46.876  25.925  27.624  1.00  0.00     0.049 A 
ATOM     25  H   UNL A   1      45.062  26.824  28.116  1.00  0.00     0.167 HD
ATOM     26  C   UNL A   1      41.142  28.619  28.867  1.00  0.00     0.037 A 
ATOM     27  C   UNL A   1      47.827  26.874  27.698  1.00  0.00     0.037 A 
ATOM     28  C   UNL A   1      42.104  29.671  29.085  1.00  0.00     0.049 A 
ATOM     29  C   UNL A   1      47.428  28.273  28.063  1.00  0.00     0.074 A 
ATOM     30  C   UNL A   1      41.879  30.963  29.529  1.00  0.00     0.029 A 
ATOM     31  N   UNL A   1      43.467  29.559  28.858  1.00  0.00    -0.354 N 
ATOM     32  N   UNL A   1      46.242  28.739  28.367  1.00  0.00    -0.248 NA
ATOM     33  C   UNL A   1      48.496  29.281  28.086  1.00  0.00     0.031 C 
ATOM     34  C   UNL A   1      43.096  31.650  29.512  1.00  0.00     0.029 A 
ATOM     35  C   UNL A   1      44.088  30.772  29.108  1.00  0.00     0.049 A 
ATOM     36  H   UNL A   1      43.925  28.739  28.563  1.00  0.00     0.167 HD
ATOM     37  C   UNL A   1      46.421  30.091  28.624  1.00  0.00     0.074 A 
ATOM     38  C   UNL A   1      47.836  30.363  28.474  1.00  0.00     0.031 C 
ATOM     39  C   UNL A   1      45.495  31.027  28.946  1.00  0.00     0.037 A 
BRANCH  26  40
ATOM     40  C   UNL A   1      39.692  28.965  29.039  1.00  0.00     0.057 A 
ATOM     41  C   UNL A   1      38.886  29.350  27.960  1.00  0.00     0.134 A 
ATOM     42  C   UNL A   1      39.069  28.799  30.284  1.00  0.00     0.134 A 
ATOM     43  F   UNL A   1      39.420  29.530  26.744  1.00  0.00    -0.206 F 
ATOM     44  C   UNL A   1      37.514  29.558  28.114  1.00  0.00     0.040 A 
ATOM     45  C   UNL A   1      37.695  28.985  30.445  1.00  0.00     0.040 A 
ATOM     46  F   UNL A   1      39.781  28.422  31.357  1.00  0.00    -0.206 F 
ATOM     47  C   UNL A   1      36.912  29.364  29.357  1.00  0.00     0.006 A 
ENDBRANCH  26  40
BRANCH  27  48
ATOM     48  C   UNL A   1      49.236  26.543  27.369  1.00  0.00     0.057 A 
ATOM     49  C   UNL A   1      49.729  26.668  26.066  1.00  0.00     0.134 A 
ATOM     50  C   UNL A   1      50.119  26.071  28.349  1.00  0.00     0.134 A 
ATOM     51  F   UNL A   1      48.928  27.097  25.078  1.00  0.00    -0.206 F 
ATOM     52  C   UNL A   1      51.039  26.310  25.743  1.00  0.00     0.040 A 
ATOM     53  C   UNL A   1      51.439  25.742  28.049  1.00  0.00     0.040 A 
ATOM     54  F   UNL A   1      49.711  25.937  29.620  1.00  0.00    -0.206 F 
ATOM     55  C   UNL A   1      51.900  25.849  26.738  1.00  0.00     0.006 A 
ENDBRANCH  27  48
BRANCH  39  56
ATOM     56  C   UNL A   1      45.991  32.425  29.161  1.00  0.00     0.057 A 
ATOM     57  C   UNL A   1      46.437  32.860  30.415  1.00  0.00     0.134 A 
ATOM     58  C   UNL A   1      46.051  33.336  28.098  1.00  0.00     0.134 A 
ATOM     59  F   UNL A   1      46.388  32.040  31.476  1.00  0.00    -0.206 F 
ATOM     60  C   UNL A   1      46.905  34.160  30.610  1.00  0.00     0.040 A 
ATOM     61  C   UNL A   1      46.543  34.629  28.276  1.00  0.00     0.040 A 
ATOM     62  F   UNL A   1      45.644  32.980  26.871  1.00  0.00    -0.206 F 
ATOM     63  C   UNL A   1      46.966  35.046  29.537  1.00  0.00     0.006 A 
ENDBRANCH  39  56
ENDBRANCH  13  14
ENDBRANCH   6   8
ENDBRANCH   3   4
ENDBRANCH   2   3
ENDBRANCH   1   2
BRANCH   1  64
ATOM     64  C   UNL A   1      37.341  22.076  24.629  1.00  0.00     0.116 C 
BRANCH  64  65
ATOM     65  N   UNL A   1      36.460  22.750  23.693  1.00  0.00    -0.354 N 
ATOM     66  C   UNL A   1      35.491  23.678  23.960  1.00  0.00     0.249 C 
ATOM     67  H   UNL A   1      36.575  22.508  22.745  1.00  0.00     0.163 HD
ATOM     68  O   UNL A   1      34.838  24.128  23.018  1.00  0.00    -0.272 OA
BRANCH  66  69
ATOM     69  C   UNL A   1      35.276  24.120  25.419  1.00  0.00     0.207 C 
ATOM     70  C   UNL A   1      33.974  24.874  25.629  1.00  0.00     0.045 C 
ATOM     71  O   UNL A   1      35.219  22.962  26.271  1.00  0.00    -0.363 OA
ATOM     72  C   UNL A   1      33.004  23.765  25.945  1.00  0.00     0.037 C 
ATOM     73  C   UNL A   1      33.864  22.797  26.740  1.00  0.00     0.138 C 
BRANCH  73  74
ATOM     74  C   UNL A   1      33.419  21.339  26.569  1.00  0.00     0.147 C 
BRANCH  74  75
ATOM     75  N   UNL A   1      32.773  21.136  25.281  1.00  0.00    -0.353 N 
ATOM     76  C   UNL A   1      32.716  20.017  24.499  1.00  0.00     0.229 C 
ATOM     77  H   UNL A   1      32.308  21.924  24.918  1.00  0.00     0.163 HD
ATOM     78  O   UNL A   1      32.248  20.129  23.367  1.00  0.00    -0.275 OA
BRANCH  76  79
ATOM     79  C   UNL A   1      33.278  18.713  25.053  1.00  0.00     0.142 C 
ATOM     80  C   UNL A   1      34.527  18.189  24.320  1.00  0.00     0.084 C 
ATOM     81  C   UNL A   1      32.290  17.544  24.874  1.00  0.00     0.195 C 
ATOM     82  C   UNL A   1      34.115  16.770  23.915  1.00  0.00     0.183 C 
ATOM     83  C   UNL A   1      32.690  16.390  25.800  1.00  0.00     0.072 C 
ATOM     84  N   UNL A   1      32.704  16.998  23.567  1.00  0.00    -0.341 N 
ATOM     85  C   UNL A   1      33.979  15.871  25.148  1.00  0.00     0.071 C 
ATOM     86  H   UNL A   1      32.216  16.134  23.330  1.00  0.00     0.346 HD
ATOM     87  H   UNL A   1      32.522  17.578  22.748  1.00  0.00     0.346 HD
ENDBRANCH  76  79
ENDBRANCH  74  75
ENDBRANCH  73  74
ENDBRANCH  66  69
ENDBRANCH  64  65
ENDBRANCH   1  64
TORSDOF 14
ENDMDL
MODEL 3
REMARK VINA RESULT:     -12.0      4.593      9.390
REMARK SMILES O=C(NCCCCNC(=O)[C@H]1CC[C@@H](CNC(=O)[C@@H]2C[C@H]3CC[C@@H]2[NH2+]3)O1)c1ccc(-c2c3nc(c(-c4c(F)cccc4F)c4ccc([nH]4)c(-c4c(F)cccc4F)c4nc(c(-c5c(F)cccc5F)c5ccc2[nH]5)C=C4)C=C3)cc1
REMARK SMILES IDX 6 1 5 2 4 3 3 4 1 5 2 6 27 8 28 9 80 10 29 11 79 12 30 13
REMARK SMILES IDX 31 14 32 15 73 16 33 17 78 18 72 19 74 20 34 21 77 22 71 23
REMARK SMILES IDX 70 24 35 26 61 27 44 28 60 29 45 30 48 31 59 32 75 33 46 34
REMARK SMILES IDX 47 35 58 37 76 38 49 39 36 40 37 41 42 42 38 43 39 44 41 45
REMARK SMILES IDX 43 46 40 47 62 48 63 49 68 50 64 51 65 52 67 53 69 54 66 55
REMARK SMILES IDX 50 56 51 57 56 58 52 59 53 60 55 61 57 62 54 63 7 64 8 65
REMARK SMILES IDX 9 66 10 68 11 69 12 70 26 71 13 72 14 73 15 74 16 75 17 76
REMARK SMILES IDX 18 78 19 79 20 80 24 81 21 82 23 83 25 84 22 85
REMARK H PARENT 3 7 74 25 48 36 8 67 16 77 25 86 25 87
REMARK Flexibility Score: inf
ROOT
ATOM      1  C   UNL A   1      36.728  20.921  24.913  1.00  0.00     0.023 C 
ENDROOT
BRANCH   1   2
ATOM      2  C   UNL A   1      37.906  19.948  24.873  1.00  0.00     0.023 C 
BRANCH   2   3
ATOM      3  C   UNL A   1      38.940  20.137  25.975  1.00  0.00     0.116 C 
BRANCH   3   4
ATOM      4  N   UNL A   1      40.093  19.264  25.823  1.00  0.00    -0.352 N 
ATOM      5  O   UNL A   1      42.288  18.750  25.681  1.00  0.00    -0.269 OA
ATOM      6  C   UNL A   1      41.423  19.565  25.991  1.00  0.00     0.251 C 
ATOM      7  H   UNL A   1      39.894  18.336  25.565  1.00  0.00     0.163 HD
BRANCH   6   8
ATOM      8  C   UNL A   1      41.813  20.883  26.536  1.00  0.00     0.039 A 
ATOM      9  C   UNL A   1      42.169  21.927  25.678  1.00  0.00     0.014 A 
ATOM     10  C   UNL A   1      41.805  21.080  27.919  1.00  0.00     0.014 A 
ATOM     11  C   UNL A   1      42.621  23.130  26.203  1.00  0.00     0.010 A 
ATOM     12  C   UNL A   1      42.181  22.320  28.445  1.00  0.00     0.010 A 
ATOM     13  C   UNL A   1      42.599  23.352  27.590  1.00  0.00    -0.014 A 
BRANCH  13  14
ATOM     14  C   UNL A   1      42.881  24.713  28.109  1.00  0.00     0.031 A 
ATOM     15  C   UNL A   1      41.788  25.717  28.326  1.00  0.00     0.074 A 
ATOM     16  C   UNL A   1      44.163  25.030  28.376  1.00  0.00     0.049 A 
ATOM     17  N   UNL A   1      41.883  26.952  28.750  1.00  0.00    -0.248 NA
ATOM     18  C   UNL A   1      40.412  25.292  28.024  1.00  0.00     0.031 C 
ATOM     19  C   UNL A   1      45.309  24.137  28.180  1.00  0.00     0.029 A 
ATOM     20  N   UNL A   1      44.724  26.182  28.865  1.00  0.00    -0.354 N 
ATOM     21  C   UNL A   1      40.589  27.458  28.751  1.00  0.00     0.074 A 
ATOM     22  C   UNL A   1      39.724  26.401  28.271  1.00  0.00     0.031 C 
ATOM     23  C   UNL A   1      46.430  24.763  28.566  1.00  0.00     0.029 A 
ATOM     24  C   UNL A   1      46.092  26.122  28.969  1.00  0.00     0.049 A 
ATOM     25  H   UNL A   1      44.197  26.974  29.117  1.00  0.00     0.167 HD
ATOM     26  C   UNL A   1      40.173  28.693  29.119  1.00  0.00     0.037 A 
ATOM     27  C   UNL A   1      46.986  27.066  29.314  1.00  0.00     0.037 A 
ATOM     28  C   UNL A   1      41.043  29.730  29.614  1.00  0.00     0.049 A 
ATOM     29  C   UNL A   1      46.489  28.434  29.680  1.00  0.00     0.074 A 
ATOM     30  C   UNL A   1      40.701  30.985  30.088  1.00  0.00     0.029 A 
ATOM     31  N   UNL A   1      42.425  29.641  29.682  1.00  0.00    -0.354 N 
ATOM     32  N   UNL A   1      45.256  28.872  29.750  1.00  0.00    -0.248 NA
ATOM     33  C   UNL A   1      47.507  29.442  30.005  1.00  0.00     0.031 C 
ATOM     34  C   UNL A   1      41.879  31.677  30.384  1.00  0.00     0.029 A 
ATOM     35  C   UNL A   1      42.952  30.836  30.145  1.00  0.00     0.049 A 
ATOM     36  H   UNL A   1      42.953  28.847  29.437  1.00  0.00     0.167 HD
ATOM     37  C   UNL A   1      45.348  30.202  30.134  1.00  0.00     0.074 A 
ATOM     38  C   UNL A   1      46.756  30.490  30.314  1.00  0.00     0.031 C 
ATOM     39  C   UNL A   1      44.356  31.108  30.311  1.00  0.00     0.037 A 
BRANCH  26  40
ATOM     40  C   UNL A   1      38.713  29.018  28.996  1.00  0.00     0.057 A 
ATOM     41  C   UNL A   1      37.837  28.932  30.085  1.00  0.00     0.134 A 
ATOM     42  C   UNL A   1      38.203  29.534  27.796  1.00  0.00     0.134 A 
ATOM     43  F   UNL A   1      38.261  28.443  31.260  1.00  0.00    -0.206 F 
ATOM     44  C   UNL A   1      36.507  29.346  29.985  1.00  0.00     0.040 A 
ATOM     45  C   UNL A   1      36.881  29.970  27.691  1.00  0.00     0.040 A 
ATOM     46  F   UNL A   1      38.991  29.654  26.717  1.00  0.00    -0.206 F 
ATOM     47  C   UNL A   1      36.029  29.878  28.788  1.00  0.00     0.006 A 
ENDBRANCH  26  40
BRANCH  27  48
ATOM     48  C   UNL A   1      48.439  26.767  29.277  1.00  0.00     0.057 A 
ATOM     49  C   UNL A   1      49.202  26.999  28.128  1.00  0.00     0.134 A 
ATOM     50  C   UNL A   1      49.095  26.218  30.387  1.00  0.00     0.134 A 
ATOM     51  F   UNL A   1      48.628  27.506  27.027  1.00  0.00    -0.206 F 
ATOM     52  C   UNL A   1      50.558  26.672  28.074  1.00  0.00     0.040 A 
ATOM     53  C   UNL A   1      50.456  25.917  30.358  1.00  0.00     0.040 A 
ATOM     54  F   UNL A   1      48.422  25.979  31.522  1.00  0.00    -0.206 F 
ATOM     55  C   UNL A   1      51.189  26.132  29.194  1.00  0.00     0.006 A 
ENDBRANCH  27  48
BRANCH  39  56
ATOM     56  C   UNL A   1      44.765  32.489  30.725  1.00  0.00     0.057 A 
ATOM     57  C   UNL A   1      44.946  32.827  32.072  1.00  0.00     0.134 A 
ATOM     58  C   UNL A   1      45.010  33.482  29.768  1.00  0.00     0.134 A 
ATOM     59  F   UNL A   1      44.710  31.925  33.037  1.00  0.00    -0.206 F 
ATOM     60  C   UNL A   1      45.333  34.111  32.454  1.00  0.00     0.040 A 
ATOM     61  C   UNL A   1      45.425  34.762  30.137  1.00  0.00     0.040 A 
ATOM     62  F   UNL A   1      44.860  33.221  28.461  1.00  0.00    -0.206 F 
ATOM     63  C   UNL A   1      45.583  35.081  31.485  1.00  0.00     0.006 A 
ENDBRANCH  39  56
ENDBRANCH  13  14
ENDBRANCH   6   8
ENDBRANCH   3   4
ENDBRANCH   2   3
ENDBRANCH   1   2
BRANCH   1  64
ATOM     64  C   UNL A   1      37.019  22.310  24.353  1.00  0.00     0.116 C 
BRANCH  64  65
ATOM     65  N   UNL A   1      36.180  23.331  24.953  1.00  0.00    -0.354 N 
ATOM     66  C   UNL A   1      35.033  23.886  24.455  1.00  0.00     0.249 C 
ATOM     67  H   UNL A   1      36.474  23.667  25.831  1.00  0.00     0.163 HD
ATOM     68  O   UNL A   1      34.468  24.755  25.119  1.00  0.00    -0.272 OA
BRANCH  66  69
ATOM     69  C   UNL A   1      34.503  23.387  23.098  1.00  0.00     0.207 C 
ATOM     70  C   UNL A   1      33.285  22.489  23.226  1.00  0.00     0.045 C 
ATOM     71  O   UNL A   1      34.099  24.511  22.295  1.00  0.00    -0.363 OA
ATOM     72  C   UNL A   1      32.147  23.476  23.176  1.00  0.00     0.037 C 
ATOM     73  C   UNL A   1      32.660  24.513  22.191  1.00  0.00     0.138 C 
BRANCH  73  74
ATOM     74  C   UNL A   1      32.111  25.916  22.477  1.00  0.00     0.147 C 
BRANCH  74  75
ATOM     75  N   UNL A   1      33.148  26.925  22.324  1.00  0.00    -0.353 N 
ATOM     76  C   UNL A   1      33.493  27.957  23.152  1.00  0.00     0.229 C 
ATOM     77  H   UNL A   1      33.682  26.854  21.501  1.00  0.00     0.163 HD
ATOM     78  O   UNL A   1      34.301  28.784  22.735  1.00  0.00    -0.275 OA
BRANCH  76  79
ATOM     79  C   UNL A   1      32.821  28.049  24.518  1.00  0.00     0.142 C 
ATOM     80  C   UNL A   1      31.809  29.202  24.659  1.00  0.00     0.084 C 
ATOM     81  C   UNL A   1      33.834  28.377  25.631  1.00  0.00     0.195 C 
ATOM     82  C   UNL A   1      32.327  29.963  25.883  1.00  0.00     0.183 C 
ATOM     83  C   UNL A   1      33.222  28.041  26.996  1.00  0.00     0.072 C 
ATOM     84  N   UNL A   1      33.777  29.852  25.664  1.00  0.00    -0.341 N 
ATOM     85  C   UNL A   1      32.151  29.128  27.156  1.00  0.00     0.071 C 
ATOM     86  H   UNL A   1      34.319  30.247  26.433  1.00  0.00     0.346 HD
ATOM     87  H   UNL A   1      34.158  30.345  24.857  1.00  0.00     0.346 HD
ENDBRANCH  76  79
ENDBRANCH  74  75
ENDBRANCH  73  74
ENDBRANCH  66  69
ENDBRANCH  64  65
ENDBRANCH   1  64
TORSDOF 14
ENDMDL
