MODEL 1
REMARK VINA RESULT:     -10.6      0.000      0.000
REMARK SMILES COCCn1nnc(C(=O)NCCCCNC(=O)c2ccc(-c3c4nc(c(-c5c(F)cccc5F)c5ccc([nH]5)c(-c5c(F)cccc5F)c5nc(c(-c6c(F)cccc6F)c6ccc3[nH]6)C=C5)C=C4)cc2)c1C(F)(F)F
REMARK SMILES IDX 13 1 12 2 11 3 9 4 10 5 8 7 5 8 6 9 73 10 7 11 4 12 3 13
REMARK SMILES IDX 2 14 1 15 74 16 75 17 76 18 77 19 14 20 15 21 16 22 17 23
REMARK SMILES IDX 18 25 19 26 20 27 72 28 21 29 71 30 22 31 23 32 24 33 65 34
REMARK SMILES IDX 25 35 70 36 64 37 66 38 26 39 69 40 63 41 62 42 27 44 53 45
REMARK SMILES IDX 36 46 52 47 37 48 40 49 51 50 67 51 38 52 39 53 50 55 68 56
REMARK SMILES IDX 41 57 28 58 29 59 34 60 30 61 31 62 33 63 35 64 32 65 54 66
REMARK SMILES IDX 55 67 60 68 56 69 57 70 59 71 61 72 58 73 42 74 43 75 48 76
REMARK SMILES IDX 44 77 45 78 47 79 49 80 46 81
REMARK H PARENT 11 6 16 24 66 43 40 54
REMARK Flexibility Score: inf
ROOT
ATOM      1  C   UNL A   1      32.837  29.699  26.568  1.00  0.00     0.023 C 
ENDROOT
BRANCH   1   2
ATOM      2  C   UNL A   1      32.823  29.666  25.034  1.00  0.00     0.116 C 
BRANCH   2   3
ATOM      3  N   UNL A   1      31.513  29.704  24.404  1.00  0.00    -0.351 N 
ATOM      4  C   UNL A   1      30.680  28.804  23.791  1.00  0.00     0.274 C 
ATOM      5  O   UNL A   1      29.574  29.233  23.463  1.00  0.00    -0.267 OA
ATOM      6  H   UNL A   1      31.124  30.609  24.423  1.00  0.00     0.163 HD
BRANCH   4   7
ATOM      7  C   UNL A   1      31.083  27.447  23.449  1.00  0.00     0.182 A 
ATOM      8  N   UNL A   1      31.618  25.348  23.286  1.00  0.00    -0.237 N 
ATOM      9  N   UNL A   1      31.533  25.833  22.035  1.00  0.00    -0.066 NA
ATOM     10  C   UNL A   1      31.236  26.294  24.203  1.00  0.00     0.175 A 
ATOM     11  N   UNL A   1      31.220  27.111  22.120  1.00  0.00    -0.124 NA
BRANCH   8  12
ATOM     12  C   UNL A   1      32.094  23.983  23.426  1.00  0.00     0.175 C 
BRANCH  12  13
ATOM     13  C   UNL A   1      33.094  23.612  22.324  1.00  0.00     0.183 C 
BRANCH  13  14
ATOM     14  O   UNL A   1      34.456  23.869  22.674  1.00  0.00    -0.383 OA
ATOM     15  C   UNL A   1      34.679  24.060  24.061  1.00  0.00     0.194 C 
ENDBRANCH  13  14
ENDBRANCH  12  13
ENDBRANCH   8  12
BRANCH  10  16
ATOM     16  C   UNL A   1      31.002  26.031  25.621  1.00  0.00     0.435 C 
ATOM     17  F   UNL A   1      30.809  27.179  26.314  1.00  0.00    -0.164 F 
ATOM     18  F   UNL A   1      29.901  25.268  25.820  1.00  0.00    -0.164 F 
ATOM     19  F   UNL A   1      32.032  25.388  26.219  1.00  0.00    -0.164 F 
ENDBRANCH  10  16
ENDBRANCH   4   7
ENDBRANCH   2   3
ENDBRANCH   1   2
BRANCH   1  20
ATOM     20  C   UNL A   1      33.859  28.741  27.222  1.00  0.00     0.023 C 
BRANCH  20  21
ATOM     21  C   UNL A   1      35.263  29.295  27.479  1.00  0.00     0.116 C 
BRANCH  21  22
ATOM     22  N   UNL A   1      35.436  29.940  28.785  1.00  0.00    -0.352 N 
ATOM     23  C   UNL A   1      36.420  29.666  29.728  1.00  0.00     0.251 C 
ATOM     24  H   UNL A   1      34.786  30.643  29.017  1.00  0.00     0.163 HD
ATOM     25  O   UNL A   1      36.238  29.866  30.919  1.00  0.00    -0.269 OA
BRANCH  23  26
ATOM     26  C   UNL A   1      37.714  29.148  29.246  1.00  0.00     0.039 A 
ATOM     27  C   UNL A   1      38.408  29.714  28.172  1.00  0.00     0.014 A 
ATOM     28  C   UNL A   1      38.253  28.088  29.967  1.00  0.00     0.014 A 
ATOM     29  C   UNL A   1      39.693  29.251  27.891  1.00  0.00     0.010 A 
ATOM     30  C   UNL A   1      39.576  27.783  29.819  1.00  0.00     0.010 A 
ATOM     31  C   UNL A   1      40.278  28.296  28.737  1.00  0.00    -0.014 A 
BRANCH  31  32
ATOM     32  C   UNL A   1      41.673  27.888  28.600  1.00  0.00     0.031 A 
ATOM     33  C   UNL A   1      41.856  26.622  27.845  1.00  0.00     0.074 A 
ATOM     34  C   UNL A   1      42.702  28.712  28.903  1.00  0.00     0.049 A 
ATOM     35  N   UNL A   1      42.211  25.473  28.314  1.00  0.00    -0.248 NA
ATOM     36  C   UNL A   1      41.439  26.579  26.432  1.00  0.00     0.031 C 
ATOM     37  C   UNL A   1      42.631  30.116  29.342  1.00  0.00     0.029 A 
ATOM     38  N   UNL A   1      44.045  28.511  28.784  1.00  0.00    -0.354 N 
ATOM     39  C   UNL A   1      42.311  24.630  27.210  1.00  0.00     0.074 A 
ATOM     40  C   UNL A   1      41.612  25.287  26.141  1.00  0.00     0.031 C 
ATOM     41  C   UNL A   1      43.843  30.697  29.224  1.00  0.00     0.029 A 
ATOM     42  C   UNL A   1      44.811  29.671  28.894  1.00  0.00     0.049 A 
ATOM     43  H   UNL A   1      44.441  27.623  28.635  1.00  0.00     0.167 HD
ATOM     44  C   UNL A   1      43.235  23.629  27.193  1.00  0.00     0.037 A 
ATOM     45  C   UNL A   1      46.152  29.784  28.742  1.00  0.00     0.037 A 
ATOM     46  C   UNL A   1      43.794  23.445  28.511  1.00  0.00     0.049 A 
ATOM     47  C   UNL A   1      46.726  28.436  28.933  1.00  0.00     0.074 A 
ATOM     48  C   UNL A   1      43.357  22.965  29.725  1.00  0.00     0.029 A 
ATOM     49  N   UNL A   1      44.903  24.215  28.748  1.00  0.00    -0.354 N 
ATOM     50  N   UNL A   1      46.713  27.805  30.073  1.00  0.00    -0.248 NA
ATOM     51  C   UNL A   1      46.985  27.606  27.764  1.00  0.00     0.031 C 
ATOM     52  C   UNL A   1      44.101  23.677  30.714  1.00  0.00     0.029 A 
ATOM     53  C   UNL A   1      45.009  24.523  30.076  1.00  0.00     0.049 A 
ATOM     54  H   UNL A   1      45.538  24.507  28.055  1.00  0.00     0.167 HD
ATOM     55  C   UNL A   1      46.511  26.482  29.730  1.00  0.00     0.074 A 
ATOM     56  C   UNL A   1      46.867  26.396  28.319  1.00  0.00     0.031 C 
ATOM     57  C   UNL A   1      45.768  25.667  30.535  1.00  0.00     0.037 A 
BRANCH  44  58
ATOM     58  C   UNL A   1      44.011  23.172  25.970  1.00  0.00     0.057 A 
ATOM     59  C   UNL A   1      44.042  21.796  25.666  1.00  0.00     0.134 A 
ATOM     60  C   UNL A   1      44.968  23.949  25.288  1.00  0.00     0.134 A 
ATOM     61  F   UNL A   1      43.192  20.942  26.255  1.00  0.00    -0.206 F 
ATOM     62  C   UNL A   1      45.002  21.232  24.813  1.00  0.00     0.040 A 
ATOM     63  C   UNL A   1      45.899  23.402  24.397  1.00  0.00     0.040 A 
ATOM     64  F   UNL A   1      45.133  25.257  25.515  1.00  0.00    -0.206 F 
ATOM     65  C   UNL A   1      45.940  22.036  24.182  1.00  0.00     0.006 A 
ENDBRANCH  44  58
BRANCH  45  66
ATOM     66  C   UNL A   1      46.954  30.920  28.242  1.00  0.00     0.057 A 
ATOM     67  C   UNL A   1      46.735  31.473  26.972  1.00  0.00     0.134 A 
ATOM     68  C   UNL A   1      47.755  31.674  29.116  1.00  0.00     0.134 A 
ATOM     69  F   UNL A   1      45.956  30.844  26.081  1.00  0.00    -0.206 F 
ATOM     70  C   UNL A   1      47.255  32.722  26.604  1.00  0.00     0.040 A 
ATOM     71  C   UNL A   1      48.281  32.921  28.761  1.00  0.00     0.040 A 
ATOM     72  F   UNL A   1      47.972  31.263  30.374  1.00  0.00    -0.206 F 
ATOM     73  C   UNL A   1      48.018  33.457  27.506  1.00  0.00     0.006 A 
ENDBRANCH  45  66
BRANCH  57  74
ATOM     74  C   UNL A   1      45.598  26.084  31.966  1.00  0.00     0.057 A 
ATOM     75  C   UNL A   1      44.462  26.719  32.487  1.00  0.00     0.134 A 
ATOM     76  C   UNL A   1      46.604  25.740  32.875  1.00  0.00     0.134 A 
ATOM     77  F   UNL A   1      43.415  27.018  31.710  1.00  0.00    -0.206 F 
ATOM     78  C   UNL A   1      44.352  27.031  33.846  1.00  0.00     0.040 A 
ATOM     79  C   UNL A   1      46.493  26.014  34.238  1.00  0.00     0.040 A 
ATOM     80  F   UNL A   1      47.701  25.091  32.452  1.00  0.00    -0.206 F 
ATOM     81  C   UNL A   1      45.368  26.672  34.727  1.00  0.00     0.006 A 
ENDBRANCH  57  74
ENDBRANCH  31  32
ENDBRANCH  23  26
ENDBRANCH  21  22
ENDBRANCH  20  21
ENDBRANCH   1  20
TORSDOF 15
ENDMDL
MODEL 2
REMARK VINA RESULT:     -10.6      1.570      1.989
REMARK SMILES COCCn1nnc(C(=O)NCCCCNC(=O)c2ccc(-c3c4nc(c(-c5c(F)cccc5F)c5ccc([nH]5)c(-c5c(F)cccc5F)c5nc(c(-c6c(F)cccc6F)c6ccc3[nH]6)C=C5)C=C4)cc2)c1C(F)(F)F
REMARK SMILES IDX 13 1 12 2 11 3 9 4 10 5 8 7 5 8 6 9 73 10 7 11 4 12 3 13
REMARK SMILES IDX 2 14 1 15 74 16 75 17 76 18 77 19 14 20 15 21 16 22 17 23
REMARK SMILES IDX 18 25 19 26 20 27 72 28 21 29 71 30 22 31 23 32 24 33 65 34
REMARK SMILES IDX 25 35 70 36 64 37 66 38 26 39 69 40 63 41 62 42 27 44 53 45
REMARK SMILES IDX 36 46 52 47 37 48 40 49 51 50 67 51 38 52 39 53 50 55 68 56
REMARK SMILES IDX 41 57 28 58 29 59 34 60 30 61 31 62 33 63 35 64 32 65 54 66
REMARK SMILES IDX 55 67 60 68 56 69 57 70 59 71 61 72 58 73 42 74 43 75 48 76
REMARK SMILES IDX 44 77 45 78 47 79 49 80 46 81
REMARK H PARENT 11 6 16 24 66 43 40 54
REMARK Flexibility Score: inf
ROOT
ATOM      1  C   UNL A   1      33.209  28.525  25.753  1.00  0.00     0.023 C 
ENDROOT
BRANCH   1   2
ATOM      2  C   UNL A   1      31.974  27.901  26.414  1.00  0.00     0.116 C 
BRANCH   2   3
ATOM      3  N   UNL A   1      31.107  27.121  25.546  1.00  0.00    -0.351 N 
ATOM      4  C   UNL A   1      30.798  25.794  25.384  1.00  0.00     0.274 C 
ATOM      5  O   UNL A   1      29.911  25.546  24.567  1.00  0.00    -0.267 OA
ATOM      6  H   UNL A   1      30.616  27.692  24.911  1.00  0.00     0.163 HD
BRANCH   4   7
ATOM      7  C   UNL A   1      31.520  24.719  26.048  1.00  0.00     0.182 A 
ATOM      8  N   UNL A   1      32.880  23.221  26.840  1.00  0.00    -0.237 N 
ATOM      9  N   UNL A   1      31.787  23.217  27.623  1.00  0.00    -0.066 NA
ATOM     10  C   UNL A   1      32.807  24.223  25.905  1.00  0.00     0.175 A 
ATOM     11  N   UNL A   1      30.948  24.115  27.146  1.00  0.00    -0.124 NA
BRANCH   8  12
ATOM     12  C   UNL A   1      33.877  22.199  27.106  1.00  0.00     0.175 C 
BRANCH  12  13
ATOM     13  C   UNL A   1      33.752  21.015  26.139  1.00  0.00     0.183 C 
BRANCH  13  14
ATOM     14  O   UNL A   1      32.473  20.923  25.506  1.00  0.00    -0.383 OA
ATOM     15  C   UNL A   1      32.527  20.732  24.102  1.00  0.00     0.194 C 
ENDBRANCH  13  14
ENDBRANCH  12  13
ENDBRANCH   8  12
BRANCH  10  16
ATOM     16  C   UNL A   1      33.913  24.643  25.049  1.00  0.00     0.435 C 
ATOM     17  F   UNL A   1      34.377  23.616  24.296  1.00  0.00    -0.164 F 
ATOM     18  F   UNL A   1      33.545  25.621  24.187  1.00  0.00    -0.164 F 
ATOM     19  F   UNL A   1      34.973  25.119  25.746  1.00  0.00    -0.164 F 
ENDBRANCH  10  16
ENDBRANCH   4   7
ENDBRANCH   2   3
ENDBRANCH   1   2
BRANCH   1  20
ATOM     20  C   UNL A   1      33.920  29.601  26.606  1.00  0.00     0.023 C 
BRANCH  20  21
ATOM     21  C   UNL A   1      35.063  29.129  27.507  1.00  0.00     0.116 C 
BRANCH  21  22
ATOM     22  N   UNL A   1      35.286  29.958  28.697  1.00  0.00    -0.352 N 
ATOM     23  C   UNL A   1      36.314  29.829  29.624  1.00  0.00     0.251 C 
ATOM     24  H   UNL A   1      34.638  30.683  28.855  1.00  0.00     0.163 HD
ATOM     25  O   UNL A   1      36.183  30.198  30.781  1.00  0.00    -0.269 OA
BRANCH  23  26
ATOM     26  C   UNL A   1      37.592  29.255  29.164  1.00  0.00     0.039 A 
ATOM     27  C   UNL A   1      38.262  29.705  28.021  1.00  0.00     0.014 A 
ATOM     28  C   UNL A   1      38.142  28.267  29.972  1.00  0.00     0.014 A 
ATOM     29  C   UNL A   1      39.536  29.206  27.755  1.00  0.00     0.010 A 
ATOM     30  C   UNL A   1      39.459  27.937  29.822  1.00  0.00     0.010 A 
ATOM     31  C   UNL A   1      40.137  28.334  28.677  1.00  0.00    -0.014 A 
BRANCH  31  32
ATOM     32  C   UNL A   1      41.525  27.902  28.546  1.00  0.00     0.031 A 
ATOM     33  C   UNL A   1      41.690  26.633  27.793  1.00  0.00     0.074 A 
ATOM     34  C   UNL A   1      42.567  28.709  28.853  1.00  0.00     0.049 A 
ATOM     35  N   UNL A   1      42.023  25.479  28.264  1.00  0.00    -0.248 NA
ATOM     36  C   UNL A   1      41.277  26.596  26.378  1.00  0.00     0.031 C 
ATOM     37  C   UNL A   1      42.517  30.114  29.290  1.00  0.00     0.029 A 
ATOM     38  N   UNL A   1      43.906  28.485  28.740  1.00  0.00    -0.354 N 
ATOM     39  C   UNL A   1      42.113  24.633  27.161  1.00  0.00     0.074 A 
ATOM     40  C   UNL A   1      41.429  25.300  26.088  1.00  0.00     0.031 C 
ATOM     41  C   UNL A   1      43.740  30.675  29.177  1.00  0.00     0.029 A 
ATOM     42  C   UNL A   1      44.692  29.632  28.852  1.00  0.00     0.049 A 
ATOM     43  H   UNL A   1      44.288  27.590  28.592  1.00  0.00     0.167 HD
ATOM     44  C   UNL A   1      43.020  23.616  27.149  1.00  0.00     0.037 A 
ATOM     45  C   UNL A   1      46.035  29.722  28.705  1.00  0.00     0.037 A 
ATOM     46  C   UNL A   1      43.570  23.424  28.469  1.00  0.00     0.049 A 
ATOM     47  C   UNL A   1      46.585  28.364  28.899  1.00  0.00     0.074 A 
ATOM     48  C   UNL A   1      43.120  22.952  29.682  1.00  0.00     0.029 A 
ATOM     49  N   UNL A   1      44.691  24.175  28.711  1.00  0.00    -0.354 N 
ATOM     50  N   UNL A   1      46.557  27.735  30.040  1.00  0.00    -0.248 NA
ATOM     51  C   UNL A   1      46.834  27.529  27.732  1.00  0.00     0.031 C 
ATOM     52  C   UNL A   1      43.872  23.653  30.674  1.00  0.00     0.029 A 
ATOM     53  C   UNL A   1      44.797  24.482  30.038  1.00  0.00     0.049 A 
ATOM     54  H   UNL A   1      45.334  24.455  28.020  1.00  0.00     0.167 HD
ATOM     55  C   UNL A   1      46.333  26.415  29.698  1.00  0.00     0.074 A 
ATOM     56  C   UNL A   1      46.694  26.322  28.287  1.00  0.00     0.031 C 
ATOM     57  C   UNL A   1      45.574  25.613  30.500  1.00  0.00     0.037 A 
BRANCH  44  58
ATOM     58  C   UNL A   1      43.793  23.145  25.930  1.00  0.00     0.057 A 
ATOM     59  C   UNL A   1      43.846  21.763  25.656  1.00  0.00     0.134 A 
ATOM     60  C   UNL A   1      44.731  23.923  25.222  1.00  0.00     0.134 A 
ATOM     61  F   UNL A   1      43.016  20.908  26.272  1.00  0.00    -0.206 F 
ATOM     62  C   UNL A   1      44.807  21.197  24.808  1.00  0.00     0.040 A 
ATOM     63  C   UNL A   1      45.663  23.372  24.335  1.00  0.00     0.040 A 
ATOM     64  F   UNL A   1      44.875  25.238  25.417  1.00  0.00    -0.206 F 
ATOM     65  C   UNL A   1      45.726  22.002  24.151  1.00  0.00     0.006 A 
ENDBRANCH  44  58
BRANCH  45  66
ATOM     66  C   UNL A   1      46.858  30.844  28.208  1.00  0.00     0.057 A 
ATOM     67  C   UNL A   1      46.734  31.322  26.895  1.00  0.00     0.134 A 
ATOM     68  C   UNL A   1      47.576  31.660  29.098  1.00  0.00     0.134 A 
ATOM     69  F   UNL A   1      46.038  30.630  25.982  1.00  0.00    -0.206 F 
ATOM     70  C   UNL A   1      47.264  32.558  26.500  1.00  0.00     0.040 A 
ATOM     71  C   UNL A   1      48.110  32.895  28.717  1.00  0.00     0.040 A 
ATOM     72  F   UNL A   1      47.696  31.322  30.391  1.00  0.00    -0.206 F 
ATOM     73  C   UNL A   1      47.941  33.356  27.417  1.00  0.00     0.006 A 
ENDBRANCH  45  66
BRANCH  57  74
ATOM     74  C   UNL A   1      45.405  26.034  31.930  1.00  0.00     0.057 A 
ATOM     75  C   UNL A   1      44.290  26.716  32.439  1.00  0.00     0.134 A 
ATOM     76  C   UNL A   1      46.385  25.648  32.849  1.00  0.00     0.134 A 
ATOM     77  F   UNL A   1      43.266  27.060  31.651  1.00  0.00    -0.206 F 
ATOM     78  C   UNL A   1      44.178  27.029  33.798  1.00  0.00     0.040 A 
ATOM     79  C   UNL A   1      46.270  25.924  34.212  1.00  0.00     0.040 A 
ATOM     80  F   UNL A   1      47.459  24.954  32.437  1.00  0.00    -0.206 F 
ATOM     81  C   UNL A   1      45.168  26.627  34.689  1.00  0.00     0.006 A 
ENDBRANCH  57  74
ENDBRANCH  31  32
ENDBRANCH  23  26
ENDBRANCH  21  22
ENDBRANCH  20  21
ENDBRANCH   1  20
TORSDOF 15
ENDMDL
MODEL 3
REMARK VINA RESULT:     -10.5      2.867      7.413
REMARK SMILES COCCn1nnc(C(=O)NCCCCNC(=O)c2ccc(-c3c4nc(c(-c5c(F)cccc5F)c5ccc([nH]5)c(-c5c(F)cccc5F)c5nc(c(-c6c(F)cccc6F)c6ccc3[nH]6)C=C5)C=C4)cc2)c1C(F)(F)F
REMARK SMILES IDX 13 1 12 2 11 3 9 4 10 5 8 7 5 8 6 9 73 10 7 11 4 12 3 13
REMARK SMILES IDX 2 14 1 15 74 16 75 17 76 18 77 19 14 20 15 21 16 22 17 23
REMARK SMILES IDX 18 25 19 26 20 27 72 28 21 29 71 30 22 31 23 32 24 33 65 34
REMARK SMILES IDX 25 35 70 36 64 37 66 38 26 39 69 40 63 41 62 42 27 44 53 45
REMARK SMILES IDX 36 46 52 47 37 48 40 49 51 50 67 51 38 52 39 53 50 55 68 56
REMARK SMILES IDX 41 57 28 58 29 59 34 60 30 61 31 62 33 63 35 64 32 65 54 66
REMARK SMILES IDX 55 67 60 68 56 69 57 70 59 71 61 72 58 73 42 74 43 75 48 76
REMARK SMILES IDX 44 77 45 78 47 79 49 80 46 81
REMARK H PARENT 11 6 16 24 66 43 40 54
REMARK Flexibility Score: inf
ROOT
ATOM      1  C   UNL A   1      36.319  21.175  24.738  1.00  0.00     0.023 C 
ENDROOT
BRANCH   1   2
ATOM      2  C   UNL A   1      35.387  21.273  25.952  1.00  0.00     0.116 C 
BRANCH   2   3
ATOM      3  N   UNL A   1      34.287  20.323  25.994  1.00  0.00    -0.351 N 
ATOM      4  C   UNL A   1      33.059  20.199  25.396  1.00  0.00     0.274 C 
ATOM      5  O   UNL A   1      32.447  19.158  25.638  1.00  0.00    -0.267 OA
ATOM      6  H   UNL A   1      34.472  19.576  26.610  1.00  0.00     0.163 HD
BRANCH   4   7
ATOM      7  C   UNL A   1      32.450  21.253  24.598  1.00  0.00     0.182 A 
ATOM      8  N   UNL A   1      31.548  23.020  23.712  1.00  0.00    -0.237 N 
ATOM      9  N   UNL A   1      31.877  22.194  22.703  1.00  0.00    -0.066 NA
ATOM     10  C   UNL A   1      31.988  22.521  24.912  1.00  0.00     0.175 A 
ATOM     11  N   UNL A   1      32.415  21.112  23.229  1.00  0.00    -0.124 NA
BRANCH   8  12
ATOM     12  C   UNL A   1      30.806  24.218  23.360  1.00  0.00     0.175 C 
BRANCH  12  13
ATOM     13  C   UNL A   1      31.723  25.441  23.238  1.00  0.00     0.183 C 
BRANCH  13  14
ATOM     14  O   UNL A   1      32.795  25.264  22.309  1.00  0.00    -0.383 OA
ATOM     15  C   UNL A   1      32.498  25.675  20.985  1.00  0.00     0.194 C 
ENDBRANCH  13  14
ENDBRANCH  12  13
ENDBRANCH   8  12
BRANCH  10  16
ATOM     16  C   UNL A   1      31.993  23.266  26.169  1.00  0.00     0.435 C 
ATOM     17  F   UNL A   1      33.013  24.157  26.216  1.00  0.00    -0.164 F 
ATOM     18  F   UNL A   1      30.852  23.974  26.344  1.00  0.00    -0.164 F 
ATOM     19  F   UNL A   1      32.127  22.470  27.257  1.00  0.00    -0.164 F 
ENDBRANCH  10  16
ENDBRANCH   4   7
ENDBRANCH   2   3
ENDBRANCH   1   2
BRANCH   1  20
ATOM     20  C   UNL A   1      37.414  20.089  24.854  1.00  0.00     0.023 C 
BRANCH  20  21
ATOM     21  C   UNL A   1      38.750  20.513  25.470  1.00  0.00     0.116 C 
BRANCH  21  22
ATOM     22  N   UNL A   1      39.686  19.412  25.717  1.00  0.00    -0.352 N 
ATOM     23  C   UNL A   1      41.056  19.512  25.930  1.00  0.00     0.251 C 
ATOM     24  H   UNL A   1      39.302  18.505  25.734  1.00  0.00     0.163 HD
ATOM     25  O   UNL A   1      41.816  18.596  25.656  1.00  0.00    -0.269 OA
BRANCH  23  26
ATOM     26  C   UNL A   1      41.573  20.757  26.529  1.00  0.00     0.039 A 
ATOM     27  C   UNL A   1      42.185  21.766  25.778  1.00  0.00     0.014 A 
ATOM     28  C   UNL A   1      41.362  20.910  27.895  1.00  0.00     0.014 A 
ATOM     29  C   UNL A   1      42.502  22.968  26.410  1.00  0.00     0.010 A 
ATOM     30  C   UNL A   1      41.485  22.149  28.455  1.00  0.00     0.010 A 
ATOM     31  C   UNL A   1      42.127  23.158  27.750  1.00  0.00    -0.014 A 
BRANCH  31  32
ATOM     32  C   UNL A   1      42.279  24.444  28.424  1.00  0.00     0.031 A 
ATOM     33  C   UNL A   1      41.146  25.376  28.200  1.00  0.00     0.074 A 
ATOM     34  C   UNL A   1      43.229  24.661  29.363  1.00  0.00     0.049 A 
ATOM     35  N   UNL A   1      41.144  26.451  27.485  1.00  0.00    -0.248 NA
ATOM     36  C   UNL A   1      39.810  24.990  28.689  1.00  0.00     0.031 C 
ATOM     37  C   UNL A   1      44.195  23.692  29.906  1.00  0.00     0.029 A 
ATOM     38  N   UNL A   1      43.473  25.770  30.117  1.00  0.00    -0.354 N 
ATOM     39  C   UNL A   1      39.878  27.009  27.648  1.00  0.00     0.074 A 
ATOM     40  C   UNL A   1      39.050  25.970  28.192  1.00  0.00     0.031 C 
ATOM     41  C   UNL A   1      44.744  24.175  31.041  1.00  0.00     0.029 A 
ATOM     42  C   UNL A   1      44.324  25.552  31.199  1.00  0.00     0.049 A 
ATOM     43  H   UNL A   1      43.081  26.650  29.915  1.00  0.00     0.167 HD
ATOM     44  C   UNL A   1      39.718  28.363  27.626  1.00  0.00     0.037 A 
ATOM     45  C   UNL A   1      44.678  26.445  32.155  1.00  0.00     0.037 A 
ATOM     46  C   UNL A   1      40.919  28.998  27.140  1.00  0.00     0.049 A 
ATOM     47  C   UNL A   1      44.425  27.793  31.606  1.00  0.00     0.074 A 
ATOM     48  C   UNL A   1      41.583  29.099  25.938  1.00  0.00     0.029 A 
ATOM     49  N   UNL A   1      41.815  29.306  28.131  1.00  0.00    -0.354 N 
ATOM     50  N   UNL A   1      45.096  28.300  30.610  1.00  0.00    -0.248 NA
ATOM     51  C   UNL A   1      43.162  28.454  31.907  1.00  0.00     0.031 C 
ATOM     52  C   UNL A   1      42.965  29.237  26.268  1.00  0.00     0.029 A 
ATOM     53  C   UNL A   1      43.097  29.278  27.656  1.00  0.00     0.049 A 
ATOM     54  H   UNL A   1      41.569  29.519  29.060  1.00  0.00     0.167 HD
ATOM     55  C   UNL A   1      44.158  29.022  29.897  1.00  0.00     0.074 A 
ATOM     56  C   UNL A   1      43.053  29.231  30.826  1.00  0.00     0.031 C 
ATOM     57  C   UNL A   1      44.232  29.094  28.536  1.00  0.00     0.037 A 
BRANCH  44  58
ATOM     58  C   UNL A   1      38.741  29.144  28.487  1.00  0.00     0.057 A 
ATOM     59  C   UNL A   1      38.778  28.961  29.884  1.00  0.00     0.134 A 
ATOM     60  C   UNL A   1      37.587  29.794  28.007  1.00  0.00     0.134 A 
ATOM     61  F   UNL A   1      39.816  28.345  30.470  1.00  0.00    -0.206 F 
ATOM     62  C   UNL A   1      37.715  29.326  30.722  1.00  0.00     0.040 A 
ATOM     63  C   UNL A   1      36.542  30.206  28.841  1.00  0.00     0.040 A 
ATOM     64  F   UNL A   1      37.350  29.978  26.703  1.00  0.00    -0.206 F 
ATOM     65  C   UNL A   1      36.587  29.943  30.199  1.00  0.00     0.006 A 
ENDBRANCH  44  58
BRANCH  45  66
ATOM     66  C   UNL A   1      45.020  26.222  33.575  1.00  0.00     0.057 A 
ATOM     67  C   UNL A   1      46.326  26.405  34.054  1.00  0.00     0.134 A 
ATOM     68  C   UNL A   1      44.014  26.108  34.549  1.00  0.00     0.134 A 
ATOM     69  F   UNL A   1      47.348  26.559  33.202  1.00  0.00    -0.206 F 
ATOM     70  C   UNL A   1      46.609  26.504  35.424  1.00  0.00     0.040 A 
ATOM     71  C   UNL A   1      44.282  26.204  35.918  1.00  0.00     0.040 A 
ATOM     72  F   UNL A   1      42.725  25.995  34.192  1.00  0.00    -0.206 F 
ATOM     73  C   UNL A   1      45.582  26.419  36.360  1.00  0.00     0.006 A 
ENDBRANCH  45  66
BRANCH  57  74
ATOM     74  C   UNL A   1      45.560  28.798  27.903  1.00  0.00     0.057 A 
ATOM     75  C   UNL A   1      45.946  27.550  27.396  1.00  0.00     0.134 A 
ATOM     76  C   UNL A   1      46.452  29.859  27.721  1.00  0.00     0.134 A 
ATOM     77  F   UNL A   1      45.129  26.492  27.454  1.00  0.00    -0.206 F 
ATOM     78  C   UNL A   1      47.183  27.361  26.770  1.00  0.00     0.040 A 
ATOM     79  C   UNL A   1      47.674  29.693  27.069  1.00  0.00     0.040 A 
ATOM     80  F   UNL A   1      46.128  31.092  28.144  1.00  0.00    -0.206 F 
ATOM     81  C   UNL A   1      48.048  28.438  26.600  1.00  0.00     0.006 A 
ENDBRANCH  57  74
ENDBRANCH  31  32
ENDBRANCH  23  26
ENDBRANCH  21  22
ENDBRANCH  20  21
ENDBRANCH   1  20
TORSDOF 15
ENDMDL
