MODEL 1
REMARK VINA RESULT:     -11.9      0.000      0.000
REMARK SMILES [H]/N=c1\ccc2c(C)c(CC(=O)NCCCCNC(=O)c3ccc(-c4c5nc(c(-c6c(F)cccc6F)c6ccc([nH]6)c(-c6c(F)cccc6F)c6nc(c(-c7c(F)cccc7F)c7ccc4[nH]7)C=C6)C=C5)cc3)c(O)oc-2c1
REMARK SMILES IDX 15 1 14 2 13 3 11 4 12 5 10 7 9 8 8 9 7 10 6 11 5 12 78 13
REMARK SMILES IDX 75 14 4 15 79 16 77 17 3 18 2 19 1 20 76 21 16 23 17 24
REMARK SMILES IDX 18 25 19 26 20 28 21 29 22 30 74 31 23 32 73 33 24 34 25 35
REMARK SMILES IDX 26 36 67 37 27 38 72 39 66 40 68 41 28 42 71 43 65 44 64 45
REMARK SMILES IDX 29 47 55 48 38 49 54 50 39 51 42 52 53 53 69 54 40 55 41 56
REMARK SMILES IDX 52 58 70 59 43 60 30 61 31 62 36 63 32 64 33 65 35 66 37 67
REMARK SMILES IDX 34 68 56 69 57 70 62 71 58 72 59 73 61 74 63 75 60 76 44 77
REMARK SMILES IDX 45 78 50 79 46 80 47 81 49 82 51 83 48 84
REMARK H PARENT 13 6 76 22 18 27 68 46 42 57
REMARK Flexibility Score: inf
ROOT
ATOM      1  C   UNL A   1      36.568  21.554  25.224  1.00  0.00     0.023 C 
ENDROOT
BRANCH   1   2
ATOM      2  C   UNL A   1      35.201  20.878  25.338  1.00  0.00     0.116 C 
BRANCH   2   3
ATOM      3  N   UNL A   1      34.560  21.158  26.609  1.00  0.00    -0.356 N 
ATOM      4  C   UNL A   1      33.510  21.985  26.879  1.00  0.00     0.224 C 
ATOM      5  O   UNL A   1      33.146  22.096  28.052  1.00  0.00    -0.275 OA
ATOM      6  H   UNL A   1      34.937  20.686  27.385  1.00  0.00     0.163 HD
BRANCH   4   7
ATOM      7  C   UNL A   1      32.770  22.703  25.752  1.00  0.00     0.143 C 
BRANCH   7   8
ATOM      8  C   UNL A   1      32.511  24.180  25.991  1.00  0.00     0.046 A 
ATOM      9  C   UNL A   1      34.761  24.730  24.883  1.00  0.00     0.046 C 
ATOM     10  C   UNL A   1      33.430  25.198  25.432  1.00  0.00    -0.029 A 
ATOM     11  C   UNL A   1      33.057  26.505  25.438  1.00  0.00     0.021 A 
ATOM     12  C   UNL A   1      33.852  27.556  24.804  1.00  0.00     0.014 A 
ATOM     13  C   UNL A   1      31.805  26.896  26.090  1.00  0.00     0.140 A 
ATOM     14  C   UNL A   1      31.414  24.601  26.663  1.00  0.00     0.286 A 
ATOM     15  C   UNL A   1      33.447  28.834  24.790  1.00  0.00     0.028 A 
ATOM     16  C   UNL A   1      31.381  28.166  26.093  1.00  0.00     0.075 A 
ATOM     17  O   UNL A   1      31.065  25.933  26.749  1.00  0.00    -0.425 OA
ATOM     18  C   UNL A   1      32.167  29.229  25.430  1.00  0.00     0.058 A 
ATOM     19  N   UNL A   1      31.731  30.445  25.430  1.00  0.00    -0.301 NA
ATOM     20  H   UNL A   1      32.252  31.155  24.991  1.00  0.00     0.188 HD
BRANCH  14  21
ATOM     21  O   UNL A   1      30.531  23.730  27.265  1.00  0.00    -0.480 OA
ATOM     22  H   UNL A   1      30.360  23.796  28.184  1.00  0.00     0.297 HD
ENDBRANCH  14  21
ENDBRANCH   7   8
ENDBRANCH   4   7
ENDBRANCH   2   3
ENDBRANCH   1   2
BRANCH   1  23
ATOM     23  C   UNL A   1      37.729  20.611  24.902  1.00  0.00     0.023 C 
BRANCH  23  24
ATOM     24  C   UNL A   1      38.987  20.821  25.733  1.00  0.00     0.116 C 
BRANCH  24  25
ATOM     25  N   UNL A   1      39.925  19.709  25.672  1.00  0.00    -0.352 N 
ATOM     26  C   UNL A   1      41.252  19.696  26.035  1.00  0.00     0.251 C 
ATOM     27  H   UNL A   1      39.565  18.861  25.327  1.00  0.00     0.163 HD
ATOM     28  O   UNL A   1      41.944  18.700  25.848  1.00  0.00    -0.269 OA
BRANCH  26  29
ATOM     29  C   UNL A   1      41.852  20.921  26.603  1.00  0.00     0.039 A 
ATOM     30  C   UNL A   1      41.903  21.108  27.986  1.00  0.00     0.014 A 
ATOM     31  C   UNL A   1      42.295  21.924  25.736  1.00  0.00     0.014 A 
ATOM     32  C   UNL A   1      42.227  22.360  28.495  1.00  0.00     0.010 A 
ATOM     33  C   UNL A   1      42.697  23.157  26.256  1.00  0.00     0.010 A 
ATOM     34  C   UNL A   1      42.608  23.404  27.635  1.00  0.00    -0.014 A 
BRANCH  34  35
ATOM     35  C   UNL A   1      42.875  24.749  28.204  1.00  0.00     0.031 A 
ATOM     36  C   UNL A   1      44.278  25.180  28.537  1.00  0.00     0.074 A 
ATOM     37  C   UNL A   1      41.853  25.610  28.361  1.00  0.00     0.049 A 
ATOM     38  N   UNL A   1      44.701  26.332  28.998  1.00  0.00    -0.248 NA
ATOM     39  C   UNL A   1      45.345  24.189  28.334  1.00  0.00     0.031 C 
ATOM     40  C   UNL A   1      40.449  25.310  28.077  1.00  0.00     0.029 A 
ATOM     41  N   UNL A   1      41.840  26.915  28.777  1.00  0.00    -0.354 N 
ATOM     42  C   UNL A   1      46.074  26.198  29.156  1.00  0.00     0.074 A 
ATOM     43  C   UNL A   1      46.410  24.843  28.772  1.00  0.00     0.031 C 
ATOM     44  C   UNL A   1      39.716  26.415  28.284  1.00  0.00     0.029 A 
ATOM     45  C   UNL A   1      40.591  27.481  28.761  1.00  0.00     0.049 A 
ATOM     46  H   UNL A   1      42.650  27.402  29.058  1.00  0.00     0.167 HD
ATOM     47  C   UNL A   1      46.975  27.121  29.570  1.00  0.00     0.037 A 
ATOM     48  C   UNL A   1      40.188  28.719  29.102  1.00  0.00     0.037 A 
ATOM     49  C   UNL A   1      46.645  28.474  29.936  1.00  0.00     0.049 A 
ATOM     50  C   UNL A   1      41.201  29.718  29.577  1.00  0.00     0.074 A 
ATOM     51  C   UNL A   1      47.493  29.494  30.336  1.00  0.00     0.029 A 
ATOM     52  N   UNL A   1      45.361  28.996  29.950  1.00  0.00    -0.354 N 
ATOM     53  N   UNL A   1      42.498  29.581  29.701  1.00  0.00    -0.248 NA
ATOM     54  C   UNL A   1      40.691  31.038  29.966  1.00  0.00     0.031 C 
ATOM     55  C   UNL A   1      46.714  30.622  30.626  1.00  0.00     0.029 A 
ATOM     56  C   UNL A   1      45.387  30.315  30.373  1.00  0.00     0.049 A 
ATOM     57  H   UNL A   1      44.547  28.501  29.697  1.00  0.00     0.167 HD
ATOM     58  C   UNL A   1      42.962  30.797  30.185  1.00  0.00     0.074 A 
ATOM     59  C   UNL A   1      41.809  31.667  30.303  1.00  0.00     0.031 C 
ATOM     60  C   UNL A   1      44.227  31.159  30.509  1.00  0.00     0.037 A 
BRANCH  47  61
ATOM     61  C   UNL A   1      48.408  26.682  29.667  1.00  0.00     0.057 A 
ATOM     62  C   UNL A   1      49.297  26.905  28.608  1.00  0.00     0.134 A 
ATOM     63  C   UNL A   1      48.909  26.038  30.807  1.00  0.00     0.134 A 
ATOM     64  F   UNL A   1      48.880  27.512  27.486  1.00  0.00    -0.206 F 
ATOM     65  C   UNL A   1      50.634  26.513  28.683  1.00  0.00     0.040 A 
ATOM     66  C   UNL A   1      50.250  25.661  30.901  1.00  0.00     0.040 A 
ATOM     67  F   UNL A   1      48.114  25.807  31.862  1.00  0.00    -0.206 F 
ATOM     68  C   UNL A   1      51.117  25.897  29.835  1.00  0.00     0.006 A 
ENDBRANCH  47  61
BRANCH  48  69
ATOM     69  C   UNL A   1      38.751  29.067  29.009  1.00  0.00     0.057 A 
ATOM     70  C   UNL A   1      38.197  29.538  27.812  1.00  0.00     0.134 A 
ATOM     71  C   UNL A   1      37.908  28.970  30.119  1.00  0.00     0.134 A 
ATOM     72  F   UNL A   1      38.959  29.659  26.715  1.00  0.00    -0.206 F 
ATOM     73  C   UNL A   1      36.858  29.918  27.729  1.00  0.00     0.040 A 
ATOM     74  C   UNL A   1      36.561  29.325  30.045  1.00  0.00     0.040 A 
ATOM     75  F   UNL A   1      38.380  28.509  31.288  1.00  0.00    -0.206 F 
ATOM     76  C   UNL A   1      36.035  29.810  28.847  1.00  0.00     0.006 A 
ENDBRANCH  48  69
BRANCH  60  77
ATOM     77  C   UNL A   1      44.418  32.552  31.028  1.00  0.00     0.057 A 
ATOM     78  C   UNL A   1      44.647  33.620  30.153  1.00  0.00     0.134 A 
ATOM     79  C   UNL A   1      44.376  32.833  32.400  1.00  0.00     0.134 A 
ATOM     80  F   UNL A   1      44.701  33.417  28.828  1.00  0.00    -0.206 F 
ATOM     81  C   UNL A   1      44.825  34.921  30.626  1.00  0.00     0.040 A 
ATOM     82  C   UNL A   1      44.532  34.133  32.881  1.00  0.00     0.040 A 
ATOM     83  F   UNL A   1      44.144  31.853  33.287  1.00  0.00    -0.206 F 
ATOM     84  C   UNL A   1      44.761  35.181  31.993  1.00  0.00     0.006 A 
ENDBRANCH  60  77
ENDBRANCH  34  35
ENDBRANCH  26  29
ENDBRANCH  24  25
ENDBRANCH  23  24
ENDBRANCH   1  23
TORSDOF 13
ENDMDL
MODEL 2
REMARK VINA RESULT:     -11.8      4.363      9.671
REMARK SMILES [H]/N=c1\ccc2c(C)c(CC(=O)NCCCCNC(=O)c3ccc(-c4c5nc(c(-c6c(F)cccc6F)c6ccc([nH]6)c(-c6c(F)cccc6F)c6nc(c(-c7c(F)cccc7F)c7ccc4[nH]7)C=C6)C=C5)cc3)c(O)oc-2c1
REMARK SMILES IDX 15 1 14 2 13 3 11 4 12 5 10 7 9 8 8 9 7 10 6 11 5 12 78 13
REMARK SMILES IDX 75 14 4 15 79 16 77 17 3 18 2 19 1 20 76 21 16 23 17 24
REMARK SMILES IDX 18 25 19 26 20 28 21 29 22 30 74 31 23 32 73 33 24 34 25 35
REMARK SMILES IDX 26 36 67 37 27 38 72 39 66 40 68 41 28 42 71 43 65 44 64 45
REMARK SMILES IDX 29 47 55 48 38 49 54 50 39 51 42 52 53 53 69 54 40 55 41 56
REMARK SMILES IDX 52 58 70 59 43 60 30 61 31 62 36 63 32 64 33 65 35 66 37 67
REMARK SMILES IDX 34 68 56 69 57 70 62 71 58 72 59 73 61 74 63 75 60 76 44 77
REMARK SMILES IDX 45 78 50 79 46 80 47 81 49 82 51 83 48 84
REMARK H PARENT 13 6 76 22 18 27 68 46 42 57
REMARK Flexibility Score: inf
ROOT
ATOM      1  C   UNL A   1      32.175  30.338  26.641  1.00  0.00     0.023 C 
ENDROOT
BRANCH   1   2
ATOM      2  C   UNL A   1      31.684  29.741  25.321  1.00  0.00     0.116 C 
BRANCH   2   3
ATOM      3  N   UNL A   1      32.731  29.703  24.319  1.00  0.00    -0.356 N 
ATOM      4  C   UNL A   1      33.110  28.674  23.508  1.00  0.00     0.224 C 
ATOM      5  O   UNL A   1      34.060  28.857  22.743  1.00  0.00    -0.275 OA
ATOM      6  H   UNL A   1      33.241  30.537  24.208  1.00  0.00     0.163 HD
BRANCH   4   7
ATOM      7  C   UNL A   1      32.339  27.355  23.508  1.00  0.00     0.143 C 
BRANCH   7   8
ATOM      8  C   UNL A   1      33.192  26.112  23.694  1.00  0.00     0.046 A 
ATOM      9  C   UNL A   1      32.977  26.372  26.239  1.00  0.00     0.046 C 
ATOM     10  C   UNL A   1      33.390  25.538  25.045  1.00  0.00    -0.029 A 
ATOM     11  C   UNL A   1      33.939  24.301  25.168  1.00  0.00     0.021 A 
ATOM     12  C   UNL A   1      34.062  23.616  26.454  1.00  0.00     0.014 A 
ATOM     13  C   UNL A   1      34.420  23.602  23.973  1.00  0.00     0.140 A 
ATOM     14  C   UNL A   1      33.737  25.470  22.634  1.00  0.00     0.286 A 
ATOM     15  C   UNL A   1      34.573  22.380  26.547  1.00  0.00     0.028 A 
ATOM     16  C   UNL A   1      34.937  22.369  24.042  1.00  0.00     0.075 A 
ATOM     17  O   UNL A   1      34.371  24.250  22.754  1.00  0.00    -0.425 OA
ATOM     18  C   UNL A   1      35.041  21.661  25.335  1.00  0.00     0.058 A 
ATOM     19  N   UNL A   1      35.528  20.464  25.376  1.00  0.00    -0.301 NA
ATOM     20  H   UNL A   1      35.599  19.991  26.236  1.00  0.00     0.188 HD
BRANCH  14  21
ATOM     21  O   UNL A   1      33.653  25.956  21.346  1.00  0.00    -0.480 OA
ATOM     22  H   UNL A   1      32.819  26.181  20.985  1.00  0.00     0.297 HD
ENDBRANCH  14  21
ENDBRANCH   7   8
ENDBRANCH   4   7
ENDBRANCH   2   3
ENDBRANCH   1   2
BRANCH   1  23
ATOM     23  C   UNL A   1      31.778  31.797  26.876  1.00  0.00     0.023 C 
BRANCH  23  24
ATOM     24  C   UNL A   1      32.907  32.716  27.318  1.00  0.00     0.116 C 
BRANCH  24  25
ATOM     25  N   UNL A   1      32.477  34.072  27.626  1.00  0.00    -0.352 N 
ATOM     26  C   UNL A   1      33.015  34.947  28.541  1.00  0.00     0.251 C 
ATOM     27  H   UNL A   1      31.704  34.404  27.115  1.00  0.00     0.163 HD
ATOM     28  O   UNL A   1      32.491  36.036  28.751  1.00  0.00    -0.269 OA
BRANCH  26  29
ATOM     29  C   UNL A   1      34.206  34.535  29.314  1.00  0.00     0.039 A 
ATOM     30  C   UNL A   1      35.485  34.691  28.778  1.00  0.00     0.014 A 
ATOM     31  C   UNL A   1      34.028  33.914  30.553  1.00  0.00     0.014 A 
ATOM     32  C   UNL A   1      36.565  34.069  29.394  1.00  0.00     0.010 A 
ATOM     33  C   UNL A   1      35.128  33.358  31.210  1.00  0.00     0.010 A 
ATOM     34  C   UNL A   1      36.395  33.380  30.606  1.00  0.00    -0.014 A 
BRANCH  34  35
ATOM     35  C   UNL A   1      37.552  32.663  31.200  1.00  0.00     0.031 A 
ATOM     36  C   UNL A   1      38.070  33.034  32.563  1.00  0.00     0.074 A 
ATOM     37  C   UNL A   1      38.100  31.631  30.532  1.00  0.00     0.049 A 
ATOM     38  N   UNL A   1      39.040  32.487  33.255  1.00  0.00    -0.248 NA
ATOM     39  C   UNL A   1      37.421  34.168  33.237  1.00  0.00     0.031 C 
ATOM     40  C   UNL A   1      37.688  31.178  29.202  1.00  0.00     0.029 A 
ATOM     41  N   UNL A   1      39.100  30.766  30.888  1.00  0.00    -0.354 N 
ATOM     42  C   UNL A   1      39.129  33.220  34.432  1.00  0.00     0.074 A 
ATOM     43  C   UNL A   1      38.136  34.269  34.348  1.00  0.00     0.031 C 
ATOM     44  C   UNL A   1      38.400  30.089  28.873  1.00  0.00     0.029 A 
ATOM     45  C   UNL A   1      39.348  29.801  29.944  1.00  0.00     0.049 A 
ATOM     46  H   UNL A   1      39.593  30.829  31.738  1.00  0.00     0.167 HD
ATOM     47  C   UNL A   1      39.952  33.029  35.491  1.00  0.00     0.037 A 
ATOM     48  C   UNL A   1      40.247  28.800  29.935  1.00  0.00     0.037 A 
ATOM     49  C   UNL A   1      40.929  31.975  35.583  1.00  0.00     0.049 A 
ATOM     50  C   UNL A   1      41.162  28.621  31.110  1.00  0.00     0.074 A 
ATOM     51  C   UNL A   1      41.787  31.680  36.630  1.00  0.00     0.029 A 
ATOM     52  N   UNL A   1      41.182  31.045  34.587  1.00  0.00    -0.354 N 
ATOM     53  N   UNL A   1      41.218  29.309  32.224  1.00  0.00    -0.248 NA
ATOM     54  C   UNL A   1      42.141  27.531  31.022  1.00  0.00     0.031 C 
ATOM     55  C   UNL A   1      42.583  30.591  36.249  1.00  0.00     0.029 A 
ATOM     56  C   UNL A   1      42.197  30.188  34.981  1.00  0.00     0.049 A 
ATOM     57  H   UNL A   1      40.709  31.000  33.723  1.00  0.00     0.167 HD
ATOM     58  C   UNL A   1      42.240  28.738  32.970  1.00  0.00     0.074 A 
ATOM     59  C   UNL A   1      42.756  27.629  32.193  1.00  0.00     0.031 C 
ATOM     60  C   UNL A   1      42.714  29.104  34.186  1.00  0.00     0.037 A 
BRANCH  47  61
ATOM     61  C   UNL A   1      39.839  34.003  36.629  1.00  0.00     0.057 A 
ATOM     62  C   UNL A   1      39.015  33.725  37.726  1.00  0.00     0.134 A 
ATOM     63  C   UNL A   1      40.544  35.214  36.639  1.00  0.00     0.134 A 
ATOM     64  F   UNL A   1      38.309  32.585  37.777  1.00  0.00    -0.206 F 
ATOM     65  C   UNL A   1      38.903  34.613  38.797  1.00  0.00     0.040 A 
ATOM     66  C   UNL A   1      40.456  36.099  37.715  1.00  0.00     0.040 A 
ATOM     67  F   UNL A   1      41.361  35.534  35.625  1.00  0.00    -0.206 F 
ATOM     68  C   UNL A   1      39.632  35.800  38.798  1.00  0.00     0.006 A 
ENDBRANCH  47  61
BRANCH  48  69
ATOM     69  C   UNL A   1      40.319  27.898  28.761  1.00  0.00     0.057 A 
ATOM     70  C   UNL A   1      39.648  26.670  28.750  1.00  0.00     0.134 A 
ATOM     71  C   UNL A   1      41.086  28.229  27.640  1.00  0.00     0.134 A 
ATOM     72  F   UNL A   1      38.903  26.296  29.801  1.00  0.00    -0.206 F 
ATOM     73  C   UNL A   1      39.753  25.792  27.672  1.00  0.00     0.040 A 
ATOM     74  C   UNL A   1      41.181  27.371  26.544  1.00  0.00     0.040 A 
ATOM     75  F   UNL A   1      41.737  29.401  27.588  1.00  0.00    -0.206 F 
ATOM     76  C   UNL A   1      40.520  26.143  26.563  1.00  0.00     0.006 A 
ENDBRANCH  48  69
BRANCH  60  77
ATOM     77  C   UNL A   1      43.851  28.297  34.736  1.00  0.00     0.057 A 
ATOM     78  C   UNL A   1      45.179  28.690  34.527  1.00  0.00     0.134 A 
ATOM     79  C   UNL A   1      43.628  27.127  35.473  1.00  0.00     0.134 A 
ATOM     80  F   UNL A   1      45.459  29.799  33.827  1.00  0.00    -0.206 F 
ATOM     81  C   UNL A   1      46.245  27.947  35.035  1.00  0.00     0.040 A 
ATOM     82  C   UNL A   1      44.686  26.388  36.003  1.00  0.00     0.040 A 
ATOM     83  F   UNL A   1      42.377  26.709  35.721  1.00  0.00    -0.206 F 
ATOM     84  C   UNL A   1      46.000  26.796  35.782  1.00  0.00     0.006 A 
ENDBRANCH  60  77
ENDBRANCH  34  35
ENDBRANCH  26  29
ENDBRANCH  24  25
ENDBRANCH  23  24
ENDBRANCH   1  23
TORSDOF 13
ENDMDL
MODEL 3
REMARK VINA RESULT:     -11.8      1.182      1.868
REMARK SMILES [H]/N=c1\ccc2c(C)c(CC(=O)NCCCCNC(=O)c3ccc(-c4c5nc(c(-c6c(F)cccc6F)c6ccc([nH]6)c(-c6c(F)cccc6F)c6nc(c(-c7c(F)cccc7F)c7ccc4[nH]7)C=C6)C=C5)cc3)c(O)oc-2c1
REMARK SMILES IDX 15 1 14 2 13 3 11 4 12 5 10 7 9 8 8 9 7 10 6 11 5 12 78 13
REMARK SMILES IDX 75 14 4 15 79 16 77 17 3 18 2 19 1 20 76 21 16 23 17 24
REMARK SMILES IDX 18 25 19 26 20 28 21 29 22 30 74 31 23 32 73 33 24 34 25 35
REMARK SMILES IDX 26 36 67 37 27 38 72 39 66 40 68 41 28 42 71 43 65 44 64 45
REMARK SMILES IDX 29 47 55 48 38 49 54 50 39 51 42 52 53 53 69 54 40 55 41 56
REMARK SMILES IDX 52 58 70 59 43 60 30 61 31 62 36 63 32 64 33 65 35 66 37 67
REMARK SMILES IDX 34 68 56 69 57 70 62 71 58 72 59 73 61 74 63 75 60 76 44 77
REMARK SMILES IDX 45 78 50 79 46 80 47 81 49 82 51 83 48 84
REMARK H PARENT 13 6 76 22 18 27 68 46 42 57
REMARK Flexibility Score: inf
ROOT
ATOM      1  C   UNL A   1      36.817  21.470  24.912  1.00  0.00     0.023 C 
ENDROOT
BRANCH   1   2
ATOM      2  C   UNL A   1      35.458  20.800  25.120  1.00  0.00     0.116 C 
BRANCH   2   3
ATOM      3  N   UNL A   1      34.913  21.070  26.437  1.00  0.00    -0.356 N 
ATOM      4  C   UNL A   1      33.852  21.852  26.785  1.00  0.00     0.224 C 
ATOM      5  O   UNL A   1      33.583  21.966  27.984  1.00  0.00    -0.275 OA
ATOM      6  H   UNL A   1      35.376  20.628  27.184  1.00  0.00     0.163 HD
BRANCH   4   7
ATOM      7  C   UNL A   1      32.987  22.518  25.716  1.00  0.00     0.143 C 
BRANCH   7   8
ATOM      8  C   UNL A   1      32.721  23.997  25.933  1.00  0.00     0.046 A 
ATOM      9  C   UNL A   1      34.849  24.551  24.607  1.00  0.00     0.046 C 
ATOM     10  C   UNL A   1      33.564  25.013  25.261  1.00  0.00    -0.029 A 
ATOM     11  C   UNL A   1      33.167  26.312  25.262  1.00  0.00     0.021 A 
ATOM     12  C   UNL A   1      33.879  27.357  24.526  1.00  0.00     0.014 A 
ATOM     13  C   UNL A   1      31.971  26.702  26.014  1.00  0.00     0.140 A 
ATOM     14  C   UNL A   1      31.681  24.420  26.690  1.00  0.00     0.286 A 
ATOM     15  C   UNL A   1      33.448  28.626  24.511  1.00  0.00     0.028 A 
ATOM     16  C   UNL A   1      31.523  27.964  26.017  1.00  0.00     0.075 A 
ATOM     17  O   UNL A   1      31.314  25.748  26.767  1.00  0.00    -0.425 OA
ATOM     18  C   UNL A   1      32.224  29.018  25.253  1.00  0.00     0.058 A 
ATOM     19  N   UNL A   1      31.764  30.226  25.256  1.00  0.00    -0.301 NA
ATOM     20  H   UNL A   1      32.229  30.931  24.749  1.00  0.00     0.188 HD
BRANCH  14  21
ATOM     21  O   UNL A   1      30.875  23.553  27.397  1.00  0.00    -0.480 OA
ATOM     22  H   UNL A   1      30.590  23.777  28.260  1.00  0.00     0.297 HD
ENDBRANCH  14  21
ENDBRANCH   7   8
ENDBRANCH   4   7
ENDBRANCH   2   3
ENDBRANCH   1   2
BRANCH   1  23
ATOM     23  C   UNL A   1      37.989  20.506  24.718  1.00  0.00     0.023 C 
BRANCH  23  24
ATOM     24  C   UNL A   1      39.043  20.535  25.814  1.00  0.00     0.116 C 
BRANCH  24  25
ATOM     25  N   UNL A   1      39.912  19.367  25.826  1.00  0.00    -0.352 N 
ATOM     26  C   UNL A   1      41.258  19.310  26.109  1.00  0.00     0.251 C 
ATOM     27  H   UNL A   1      39.483  18.509  25.605  1.00  0.00     0.163 HD
ATOM     28  O   UNL A   1      41.879  18.258  25.998  1.00  0.00    -0.269 OA
BRANCH  26  29
ATOM     29  C   UNL A   1      41.962  20.552  26.494  1.00  0.00     0.039 A 
ATOM     30  C   UNL A   1      42.157  20.865  27.840  1.00  0.00     0.014 A 
ATOM     31  C   UNL A   1      42.358  21.444  25.495  1.00  0.00     0.014 A 
ATOM     32  C   UNL A   1      42.581  22.141  28.190  1.00  0.00     0.010 A 
ATOM     33  C   UNL A   1      42.860  22.699  25.849  1.00  0.00     0.010 A 
ATOM     34  C   UNL A   1      42.919  23.078  27.200  1.00  0.00    -0.014 A 
BRANCH  34  35
ATOM     35  C   UNL A   1      43.297  24.456  27.605  1.00  0.00     0.031 A 
ATOM     36  C   UNL A   1      44.729  24.912  27.540  1.00  0.00     0.074 A 
ATOM     37  C   UNL A   1      42.333  25.320  27.973  1.00  0.00     0.049 A 
ATOM     38  N   UNL A   1      45.234  26.091  27.811  1.00  0.00    -0.248 NA
ATOM     39  C   UNL A   1      45.727  23.916  27.123  1.00  0.00     0.031 C 
ATOM     40  C   UNL A   1      40.909  24.997  28.079  1.00  0.00     0.029 A 
ATOM     41  N   UNL A   1      42.402  26.647  28.305  1.00  0.00    -0.354 N 
ATOM     42  C   UNL A   1      46.604  25.973  27.616  1.00  0.00     0.074 A 
ATOM     43  C   UNL A   1      46.856  24.600  27.234  1.00  0.00     0.031 C 
ATOM     44  C   UNL A   1      40.233  26.108  28.407  1.00  0.00     0.029 A 
ATOM     45  C   UNL A   1      41.180  27.205  28.581  1.00  0.00     0.049 A 
ATOM     46  H   UNL A   1      43.247  27.153  28.340  1.00  0.00     0.167 HD
ATOM     47  C   UNL A   1      47.563  26.923  27.731  1.00  0.00     0.037 A 
ATOM     48  C   UNL A   1      40.854  28.458  28.946  1.00  0.00     0.037 A 
ATOM     49  C   UNL A   1      47.312  28.294  28.095  1.00  0.00     0.049 A 
ATOM     50  C   UNL A   1      41.935  29.488  29.088  1.00  0.00     0.074 A 
ATOM     51  C   UNL A   1      48.213  29.339  28.205  1.00  0.00     0.029 A 
ATOM     52  N   UNL A   1      46.064  28.810  28.412  1.00  0.00    -0.354 N 
ATOM     53  N   UNL A   1      43.223  29.366  28.879  1.00  0.00    -0.248 NA
ATOM     54  C   UNL A   1      41.517  30.827  29.522  1.00  0.00     0.031 C 
ATOM     55  C   UNL A   1      47.514  30.479  28.624  1.00  0.00     0.029 A 
ATOM     56  C   UNL A   1      46.173  30.151  28.740  1.00  0.00     0.049 A 
ATOM     57  H   UNL A   1      45.223  28.296  28.405  1.00  0.00     0.167 HD
ATOM     58  C   UNL A   1      43.772  30.610  29.159  1.00  0.00     0.074 A 
ATOM     59  C   UNL A   1      42.671  31.480  29.523  1.00  0.00     0.031 C 
ATOM     60  C   UNL A   1      45.071  30.996  29.124  1.00  0.00     0.037 A 
BRANCH  47  61
ATOM     61  C   UNL A   1      48.981  26.497  27.479  1.00  0.00     0.057 A 
ATOM     62  C   UNL A   1      49.797  26.071  28.534  1.00  0.00     0.134 A 
ATOM     63  C   UNL A   1      49.539  26.509  26.193  1.00  0.00     0.134 A 
ATOM     64  F   UNL A   1      49.326  26.040  29.790  1.00  0.00    -0.206 F 
ATOM     65  C   UNL A   1      51.114  25.663  28.318  1.00  0.00     0.040 A 
ATOM     66  C   UNL A   1      50.849  26.083  25.963  1.00  0.00     0.040 A 
ATOM     67  F   UNL A   1      48.807  26.893  25.137  1.00  0.00    -0.206 F 
ATOM     68  C   UNL A   1      51.641  25.660  27.029  1.00  0.00     0.006 A 
ENDBRANCH  47  61
BRANCH  48  69
ATOM     69  C   UNL A   1      39.435  28.794  29.209  1.00  0.00     0.057 A 
ATOM     70  C   UNL A   1      38.878  28.636  30.483  1.00  0.00     0.134 A 
ATOM     71  C   UNL A   1      38.597  29.249  28.186  1.00  0.00     0.134 A 
ATOM     72  F   UNL A   1      39.631  28.196  31.502  1.00  0.00    -0.206 F 
ATOM     73  C   UNL A   1      37.530  28.899  30.727  1.00  0.00     0.040 A 
ATOM     74  C   UNL A   1      37.253  29.538  28.421  1.00  0.00     0.040 A 
ATOM     75  F   UNL A   1      39.081  29.436  26.949  1.00  0.00    -0.206 F 
ATOM     76  C   UNL A   1      36.714  29.354  29.694  1.00  0.00     0.006 A 
ENDBRANCH  48  69
BRANCH  60  77
ATOM     77  C   UNL A   1      45.361  32.418  29.499  1.00  0.00     0.057 A 
ATOM     78  C   UNL A   1      45.325  33.436  28.539  1.00  0.00     0.134 A 
ATOM     79  C   UNL A   1      45.679  32.777  30.815  1.00  0.00     0.134 A 
ATOM     80  F   UNL A   1      45.030  33.157  27.260  1.00  0.00    -0.206 F 
ATOM     81  C   UNL A   1      45.594  34.763  28.876  1.00  0.00     0.040 A 
ATOM     82  C   UNL A   1      45.928  34.103  31.167  1.00  0.00     0.040 A 
ATOM     83  F   UNL A   1      45.713  31.848  31.783  1.00  0.00    -0.206 F 
ATOM     84  C   UNL A   1      45.889  35.101  30.195  1.00  0.00     0.006 A 
ENDBRANCH  60  77
ENDBRANCH  34  35
ENDBRANCH  26  29
ENDBRANCH  24  25
ENDBRANCH  23  24
ENDBRANCH   1  23
TORSDOF 13
ENDMDL
