MODEL 1
REMARK VINA RESULT:     -11.8      0.000      0.000
REMARK SMILES CCCc1cc2c(cc1Cl)C=C(C(=O)NCCCCNC(=O)c1ccc(-c3c4nc(c(-c5c(F)cccc5F)c5ccc([nH]5)c(-c5c(F)cccc5F)c5nc(c(-c6c(F)cccc6F)c6ccc3[nH]6)C=C5)C=C4)cc1)[C@@H](C(F)(F)F)O2
REMARK SMILES IDX 17 1 16 2 15 3 13 4 14 5 12 7 4 8 5 9 9 10 6 11 8 12 10 13
REMARK SMILES IDX 7 14 82 15 11 16 77 17 3 18 2 19 1 20 78 21 79 22 80 23
REMARK SMILES IDX 81 24 18 25 19 26 20 27 21 28 22 30 23 31 24 32 76 33 25 34
REMARK SMILES IDX 75 35 26 36 27 37 28 38 69 39 29 40 74 41 68 42 70 43 30 44
REMARK SMILES IDX 73 45 67 46 66 47 31 49 57 50 40 51 56 52 41 53 44 54 55 55
REMARK SMILES IDX 71 56 42 57 43 58 54 60 72 61 45 62 32 63 33 64 38 65 34 66
REMARK SMILES IDX 35 67 37 68 39 69 36 70 58 71 59 72 64 73 60 74 61 75 63 76
REMARK SMILES IDX 65 77 62 78 46 79 47 80 52 81 48 82 49 83 51 84 53 85 50 86
REMARK H PARENT 15 6 20 29 70 48 44 59
REMARK Flexibility Score: inf
ROOT
ATOM      1  C   UNL A   1      37.056  22.376  24.423  1.00  0.00     0.023 C 
ENDROOT
BRANCH   1   2
ATOM      2  C   UNL A   1      36.810  23.444  25.487  1.00  0.00     0.116 C 
BRANCH   2   3
ATOM      3  N   UNL A   1      35.771  23.057  26.425  1.00  0.00    -0.352 N 
ATOM      4  C   UNL A   1      34.449  23.305  26.578  1.00  0.00     0.251 C 
ATOM      5  O   UNL A   1      33.918  22.750  27.545  1.00  0.00    -0.270 OA
ATOM      6  H   UNL A   1      36.117  22.463  27.130  1.00  0.00     0.163 HD
BRANCH   4   7
ATOM      7  C   UNL A   1      33.629  24.176  25.687  1.00  0.00     0.067 C 
ATOM      8  C   UNL A   1      31.227  28.030  23.484  1.00  0.00    -0.026 A 
ATOM      9  C   UNL A   1      31.621  26.748  23.073  1.00  0.00     0.052 A 
ATOM     10  C   UNL A   1      31.704  28.490  24.731  1.00  0.00     0.045 A 
ATOM     11  C   UNL A   1      32.375  25.933  23.914  1.00  0.00     0.128 A 
ATOM     12  C   UNL A   1      32.503  27.681  25.552  1.00  0.00     0.032 A 
ATOM     13  Cl  UNL A   1      31.334  30.078  25.314  1.00  0.00    -0.084 Cl
ATOM     14  C   UNL A   1      32.826  26.387  25.151  1.00  0.00     0.019 A 
ATOM     15  O   UNL A   1      32.651  24.668  23.466  1.00  0.00    -0.475 OA
ATOM     16  C   UNL A   1      33.632  25.493  25.979  1.00  0.00     0.025 C 
ATOM     17  C   UNL A   1      32.801  23.685  24.531  1.00  0.00     0.314 C 
BRANCH   8  18
ATOM     18  C   UNL A   1      30.345  28.909  22.618  1.00  0.00     0.037 C 
BRANCH  18  19
ATOM     19  C   UNL A   1      28.819  28.804  22.775  1.00  0.00     0.001 C 
ATOM     20  C   UNL A   1      28.084  30.106  22.477  1.00  0.00     0.004 C 
ENDBRANCH  18  19
ENDBRANCH   8  18
BRANCH  17  21
ATOM     21  C   UNL A   1      31.417  23.160  24.967  1.00  0.00     0.429 C 
ATOM     22  F   UNL A   1      31.510  21.868  25.373  1.00  0.00    -0.167 F 
ATOM     23  F   UNL A   1      30.911  23.856  26.014  1.00  0.00    -0.167 F 
ATOM     24  F   UNL A   1      30.493  23.210  23.983  1.00  0.00    -0.167 F 
ENDBRANCH  17  21
ENDBRANCH   4   7
ENDBRANCH   2   3
ENDBRANCH   1   2
BRANCH   1  25
ATOM     25  C   UNL A   1      37.581  21.045  24.967  1.00  0.00     0.023 C 
BRANCH  25  26
ATOM     26  C   UNL A   1      38.908  21.121  25.716  1.00  0.00     0.116 C 
BRANCH  26  27
ATOM     27  N   UNL A   1      39.714  19.910  25.635  1.00  0.00    -0.352 N 
ATOM     28  C   UNL A   1      41.025  19.758  26.028  1.00  0.00     0.251 C 
ATOM     29  H   UNL A   1      39.273  19.114  25.259  1.00  0.00     0.163 HD
ATOM     30  O   UNL A   1      41.627  18.705  25.852  1.00  0.00    -0.269 OA
BRANCH  28  31
ATOM     31  C   UNL A   1      41.710  20.927  26.608  1.00  0.00     0.039 A 
ATOM     32  C   UNL A   1      41.693  21.129  27.990  1.00  0.00     0.014 A 
ATOM     33  C   UNL A   1      42.243  21.889  25.747  1.00  0.00     0.014 A 
ATOM     34  C   UNL A   1      42.063  22.367  28.500  1.00  0.00     0.010 A 
ATOM     35  C   UNL A   1      42.667  23.111  26.269  1.00  0.00     0.010 A 
ATOM     36  C   UNL A   1      42.523  23.378  27.640  1.00  0.00    -0.014 A 
BRANCH  36  37
ATOM     37  C   UNL A   1      42.788  24.732  28.183  1.00  0.00     0.031 A 
ATOM     38  C   UNL A   1      44.195  25.162  28.495  1.00  0.00     0.074 A 
ATOM     39  C   UNL A   1      41.767  25.594  28.333  1.00  0.00     0.049 A 
ATOM     40  N   UNL A   1      44.622  26.301  28.979  1.00  0.00    -0.248 NA
ATOM     41  C   UNL A   1      45.265  24.187  28.225  1.00  0.00     0.031 C 
ATOM     42  C   UNL A   1      40.365  25.302  28.034  1.00  0.00     0.029 A 
ATOM     43  N   UNL A   1      41.757  26.898  28.752  1.00  0.00    -0.354 N 
ATOM     44  C   UNL A   1      45.999  26.173  29.095  1.00  0.00     0.074 A 
ATOM     45  C   UNL A   1      46.341  24.841  28.642  1.00  0.00     0.031 C 
ATOM     46  C   UNL A   1      39.636  26.410  28.238  1.00  0.00     0.029 A 
ATOM     47  C   UNL A   1      40.510  27.470  28.729  1.00  0.00     0.049 A 
ATOM     48  H   UNL A   1      42.567  27.379  29.042  1.00  0.00     0.167 HD
ATOM     49  C   UNL A   1      46.900  27.085  29.532  1.00  0.00     0.037 A 
ATOM     50  C   UNL A   1      40.115  28.706  29.080  1.00  0.00     0.037 A 
ATOM     51  C   UNL A   1      46.567  28.421  29.951  1.00  0.00     0.049 A 
ATOM     52  C   UNL A   1      41.125  29.678  29.611  1.00  0.00     0.074 A 
ATOM     53  C   UNL A   1      47.413  29.433  30.367  1.00  0.00     0.029 A 
ATOM     54  N   UNL A   1      45.279  28.929  30.002  1.00  0.00    -0.354 N 
ATOM     55  N   UNL A   1      42.421  29.536  29.734  1.00  0.00    -0.248 NA
ATOM     56  C   UNL A   1      40.609  30.971  30.080  1.00  0.00     0.031 C 
ATOM     57  C   UNL A   1      46.634  30.547  30.700  1.00  0.00     0.029 A 
ATOM     58  C   UNL A   1      45.305  30.233  30.468  1.00  0.00     0.049 A 
ATOM     59  H   UNL A   1      44.466  28.437  29.746  1.00  0.00     0.167 HD
ATOM     60  C   UNL A   1      42.877  30.714  30.308  1.00  0.00     0.074 A 
ATOM     61  C   UNL A   1      41.721  31.572  30.482  1.00  0.00     0.031 C 
ATOM     62  C   UNL A   1      44.139  31.054  30.666  1.00  0.00     0.037 A 
BRANCH  49  63
ATOM     63  C   UNL A   1      48.335  26.663  29.593  1.00  0.00     0.057 A 
ATOM     64  C   UNL A   1      49.186  26.871  28.501  1.00  0.00     0.134 A 
ATOM     65  C   UNL A   1      48.867  26.021  30.718  1.00  0.00     0.134 A 
ATOM     66  F   UNL A   1      48.735  27.483  27.395  1.00  0.00    -0.206 F 
ATOM     67  C   UNL A   1      50.517  26.452  28.523  1.00  0.00     0.040 A 
ATOM     68  C   UNL A   1      50.201  25.607  30.757  1.00  0.00     0.040 A 
ATOM     69  F   UNL A   1      48.107  25.807  31.802  1.00  0.00    -0.206 F 
ATOM     70  C   UNL A   1      51.028  25.819  29.654  1.00  0.00     0.006 A 
ENDBRANCH  49  63
BRANCH  50  71
ATOM     71  C   UNL A   1      38.688  29.079  28.961  1.00  0.00     0.057 A 
ATOM     72  C   UNL A   1      38.165  29.577  27.762  1.00  0.00     0.134 A 
ATOM     73  C   UNL A   1      37.822  28.965  30.052  1.00  0.00     0.134 A 
ATOM     74  F   UNL A   1      38.951  29.709  26.683  1.00  0.00    -0.206 F 
ATOM     75  C   UNL A   1      36.830  29.966  27.657  1.00  0.00     0.040 A 
ATOM     76  C   UNL A   1      36.480  29.334  29.955  1.00  0.00     0.040 A 
ATOM     77  F   UNL A   1      38.267  28.477  31.219  1.00  0.00    -0.206 F 
ATOM     78  C   UNL A   1      35.983  29.843  28.757  1.00  0.00     0.006 A 
ENDBRANCH  50  71
BRANCH  62  79
ATOM     79  C   UNL A   1      44.315  32.392  31.310  1.00  0.00     0.057 A 
ATOM     80  C   UNL A   1      44.269  32.538  32.700  1.00  0.00     0.134 A 
ATOM     81  C   UNL A   1      44.527  33.540  30.538  1.00  0.00     0.134 A 
ATOM     82  F   UNL A   1      44.069  31.472  33.490  1.00  0.00    -0.206 F 
ATOM     83  C   UNL A   1      44.431  33.785  33.303  1.00  0.00     0.040 A 
ATOM     84  C   UNL A   1      44.705  34.791  31.130  1.00  0.00     0.040 A 
ATOM     85  F   UNL A   1      44.597  33.458  29.200  1.00  0.00    -0.206 F 
ATOM     86  C   UNL A   1      44.653  34.915  32.518  1.00  0.00     0.006 A 
ENDBRANCH  62  79
ENDBRANCH  36  37
ENDBRANCH  28  31
ENDBRANCH  26  27
ENDBRANCH  25  26
ENDBRANCH   1  25
TORSDOF 14
ENDMDL
MODEL 2
REMARK VINA RESULT:     -11.7      4.453      9.128
REMARK SMILES CCCc1cc2c(cc1Cl)C=C(C(=O)NCCCCNC(=O)c1ccc(-c3c4nc(c(-c5c(F)cccc5F)c5ccc([nH]5)c(-c5c(F)cccc5F)c5nc(c(-c6c(F)cccc6F)c6ccc3[nH]6)C=C5)C=C4)cc1)[C@@H](C(F)(F)F)O2
REMARK SMILES IDX 17 1 16 2 15 3 13 4 14 5 12 7 4 8 5 9 9 10 6 11 8 12 10 13
REMARK SMILES IDX 7 14 82 15 11 16 77 17 3 18 2 19 1 20 78 21 79 22 80 23
REMARK SMILES IDX 81 24 18 25 19 26 20 27 21 28 22 30 23 31 24 32 76 33 25 34
REMARK SMILES IDX 75 35 26 36 27 37 28 38 69 39 29 40 74 41 68 42 70 43 30 44
REMARK SMILES IDX 73 45 67 46 66 47 31 49 57 50 40 51 56 52 41 53 44 54 55 55
REMARK SMILES IDX 71 56 42 57 43 58 54 60 72 61 45 62 32 63 33 64 38 65 34 66
REMARK SMILES IDX 35 67 37 68 39 69 36 70 58 71 59 72 64 73 60 74 61 75 63 76
REMARK SMILES IDX 65 77 62 78 46 79 47 80 52 81 48 82 49 83 51 84 53 85 50 86
REMARK H PARENT 15 6 20 29 70 48 44 59
REMARK Flexibility Score: inf
ROOT
ATOM      1  C   UNL A   1      31.844  30.547  26.878  1.00  0.00     0.023 C 
ENDROOT
BRANCH   1   2
ATOM      2  C   UNL A   1      32.305  30.050  25.509  1.00  0.00     0.116 C 
BRANCH   2   3
ATOM      3  N   UNL A   1      31.238  30.076  24.525  1.00  0.00    -0.352 N 
ATOM      4  C   UNL A   1      30.637  29.179  23.709  1.00  0.00     0.251 C 
ATOM      5  O   UNL A   1      29.728  29.632  23.007  1.00  0.00    -0.270 OA
ATOM      6  H   UNL A   1      30.852  30.977  24.427  1.00  0.00     0.163 HD
BRANCH   4   7
ATOM      7  C   UNL A   1      30.997  27.734  23.606  1.00  0.00     0.067 C 
ATOM      8  C   UNL A   1      31.728  22.809  24.432  1.00  0.00    -0.026 A 
ATOM      9  C   UNL A   1      31.675  23.621  23.290  1.00  0.00     0.052 A 
ATOM     10  C   UNL A   1      31.350  23.390  25.663  1.00  0.00     0.045 A 
ATOM     11  C   UNL A   1      31.351  24.972  23.392  1.00  0.00     0.128 A 
ATOM     12  C   UNL A   1      30.979  24.740  25.751  1.00  0.00     0.032 A 
ATOM     13  Cl  UNL A   1      31.317  22.469  27.128  1.00  0.00    -0.084 Cl
ATOM     14  C   UNL A   1      30.997  25.542  24.613  1.00  0.00     0.019 A 
ATOM     15  O   UNL A   1      31.398  25.709  22.239  1.00  0.00    -0.475 OA
ATOM     16  C   UNL A   1      30.647  26.960  24.653  1.00  0.00     0.025 C 
ATOM     17  C   UNL A   1      31.730  27.112  22.449  1.00  0.00     0.314 C 
BRANCH   8  18
ATOM     18  C   UNL A   1      32.148  21.353  24.358  1.00  0.00     0.037 C 
BRANCH  18  19
ATOM     19  C   UNL A   1      33.646  21.023  24.270  1.00  0.00     0.001 C 
ATOM     20  C   UNL A   1      34.381  21.161  25.599  1.00  0.00     0.004 C 
ENDBRANCH  18  19
ENDBRANCH   8  18
BRANCH  17  21
ATOM     21  C   UNL A   1      33.260  27.286  22.547  1.00  0.00     0.429 C 
ATOM     22  F   UNL A   1      33.643  27.352  23.847  1.00  0.00    -0.167 F 
ATOM     23  F   UNL A   1      33.931  26.244  22.000  1.00  0.00    -0.167 F 
ATOM     24  F   UNL A   1      33.710  28.404  21.936  1.00  0.00    -0.167 F 
ENDBRANCH  17  21
ENDBRANCH   4   7
ENDBRANCH   2   3
ENDBRANCH   1   2
BRANCH   1  25
ATOM     25  C   UNL A   1      31.358  31.998  26.897  1.00  0.00     0.023 C 
BRANCH  25  26
ATOM     26  C   UNL A   1      32.444  33.054  26.712  1.00  0.00     0.116 C 
BRANCH  26  27
ATOM     27  N   UNL A   1      32.343  34.185  27.624  1.00  0.00    -0.352 N 
ATOM     28  C   UNL A   1      33.214  34.515  28.638  1.00  0.00     0.251 C 
ATOM     29  H   UNL A   1      31.567  34.779  27.503  1.00  0.00     0.163 HD
ATOM     30  O   UNL A   1      32.995  35.457  29.390  1.00  0.00    -0.269 OA
BRANCH  28  31
ATOM     31  C   UNL A   1      34.395  33.654  28.838  1.00  0.00     0.039 A 
ATOM     32  C   UNL A   1      34.230  32.342  29.287  1.00  0.00     0.014 A 
ATOM     33  C   UNL A   1      35.667  34.216  28.708  1.00  0.00     0.014 A 
ATOM     34  C   UNL A   1      35.334  31.644  29.762  1.00  0.00     0.010 A 
ATOM     35  C   UNL A   1      36.780  33.491  29.134  1.00  0.00     0.010 A 
ATOM     36  C   UNL A   1      36.612  32.225  29.719  1.00  0.00    -0.014 A 
BRANCH  36  37
ATOM     37  C   UNL A   1      37.754  31.522  30.350  1.00  0.00     0.031 A 
ATOM     38  C   UNL A   1      38.074  31.747  31.803  1.00  0.00     0.074 A 
ATOM     39  C   UNL A   1      38.462  30.634  29.630  1.00  0.00     0.049 A 
ATOM     40  N   UNL A   1      39.034  31.228  32.526  1.00  0.00    -0.248 NA
ATOM     41  C   UNL A   1      37.200  32.674  32.541  1.00  0.00     0.031 C 
ATOM     42  C   UNL A   1      38.227  30.309  28.224  1.00  0.00     0.029 A 
ATOM     43  N   UNL A   1      39.508  29.827  29.992  1.00  0.00    -0.354 N 
ATOM     44  C   UNL A   1      38.895  31.780  33.793  1.00  0.00     0.074 A 
ATOM     45  C   UNL A   1      37.767  32.685  33.740  1.00  0.00     0.031 C 
ATOM     46  C   UNL A   1      39.075  29.337  27.853  1.00  0.00     0.029 A 
ATOM     47  C   UNL A   1      39.944  29.011  28.979  1.00  0.00     0.049 A 
ATOM     48  H   UNL A   1      39.908  29.831  30.893  1.00  0.00     0.167 HD
ATOM     49  C   UNL A   1      39.637  31.549  34.902  1.00  0.00     0.037 A 
ATOM     50  C   UNL A   1      40.942  28.112  28.957  1.00  0.00     0.037 A 
ATOM     51  C   UNL A   1      40.739  30.625  34.965  1.00  0.00     0.049 A 
ATOM     52  C   UNL A   1      41.782  27.914  30.183  1.00  0.00     0.074 A 
ATOM     53  C   UNL A   1      41.523  30.287  36.054  1.00  0.00     0.029 A 
ATOM     54  N   UNL A   1      41.208  29.888  33.890  1.00  0.00    -0.354 N 
ATOM     55  N   UNL A   1      41.652  28.457  31.367  1.00  0.00    -0.248 NA
ATOM     56  C   UNL A   1      42.925  27.000  30.057  1.00  0.00     0.031 C 
ATOM     57  C   UNL A   1      42.488  29.366  35.631  1.00  0.00     0.029 A 
ATOM     58  C   UNL A   1      42.288  29.115  34.283  1.00  0.00     0.049 A 
ATOM     59  H   UNL A   1      40.830  29.910  32.982  1.00  0.00     0.167 HD
ATOM     60  C   UNL A   1      42.704  27.965  32.126  1.00  0.00     0.074 A 
ATOM     61  C   UNL A   1      43.446  27.055  31.275  1.00  0.00     0.031 C 
ATOM     62  C   UNL A   1      43.032  28.245  33.410  1.00  0.00     0.037 A 
BRANCH  49  63
ATOM     63  C   UNL A   1      39.290  32.320  36.138  1.00  0.00     0.057 A 
ATOM     64  C   UNL A   1      38.353  31.819  37.049  1.00  0.00     0.134 A 
ATOM     65  C   UNL A   1      39.856  33.571  36.409  1.00  0.00     0.134 A 
ATOM     66  F   UNL A   1      37.777  30.624  36.846  1.00  0.00    -0.206 F 
ATOM     67  C   UNL A   1      37.987  32.539  38.188  1.00  0.00     0.040 A 
ATOM     68  C   UNL A   1      39.507  34.296  37.552  1.00  0.00     0.040 A 
ATOM     69  F   UNL A   1      40.771  34.097  35.581  1.00  0.00    -0.206 F 
ATOM     70  C   UNL A   1      38.567  33.780  38.442  1.00  0.00     0.006 A 
ENDBRANCH  49  63
BRANCH  50  71
ATOM     71  C   UNL A   1      41.214  27.350  27.717  1.00  0.00     0.057 A 
ATOM     72  C   UNL A   1      40.674  26.075  27.515  1.00  0.00     0.134 A 
ATOM     73  C   UNL A   1      42.038  27.875  26.718  1.00  0.00     0.134 A 
ATOM     74  F   UNL A   1      39.878  25.522  28.442  1.00  0.00    -0.206 F 
ATOM     75  C   UNL A   1      40.959  25.338  26.366  1.00  0.00     0.040 A 
ATOM     76  C   UNL A   1      42.317  27.156  25.555  1.00  0.00     0.040 A 
ATOM     77  F   UNL A   1      42.567  29.099  26.852  1.00  0.00    -0.206 F 
ATOM     78  C   UNL A   1      41.782  25.880  25.380  1.00  0.00     0.006 A 
ENDBRANCH  50  71
BRANCH  62  79
ATOM     79  C   UNL A   1      44.261  27.585  33.948  1.00  0.00     0.057 A 
ATOM     80  C   UNL A   1      44.203  26.315  34.533  1.00  0.00     0.134 A 
ATOM     81  C   UNL A   1      45.507  28.221  33.887  1.00  0.00     0.134 A 
ATOM     82  F   UNL A   1      43.037  25.659  34.619  1.00  0.00    -0.206 F 
ATOM     83  C   UNL A   1      45.347  25.697  35.038  1.00  0.00     0.040 A 
ATOM     84  C   UNL A   1      46.660  27.607  34.376  1.00  0.00     0.040 A 
ATOM     85  F   UNL A   1      45.625  29.432  33.323  1.00  0.00    -0.206 F 
ATOM     86  C   UNL A   1      46.580  26.342  34.957  1.00  0.00     0.006 A 
ENDBRANCH  62  79
ENDBRANCH  36  37
ENDBRANCH  28  31
ENDBRANCH  26  27
ENDBRANCH  25  26
ENDBRANCH   1  25
TORSDOF 14
ENDMDL
MODEL 3
REMARK VINA RESULT:     -11.7      3.149      7.772
REMARK SMILES CCCc1cc2c(cc1Cl)C=C(C(=O)NCCCCNC(=O)c1ccc(-c3c4nc(c(-c5c(F)cccc5F)c5ccc([nH]5)c(-c5c(F)cccc5F)c5nc(c(-c6c(F)cccc6F)c6ccc3[nH]6)C=C5)C=C4)cc1)[C@@H](C(F)(F)F)O2
REMARK SMILES IDX 17 1 16 2 15 3 13 4 14 5 12 7 4 8 5 9 9 10 6 11 8 12 10 13
REMARK SMILES IDX 7 14 82 15 11 16 77 17 3 18 2 19 1 20 78 21 79 22 80 23
REMARK SMILES IDX 81 24 18 25 19 26 20 27 21 28 22 30 23 31 24 32 76 33 25 34
REMARK SMILES IDX 75 35 26 36 27 37 28 38 69 39 29 40 74 41 68 42 70 43 30 44
REMARK SMILES IDX 73 45 67 46 66 47 31 49 57 50 40 51 56 52 41 53 44 54 55 55
REMARK SMILES IDX 71 56 42 57 43 58 54 60 72 61 45 62 32 63 33 64 38 65 34 66
REMARK SMILES IDX 35 67 37 68 39 69 36 70 58 71 59 72 64 73 60 74 61 75 63 76
REMARK SMILES IDX 65 77 62 78 46 79 47 80 52 81 48 82 49 83 51 84 53 85 50 86
REMARK H PARENT 15 6 20 29 70 48 44 59
REMARK Flexibility Score: inf
ROOT
ATOM      1  C   UNL A   1      31.802  29.495  26.926  1.00  0.00     0.023 C 
ENDROOT
BRANCH   1   2
ATOM      2  C   UNL A   1      32.080  30.399  25.728  1.00  0.00     0.116 C 
BRANCH   2   3
ATOM      3  N   UNL A   1      30.958  30.455  24.807  1.00  0.00    -0.352 N 
ATOM      4  C   UNL A   1      30.377  29.612  23.922  1.00  0.00     0.251 C 
ATOM      5  O   UNL A   1      29.399  30.071  23.323  1.00  0.00    -0.270 OA
ATOM      6  H   UNL A   1      30.506  31.329  24.834  1.00  0.00     0.163 HD
BRANCH   4   7
ATOM      7  C   UNL A   1      30.831  28.220  23.634  1.00  0.00     0.067 C 
ATOM      8  C   UNL A   1      31.665  23.243  23.685  1.00  0.00    -0.026 A 
ATOM      9  C   UNL A   1      31.788  24.254  22.721  1.00  0.00     0.052 A 
ATOM     10  C   UNL A   1      31.023  23.573  24.899  1.00  0.00     0.045 A 
ATOM     11  C   UNL A   1      31.375  25.555  23.000  1.00  0.00     0.128 A 
ATOM     12  C   UNL A   1      30.567  24.875  25.154  1.00  0.00     0.032 A 
ATOM     13  Cl  UNL A   1      30.760  22.392  26.137  1.00  0.00    -0.084 Cl
ATOM     14  C   UNL A   1      30.760  25.878  24.207  1.00  0.00     0.019 A 
ATOM     15  O   UNL A   1      31.602  26.497  22.032  1.00  0.00    -0.475 OA
ATOM     16  C   UNL A   1      30.329  27.255  24.432  1.00  0.00     0.025 C 
ATOM     17  C   UNL A   1      31.807  27.842  22.554  1.00  0.00     0.314 C 
BRANCH   8  18
ATOM     18  C   UNL A   1      32.173  21.835  23.434  1.00  0.00     0.037 C 
BRANCH  18  19
ATOM     19  C   UNL A   1      33.565  21.450  23.961  1.00  0.00     0.001 C 
ATOM     20  C   UNL A   1      34.433  22.650  24.325  1.00  0.00     0.004 C 
ENDBRANCH  18  19
ENDBRANCH   8  18
BRANCH  17  21
ATOM     21  C   UNL A   1      33.277  28.024  22.987  1.00  0.00     0.429 C 
ATOM     22  F   UNL A   1      34.105  27.392  22.117  1.00  0.00    -0.167 F 
ATOM     23  F   UNL A   1      33.651  29.326  22.997  1.00  0.00    -0.167 F 
ATOM     24  F   UNL A   1      33.535  27.534  24.220  1.00  0.00    -0.167 F 
ENDBRANCH  17  21
ENDBRANCH   4   7
ENDBRANCH   2   3
ENDBRANCH   1   2
BRANCH   1  25
ATOM     25  C   UNL A   1      32.966  28.581  27.317  1.00  0.00     0.023 C 
BRANCH  25  26
ATOM     26  C   UNL A   1      34.338  29.247  27.351  1.00  0.00     0.116 C 
BRANCH  26  27
ATOM     27  N   UNL A   1      34.487  30.265  28.382  1.00  0.00    -0.352 N 
ATOM     28  C   UNL A   1      35.620  30.551  29.110  1.00  0.00     0.251 C 
ATOM     29  H   UNL A   1      33.690  30.808  28.581  1.00  0.00     0.163 HD
ATOM     30  O   UNL A   1      35.613  31.390  30.003  1.00  0.00    -0.269 OA
BRANCH  28  31
ATOM     31  C   UNL A   1      36.836  29.766  28.827  1.00  0.00     0.039 A 
ATOM     32  C   UNL A   1      37.463  29.060  29.856  1.00  0.00     0.014 A 
ATOM     33  C   UNL A   1      37.416  29.859  27.560  1.00  0.00     0.014 A 
ATOM     34  C   UNL A   1      38.753  28.582  29.662  1.00  0.00     0.010 A 
ATOM     35  C   UNL A   1      38.690  29.329  27.352  1.00  0.00     0.010 A 
ATOM     36  C   UNL A   1      39.389  28.741  28.419  1.00  0.00    -0.014 A 
BRANCH  36  37
ATOM     37  C   UNL A   1      40.809  28.345  28.271  1.00  0.00     0.031 A 
ATOM     38  C   UNL A   1      41.906  29.336  28.552  1.00  0.00     0.074 A 
ATOM     39  C   UNL A   1      41.111  27.076  27.947  1.00  0.00     0.049 A 
ATOM     40  N   UNL A   1      43.202  29.178  28.472  1.00  0.00    -0.248 NA
ATOM     41  C   UNL A   1      41.492  30.683  28.981  1.00  0.00     0.031 C 
ATOM     42  C   UNL A   1      40.136  26.019  27.682  1.00  0.00     0.029 A 
ATOM     43  N   UNL A   1      42.325  26.457  27.808  1.00  0.00    -0.354 N 
ATOM     44  C   UNL A   1      43.758  30.403  28.816  1.00  0.00     0.074 A 
ATOM     45  C   UNL A   1      42.659  31.303  29.094  1.00  0.00     0.031 C 
ATOM     46  C   UNL A   1      40.790  24.869  27.455  1.00  0.00     0.029 A 
ATOM     47  C   UNL A   1      42.226  25.122  27.509  1.00  0.00     0.049 A 
ATOM     48  H   UNL A   1      43.186  26.925  27.913  1.00  0.00     0.167 HD
ATOM     49  C   UNL A   1      45.066  30.746  28.899  1.00  0.00     0.037 A 
ATOM     50  C   UNL A   1      43.187  24.208  27.287  1.00  0.00     0.037 A 
ATOM     51  C   UNL A   1      46.160  29.843  28.656  1.00  0.00     0.049 A 
ATOM     52  C   UNL A   1      44.626  24.627  27.333  1.00  0.00     0.074 A 
ATOM     53  C   UNL A   1      47.518  30.083  28.759  1.00  0.00     0.029 A 
ATOM     54  N   UNL A   1      46.015  28.522  28.262  1.00  0.00    -0.354 N 
ATOM     55  N   UNL A   1      45.135  25.793  27.640  1.00  0.00    -0.248 NA
ATOM     56  C   UNL A   1      45.619  23.607  26.972  1.00  0.00     0.031 C 
ATOM     57  C   UNL A   1      48.199  28.915  28.398  1.00  0.00     0.029 A 
ATOM     58  C   UNL A   1      47.261  27.942  28.093  1.00  0.00     0.049 A 
ATOM     59  H   UNL A   1      45.155  28.065  28.123  1.00  0.00     0.167 HD
ATOM     60  C   UNL A   1      46.508  25.656  27.496  1.00  0.00     0.074 A 
ATOM     61  C   UNL A   1      46.754  24.282  27.102  1.00  0.00     0.031 C 
ATOM     62  C   UNL A   1      47.479  26.584  27.666  1.00  0.00     0.037 A 
BRANCH  49  63
ATOM     63  C   UNL A   1      45.386  32.164  29.257  1.00  0.00     0.057 A 
ATOM     64  C   UNL A   1      45.529  32.545  30.596  1.00  0.00     0.134 A 
ATOM     65  C   UNL A   1      45.518  33.158  28.280  1.00  0.00     0.134 A 
ATOM     66  F   UNL A   1      45.416  31.638  31.578  1.00  0.00    -0.206 F 
ATOM     67  C   UNL A   1      45.791  33.869  30.953  1.00  0.00     0.040 A 
ATOM     68  C   UNL A   1      45.792  34.484  28.624  1.00  0.00     0.040 A 
ATOM     69  F   UNL A   1      45.407  32.852  26.979  1.00  0.00    -0.206 F 
ATOM     70  C   UNL A   1      45.924  34.842  29.965  1.00  0.00     0.006 A 
ENDBRANCH  49  63
BRANCH  50  71
ATOM     71  C   UNL A   1      42.810  22.811  26.976  1.00  0.00     0.057 A 
ATOM     72  C   UNL A   1      42.373  21.937  27.978  1.00  0.00     0.134 A 
ATOM     73  C   UNL A   1      42.900  22.316  25.673  1.00  0.00     0.134 A 
ATOM     74  F   UNL A   1      42.269  22.359  29.247  1.00  0.00    -0.206 F 
ATOM     75  C   UNL A   1      42.054  20.609  27.696  1.00  0.00     0.040 A 
ATOM     76  C   UNL A   1      42.568  20.994  25.373  1.00  0.00     0.040 A 
ATOM     77  F   UNL A   1      43.297  23.115  24.672  1.00  0.00    -0.206 F 
ATOM     78  C   UNL A   1      42.150  20.135  26.388  1.00  0.00     0.006 A 
ENDBRANCH  50  71
BRANCH  62  79
ATOM     79  C   UNL A   1      48.882  26.145  27.392  1.00  0.00     0.057 A 
ATOM     80  C   UNL A   1      49.690  25.629  28.411  1.00  0.00     0.134 A 
ATOM     81  C   UNL A   1      49.431  26.243  26.108  1.00  0.00     0.134 A 
ATOM     82  F   UNL A   1      49.218  25.512  29.661  1.00  0.00    -0.206 F 
ATOM     83  C   UNL A   1      51.000  25.220  28.160  1.00  0.00     0.040 A 
ATOM     84  C   UNL A   1      50.735  25.825  25.842  1.00  0.00     0.040 A 
ATOM     85  F   UNL A   1      48.697  26.715  25.089  1.00  0.00    -0.206 F 
ATOM     86  C   UNL A   1      51.524  25.315  26.871  1.00  0.00     0.006 A 
ENDBRANCH  62  79
ENDBRANCH  36  37
ENDBRANCH  28  31
ENDBRANCH  26  27
ENDBRANCH  25  26
ENDBRANCH   1  25
TORSDOF 14
ENDMDL
