MODEL 1
REMARK VINA RESULT:     -12.7      0.000      0.000
REMARK SMILES Cc1ccc(O[C@H](C)C(=O)NNC(=O)[C@@H]2[C@@H](C(=O)NCCCCNC(=O)c3ccc(-c4c5nc(c(-c6c(F)cccc6F)c6ccc([nH]6)c(-c6c(F)cccc6F)c6nc(c(-c7c(F)cccc7F)c7ccc4[nH]7)C=C6)C=C5)cc3)[C@@H]3C=C[C@H]2C3)cc1C
REMARK SMILES IDX 20 1 19 2 17 3 18 4 16 6 15 7 84 8 81 9 83 10 85 11 82 12
REMARK SMILES IDX 13 13 12 14 14 16 11 17 9 18 10 19 7 21 8 22 6 23 5 24 1 25
REMARK SMILES IDX 2 26 3 27 87 28 4 29 86 30 88 31 21 32 22 33 23 34 24 35
REMARK SMILES IDX 25 36 26 38 27 39 28 40 80 41 29 42 79 43 30 44 31 45 32 46
REMARK SMILES IDX 73 47 33 48 78 49 72 50 74 51 34 52 77 53 71 54 70 55 35 57
REMARK SMILES IDX 61 58 44 59 60 60 45 61 48 62 59 63 75 64 46 65 47 66 58 68
REMARK SMILES IDX 76 69 49 70 36 71 37 72 42 73 38 74 39 75 41 76 43 77 40 78
REMARK SMILES IDX 62 79 63 80 68 81 64 82 65 83 67 84 69 85 66 86 50 87 51 88
REMARK SMILES IDX 56 89 52 90 53 91 55 92 57 93 54 94
REMARK H PARENT 19 5 12 15 11 20 24 37 74 56 48 67
REMARK Flexibility Score: inf
ROOT
ATOM      1  C   UNL A   1      36.915  22.400  25.579  1.00  0.00     0.116 C 
ENDROOT
BRANCH   1   2
ATOM      2  N   UNL A   1      35.906  21.886  26.477  1.00  0.00    -0.356 N 
ATOM      3  C   UNL A   1      34.551  21.950  26.380  1.00  0.00     0.224 C 
ATOM      4  O   UNL A   1      33.902  21.416  27.281  1.00  0.00    -0.275 OA
ATOM      5  H   UNL A   1      36.250  21.420  27.274  1.00  0.00     0.163 HD
BRANCH   3   6
ATOM      6  C   UNL A   1      33.886  22.647  25.191  1.00  0.00     0.098 C 
ATOM      7  C   UNL A   1      32.888  23.808  25.602  1.00  0.00     0.100 C 
ATOM      8  C   UNL A   1      31.534  23.271  25.059  1.00  0.00     0.025 C 
ATOM      9  C   UNL A   1      32.943  21.651  24.459  1.00  0.00     0.025 C 
ATOM     10  C   UNL A   1      31.579  23.272  23.553  1.00  0.00    -0.027 C 
ATOM     11  C   UNL A   1      31.667  21.765  25.292  1.00  0.00     0.017 C 
ATOM     12  C   UNL A   1      32.442  22.312  23.190  1.00  0.00    -0.027 C 
BRANCH   7  13
ATOM     13  C   UNL A   1      33.371  25.164  25.057  1.00  0.00     0.242 C 
ATOM     14  N   UNL A   1      33.311  26.324  25.778  1.00  0.00    -0.267 N 
ATOM     15  H   UNL A   1      33.897  27.058  25.480  1.00  0.00     0.191 HD
ATOM     16  O   UNL A   1      33.955  25.247  23.971  1.00  0.00    -0.273 OA
BRANCH  14  17
ATOM     17  N   UNL A   1      32.518  26.572  26.880  1.00  0.00    -0.264 N 
ATOM     18  C   UNL A   1      31.916  27.786  27.120  1.00  0.00     0.279 C 
ATOM     19  O   UNL A   1      31.035  27.847  27.983  1.00  0.00    -0.269 OA
ATOM     20  H   UNL A   1      32.375  25.845  27.526  1.00  0.00     0.191 HD
BRANCH  18  21
ATOM     21  C   UNL A   1      32.445  29.057  26.424  1.00  0.00     0.260 C 
ATOM     22  C   UNL A   1      33.841  29.348  26.989  1.00  0.00     0.064 C 
BRANCH  21  23
ATOM     23  O   UNL A   1      32.475  28.924  25.002  1.00  0.00    -0.481 OA
BRANCH  23  24
ATOM     24  C   UNL A   1      31.283  28.940  24.322  1.00  0.00     0.120 A 
ATOM     25  C   UNL A   1      27.405  29.293  22.413  1.00  0.00     0.044 C 
ATOM     26  C   UNL A   1      28.759  29.217  23.064  1.00  0.00    -0.048 A 
ATOM     27  C   UNL A   1      29.417  27.980  23.110  1.00  0.00     0.007 A 
ATOM     28  C   UNL A   1      29.390  30.341  23.628  1.00  0.00    -0.045 A 
ATOM     29  C   UNL A   1      30.667  27.844  23.722  1.00  0.00     0.047 A 
ATOM     30  C   UNL A   1      30.645  30.184  24.253  1.00  0.00     0.050 A 
ATOM     31  C   UNL A   1      28.788  31.719  23.587  1.00  0.00     0.045 C 
ENDBRANCH  23  24
ENDBRANCH  21  23
ENDBRANCH  18  21
ENDBRANCH  14  17
ENDBRANCH   7  13
ENDBRANCH   3   6
ENDBRANCH   1   2
BRANCH   1  32
ATOM     32  C   UNL A   1      37.241  21.388  24.482  1.00  0.00     0.023 C 
BRANCH  32  33
ATOM     33  C   UNL A   1      37.922  20.114  24.985  1.00  0.00     0.023 C 
BRANCH  33  34
ATOM     34  C   UNL A   1      39.166  20.344  25.836  1.00  0.00     0.116 C 
BRANCH  34  35
ATOM     35  N   UNL A   1      40.073  19.206  25.859  1.00  0.00    -0.352 N 
ATOM     36  C   UNL A   1      41.427  19.205  26.088  1.00  0.00     0.251 C 
ATOM     37  H   UNL A   1      39.664  18.327  25.689  1.00  0.00     0.163 HD
ATOM     38  O   UNL A   1      42.082  18.173  25.982  1.00  0.00    -0.269 OA
BRANCH  36  39
ATOM     39  C   UNL A   1      42.094  20.477  26.418  1.00  0.00     0.039 A 
ATOM     40  C   UNL A   1      42.578  21.274  25.378  1.00  0.00     0.014 A 
ATOM     41  C   UNL A   1      42.192  20.902  27.746  1.00  0.00     0.014 A 
ATOM     42  C   UNL A   1      43.097  22.536  25.665  1.00  0.00     0.010 A 
ATOM     43  C   UNL A   1      42.648  22.186  28.023  1.00  0.00     0.010 A 
ATOM     44  C   UNL A   1      43.101  23.015  26.985  1.00  0.00    -0.014 A 
BRANCH  44  45
ATOM     45  C   UNL A   1      43.572  24.383  27.304  1.00  0.00     0.031 A 
ATOM     46  C   UNL A   1      42.591  25.428  27.754  1.00  0.00     0.074 A 
ATOM     47  C   UNL A   1      44.866  24.702  27.115  1.00  0.00     0.049 A 
ATOM     48  N   UNL A   1      42.791  26.697  28.001  1.00  0.00    -0.248 NA
ATOM     49  C   UNL A   1      41.193  24.995  27.916  1.00  0.00     0.031 C 
ATOM     50  C   UNL A   1      45.902  23.790  26.627  1.00  0.00     0.029 A 
ATOM     51  N   UNL A   1      45.529  25.888  27.300  1.00  0.00    -0.354 N 
ATOM     52  C   UNL A   1      41.545  27.217  28.326  1.00  0.00     0.074 A 
ATOM     53  C   UNL A   1      40.588  26.139  28.199  1.00  0.00     0.031 C 
ATOM     54  C   UNL A   1      47.073  24.444  26.571  1.00  0.00     0.029 A 
ATOM     55  C   UNL A   1      46.866  25.827  26.990  1.00  0.00     0.049 A 
ATOM     56  H   UNL A   1      45.088  26.707  27.624  1.00  0.00     0.167 HD
ATOM     57  C   UNL A   1      41.231  28.474  28.716  1.00  0.00     0.037 A 
ATOM     58  C   UNL A   1      47.814  26.780  27.037  1.00  0.00     0.037 A 
ATOM     59  C   UNL A   1      42.190  29.534  28.878  1.00  0.00     0.049 A 
ATOM     60  C   UNL A   1      47.446  28.160  27.503  1.00  0.00     0.074 A 
ATOM     61  C   UNL A   1      41.983  30.824  29.333  1.00  0.00     0.029 A 
ATOM     62  N   UNL A   1      43.543  29.421  28.594  1.00  0.00    -0.354 N 
ATOM     63  N   UNL A   1      46.275  28.622  27.870  1.00  0.00    -0.248 NA
ATOM     64  C   UNL A   1      48.531  29.149  27.569  1.00  0.00     0.031 C 
ATOM     65  C   UNL A   1      43.207  31.501  29.297  1.00  0.00     0.029 A 
ATOM     66  C   UNL A   1      44.181  30.622  28.854  1.00  0.00     0.049 A 
ATOM     67  H   UNL A   1      43.983  28.607  28.258  1.00  0.00     0.167 HD
ATOM     68  C   UNL A   1      46.486  29.944  28.235  1.00  0.00     0.074 A 
ATOM     69  C   UNL A   1      47.899  30.207  28.056  1.00  0.00     0.031 C 
ATOM     70  C   UNL A   1      45.590  30.858  28.679  1.00  0.00     0.037 A 
BRANCH  57  71
ATOM     71  C   UNL A   1      39.788  28.764  29.005  1.00  0.00     0.057 A 
ATOM     72  C   UNL A   1      39.255  28.641  30.294  1.00  0.00     0.134 A 
ATOM     73  C   UNL A   1      38.926  29.189  27.987  1.00  0.00     0.134 A 
ATOM     74  F   UNL A   1      40.026  28.223  31.310  1.00  0.00    -0.206 F 
ATOM     75  C   UNL A   1      37.910  28.904  30.557  1.00  0.00     0.040 A 
ATOM     76  C   UNL A   1      37.584  29.478  28.242  1.00  0.00     0.040 A 
ATOM     77  F   UNL A   1      39.372  29.330  26.730  1.00  0.00    -0.206 F 
ATOM     78  C   UNL A   1      37.072  29.330  29.529  1.00  0.00     0.006 A 
ENDBRANCH  57  71
BRANCH  58  79
ATOM     79  C   UNL A   1      49.213  26.453  26.667  1.00  0.00     0.057 A 
ATOM     80  C   UNL A   1      49.688  26.694  25.372  1.00  0.00     0.134 A 
ATOM     81  C   UNL A   1      50.104  25.893  27.589  1.00  0.00     0.134 A 
ATOM     82  F   UNL A   1      48.875  27.214  24.441  1.00  0.00    -0.206 F 
ATOM     83  C   UNL A   1      50.996  26.374  25.002  1.00  0.00     0.040 A 
ATOM     84  C   UNL A   1      51.420  25.587  27.238  1.00  0.00     0.040 A 
ATOM     85  F   UNL A   1      49.711  25.646  28.846  1.00  0.00    -0.206 F 
ATOM     86  C   UNL A   1      51.867  25.822  25.939  1.00  0.00     0.006 A 
ENDBRANCH  58  79
BRANCH  70  87
ATOM     87  C   UNL A   1      46.118  32.216  29.033  1.00  0.00     0.057 A 
ATOM     88  C   UNL A   1      46.098  33.276  28.119  1.00  0.00     0.134 A 
ATOM     89  C   UNL A   1      46.617  32.474  30.316  1.00  0.00     0.134 A 
ATOM     90  F   UNL A   1      45.645  33.089  26.870  1.00  0.00    -0.206 F 
ATOM     91  C   UNL A   1      46.571  34.543  28.464  1.00  0.00     0.040 A 
ATOM     92  C   UNL A   1      47.073  33.740  30.679  1.00  0.00     0.040 A 
ATOM     93  F   UNL A   1      46.658  31.500  31.239  1.00  0.00    -0.206 F 
ATOM     94  C   UNL A   1      47.055  34.779  29.750  1.00  0.00     0.006 A 
ENDBRANCH  70  87
ENDBRANCH  44  45
ENDBRANCH  36  39
ENDBRANCH  34  35
ENDBRANCH  33  34
ENDBRANCH  32  33
ENDBRANCH   1  32
TORSDOF 16
ENDMDL
MODEL 2
REMARK VINA RESULT:     -12.6      0.542      5.871
REMARK SMILES Cc1ccc(O[C@H](C)C(=O)NNC(=O)[C@@H]2[C@@H](C(=O)NCCCCNC(=O)c3ccc(-c4c5nc(c(-c6c(F)cccc6F)c6ccc([nH]6)c(-c6c(F)cccc6F)c6nc(c(-c7c(F)cccc7F)c7ccc4[nH]7)C=C6)C=C5)cc3)[C@@H]3C=C[C@H]2C3)cc1C
REMARK SMILES IDX 20 1 19 2 17 3 18 4 16 6 15 7 84 8 81 9 83 10 85 11 82 12
REMARK SMILES IDX 13 13 12 14 14 16 11 17 9 18 10 19 7 21 8 22 6 23 5 24 1 25
REMARK SMILES IDX 2 26 3 27 87 28 4 29 86 30 88 31 21 32 22 33 23 34 24 35
REMARK SMILES IDX 25 36 26 38 27 39 28 40 80 41 29 42 79 43 30 44 31 45 32 46
REMARK SMILES IDX 73 47 33 48 78 49 72 50 74 51 34 52 77 53 71 54 70 55 35 57
REMARK SMILES IDX 61 58 44 59 60 60 45 61 48 62 59 63 75 64 46 65 47 66 58 68
REMARK SMILES IDX 76 69 49 70 36 71 37 72 42 73 38 74 39 75 41 76 43 77 40 78
REMARK SMILES IDX 62 79 63 80 68 81 64 82 65 83 67 84 69 85 66 86 50 87 51 88
REMARK SMILES IDX 56 89 52 90 53 91 55 92 57 93 54 94
REMARK H PARENT 19 5 12 15 11 20 24 37 74 56 48 67
REMARK Flexibility Score: inf
ROOT
ATOM      1  C   UNL A   1      36.496  21.652  25.625  1.00  0.00     0.116 C 
ENDROOT
BRANCH   1   2
ATOM      2  N   UNL A   1      35.504  21.604  26.676  1.00  0.00    -0.356 N 
ATOM      3  C   UNL A   1      34.218  22.046  26.669  1.00  0.00     0.224 C 
ATOM      4  O   UNL A   1      33.565  21.875  27.700  1.00  0.00    -0.275 OA
ATOM      5  H   UNL A   1      35.803  21.190  27.518  1.00  0.00     0.163 HD
BRANCH   3   6
ATOM      6  C   UNL A   1      33.628  22.710  25.423  1.00  0.00     0.098 C 
ATOM      7  C   UNL A   1      32.659  23.925  25.739  1.00  0.00     0.100 C 
ATOM      8  C   UNL A   1      31.308  23.412  25.166  1.00  0.00     0.025 C 
ATOM      9  C   UNL A   1      32.677  21.715  24.698  1.00  0.00     0.025 C 
ATOM     10  C   UNL A   1      31.413  23.340  23.664  1.00  0.00    -0.027 C 
ATOM     11  C   UNL A   1      31.374  21.915  25.472  1.00  0.00     0.017 C 
ATOM     12  C   UNL A   1      32.253  22.334  23.382  1.00  0.00    -0.027 C 
BRANCH   7  13
ATOM     13  C   UNL A   1      33.215  25.235  25.153  1.00  0.00     0.242 C 
ATOM     14  N   UNL A   1      33.225  26.417  25.841  1.00  0.00    -0.267 N 
ATOM     15  H   UNL A   1      33.849  27.108  25.520  1.00  0.00     0.191 HD
ATOM     16  O   UNL A   1      33.795  25.254  24.063  1.00  0.00    -0.273 OA
BRANCH  14  17
ATOM     17  N   UNL A   1      32.453  26.740  26.939  1.00  0.00    -0.264 N 
ATOM     18  C   UNL A   1      31.898  27.984  27.133  1.00  0.00     0.279 C 
ATOM     19  O   UNL A   1      31.029  28.114  28.000  1.00  0.00    -0.269 OA
ATOM     20  H   UNL A   1      32.293  26.047  27.617  1.00  0.00     0.191 HD
BRANCH  18  21
ATOM     21  C   UNL A   1      32.463  29.204  26.377  1.00  0.00     0.260 C 
ATOM     22  C   UNL A   1      33.873  29.471  26.917  1.00  0.00     0.064 C 
BRANCH  21  23
ATOM     23  O   UNL A   1      32.476  29.008  24.961  1.00  0.00    -0.481 OA
BRANCH  23  24
ATOM     24  C   UNL A   1      31.277  29.012  24.293  1.00  0.00     0.120 A 
ATOM     25  C   UNL A   1      27.376  29.326  22.426  1.00  0.00     0.044 C 
ATOM     26  C   UNL A   1      28.737  29.264  23.063  1.00  0.00    -0.048 A 
ATOM     27  C   UNL A   1      29.415  28.037  23.087  1.00  0.00     0.007 A 
ATOM     28  C   UNL A   1      29.355  30.391  23.636  1.00  0.00    -0.045 A 
ATOM     29  C   UNL A   1      30.673  27.915  23.685  1.00  0.00     0.047 A 
ATOM     30  C   UNL A   1      30.619  30.246  24.247  1.00  0.00     0.050 A 
ATOM     31  C   UNL A   1      28.730  31.760  23.619  1.00  0.00     0.045 C 
ENDBRANCH  23  24
ENDBRANCH  21  23
ENDBRANCH  18  21
ENDBRANCH  14  17
ENDBRANCH   7  13
ENDBRANCH   3   6
ENDBRANCH   1   2
BRANCH   1  32
ATOM     32  C   UNL A   1      36.701  20.272  25.001  1.00  0.00     0.023 C 
BRANCH  32  33
ATOM     33  C   UNL A   1      38.151  19.961  24.626  1.00  0.00     0.023 C 
BRANCH  33  34
ATOM     34  C   UNL A   1      39.157  20.130  25.759  1.00  0.00     0.116 C 
BRANCH  34  35
ATOM     35  N   UNL A   1      40.147  19.065  25.821  1.00  0.00    -0.352 N 
ATOM     36  C   UNL A   1      41.490  19.169  26.085  1.00  0.00     0.251 C 
ATOM     37  H   UNL A   1      39.811  18.155  25.652  1.00  0.00     0.163 HD
ATOM     38  O   UNL A   1      42.224  18.189  26.010  1.00  0.00    -0.269 OA
BRANCH  36  39
ATOM     39  C   UNL A   1      42.050  20.492  26.417  1.00  0.00     0.039 A 
ATOM     40  C   UNL A   1      42.432  21.342  25.376  1.00  0.00     0.014 A 
ATOM     41  C   UNL A   1      42.147  20.908  27.747  1.00  0.00     0.014 A 
ATOM     42  C   UNL A   1      42.843  22.642  25.667  1.00  0.00     0.010 A 
ATOM     43  C   UNL A   1      42.493  22.223  28.032  1.00  0.00     0.010 A 
ATOM     44  C   UNL A   1      42.841  23.102  26.994  1.00  0.00    -0.014 A 
BRANCH  44  45
ATOM     45  C   UNL A   1      43.197  24.503  27.321  1.00  0.00     0.031 A 
ATOM     46  C   UNL A   1      44.631  24.944  27.269  1.00  0.00     0.074 A 
ATOM     47  C   UNL A   1      42.238  25.353  27.737  1.00  0.00     0.049 A 
ATOM     48  N   UNL A   1      45.152  26.099  27.596  1.00  0.00    -0.248 NA
ATOM     49  C   UNL A   1      45.614  23.945  26.821  1.00  0.00     0.031 C 
ATOM     50  C   UNL A   1      40.819  25.024  27.884  1.00  0.00     0.029 A 
ATOM     51  N   UNL A   1      42.317  26.665  28.125  1.00  0.00    -0.354 N 
ATOM     52  C   UNL A   1      46.522  25.958  27.414  1.00  0.00     0.074 A 
ATOM     53  C   UNL A   1      46.756  24.593  26.993  1.00  0.00     0.031 C 
ATOM     54  C   UNL A   1      40.158  26.112  28.310  1.00  0.00     0.029 A 
ATOM     55  C   UNL A   1      41.108  27.204  28.495  1.00  0.00     0.049 A 
ATOM     56  H   UNL A   1      43.160  27.174  28.138  1.00  0.00     0.167 HD
ATOM     57  C   UNL A   1      47.493  26.888  27.562  1.00  0.00     0.037 A 
ATOM     58  C   UNL A   1      40.804  28.439  28.934  1.00  0.00     0.037 A 
ATOM     59  C   UNL A   1      47.254  28.254  27.943  1.00  0.00     0.049 A 
ATOM     60  C   UNL A   1      41.897  29.463  29.060  1.00  0.00     0.074 A 
ATOM     61  C   UNL A   1      48.162  29.291  28.056  1.00  0.00     0.029 A 
ATOM     62  N   UNL A   1      46.010  28.773  28.269  1.00  0.00    -0.354 N 
ATOM     63  N   UNL A   1      43.179  29.335  28.823  1.00  0.00    -0.248 NA
ATOM     64  C   UNL A   1      41.499  30.805  29.510  1.00  0.00     0.031 C 
ATOM     65  C   UNL A   1      47.471  30.433  28.478  1.00  0.00     0.029 A 
ATOM     66  C   UNL A   1      46.128  30.114  28.593  1.00  0.00     0.049 A 
ATOM     67  H   UNL A   1      45.167  28.264  28.268  1.00  0.00     0.167 HD
ATOM     68  C   UNL A   1      43.738  30.582  29.066  1.00  0.00     0.074 A 
ATOM     69  C   UNL A   1      42.652  31.456  29.460  1.00  0.00     0.031 C 
ATOM     70  C   UNL A   1      45.033  30.968  28.972  1.00  0.00     0.037 A 
BRANCH  57  71
ATOM     71  C   UNL A   1      48.905  26.455  27.298  1.00  0.00     0.057 A 
ATOM     72  C   UNL A   1      49.731  25.973  28.321  1.00  0.00     0.134 A 
ATOM     73  C   UNL A   1      49.438  26.503  26.004  1.00  0.00     0.134 A 
ATOM     74  F   UNL A   1      49.285  25.916  29.585  1.00  0.00    -0.206 F 
ATOM     75  C   UNL A   1      51.047  25.578  28.072  1.00  0.00     0.040 A 
ATOM     76  C   UNL A   1      50.745  26.089  25.739  1.00  0.00     0.040 A 
ATOM     77  F   UNL A   1      48.700  26.952  24.979  1.00  0.00    -0.206 F 
ATOM     78  C   UNL A   1      51.554  25.630  26.776  1.00  0.00     0.006 A 
ENDBRANCH  57  71
BRANCH  58  79
ATOM     79  C   UNL A   1      39.398  28.788  29.251  1.00  0.00     0.057 A 
ATOM     80  C   UNL A   1      38.552  29.323  28.272  1.00  0.00     0.134 A 
ATOM     81  C   UNL A   1      38.867  28.599  30.532  1.00  0.00     0.134 A 
ATOM     82  F   UNL A   1      39.011  29.542  27.031  1.00  0.00    -0.206 F 
ATOM     83  C   UNL A   1      37.232  29.675  28.560  1.00  0.00     0.040 A 
ATOM     84  C   UNL A   1      37.542  28.927  30.828  1.00  0.00     0.040 A 
ATOM     85  F   UNL A   1      39.625  28.083  31.510  1.00  0.00    -0.206 F 
ATOM     86  C   UNL A   1      36.724  29.473  29.841  1.00  0.00     0.006 A 
ENDBRANCH  58  79
BRANCH  70  87
ATOM     87  C   UNL A   1      45.340  32.406  29.267  1.00  0.00     0.057 A 
ATOM     88  C   UNL A   1      45.269  33.392  28.277  1.00  0.00     0.134 A 
ATOM     89  C   UNL A   1      45.673  32.810  30.566  1.00  0.00     0.134 A 
ATOM     90  F   UNL A   1      44.968  33.066  27.011  1.00  0.00    -0.206 F 
ATOM     91  C   UNL A   1      45.535  34.732  28.565  1.00  0.00     0.040 A 
ATOM     92  C   UNL A   1      45.920  34.148  30.871  1.00  0.00     0.040 A 
ATOM     93  F   UNL A   1      45.751  31.913  31.560  1.00  0.00    -0.206 F 
ATOM     94  C   UNL A   1      45.856  35.113  29.867  1.00  0.00     0.006 A 
ENDBRANCH  70  87
ENDBRANCH  44  45
ENDBRANCH  36  39
ENDBRANCH  34  35
ENDBRANCH  33  34
ENDBRANCH  32  33
ENDBRANCH   1  32
TORSDOF 16
ENDMDL
MODEL 3
REMARK VINA RESULT:     -12.6      1.475      6.286
REMARK SMILES Cc1ccc(O[C@H](C)C(=O)NNC(=O)[C@@H]2[C@@H](C(=O)NCCCCNC(=O)c3ccc(-c4c5nc(c(-c6c(F)cccc6F)c6ccc([nH]6)c(-c6c(F)cccc6F)c6nc(c(-c7c(F)cccc7F)c7ccc4[nH]7)C=C6)C=C5)cc3)[C@@H]3C=C[C@H]2C3)cc1C
REMARK SMILES IDX 20 1 19 2 17 3 18 4 16 6 15 7 84 8 81 9 83 10 85 11 82 12
REMARK SMILES IDX 13 13 12 14 14 16 11 17 9 18 10 19 7 21 8 22 6 23 5 24 1 25
REMARK SMILES IDX 2 26 3 27 87 28 4 29 86 30 88 31 21 32 22 33 23 34 24 35
REMARK SMILES IDX 25 36 26 38 27 39 28 40 80 41 29 42 79 43 30 44 31 45 32 46
REMARK SMILES IDX 73 47 33 48 78 49 72 50 74 51 34 52 77 53 71 54 70 55 35 57
REMARK SMILES IDX 61 58 44 59 60 60 45 61 48 62 59 63 75 64 46 65 47 66 58 68
REMARK SMILES IDX 76 69 49 70 36 71 37 72 42 73 38 74 39 75 41 76 43 77 40 78
REMARK SMILES IDX 62 79 63 80 68 81 64 82 65 83 67 84 69 85 66 86 50 87 51 88
REMARK SMILES IDX 56 89 52 90 53 91 55 92 57 93 54 94
REMARK H PARENT 19 5 12 15 11 20 24 37 74 56 48 67
REMARK Flexibility Score: inf
ROOT
ATOM      1  C   UNL A   1      36.916  22.129  25.633  1.00  0.00     0.116 C 
ENDROOT
BRANCH   1   2
ATOM      2  N   UNL A   1      35.844  22.655  26.447  1.00  0.00    -0.356 N 
ATOM      3  C   UNL A   1      34.519  22.773  26.160  1.00  0.00     0.224 C 
ATOM      4  O   UNL A   1      33.799  23.249  27.039  1.00  0.00    -0.275 OA
ATOM      5  H   UNL A   1      36.111  22.973  27.340  1.00  0.00     0.163 HD
BRANCH   3   6
ATOM      6  C   UNL A   1      33.971  22.317  24.806  1.00  0.00     0.098 C 
ATOM      7  C   UNL A   1      33.112  23.419  24.055  1.00  0.00     0.100 C 
ATOM      8  C   UNL A   1      31.716  22.740  23.984  1.00  0.00     0.025 C 
ATOM      9  C   UNL A   1      32.931  21.180  25.016  1.00  0.00     0.025 C 
ATOM     10  C   UNL A   1      31.795  21.562  23.048  1.00  0.00    -0.027 C 
ATOM     11  C   UNL A   1      31.660  21.977  25.309  1.00  0.00     0.017 C 
ATOM     12  C   UNL A   1      32.543  20.631  23.658  1.00  0.00    -0.027 C 
BRANCH   7  13
ATOM     13  C   UNL A   1      33.769  23.809  22.719  1.00  0.00     0.242 C 
ATOM     14  N   UNL A   1      33.278  24.788  21.902  1.00  0.00    -0.267 N 
ATOM     15  H   UNL A   1      33.904  25.165  21.241  1.00  0.00     0.191 HD
ATOM     16  O   UNL A   1      34.855  23.329  22.375  1.00  0.00    -0.273 OA
BRANCH  14  17
ATOM     17  N   UNL A   1      31.997  25.303  21.907  1.00  0.00    -0.264 N 
ATOM     18  C   UNL A   1      31.675  26.523  22.455  1.00  0.00     0.279 C 
ATOM     19  O   UNL A   1      30.571  27.012  22.199  1.00  0.00    -0.269 OA
ATOM     20  H   UNL A   1      31.278  24.770  21.499  1.00  0.00     0.191 HD
BRANCH  18  21
ATOM     21  C   UNL A   1      32.624  27.181  23.478  1.00  0.00     0.260 C 
ATOM     22  C   UNL A   1      33.110  28.505  22.874  1.00  0.00     0.064 C 
BRANCH  21  23
ATOM     23  O   UNL A   1      31.998  27.385  24.746  1.00  0.00    -0.481 OA
BRANCH  23  24
ATOM     24  C   UNL A   1      32.526  28.334  25.586  1.00  0.00     0.120 A 
ATOM     25  C   UNL A   1      34.026  31.608  28.002  1.00  0.00     0.044 C 
ATOM     26  C   UNL A   1      33.460  30.489  27.171  1.00  0.00    -0.048 A 
ATOM     27  C   UNL A   1      34.162  29.277  27.103  1.00  0.00     0.007 A 
ATOM     28  C   UNL A   1      32.253  30.612  26.459  1.00  0.00    -0.045 A 
ATOM     29  C   UNL A   1      33.697  28.210  26.329  1.00  0.00     0.047 A 
ATOM     30  C   UNL A   1      31.805  29.529  25.672  1.00  0.00     0.050 A 
ATOM     31  C   UNL A   1      31.403  31.853  26.504  1.00  0.00     0.045 C 
ENDBRANCH  23  24
ENDBRANCH  21  23
ENDBRANCH  18  21
ENDBRANCH  14  17
ENDBRANCH   7  13
ENDBRANCH   3   6
ENDBRANCH   1   2
BRANCH   1  32
ATOM     32  C   UNL A   1      36.677  20.658  25.295  1.00  0.00     0.023 C 
BRANCH  32  33
ATOM     33  C   UNL A   1      37.947  19.879  24.947  1.00  0.00     0.023 C 
BRANCH  33  34
ATOM     34  C   UNL A   1      39.148  20.179  25.838  1.00  0.00     0.116 C 
BRANCH  34  35
ATOM     35  N   UNL A   1      40.139  19.113  25.854  1.00  0.00    -0.352 N 
ATOM     36  C   UNL A   1      41.490  19.215  26.080  1.00  0.00     0.251 C 
ATOM     37  H   UNL A   1      39.799  18.206  25.681  1.00  0.00     0.163 HD
ATOM     38  O   UNL A   1      42.221  18.237  25.968  1.00  0.00    -0.269 OA
BRANCH  36  39
ATOM     39  C   UNL A   1      42.059  20.533  26.415  1.00  0.00     0.039 A 
ATOM     40  C   UNL A   1      42.432  21.389  25.376  1.00  0.00     0.014 A 
ATOM     41  C   UNL A   1      42.172  20.939  27.747  1.00  0.00     0.014 A 
ATOM     42  C   UNL A   1      42.852  22.685  25.672  1.00  0.00     0.010 A 
ATOM     43  C   UNL A   1      42.527  22.251  28.037  1.00  0.00     0.010 A 
ATOM     44  C   UNL A   1      42.867  23.136  27.002  1.00  0.00    -0.014 A 
BRANCH  44  45
ATOM     45  C   UNL A   1      43.231  24.533  27.335  1.00  0.00     0.031 A 
ATOM     46  C   UNL A   1      44.669  24.965  27.285  1.00  0.00     0.074 A 
ATOM     47  C   UNL A   1      42.278  25.387  27.754  1.00  0.00     0.049 A 
ATOM     48  N   UNL A   1      45.198  26.115  27.616  1.00  0.00    -0.248 NA
ATOM     49  C   UNL A   1      45.645  23.961  26.832  1.00  0.00     0.031 C 
ATOM     50  C   UNL A   1      40.857  25.067  27.900  1.00  0.00     0.029 A 
ATOM     51  N   UNL A   1      42.366  26.698  28.148  1.00  0.00    -0.354 N 
ATOM     52  C   UNL A   1      46.566  25.965  27.434  1.00  0.00     0.074 A 
ATOM     53  C   UNL A   1      46.791  24.601  27.008  1.00  0.00     0.031 C 
ATOM     54  C   UNL A   1      40.203  26.158  28.331  1.00  0.00     0.029 A 
ATOM     55  C   UNL A   1      41.161  27.243  28.520  1.00  0.00     0.049 A 
ATOM     56  H   UNL A   1      43.212  27.201  28.164  1.00  0.00     0.167 HD
ATOM     57  C   UNL A   1      47.544  26.888  27.586  1.00  0.00     0.037 A 
ATOM     58  C   UNL A   1      40.865  28.478  28.965  1.00  0.00     0.037 A 
ATOM     59  C   UNL A   1      47.313  28.255  27.972  1.00  0.00     0.049 A 
ATOM     60  C   UNL A   1      41.965  29.494  29.095  1.00  0.00     0.074 A 
ATOM     61  C   UNL A   1      48.228  29.285  28.090  1.00  0.00     0.029 A 
ATOM     62  N   UNL A   1      46.073  28.780  28.301  1.00  0.00    -0.354 N 
ATOM     63  N   UNL A   1      43.246  29.358  28.857  1.00  0.00    -0.248 NA
ATOM     64  C   UNL A   1      41.576  30.836  29.551  1.00  0.00     0.031 C 
ATOM     65  C   UNL A   1      47.545  30.429  28.517  1.00  0.00     0.029 A 
ATOM     66  C   UNL A   1      46.200  30.119  28.631  1.00  0.00     0.049 A 
ATOM     67  H   UNL A   1      45.227  28.277  28.298  1.00  0.00     0.167 HD
ATOM     68  C   UNL A   1      43.813  30.600  29.106  1.00  0.00     0.074 A 
ATOM     69  C   UNL A   1      42.733  31.480  29.504  1.00  0.00     0.031 C 
ATOM     70  C   UNL A   1      45.111  30.979  29.013  1.00  0.00     0.037 A 
BRANCH  57  71
ATOM     71  C   UNL A   1      48.953  26.447  27.320  1.00  0.00     0.057 A 
ATOM     72  C   UNL A   1      49.787  25.986  28.347  1.00  0.00     0.134 A 
ATOM     73  C   UNL A   1      49.475  26.466  26.021  1.00  0.00     0.134 A 
ATOM     74  F   UNL A   1      49.350  25.957  29.615  1.00  0.00    -0.206 F 
ATOM     75  C   UNL A   1      51.099  25.583  28.096  1.00  0.00     0.040 A 
ATOM     76  C   UNL A   1      50.779  26.044  25.755  1.00  0.00     0.040 A 
ATOM     77  F   UNL A   1      48.729  26.894  24.992  1.00  0.00    -0.206 F 
ATOM     78  C   UNL A   1      51.596  25.606  26.795  1.00  0.00     0.006 A 
ENDBRANCH  57  71
BRANCH  58  79
ATOM     79  C   UNL A   1      39.462  28.835  29.284  1.00  0.00     0.057 A 
ATOM     80  C   UNL A   1      38.628  29.407  28.315  1.00  0.00     0.134 A 
ATOM     81  C   UNL A   1      38.920  28.616  30.556  1.00  0.00     0.134 A 
ATOM     82  F   UNL A   1      39.097  29.655  27.084  1.00  0.00    -0.206 F 
ATOM     83  C   UNL A   1      37.310  29.767  28.605  1.00  0.00     0.040 A 
ATOM     84  C   UNL A   1      37.598  28.952  30.853  1.00  0.00     0.040 A 
ATOM     85  F   UNL A   1      39.666  28.064  31.523  1.00  0.00    -0.206 F 
ATOM     86  C   UNL A   1      36.792  29.535  29.877  1.00  0.00     0.006 A 
ENDBRANCH  58  79
BRANCH  70  87
ATOM     87  C   UNL A   1      45.427  32.413  29.315  1.00  0.00     0.057 A 
ATOM     88  C   UNL A   1      45.805  32.830  30.597  1.00  0.00     0.134 A 
ATOM     89  C   UNL A   1      45.390  33.378  28.302  1.00  0.00     0.134 A 
ATOM     90  F   UNL A   1      45.846  31.955  31.613  1.00  0.00    -0.206 F 
ATOM     91  C   UNL A   1      46.119  34.163  30.864  1.00  0.00     0.040 A 
ATOM     92  C   UNL A   1      45.723  34.709  28.551  1.00  0.00     0.040 A 
ATOM     93  F   UNL A   1      45.042  33.040  27.051  1.00  0.00    -0.206 F 
ATOM     94  C   UNL A   1      46.085  35.106  29.838  1.00  0.00     0.006 A 
ENDBRANCH  70  87
ENDBRANCH  44  45
ENDBRANCH  36  39
ENDBRANCH  34  35
ENDBRANCH  33  34
ENDBRANCH  32  33
ENDBRANCH   1  32
TORSDOF 16
ENDMDL
