MODEL 1
REMARK VINA RESULT:     -15.3      0.000      0.000
REMARK SMILES Cc1cc(/C=C2/C(=O)NC(=S)[NH+]=C2NCCCCNC(=O)c2ccc(-c3c4nc(c(-c5c(F)cccc5F)c5ccc([nH]5)c(-c5c(F)cccc5F)c5nc(c(-c6c(F)cccc6F)c6ccc3[nH]6)C=C5)C=C4)cc2)c(C)n1-c1cccc(C(=O)[O-])c1
REMARK SMILES IDX 16 1 15 2 14 3 5 4 6 5 7 6 13 7 8 8 9 9 12 10 10 11 11 15
REMARK SMILES IDX 4 16 1 17 2 18 3 19 78 20 76 21 77 22 79 23 80 24 87 25
REMARK SMILES IDX 81 26 83 27 82 28 84 29 85 30 86 31 17 32 18 33 19 34 20 35
REMARK SMILES IDX 21 37 22 38 23 39 75 40 24 41 74 42 25 43 26 44 27 45 68 46
REMARK SMILES IDX 28 47 73 48 67 49 69 50 29 51 72 52 66 53 65 54 30 56 56 57
REMARK SMILES IDX 39 58 55 59 40 60 43 61 54 62 70 63 41 64 42 65 53 67 71 68
REMARK SMILES IDX 44 69 31 70 32 71 37 72 33 73 34 74 36 75 38 76 35 77 57 78
REMARK SMILES IDX 58 79 63 80 59 81 60 82 62 83 64 84 61 85 45 86 46 87 51 88
REMARK SMILES IDX 47 89 48 90 50 91 52 92 49 93
REMARK H PARENT 9 12 12 13 14 14 19 36 69 55 43 66
REMARK Flexibility Score: inf
ROOT
ATOM      1  C   UNL A   1      34.632  23.369  22.464  1.00  0.00     0.039 C 
ENDROOT
BRANCH   1   2
ATOM      2  C   UNL A   1      33.100  23.428  22.559  1.00  0.00     0.194 C 
BRANCH   2   3
ATOM      3  N   UNL A   1      32.279  22.325  23.023  1.00  0.00    -0.305 N 
ATOM      4  C   UNL A   1      32.613  23.824  25.884  1.00  0.00     0.032 C 
ATOM      5  C   UNL A   1      32.900  22.549  25.529  1.00  0.00     0.128 C 
ATOM      6  C   UNL A   1      33.674  21.780  26.537  1.00  0.00     0.319 C 
ATOM      7  C   UNL A   1      32.503  21.769  24.290  1.00  0.00     0.234 C 
ATOM      8  O   UNL A   1      34.388  22.291  27.392  1.00  0.00    -0.250 OA
ATOM      9  N   UNL A   1      33.498  20.432  26.456  1.00  0.00    -0.229 N 
ATOM     10  N   UNL A   1      32.425  20.461  24.346  1.00  0.00    -0.236 N 
ATOM     11  C   UNL A   1      32.806  19.775  25.475  1.00  0.00     0.295 C 
ATOM     12  H   UNL A   1      33.905  19.882  27.164  1.00  0.00     0.268 HD
ATOM     13  H   UNL A   1      32.087  19.962  23.568  1.00  0.00     0.268 HD
ATOM     14  H   UNL A   1      31.564  21.967  22.449  1.00  0.00     0.256 HD
ATOM     15  S   UNL A   1      32.574  18.125  25.691  1.00  0.00    -0.005 S 
BRANCH   4  16
ATOM     16  C   UNL A   1      31.838  24.809  25.191  1.00  0.00    -0.003 A 
ATOM     17  C   UNL A   1      28.663  26.384  24.099  1.00  0.00     0.065 C 
ATOM     18  C   UNL A   1      30.056  26.004  24.477  1.00  0.00     0.020 A 
ATOM     19  C   UNL A   1      30.448  24.770  24.977  1.00  0.00     0.031 A 
ATOM     20  N   UNL A   1      31.196  26.812  24.377  1.00  0.00    -0.318 N 
ATOM     21  C   UNL A   1      32.308  25.974  24.616  1.00  0.00     0.027 A 
ATOM     22  C   UNL A   1      33.747  26.343  24.465  1.00  0.00     0.065 C 
BRANCH  20  23
ATOM     23  C   UNL A   1      31.270  28.261  24.351  1.00  0.00     0.046 A 
ATOM     24  C   UNL A   1      32.094  29.056  25.761  1.00  0.00     0.026 A 
ATOM     25  C   UNL A   1      30.000  29.169  23.442  1.00  0.00     0.036 A 
ATOM     26  C   UNL A   1      31.563  30.706  26.315  1.00  0.00     0.003 A 
ATOM     27  C   UNL A   1      29.593  30.876  23.893  1.00  0.00    -0.001 A 
ATOM     28  C   UNL A   1      30.352  31.648  25.326  1.00  0.00     0.010 A 
BRANCH  27  29
ATOM     29  C   UNL A   1      28.567  31.652  23.159  1.00  0.00     0.072 C 
ATOM     30  O   UNL A   1      28.787  32.523  22.341  1.00  0.00    -0.545 OA
ATOM     31  O   UNL A   1      27.319  31.364  23.570  1.00  0.00    -0.545 OA
ENDBRANCH  27  29
ENDBRANCH  20  23
ENDBRANCH   4  16
ENDBRANCH   2   3
ENDBRANCH   1   2
BRANCH   1  32
ATOM     32  C   UNL A   1      35.702  23.314  23.570  1.00  0.00     0.024 C 
BRANCH  32  33
ATOM     33  C   UNL A   1      36.300  21.854  24.151  1.00  0.00     0.116 C 
BRANCH  33  34
ATOM     34  N   UNL A   1      38.052  21.103  24.995  1.00  0.00    -0.352 N 
ATOM     35  C   UNL A   1      39.291  21.437  25.933  1.00  0.00     0.251 C 
ATOM     36  H   UNL A   1      38.151  20.171  24.693  1.00  0.00     0.163 HD
ATOM     37  O   UNL A   1      40.045  20.477  26.144  1.00  0.00    -0.269 OA
BRANCH  35  38
ATOM     38  C   UNL A   1      39.678  22.876  26.604  1.00  0.00     0.039 A 
ATOM     39  C   UNL A   1      38.773  23.920  26.523  1.00  0.00     0.014 A 
ATOM     40  C   UNL A   1      40.748  23.170  27.491  1.00  0.00     0.014 A 
ATOM     41  C   UNL A   1      38.740  24.960  27.550  1.00  0.00     0.010 A 
ATOM     42  C   UNL A   1      40.813  24.400  28.394  1.00  0.00     0.010 A 
ATOM     43  C   UNL A   1      39.755  25.333  28.540  1.00  0.00    -0.014 A 
BRANCH  43  44
ATOM     44  C   UNL A   1      39.678  27.000  29.145  1.00  0.00     0.031 A 
ATOM     45  C   UNL A   1      40.687  27.550  28.200  1.00  0.00     0.074 A 
ATOM     46  C   UNL A   1      39.294  27.978  30.145  1.00  0.00     0.049 A 
ATOM     47  N   UNL A   1      41.814  26.901  28.260  1.00  0.00    -0.248 NA
ATOM     48  C   UNL A   1      40.486  28.249  26.931  1.00  0.00     0.031 C 
ATOM     49  C   UNL A   1      38.575  27.795  31.437  1.00  0.00     0.029 A 
ATOM     50  N   UNL A   1      39.504  29.451  30.290  1.00  0.00    -0.354 N 
ATOM     51  C   UNL A   1      42.602  27.270  27.217  1.00  0.00     0.074 A 
ATOM     52  C   UNL A   1      41.662  27.969  26.332  1.00  0.00     0.031 C 
ATOM     53  C   UNL A   1      38.272  28.973  32.090  1.00  0.00     0.029 A 
ATOM     54  C   UNL A   1      38.801  30.169  31.410  1.00  0.00     0.049 A 
ATOM     55  H   UNL A   1      40.088  29.940  29.667  1.00  0.00     0.167 HD
ATOM     56  C   UNL A   1      43.829  27.624  27.695  1.00  0.00     0.037 A 
ATOM     57  C   UNL A   1      38.769  31.547  31.831  1.00  0.00     0.037 A 
ATOM     58  C   UNL A   1      43.787  29.009  28.090  1.00  0.00     0.049 A 
ATOM     59  C   UNL A   1      40.105  32.026  31.501  1.00  0.00     0.074 A 
ATOM     60  C   UNL A   1      43.182  30.107  27.497  1.00  0.00     0.029 A 
ATOM     61  N   UNL A   1      43.866  29.275  29.436  1.00  0.00    -0.354 N 
ATOM     62  N   UNL A   1      41.140  31.724  32.220  1.00  0.00    -0.248 NA
ATOM     63  C   UNL A   1      40.329  32.919  30.377  1.00  0.00     0.031 C 
ATOM     64  C   UNL A   1      42.428  30.671  28.539  1.00  0.00     0.029 A 
ATOM     65  C   UNL A   1      43.038  30.325  29.734  1.00  0.00     0.049 A 
ATOM     66  H   UNL A   1      44.428  28.790  30.081  1.00  0.00     0.167 HD
ATOM     67  C   UNL A   1      42.128  31.829  31.301  1.00  0.00     0.074 A 
ATOM     68  C   UNL A   1      41.653  32.789  30.310  1.00  0.00     0.031 C 
ATOM     69  C   UNL A   1      42.839  30.695  31.100  1.00  0.00     0.037 A 
BRANCH  56  70
ATOM     70  C   UNL A   1      44.416  26.499  28.560  1.00  0.00     0.057 A 
ATOM     71  C   UNL A   1      45.385  25.667  28.006  1.00  0.00     0.134 A 
ATOM     72  C   UNL A   1      43.918  26.108  29.834  1.00  0.00     0.134 A 
ATOM     73  F   UNL A   1      45.951  25.983  26.832  1.00  0.00    -0.206 F 
ATOM     74  C   UNL A   1      45.794  24.487  28.642  1.00  0.00     0.040 A 
ATOM     75  C   UNL A   1      44.253  24.892  30.434  1.00  0.00     0.040 A 
ATOM     76  F   UNL A   1      43.085  26.892  30.538  1.00  0.00    -0.206 F 
ATOM     77  C   UNL A   1      45.198  24.074  29.834  1.00  0.00     0.006 A 
ENDBRANCH  56  70
BRANCH  57  78
ATOM     78  C   UNL A   1      38.140  32.803  32.692  1.00  0.00     0.057 A 
ATOM     79  C   UNL A   1      37.234  33.794  32.117  1.00  0.00     0.134 A 
ATOM     80  C   UNL A   1      37.970  32.742  34.086  1.00  0.00     0.134 A 
ATOM     81  F   UNL A   1      37.219  34.055  30.802  1.00  0.00    -0.206 F 
ATOM     82  C   UNL A   1      36.234  34.528  32.824  1.00  0.00     0.040 A 
ATOM     83  C   UNL A   1      36.982  33.500  34.810  1.00  0.00     0.040 A 
ATOM     84  F   UNL A   1      38.693  31.877  34.805  1.00  0.00    -0.206 F 
ATOM     85  C   UNL A   1      36.087  34.365  34.184  1.00  0.00     0.006 A 
ENDBRANCH  57  78
BRANCH  69  86
ATOM     86  C   UNL A   1      43.240  29.882  32.307  1.00  0.00     0.057 A 
ATOM     87  C   UNL A   1      42.525  28.820  32.897  1.00  0.00     0.134 A 
ATOM     88  C   UNL A   1      44.417  30.260  32.963  1.00  0.00     0.134 A 
ATOM     89  F   UNL A   1      41.432  28.294  32.332  1.00  0.00    -0.206 F 
ATOM     90  C   UNL A   1      42.925  28.234  34.107  1.00  0.00     0.040 A 
ATOM     91  C   UNL A   1      44.850  29.655  34.144  1.00  0.00     0.040 A 
ATOM     92  F   UNL A   1      45.188  31.231  32.449  1.00  0.00    -0.206 F 
ATOM     93  C   UNL A   1      44.088  28.656  34.737  1.00  0.00     0.006 A 
ENDBRANCH  69  86
ENDBRANCH  43  44
ENDBRANCH  35  38
ENDBRANCH  33  34
ENDBRANCH  32  33
ENDBRANCH   1  32
TORSDOF 13
ENDMDL
MODEL 2
REMARK VINA RESULT:     -14.9      2.977      8.822
REMARK SMILES Cc1cc(/C=C2/C(=O)NC(=S)[NH+]=C2NCCCCNC(=O)c2ccc(-c3c4nc(c(-c5c(F)cccc5F)c5ccc([nH]5)c(-c5c(F)cccc5F)c5nc(c(-c6c(F)cccc6F)c6ccc3[nH]6)C=C5)C=C4)cc2)c(C)n1-c1cccc(C(=O)[O-])c1
REMARK SMILES IDX 16 1 15 2 14 3 5 4 6 5 7 6 13 7 8 8 9 9 12 10 10 11 11 15
REMARK SMILES IDX 4 16 1 17 2 18 3 19 78 20 76 21 77 22 79 23 80 24 87 25
REMARK SMILES IDX 81 26 83 27 82 28 84 29 85 30 86 31 17 32 18 33 19 34 20 35
REMARK SMILES IDX 21 37 22 38 23 39 75 40 24 41 74 42 25 43 26 44 27 45 68 46
REMARK SMILES IDX 28 47 73 48 67 49 69 50 29 51 72 52 66 53 65 54 30 56 56 57
REMARK SMILES IDX 39 58 55 59 40 60 43 61 54 62 70 63 41 64 42 65 53 67 71 68
REMARK SMILES IDX 44 69 31 70 32 71 37 72 33 73 34 74 36 75 38 76 35 77 57 78
REMARK SMILES IDX 58 79 63 80 59 81 60 82 62 83 64 84 61 85 45 86 46 87 51 88
REMARK SMILES IDX 47 89 48 90 50 91 52 92 49 93
REMARK H PARENT 9 12 12 13 14 14 19 36 69 55 43 66
REMARK Flexibility Score: inf
ROOT
ATOM      1  C   UNL A   1      31.423  26.429  26.605  1.00  0.00     0.039 C 
ENDROOT
BRANCH   1   2
ATOM      2  C   UNL A   1      30.713  25.524  25.588  1.00  0.00     0.194 C 
BRANCH   2   3
ATOM      3  N   UNL A   1      30.111  26.011  24.360  1.00  0.00    -0.305 N 
ATOM      4  C   UNL A   1      33.191  26.001  23.333  1.00  0.00     0.032 C 
ATOM      5  C   UNL A   1      32.283  27.006  23.358  1.00  0.00     0.128 C 
ATOM      6  C   UNL A   1      32.836  28.353  23.065  1.00  0.00     0.319 C 
ATOM      7  C   UNL A   1      30.783  26.960  23.577  1.00  0.00     0.234 C 
ATOM      8  O   UNL A   1      34.011  28.664  23.226  1.00  0.00    -0.250 OA
ATOM      9  N   UNL A   1      31.921  29.227  22.563  1.00  0.00    -0.229 N 
ATOM     10  N   UNL A   1      30.026  27.905  23.075  1.00  0.00    -0.236 N 
ATOM     11  C   UNL A   1      30.577  28.998  22.449  1.00  0.00     0.295 C 
ATOM     12  H   UNL A   1      32.256  30.100  22.255  1.00  0.00     0.268 HD
ATOM     13  H   UNL A   1      29.047  27.831  23.146  1.00  0.00     0.268 HD
ATOM     14  H   UNL A   1      29.230  25.675  24.076  1.00  0.00     0.256 HD
ATOM     15  S   UNL A   1      29.680  30.159  21.630  1.00  0.00    -0.005 S 
BRANCH   4  16
ATOM     16  C   UNL A   1      32.993  24.592  23.500  1.00  0.00    -0.003 A 
ATOM     17  C   UNL A   1      32.054  21.200  22.332  1.00  0.00     0.065 C 
ATOM     18  C   UNL A   1      32.571  22.425  23.009  1.00  0.00     0.020 A 
ATOM     19  C   UNL A   1      32.355  23.731  22.589  1.00  0.00     0.031 A 
ATOM     20  N   UNL A   1      33.341  22.469  24.179  1.00  0.00    -0.318 N 
ATOM     21  C   UNL A   1      33.397  23.824  24.576  1.00  0.00     0.027 A 
ATOM     22  C   UNL A   1      33.971  24.354  25.848  1.00  0.00     0.065 C 
BRANCH  20  23
ATOM     23  C   UNL A   1      34.189  21.431  24.736  1.00  0.00     0.046 A 
ATOM     24  C   UNL A   1      35.970  21.783  24.793  1.00  0.00     0.026 A 
ATOM     25  C   UNL A   1      33.629  19.717  24.628  1.00  0.00     0.036 A 
ATOM     26  C   UNL A   1      37.173  20.427  24.631  1.00  0.00     0.003 A 
ATOM     27  C   UNL A   1      34.828  18.358  24.637  1.00  0.00    -0.001 A 
ATOM     28  C   UNL A   1      36.591  18.696  24.626  1.00  0.00     0.010 A 
BRANCH  27  29
ATOM     29  C   UNL A   1      34.401  16.942  24.565  1.00  0.00     0.072 C 
ATOM     30  O   UNL A   1      34.284  16.187  25.510  1.00  0.00    -0.545 OA
ATOM     31  O   UNL A   1      34.245  16.521  23.297  1.00  0.00    -0.545 OA
ENDBRANCH  27  29
ENDBRANCH  20  23
ENDBRANCH   4  16
ENDBRANCH   2   3
ENDBRANCH   1   2
BRANCH   1  32
ATOM     32  C   UNL A   1      31.030  27.811  27.161  1.00  0.00     0.024 C 
BRANCH  32  33
ATOM     33  C   UNL A   1      31.683  29.232  26.545  1.00  0.00     0.116 C 
BRANCH  33  34
ATOM     34  N   UNL A   1      32.382  31.067  27.243  1.00  0.00    -0.352 N 
ATOM     35  C   UNL A   1      33.646  31.849  27.806  1.00  0.00     0.251 C 
ATOM     36  H   UNL A   1      31.630  31.703  27.210  1.00  0.00     0.163 HD
ATOM     37  O   UNL A   1      33.454  33.057  28.001  1.00  0.00    -0.269 OA
BRANCH  35  38
ATOM     38  C   UNL A   1      35.118  31.239  28.171  1.00  0.00     0.039 A 
ATOM     39  C   UNL A   1      35.365  29.897  27.939  1.00  0.00     0.014 A 
ATOM     40  C   UNL A   1      36.306  31.950  28.490  1.00  0.00     0.014 A 
ATOM     41  C   UNL A   1      36.718  29.427  27.649  1.00  0.00     0.010 A 
ATOM     42  C   UNL A   1      37.714  31.364  28.410  1.00  0.00     0.010 A 
ATOM     43  C   UNL A   1      38.009  30.077  27.893  1.00  0.00    -0.014 A 
BRANCH  43  44
ATOM     44  C   UNL A   1      39.409  28.996  28.047  1.00  0.00     0.031 A 
ATOM     45  C   UNL A   1      39.321  28.846  29.526  1.00  0.00     0.074 A 
ATOM     46  C   UNL A   1      40.614  28.385  27.519  1.00  0.00     0.049 A 
ATOM     47  N   UNL A   1      39.335  29.997  30.133  1.00  0.00    -0.248 NA
ATOM     48  C   UNL A   1      38.706  27.779  30.315  1.00  0.00     0.031 C 
ATOM     49  C   UNL A   1      41.265  28.547  26.189  1.00  0.00     0.029 A 
ATOM     50  N   UNL A   1      41.641  27.458  28.084  1.00  0.00    -0.354 N 
ATOM     51  C   UNL A   1      39.000  29.821  31.438  1.00  0.00     0.074 A 
ATOM     52  C   UNL A   1      38.450  28.460  31.451  1.00  0.00     0.031 C 
ATOM     53  C   UNL A   1      42.349  27.717  25.983  1.00  0.00     0.029 A 
ATOM     54  C   UNL A   1      42.688  26.899  27.161  1.00  0.00     0.049 A 
ATOM     55  H   UNL A   1      41.632  27.218  29.038  1.00  0.00     0.167 HD
ATOM     56  C   UNL A   1      39.942  30.425  32.219  1.00  0.00     0.037 A 
ATOM     57  C   UNL A   1      43.796  25.997  27.356  1.00  0.00     0.037 A 
ATOM     58  C   UNL A   1      41.030  29.502  32.424  1.00  0.00     0.049 A 
ATOM     59  C   UNL A   1      44.231  26.296  28.715  1.00  0.00     0.074 A 
ATOM     60  C   UNL A   1      41.033  28.136  32.659  1.00  0.00     0.029 A 
ATOM     61  N   UNL A   1      42.225  29.805  31.818  1.00  0.00    -0.354 N 
ATOM     62  N   UNL A   1      44.915  27.359  28.998  1.00  0.00    -0.248 NA
ATOM     63  C   UNL A   1      43.967  25.378  29.809  1.00  0.00     0.031 C 
ATOM     64  C   UNL A   1      41.917  27.635  31.689  1.00  0.00     0.029 A 
ATOM     65  C   UNL A   1      42.806  28.649  31.369  1.00  0.00     0.049 A 
ATOM     66  H   UNL A   1      42.603  30.709  31.722  1.00  0.00     0.167 HD
ATOM     67  C   UNL A   1      44.584  27.537  30.297  1.00  0.00     0.074 A 
ATOM     68  C   UNL A   1      44.246  26.212  30.810  1.00  0.00     0.031 C 
ATOM     69  C   UNL A   1      43.991  28.722  30.575  1.00  0.00     0.037 A 
BRANCH  56  70
ATOM     70  C   UNL A   1      40.122  31.893  31.808  1.00  0.00     0.057 A 
ATOM     71  C   UNL A   1      39.506  32.881  32.570  1.00  0.00     0.134 A 
ATOM     72  C   UNL A   1      40.720  32.331  30.593  1.00  0.00     0.134 A 
ATOM     73  F   UNL A   1      38.960  32.572  33.756  1.00  0.00    -0.206 F 
ATOM     74  C   UNL A   1      39.427  34.209  32.131  1.00  0.00     0.040 A 
ATOM     75  C   UNL A   1      40.573  33.631  30.106  1.00  0.00     0.040 A 
ATOM     76  F   UNL A   1      41.465  31.507  29.836  1.00  0.00    -0.206 F 
ATOM     77  C   UNL A   1      39.922  34.578  30.879  1.00  0.00     0.006 A 
ENDBRANCH  56  70
BRANCH  57  78
ATOM     78  C   UNL A   1      44.982  24.991  26.811  1.00  0.00     0.057 A 
ATOM     79  C   UNL A   1      44.831  23.540  26.741  1.00  0.00     0.134 A 
ATOM     80  C   UNL A   1      45.968  25.422  25.908  1.00  0.00     0.134 A 
ATOM     81  F   UNL A   1      43.964  22.883  27.524  1.00  0.00    -0.206 F 
ATOM     82  C   UNL A   1      45.494  22.672  25.821  1.00  0.00     0.040 A 
ATOM     83  C   UNL A   1      46.661  24.547  24.996  1.00  0.00     0.040 A 
ATOM     84  F   UNL A   1      46.246  26.725  25.800  1.00  0.00    -0.206 F 
ATOM     85  C   UNL A   1      46.403  23.180  24.921  1.00  0.00     0.006 A 
ENDBRANCH  57  78
BRANCH  69  86
ATOM     86  C   UNL A   1      44.556  29.967  29.935  1.00  0.00     0.057 A 
ATOM     87  C   UNL A   1      44.167  30.548  28.710  1.00  0.00     0.134 A 
ATOM     88  C   UNL A   1      45.630  30.583  30.586  1.00  0.00     0.134 A 
ATOM     89  F   UNL A   1      43.100  30.122  28.023  1.00  0.00    -0.206 F 
ATOM     90  C   UNL A   1      44.864  31.625  28.142  1.00  0.00     0.040 A 
ATOM     91  C   UNL A   1      46.305  31.683  30.052  1.00  0.00     0.040 A 
ATOM     92  F   UNL A   1      46.041  30.128  31.779  1.00  0.00    -0.206 F 
ATOM     93  C   UNL A   1      45.941  32.191  28.811  1.00  0.00     0.006 A 
ENDBRANCH  69  86
ENDBRANCH  43  44
ENDBRANCH  35  38
ENDBRANCH  33  34
ENDBRANCH  32  33
ENDBRANCH   1  32
TORSDOF 13
ENDMDL
MODEL 3
REMARK VINA RESULT:     -14.1      1.371      1.595
REMARK SMILES Cc1cc(/C=C2/C(=O)NC(=S)[NH+]=C2NCCCCNC(=O)c2ccc(-c3c4nc(c(-c5c(F)cccc5F)c5ccc([nH]5)c(-c5c(F)cccc5F)c5nc(c(-c6c(F)cccc6F)c6ccc3[nH]6)C=C5)C=C4)cc2)c(C)n1-c1cccc(C(=O)[O-])c1
REMARK SMILES IDX 16 1 15 2 14 3 5 4 6 5 7 6 13 7 8 8 9 9 12 10 10 11 11 15
REMARK SMILES IDX 4 16 1 17 2 18 3 19 78 20 76 21 77 22 79 23 80 24 87 25
REMARK SMILES IDX 81 26 83 27 82 28 84 29 85 30 86 31 17 32 18 33 19 34 20 35
REMARK SMILES IDX 21 37 22 38 23 39 75 40 24 41 74 42 25 43 26 44 27 45 68 46
REMARK SMILES IDX 28 47 73 48 67 49 69 50 29 51 72 52 66 53 65 54 30 56 56 57
REMARK SMILES IDX 39 58 55 59 40 60 43 61 54 62 70 63 41 64 42 65 53 67 71 68
REMARK SMILES IDX 44 69 31 70 32 71 37 72 33 73 34 74 36 75 38 76 35 77 57 78
REMARK SMILES IDX 58 79 63 80 59 81 60 82 62 83 64 84 61 85 45 86 46 87 51 88
REMARK SMILES IDX 47 89 48 90 50 91 52 92 49 93
REMARK H PARENT 9 12 12 13 14 14 19 36 69 55 43 66
REMARK Flexibility Score: inf
ROOT
ATOM      1  C   UNL A   1      35.033  23.720  23.211  1.00  0.00     0.039 C 
ENDROOT
BRANCH   1   2
ATOM      2  C   UNL A   1      33.556  23.615  22.803  1.00  0.00     0.194 C 
BRANCH   2   3
ATOM      3  N   UNL A   1      32.712  22.477  23.120  1.00  0.00    -0.305 N 
ATOM      4  C   UNL A   1      32.612  23.892  26.041  1.00  0.00     0.032 C 
ATOM      5  C   UNL A   1      32.982  22.636  25.692  1.00  0.00     0.128 C 
ATOM      6  C   UNL A   1      33.634  21.855  26.774  1.00  0.00     0.319 C 
ATOM      7  C   UNL A   1      32.779  21.886  24.389  1.00  0.00     0.234 C 
ATOM      8  O   UNL A   1      34.211  22.356  27.733  1.00  0.00    -0.250 OA
ATOM      9  N   UNL A   1      33.510  20.506  26.632  1.00  0.00    -0.229 N 
ATOM     10  N   UNL A   1      32.733  20.577  24.397  1.00  0.00    -0.236 N 
ATOM     11  C   UNL A   1      32.977  19.864  25.548  1.00  0.00     0.295 C 
ATOM     12  H   UNL A   1      33.833  19.945  27.373  1.00  0.00     0.268 HD
ATOM     13  H   UNL A   1      32.518  20.094  23.566  1.00  0.00     0.268 HD
ATOM     14  H   UNL A   1      32.092  22.120  22.444  1.00  0.00     0.256 HD
ATOM     15  S   UNL A   1      32.766  18.203  25.683  1.00  0.00    -0.005 S 
BRANCH   4  16
ATOM     16  C   UNL A   1      31.909  24.879  25.276  1.00  0.00    -0.003 A 
ATOM     17  C   UNL A   1      28.863  26.422  23.831  1.00  0.00     0.065 C 
ATOM     18  C   UNL A   1      30.206  26.058  24.371  1.00  0.00     0.020 A 
ATOM     19  C   UNL A   1      30.558  24.820  24.891  1.00  0.00     0.031 A 
ATOM     20  N   UNL A   1      31.333  26.888  24.429  1.00  0.00    -0.318 N 
ATOM     21  C   UNL A   1      32.424  26.064  24.788  1.00  0.00     0.027 A 
ATOM     22  C   UNL A   1      33.863  26.461  24.825  1.00  0.00     0.065 C 
BRANCH  20  23
ATOM     23  C   UNL A   1      31.381  28.339  24.442  1.00  0.00     0.046 A 
ATOM     24  C   UNL A   1      32.124  29.112  25.908  1.00  0.00     0.026 A 
ATOM     25  C   UNL A   1      30.138  29.246  23.497  1.00  0.00     0.036 A 
ATOM     26  C   UNL A   1      31.536  30.738  26.477  1.00  0.00     0.003 A 
ATOM     27  C   UNL A   1      29.678  30.934  23.970  1.00  0.00    -0.001 A 
ATOM     28  C   UNL A   1      30.355  31.683  25.455  1.00  0.00     0.010 A 
BRANCH  27  29
ATOM     29  C   UNL A   1      28.673  31.710  23.207  1.00  0.00     0.072 C 
ATOM     30  O   UNL A   1      28.916  32.536  22.349  1.00  0.00    -0.545 OA
ATOM     31  O   UNL A   1      27.419  31.482  23.638  1.00  0.00    -0.545 OA
ENDBRANCH  27  29
ENDBRANCH  20  23
ENDBRANCH   4  16
ENDBRANCH   2   3
ENDBRANCH   1   2
BRANCH   1  32
ATOM     32  C   UNL A   1      36.200  22.734  23.006  1.00  0.00     0.024 C 
BRANCH  32  33
ATOM     33  C   UNL A   1      36.766  21.762  24.255  1.00  0.00     0.116 C 
BRANCH  33  34
ATOM     34  N   UNL A   1      38.540  21.422  25.295  1.00  0.00    -0.352 N 
ATOM     35  C   UNL A   1      39.537  22.000  26.390  1.00  0.00     0.251 C 
ATOM     36  H   UNL A   1      38.905  20.561  24.986  1.00  0.00     0.163 HD
ATOM     37  O   UNL A   1      40.478  21.246  26.671  1.00  0.00    -0.269 OA
BRANCH  35  38
ATOM     38  C   UNL A   1      39.469  23.451  27.137  1.00  0.00     0.039 A 
ATOM     39  C   UNL A   1      40.405  23.750  28.112  1.00  0.00     0.014 A 
ATOM     40  C   UNL A   1      38.705  24.591  26.769  1.00  0.00     0.014 A 
ATOM     41  C   UNL A   1      40.801  25.134  28.367  1.00  0.00     0.010 A 
ATOM     42  C   UNL A   1      38.991  26.016  27.240  1.00  0.00     0.010 A 
ATOM     43  C   UNL A   1      40.124  26.384  28.008  1.00  0.00    -0.014 A 
BRANCH  43  44
ATOM     44  C   UNL A   1      40.503  27.793  29.019  1.00  0.00     0.031 A 
ATOM     45  C   UNL A   1      41.687  28.231  28.229  1.00  0.00     0.074 A 
ATOM     46  C   UNL A   1      40.363  28.562  30.241  1.00  0.00     0.049 A 
ATOM     47  N   UNL A   1      42.567  27.280  28.105  1.00  0.00    -0.248 NA
ATOM     48  C   UNL A   1      41.779  29.249  27.184  1.00  0.00     0.031 C 
ATOM     49  C   UNL A   1      39.544  28.289  31.455  1.00  0.00     0.029 A 
ATOM     50  N   UNL A   1      40.987  29.820  30.753  1.00  0.00    -0.354 N 
ATOM     51  C   UNL A   1      43.491  27.642  27.178  1.00  0.00     0.074 A 
ATOM     52  C   UNL A   1      42.856  28.787  26.515  1.00  0.00     0.031 C 
ATOM     53  C   UNL A   1      39.561  29.303  32.391  1.00  0.00     0.029 A 
ATOM     54  C   UNL A   1      40.459  30.414  32.030  1.00  0.00     0.049 A 
ATOM     55  H   UNL A   1      41.727  30.249  30.267  1.00  0.00     0.167 HD
ATOM     56  C   UNL A   1      44.736  27.481  27.711  1.00  0.00     0.037 A 
ATOM     57  C   UNL A   1      40.807  31.590  32.789  1.00  0.00     0.037 A 
ATOM     58  C   UNL A   1      45.079  28.672  28.446  1.00  0.00     0.049 A 
ATOM     59  C   UNL A   1      42.243  31.711  32.570  1.00  0.00     0.074 A 
ATOM     60  C   UNL A   1      44.862  30.011  28.163  1.00  0.00     0.029 A 
ATOM     61  N   UNL A   1      45.149  28.560  29.814  1.00  0.00    -0.354 N 
ATOM     62  N   UNL A   1      43.097  30.944  33.173  1.00  0.00    -0.248 NA
ATOM     63  C   UNL A   1      42.789  32.745  31.708  1.00  0.00     0.031 C 
ATOM     64  C   UNL A   1      44.244  30.499  29.325  1.00  0.00     0.029 A 
ATOM     65  C   UNL A   1      44.650  29.701  30.383  1.00  0.00     0.049 A 
ATOM     66  H   UNL A   1      45.502  27.784  30.306  1.00  0.00     0.167 HD
ATOM     67  C   UNL A   1      44.127  30.972  32.296  1.00  0.00     0.074 A 
ATOM     68  C   UNL A   1      44.018  32.245  31.589  1.00  0.00     0.031 C 
ATOM     69  C   UNL A   1      44.484  29.764  31.801  1.00  0.00     0.037 A 
BRANCH  56  70
ATOM     70  C   UNL A   1      44.911  26.054  28.251  1.00  0.00     0.057 A 
ATOM     71  C   UNL A   1      45.608  25.128  27.480  1.00  0.00     0.134 A 
ATOM     72  C   UNL A   1      44.258  25.534  29.403  1.00  0.00     0.134 A 
ATOM     73  F   UNL A   1      46.299  25.534  26.404  1.00  0.00    -0.206 F 
ATOM     74  C   UNL A   1      45.607  23.762  27.789  1.00  0.00     0.040 A 
ATOM     75  C   UNL A   1      44.178  24.166  29.672  1.00  0.00     0.040 A 
ATOM     76  F   UNL A   1      43.669  26.338  30.304  1.00  0.00    -0.206 F 
ATOM     77  C   UNL A   1      44.858  23.272  28.860  1.00  0.00     0.006 A 
ENDBRANCH  56  70
BRANCH  57  78
ATOM     78  C   UNL A   1      40.523  32.722  33.952  1.00  0.00     0.057 A 
ATOM     79  C   UNL A   1      39.989  34.050  33.661  1.00  0.00     0.134 A 
ATOM     80  C   UNL A   1      40.255  32.372  35.286  1.00  0.00     0.134 A 
ATOM     81  F   UNL A   1      40.135  34.621  32.457  1.00  0.00    -0.206 F 
ATOM     82  C   UNL A   1      39.207  34.852  34.547  1.00  0.00     0.040 A 
ATOM     83  C   UNL A   1      39.491  33.188  36.194  1.00  0.00     0.040 A 
ATOM     84  F   UNL A   1      40.644  31.179  35.749  1.00  0.00    -0.206 F 
ATOM     85  C   UNL A   1      38.933  34.409  35.823  1.00  0.00     0.006 A 
ENDBRANCH  57  78
BRANCH  69  86
ATOM     86  C   UNL A   1      44.553  28.596  32.755  1.00  0.00     0.057 A 
ATOM     87  C   UNL A   1      43.519  27.691  33.071  1.00  0.00     0.134 A 
ATOM     88  C   UNL A   1      45.749  28.424  33.461  1.00  0.00     0.134 A 
ATOM     89  F   UNL A   1      42.353  27.678  32.414  1.00  0.00    -0.206 F 
ATOM     90  C   UNL A   1      43.654  26.730  34.085  1.00  0.00     0.040 A 
ATOM     91  C   UNL A   1      45.911  27.444  34.442  1.00  0.00     0.040 A 
ATOM     92  F   UNL A   1      46.803  29.210  33.194  1.00  0.00    -0.206 F 
ATOM     93  C   UNL A   1      44.852  26.610  34.778  1.00  0.00     0.006 A 
ENDBRANCH  69  86
ENDBRANCH  43  44
ENDBRANCH  35  38
ENDBRANCH  33  34
ENDBRANCH  32  33
ENDBRANCH   1  32
TORSDOF 13
ENDMDL
