MODEL 1
REMARK VINA RESULT:     -11.5      0.000      0.000
REMARK SMILES Cc1cnc2c(c1)nc(SCC(=O)NCCCCNC(=O)c1ccc(-c3c4nc(c(-c5c(F)cccc5F)c5ccc([nH]5)c(-c5c(F)cccc5F)c5nc(c(-c6c(F)cccc6F)c6ccc3[nH]6)C=C5)C=C4)cc1)n2[C@@H](C)C1CC1
REMARK SMILES IDX 15 1 14 2 12 3 13 4 11 6 10 7 9 8 1 9 2 10 3 11 7 12 4 13
REMARK SMILES IDX 6 14 5 15 8 16 76 17 77 18 78 19 79 20 80 21 81 22 16 23
REMARK SMILES IDX 17 24 18 25 19 26 20 27 21 29 22 30 23 31 75 32 24 33 74 34
REMARK SMILES IDX 25 35 26 36 27 37 68 38 28 39 73 40 67 41 69 42 29 43 72 44
REMARK SMILES IDX 66 45 65 46 30 48 56 49 39 50 55 51 40 52 43 53 54 54 70 55
REMARK SMILES IDX 41 56 42 57 53 59 71 60 44 61 31 62 32 63 37 64 33 65 34 66
REMARK SMILES IDX 36 67 38 68 35 69 57 70 58 71 63 72 59 73 60 74 62 75 64 76
REMARK SMILES IDX 61 77 45 78 46 79 51 80 47 81 48 82 50 83 52 84 49 85
REMARK H PARENT 14 5 19 28 69 47 43 58
REMARK Flexibility Score: inf
ROOT
ATOM      1  C   UNL A   1      40.101  22.031  26.538  1.00  0.00     0.116 C 
ENDROOT
BRANCH   1   2
ATOM      2  N   UNL A   1      39.083  21.084  26.134  1.00  0.00    -0.355 N 
ATOM      3  C   UNL A   1      37.970  21.258  25.369  1.00  0.00     0.230 C 
ATOM      4  O   UNL A   1      37.461  20.226  24.911  1.00  0.00    -0.274 OA
ATOM      5  H   UNL A   1      39.217  20.167  26.466  1.00  0.00     0.163 HD
BRANCH   3   6
ATOM      6  C   UNL A   1      37.419  22.605  24.951  1.00  0.00     0.178 C 
BRANCH   6   7
ATOM      7  S   UNL A   1      36.461  22.723  23.462  1.00  0.00    -0.078 SA
BRANCH   7   8
ATOM      8  C   UNL A   1      34.814  23.246  23.556  1.00  0.00     0.171 A 
ATOM      9  C   UNL A   1      30.225  26.966  23.096  1.00  0.00     0.046 C 
ATOM     10  C   UNL A   1      31.122  25.800  23.366  1.00  0.00    -0.030 A 
ATOM     11  C   UNL A   1      30.675  24.705  24.107  1.00  0.00     0.117 A 
ATOM     12  C   UNL A   1      32.442  25.785  22.889  1.00  0.00     0.037 A 
ATOM     13  N   UNL A   1      31.404  23.612  24.432  1.00  0.00    -0.236 NA
ATOM     14  C   UNL A   1      33.236  24.677  23.210  1.00  0.00     0.109 A 
ATOM     15  C   UNL A   1      32.668  23.667  23.961  1.00  0.00     0.160 A 
ATOM     16  N   UNL A   1      34.540  24.389  22.942  1.00  0.00    -0.221 NA
ATOM     17  N   UNL A   1      33.688  22.756  24.188  1.00  0.00    -0.301 N 
BRANCH  17  18
ATOM     18  C   UNL A   1      33.464  21.636  25.091  1.00  0.00     0.091 C 
ATOM     19  C   UNL A   1      33.443  20.291  24.367  1.00  0.00     0.032 C 
BRANCH  18  20
ATOM     20  C   UNL A   1      34.297  21.710  26.350  1.00  0.00     0.012 C 
ATOM     21  C   UNL A   1      34.424  22.969  27.190  1.00  0.00     0.006 C 
ATOM     22  C   UNL A   1      33.611  21.831  27.700  1.00  0.00     0.006 C 
ENDBRANCH  18  20
ENDBRANCH  17  18
ENDBRANCH   7   8
ENDBRANCH   6   7
ENDBRANCH   3   6
ENDBRANCH   1   2
BRANCH   1  23
ATOM     23  C   UNL A   1      41.113  21.507  27.566  1.00  0.00     0.023 C 
BRANCH  23  24
ATOM     24  C   UNL A   1      41.933  20.254  27.233  1.00  0.00     0.023 C 
BRANCH  24  25
ATOM     25  C   UNL A   1      42.083  19.929  25.761  1.00  0.00     0.116 C 
BRANCH  25  26
ATOM     26  N   UNL A   1      43.452  19.600  25.378  1.00  0.00    -0.352 N 
ATOM     27  C   UNL A   1      44.461  20.475  25.006  1.00  0.00     0.251 C 
ATOM     28  H   UNL A   1      43.688  18.644  25.385  1.00  0.00     0.163 HD
ATOM     29  O   UNL A   1      45.426  20.096  24.368  1.00  0.00    -0.269 OA
BRANCH  27  30
ATOM     30  C   UNL A   1      44.333  21.889  25.404  1.00  0.00     0.039 A 
ATOM     31  C   UNL A   1      43.457  22.755  24.748  1.00  0.00     0.014 A 
ATOM     32  C   UNL A   1      45.081  22.323  26.494  1.00  0.00     0.014 A 
ATOM     33  C   UNL A   1      43.281  24.038  25.261  1.00  0.00     0.010 A 
ATOM     34  C   UNL A   1      44.767  23.508  27.104  1.00  0.00     0.010 A 
ATOM     35  C   UNL A   1      43.923  24.399  26.458  1.00  0.00    -0.014 A 
BRANCH  35  36
ATOM     36  C   UNL A   1      43.647  25.681  27.097  1.00  0.00     0.031 A 
ATOM     37  C   UNL A   1      44.613  26.754  26.748  1.00  0.00     0.074 A 
ATOM     38  C   UNL A   1      42.517  25.936  27.793  1.00  0.00     0.049 A 
ATOM     39  N   UNL A   1      45.522  27.264  27.509  1.00  0.00    -0.248 NA
ATOM     40  C   UNL A   1      44.684  27.213  25.351  1.00  0.00     0.031 C 
ATOM     41  C   UNL A   1      41.329  25.082  27.939  1.00  0.00     0.029 A 
ATOM     42  N   UNL A   1      42.149  27.069  28.455  1.00  0.00    -0.354 N 
ATOM     43  C   UNL A   1      46.122  28.273  26.762  1.00  0.00     0.074 A 
ATOM     44  C   UNL A   1      45.711  28.066  25.400  1.00  0.00     0.031 C 
ATOM     45  C   UNL A   1      40.300  25.808  28.428  1.00  0.00     0.029 A 
ATOM     46  C   UNL A   1      40.809  27.105  28.822  1.00  0.00     0.049 A 
ATOM     47  H   UNL A   1      42.779  27.799  28.657  1.00  0.00     0.167 HD
ATOM     48  C   UNL A   1      46.664  29.359  27.382  1.00  0.00     0.037 A 
ATOM     49  C   UNL A   1      40.161  28.129  29.426  1.00  0.00     0.037 A 
ATOM     50  C   UNL A   1      46.772  29.129  28.801  1.00  0.00     0.049 A 
ATOM     51  C   UNL A   1      41.184  28.949  30.109  1.00  0.00     0.074 A 
ATOM     52  C   UNL A   1      47.583  28.401  29.641  1.00  0.00     0.029 A 
ATOM     53  N   UNL A   1      45.626  29.427  29.490  1.00  0.00    -0.354 N 
ATOM     54  N   UNL A   1      41.890  28.525  31.120  1.00  0.00    -0.248 NA
ATOM     55  C   UNL A   1      41.684  30.152  29.456  1.00  0.00     0.031 C 
ATOM     56  C   UNL A   1      46.795  28.108  30.794  1.00  0.00     0.029 A 
ATOM     57  C   UNL A   1      45.542  28.701  30.646  1.00  0.00     0.049 A 
ATOM     58  H   UNL A   1      44.951  30.078  29.191  1.00  0.00     0.167 HD
ATOM     59  C   UNL A   1      43.118  29.133  30.956  1.00  0.00     0.074 A 
ATOM     60  C   UNL A   1      42.877  30.247  30.048  1.00  0.00     0.031 C 
ATOM     61  C   UNL A   1      44.269  28.487  31.300  1.00  0.00     0.037 A 
BRANCH  48  62
ATOM     62  C   UNL A   1      46.642  30.772  26.839  1.00  0.00     0.057 A 
ATOM     63  C   UNL A   1      47.823  31.538  26.875  1.00  0.00     0.134 A 
ATOM     64  C   UNL A   1      45.466  31.504  26.581  1.00  0.00     0.134 A 
ATOM     65  F   UNL A   1      49.007  30.966  27.140  1.00  0.00    -0.206 F 
ATOM     66  C   UNL A   1      47.823  32.931  26.718  1.00  0.00     0.040 A 
ATOM     67  C   UNL A   1      45.462  32.887  26.373  1.00  0.00     0.040 A 
ATOM     68  F   UNL A   1      44.250  30.947  26.623  1.00  0.00    -0.206 F 
ATOM     69  C   UNL A   1      46.638  33.611  26.467  1.00  0.00     0.006 A 
ENDBRANCH  48  62
BRANCH  49  70
ATOM     70  C   UNL A   1      38.768  28.592  29.257  1.00  0.00     0.057 A 
ATOM     71  C   UNL A   1      37.887  28.630  30.347  1.00  0.00     0.134 A 
ATOM     72  C   UNL A   1      38.373  29.307  28.114  1.00  0.00     0.134 A 
ATOM     73  F   UNL A   1      38.189  27.994  31.488  1.00  0.00    -0.206 F 
ATOM     74  C   UNL A   1      36.711  29.390  30.328  1.00  0.00     0.040 A 
ATOM     75  C   UNL A   1      37.198  30.066  28.079  1.00  0.00     0.040 A 
ATOM     76  F   UNL A   1      39.162  29.371  27.031  1.00  0.00    -0.206 F 
ATOM     77  C   UNL A   1      36.374  30.129  29.198  1.00  0.00     0.006 A 
ENDBRANCH  49  70
BRANCH  61  78
ATOM     78  C   UNL A   1      44.170  27.370  32.294  1.00  0.00     0.057 A 
ATOM     79  C   UNL A   1      44.125  26.008  31.966  1.00  0.00     0.134 A 
ATOM     80  C   UNL A   1      44.224  27.694  33.654  1.00  0.00     0.134 A 
ATOM     81  F   UNL A   1      44.140  25.598  30.692  1.00  0.00    -0.206 F 
ATOM     82  C   UNL A   1      44.109  25.016  32.953  1.00  0.00     0.040 A 
ATOM     83  C   UNL A   1      44.241  26.714  34.646  1.00  0.00     0.040 A 
ATOM     84  F   UNL A   1      44.303  28.978  34.038  1.00  0.00    -0.206 F 
ATOM     85  C   UNL A   1      44.175  25.369  34.298  1.00  0.00     0.006 A 
ENDBRANCH  61  78
ENDBRANCH  35  36
ENDBRANCH  27  30
ENDBRANCH  25  26
ENDBRANCH  24  25
ENDBRANCH  23  24
ENDBRANCH   1  23
TORSDOF 15
ENDMDL
MODEL 2
REMARK VINA RESULT:     -11.4      1.051      2.480
REMARK SMILES Cc1cnc2c(c1)nc(SCC(=O)NCCCCNC(=O)c1ccc(-c3c4nc(c(-c5c(F)cccc5F)c5ccc([nH]5)c(-c5c(F)cccc5F)c5nc(c(-c6c(F)cccc6F)c6ccc3[nH]6)C=C5)C=C4)cc1)n2[C@@H](C)C1CC1
REMARK SMILES IDX 15 1 14 2 12 3 13 4 11 6 10 7 9 8 1 9 2 10 3 11 7 12 4 13
REMARK SMILES IDX 6 14 5 15 8 16 76 17 77 18 78 19 79 20 80 21 81 22 16 23
REMARK SMILES IDX 17 24 18 25 19 26 20 27 21 29 22 30 23 31 75 32 24 33 74 34
REMARK SMILES IDX 25 35 26 36 27 37 68 38 28 39 73 40 67 41 69 42 29 43 72 44
REMARK SMILES IDX 66 45 65 46 30 48 56 49 39 50 55 51 40 52 43 53 54 54 70 55
REMARK SMILES IDX 41 56 42 57 53 59 71 60 44 61 31 62 32 63 37 64 33 65 34 66
REMARK SMILES IDX 36 67 38 68 35 69 57 70 58 71 63 72 59 73 60 74 62 75 64 76
REMARK SMILES IDX 61 77 45 78 46 79 51 80 47 81 48 82 50 83 52 84 49 85
REMARK H PARENT 14 5 19 28 69 47 43 58
REMARK Flexibility Score: inf
ROOT
ATOM      1  C   UNL A   1      39.802  22.374  26.444  1.00  0.00     0.116 C 
ENDROOT
BRANCH   1   2
ATOM      2  N   UNL A   1      38.851  22.074  25.394  1.00  0.00    -0.355 N 
ATOM      3  C   UNL A   1      37.627  22.611  25.133  1.00  0.00     0.230 C 
ATOM      4  O   UNL A   1      37.178  22.408  23.997  1.00  0.00    -0.274 OA
ATOM      5  H   UNL A   1      39.134  21.369  24.769  1.00  0.00     0.163 HD
BRANCH   3   6
ATOM      6  C   UNL A   1      36.871  23.523  26.076  1.00  0.00     0.178 C 
BRANCH   6   7
ATOM      7  S   UNL A   1      35.127  23.283  26.300  1.00  0.00    -0.078 SA
BRANCH   7   8
ATOM      8  C   UNL A   1      34.362  21.914  25.567  1.00  0.00     0.171 A 
ATOM      9  C   UNL A   1      33.924  16.449  23.321  1.00  0.00     0.046 C 
ATOM     10  C   UNL A   1      33.677  17.856  23.764  1.00  0.00    -0.030 A 
ATOM     11  C   UNL A   1      32.517  18.535  23.391  1.00  0.00     0.117 A 
ATOM     12  C   UNL A   1      34.617  18.533  24.557  1.00  0.00     0.037 A 
ATOM     13  N   UNL A   1      32.202  19.812  23.712  1.00  0.00    -0.236 NA
ATOM     14  C   UNL A   1      34.337  19.860  24.905  1.00  0.00     0.109 A 
ATOM     15  C   UNL A   1      33.153  20.413  24.458  1.00  0.00     0.160 A 
ATOM     16  N   UNL A   1      35.051  20.782  25.610  1.00  0.00    -0.221 NA
ATOM     17  N   UNL A   1      33.178  21.733  24.878  1.00  0.00    -0.301 N 
BRANCH  17  18
ATOM     18  C   UNL A   1      32.138  22.650  24.432  1.00  0.00     0.091 C 
ATOM     19  C   UNL A   1      31.059  22.873  25.489  1.00  0.00     0.032 C 
BRANCH  18  20
ATOM     20  C   UNL A   1      32.685  23.886  23.755  1.00  0.00     0.012 C 
ATOM     21  C   UNL A   1      33.291  23.874  22.363  1.00  0.00     0.006 C 
ATOM     22  C   UNL A   1      31.947  24.482  22.568  1.00  0.00     0.006 C 
ENDBRANCH  18  20
ENDBRANCH  17  18
ENDBRANCH   7   8
ENDBRANCH   6   7
ENDBRANCH   3   6
ENDBRANCH   1   2
BRANCH   1  23
ATOM     23  C   UNL A   1      40.466  21.154  27.096  1.00  0.00     0.023 C 
BRANCH  23  24
ATOM     24  C   UNL A   1      41.295  20.203  26.224  1.00  0.00     0.023 C 
BRANCH  24  25
ATOM     25  C   UNL A   1      42.621  19.754  26.801  1.00  0.00     0.116 C 
BRANCH  25  26
ATOM     26  N   UNL A   1      43.657  19.563  25.791  1.00  0.00    -0.352 N 
ATOM     27  C   UNL A   1      44.232  20.523  24.974  1.00  0.00     0.251 C 
ATOM     28  H   UNL A   1      43.987  18.642  25.677  1.00  0.00     0.163 HD
ATOM     29  O   UNL A   1      44.800  20.220  23.942  1.00  0.00    -0.269 OA
BRANCH  27  30
ATOM     30  C   UNL A   1      44.133  21.935  25.389  1.00  0.00     0.039 A 
ATOM     31  C   UNL A   1      43.286  22.830  24.735  1.00  0.00     0.014 A 
ATOM     32  C   UNL A   1      44.878  22.336  26.494  1.00  0.00     0.014 A 
ATOM     33  C   UNL A   1      43.135  24.110  25.262  1.00  0.00     0.010 A 
ATOM     34  C   UNL A   1      44.585  23.520  27.116  1.00  0.00     0.010 A 
ATOM     35  C   UNL A   1      43.771  24.440  26.471  1.00  0.00    -0.014 A 
BRANCH  35  36
ATOM     36  C   UNL A   1      43.518  25.719  27.124  1.00  0.00     0.031 A 
ATOM     37  C   UNL A   1      44.484  26.787  26.762  1.00  0.00     0.074 A 
ATOM     38  C   UNL A   1      42.404  25.978  27.845  1.00  0.00     0.049 A 
ATOM     39  N   UNL A   1      45.413  27.285  27.508  1.00  0.00    -0.248 NA
ATOM     40  C   UNL A   1      44.530  27.255  25.367  1.00  0.00     0.031 C 
ATOM     41  C   UNL A   1      41.213  25.132  28.010  1.00  0.00     0.029 A 
ATOM     42  N   UNL A   1      42.059  27.110  28.522  1.00  0.00    -0.354 N 
ATOM     43  C   UNL A   1      46.005  28.295  26.755  1.00  0.00     0.074 A 
ATOM     44  C   UNL A   1      45.564  28.100  25.400  1.00  0.00     0.031 C 
ATOM     45  C   UNL A   1      40.200  25.863  28.525  1.00  0.00     0.029 A 
ATOM     46  C   UNL A   1      40.727  27.154  28.917  1.00  0.00     0.049 A 
ATOM     47  H   UNL A   1      42.698  27.833  28.715  1.00  0.00     0.167 HD
ATOM     48  C   UNL A   1      46.568  29.373  27.370  1.00  0.00     0.037 A 
ATOM     49  C   UNL A   1      40.100  28.179  29.541  1.00  0.00     0.037 A 
ATOM     50  C   UNL A   1      46.704  29.132  28.785  1.00  0.00     0.049 A 
ATOM     51  C   UNL A   1      41.143  28.986  30.208  1.00  0.00     0.074 A 
ATOM     52  C   UNL A   1      47.526  28.393  29.604  1.00  0.00     0.029 A 
ATOM     53  N   UNL A   1      45.575  29.434  29.499  1.00  0.00    -0.354 N 
ATOM     54  N   UNL A   1      41.866  28.550  31.201  1.00  0.00    -0.248 NA
ATOM     55  C   UNL A   1      41.639  30.190  29.552  1.00  0.00     0.031 C 
ATOM     56  C   UNL A   1      46.760  28.098  30.771  1.00  0.00     0.029 A 
ATOM     57  C   UNL A   1      45.509  28.701  30.652  1.00  0.00     0.049 A 
ATOM     58  H   UNL A   1      44.899  30.093  29.219  1.00  0.00     0.167 HD
ATOM     59  C   UNL A   1      43.095  29.150  31.015  1.00  0.00     0.074 A 
ATOM     60  C   UNL A   1      42.844  30.271  30.119  1.00  0.00     0.031 C 
ATOM     61  C   UNL A   1      44.248  28.493  31.331  1.00  0.00     0.037 A 
BRANCH  48  62
ATOM     62  C   UNL A   1      46.546  30.789  26.837  1.00  0.00     0.057 A 
ATOM     63  C   UNL A   1      47.731  31.549  26.859  1.00  0.00     0.134 A 
ATOM     64  C   UNL A   1      45.371  31.529  26.602  1.00  0.00     0.134 A 
ATOM     65  F   UNL A   1      48.917  30.968  27.103  1.00  0.00    -0.206 F 
ATOM     66  C   UNL A   1      47.737  32.942  26.711  1.00  0.00     0.040 A 
ATOM     67  C   UNL A   1      45.371  32.914  26.403  1.00  0.00     0.040 A 
ATOM     68  F   UNL A   1      44.152  30.979  26.659  1.00  0.00    -0.206 F 
ATOM     69  C   UNL A   1      46.552  33.631  26.484  1.00  0.00     0.006 A 
ENDBRANCH  48  62
BRANCH  49  70
ATOM     70  C   UNL A   1      38.707  28.654  29.403  1.00  0.00     0.057 A 
ATOM     71  C   UNL A   1      37.853  28.703  30.515  1.00  0.00     0.134 A 
ATOM     72  C   UNL A   1      38.291  29.368  28.267  1.00  0.00     0.134 A 
ATOM     73  F   UNL A   1      38.177  28.069  31.650  1.00  0.00    -0.206 F 
ATOM     74  C   UNL A   1      36.684  29.473  30.521  1.00  0.00     0.040 A 
ATOM     75  C   UNL A   1      37.122  30.137  28.258  1.00  0.00     0.040 A 
ATOM     76  F   UNL A   1      39.054  29.420  27.166  1.00  0.00    -0.206 F 
ATOM     77  C   UNL A   1      36.326  30.211  29.396  1.00  0.00     0.006 A 
ENDBRANCH  49  70
BRANCH  61  78
ATOM     78  C   UNL A   1      44.162  27.371  32.320  1.00  0.00     0.057 A 
ATOM     79  C   UNL A   1      44.141  26.010  31.986  1.00  0.00     0.134 A 
ATOM     80  C   UNL A   1      44.201  27.690  33.681  1.00  0.00     0.134 A 
ATOM     81  F   UNL A   1      44.170  25.605  30.710  1.00  0.00    -0.206 F 
ATOM     82  C   UNL A   1      44.134  25.014  32.969  1.00  0.00     0.040 A 
ATOM     83  C   UNL A   1      44.227  26.706  34.670  1.00  0.00     0.040 A 
ATOM     84  F   UNL A   1      44.256  28.973  34.072  1.00  0.00    -0.206 F 
ATOM     85  C   UNL A   1      44.186  25.361  34.315  1.00  0.00     0.006 A 
ENDBRANCH  61  78
ENDBRANCH  35  36
ENDBRANCH  27  30
ENDBRANCH  25  26
ENDBRANCH  24  25
ENDBRANCH  23  24
ENDBRANCH   1  23
TORSDOF 15
ENDMDL
MODEL 3
REMARK VINA RESULT:     -11.2      4.786      9.949
REMARK SMILES Cc1cnc2c(c1)nc(SCC(=O)NCCCCNC(=O)c1ccc(-c3c4nc(c(-c5c(F)cccc5F)c5ccc([nH]5)c(-c5c(F)cccc5F)c5nc(c(-c6c(F)cccc6F)c6ccc3[nH]6)C=C5)C=C4)cc1)n2[C@@H](C)C1CC1
REMARK SMILES IDX 15 1 14 2 12 3 13 4 11 6 10 7 9 8 1 9 2 10 3 11 7 12 4 13
REMARK SMILES IDX 6 14 5 15 8 16 76 17 77 18 78 19 79 20 80 21 81 22 16 23
REMARK SMILES IDX 17 24 18 25 19 26 20 27 21 29 22 30 23 31 75 32 24 33 74 34
REMARK SMILES IDX 25 35 26 36 27 37 68 38 28 39 73 40 67 41 69 42 29 43 72 44
REMARK SMILES IDX 66 45 65 46 30 48 56 49 39 50 55 51 40 52 43 53 54 54 70 55
REMARK SMILES IDX 41 56 42 57 53 59 71 60 44 61 31 62 32 63 37 64 33 65 34 66
REMARK SMILES IDX 36 67 38 68 35 69 57 70 58 71 63 72 59 73 60 74 62 75 64 76
REMARK SMILES IDX 61 77 45 78 46 79 51 80 47 81 48 82 50 83 52 84 49 85
REMARK H PARENT 14 5 19 28 69 47 43 58
REMARK Flexibility Score: inf
ROOT
ATOM      1  C   UNL A   1      33.372  32.743  27.829  1.00  0.00     0.116 C 
ENDROOT
BRANCH   1   2
ATOM      2  N   UNL A   1      34.086  31.517  28.122  1.00  0.00    -0.355 N 
ATOM      3  C   UNL A   1      33.911  30.256  27.638  1.00  0.00     0.230 C 
ATOM      4  O   UNL A   1      34.858  29.476  27.802  1.00  0.00    -0.274 OA
ATOM      5  H   UNL A   1      34.814  31.610  28.777  1.00  0.00     0.163 HD
BRANCH   3   6
ATOM      6  C   UNL A   1      32.717  29.811  26.819  1.00  0.00     0.178 C 
BRANCH   6   7
ATOM      7  S   UNL A   1      32.044  28.191  27.082  1.00  0.00    -0.078 SA
BRANCH   7   8
ATOM      8  C   UNL A   1      32.475  26.910  26.000  1.00  0.00     0.171 A 
ATOM      9  C   UNL A   1      36.003  22.985  23.306  1.00  0.00     0.046 C 
ATOM     10  C   UNL A   1      34.858  23.846  23.737  1.00  0.00    -0.030 A 
ATOM     11  C   UNL A   1      33.669  23.881  23.007  1.00  0.00     0.117 A 
ATOM     12  C   UNL A   1      34.957  24.649  24.884  1.00  0.00     0.037 A 
ATOM     13  N   UNL A   1      32.583  24.637  23.289  1.00  0.00    -0.236 NA
ATOM     14  C   UNL A   1      33.860  25.456  25.208  1.00  0.00     0.109 A 
ATOM     15  C   UNL A   1      32.748  25.400  24.390  1.00  0.00     0.160 A 
ATOM     16  N   UNL A   1      33.664  26.361  26.207  1.00  0.00    -0.221 NA
ATOM     17  N   UNL A   1      31.867  26.342  24.897  1.00  0.00    -0.301 N 
BRANCH  17  18
ATOM     18  C   UNL A   1      30.646  26.651  24.167  1.00  0.00     0.091 C 
ATOM     19  C   UNL A   1      29.403  26.045  24.815  1.00  0.00     0.032 C 
BRANCH  18  20
ATOM     20  C   UNL A   1      30.551  28.103  23.754  1.00  0.00     0.012 C 
ATOM     21  C   UNL A   1      31.653  28.828  23.002  1.00  0.00     0.006 C 
ATOM     22  C   UNL A   1      30.401  28.459  22.285  1.00  0.00     0.006 C 
ENDBRANCH  18  20
ENDBRANCH  17  18
ENDBRANCH   7   8
ENDBRANCH   6   7
ENDBRANCH   3   6
ENDBRANCH   1   2
BRANCH   1  23
ATOM     23  C   UNL A   1      33.907  33.998  28.532  1.00  0.00     0.023 C 
BRANCH  23  24
ATOM     24  C   UNL A   1      32.919  35.090  28.959  1.00  0.00     0.023 C 
BRANCH  24  25
ATOM     25  C   UNL A   1      33.492  36.219  29.791  1.00  0.00     0.116 C 
BRANCH  25  26
ATOM     26  N   UNL A   1      32.827  36.384  31.079  1.00  0.00    -0.352 N 
ATOM     27  C   UNL A   1      32.951  35.585  32.205  1.00  0.00     0.251 C 
ATOM     28  H   UNL A   1      32.219  37.154  31.159  1.00  0.00     0.163 HD
ATOM     29  O   UNL A   1      32.105  35.586  33.080  1.00  0.00    -0.269 OA
BRANCH  27  30
ATOM     30  C   UNL A   1      34.143  34.723  32.315  1.00  0.00     0.039 A 
ATOM     31  C   UNL A   1      34.067  33.344  32.117  1.00  0.00     0.014 A 
ATOM     32  C   UNL A   1      35.363  35.341  32.573  1.00  0.00     0.014 A 
ATOM     33  C   UNL A   1      35.249  32.609  32.098  1.00  0.00     0.010 A 
ATOM     34  C   UNL A   1      36.529  34.653  32.365  1.00  0.00     0.010 A 
ATOM     35  C   UNL A   1      36.482  33.277  32.198  1.00  0.00    -0.014 A 
BRANCH  35  36
ATOM     36  C   UNL A   1      37.739  32.554  32.036  1.00  0.00     0.031 A 
ATOM     37  C   UNL A   1      38.524  32.411  33.288  1.00  0.00     0.074 A 
ATOM     38  C   UNL A   1      38.082  31.906  30.900  1.00  0.00     0.049 A 
ATOM     39  N   UNL A   1      39.620  33.019  33.596  1.00  0.00    -0.248 NA
ATOM     40  C   UNL A   1      37.954  31.621  34.392  1.00  0.00     0.031 C 
ATOM     41  C   UNL A   1      37.262  31.681  29.700  1.00  0.00     0.029 A 
ATOM     42  N   UNL A   1      39.225  31.221  30.609  1.00  0.00    -0.354 N 
ATOM     43  C   UNL A   1      40.004  32.508  34.833  1.00  0.00     0.074 A 
ATOM     44  C   UNL A   1      38.858  31.814  35.356  1.00  0.00     0.031 C 
ATOM     45  C   UNL A   1      37.831  30.730  28.928  1.00  0.00     0.029 A 
ATOM     46  C   UNL A   1      39.143  30.434  29.467  1.00  0.00     0.049 A 
ATOM     47  H   UNL A   1      40.038  31.281  31.161  1.00  0.00     0.167 HD
ATOM     48  C   UNL A   1      41.322  32.456  35.177  1.00  0.00     0.037 A 
ATOM     49  C   UNL A   1      40.097  29.604  28.984  1.00  0.00     0.037 A 
ATOM     50  C   UNL A   1      42.114  33.236  34.260  1.00  0.00     0.049 A 
ATOM     51  C   UNL A   1      41.391  30.067  29.526  1.00  0.00     0.074 A 
ATOM     52  C   UNL A   1      42.358  34.570  34.027  1.00  0.00     0.029 A 
ATOM     53  N   UNL A   1      42.479  32.547  33.133  1.00  0.00    -0.354 N 
ATOM     54  N   UNL A   1      41.935  31.211  29.215  1.00  0.00    -0.248 NA
ATOM     55  C   UNL A   1      41.948  29.406  30.700  1.00  0.00     0.031 C 
ATOM     56  C   UNL A   1      42.699  34.673  32.645  1.00  0.00     0.029 A 
ATOM     57  C   UNL A   1      42.698  33.397  32.084  1.00  0.00     0.049 A 
ATOM     58  H   UNL A   1      42.571  31.569  33.085  1.00  0.00     0.167 HD
ATOM     59  C   UNL A   1      42.578  31.606  30.371  1.00  0.00     0.074 A 
ATOM     60  C   UNL A   1      42.712  30.395  31.170  1.00  0.00     0.031 C 
ATOM     61  C   UNL A   1      42.644  32.923  30.718  1.00  0.00     0.037 A 
BRANCH  48  62
ATOM     62  C   UNL A   1      41.964  31.355  35.993  1.00  0.00     0.057 A 
ATOM     63  C   UNL A   1      42.847  31.700  37.035  1.00  0.00     0.134 A 
ATOM     64  C   UNL A   1      42.000  30.000  35.608  1.00  0.00     0.134 A 
ATOM     65  F   UNL A   1      42.931  32.965  37.475  1.00  0.00    -0.206 F 
ATOM     66  C   UNL A   1      43.732  30.778  37.609  1.00  0.00     0.040 A 
ATOM     67  C   UNL A   1      42.844  29.061  36.209  1.00  0.00     0.040 A 
ATOM     68  F   UNL A   1      41.307  29.532  34.563  1.00  0.00    -0.206 F 
ATOM     69  C   UNL A   1      43.734  29.452  37.195  1.00  0.00     0.006 A 
ENDBRANCH  48  62
BRANCH  49  70
ATOM     70  C   UNL A   1      39.953  28.303  28.297  1.00  0.00     0.057 A 
ATOM     71  C   UNL A   1      40.512  28.098  27.027  1.00  0.00     0.134 A 
ATOM     72  C   UNL A   1      39.557  27.151  28.995  1.00  0.00     0.134 A 
ATOM     73  F   UNL A   1      40.938  29.138  26.295  1.00  0.00    -0.206 F 
ATOM     74  C   UNL A   1      40.727  26.816  26.507  1.00  0.00     0.040 A 
ATOM     75  C   UNL A   1      39.762  25.864  28.485  1.00  0.00     0.040 A 
ATOM     76  F   UNL A   1      39.050  27.233  30.234  1.00  0.00    -0.206 F 
ATOM     77  C   UNL A   1      40.371  25.693  27.247  1.00  0.00     0.006 A 
ENDBRANCH  49  70
BRANCH  61  78
ATOM     78  C   UNL A   1      42.475  33.939  29.630  1.00  0.00     0.057 A 
ATOM     79  C   UNL A   1      41.296  34.652  29.375  1.00  0.00     0.134 A 
ATOM     80  C   UNL A   1      43.599  34.279  28.868  1.00  0.00     0.134 A 
ATOM     81  F   UNL A   1      40.188  34.445  30.098  1.00  0.00    -0.206 F 
ATOM     82  C   UNL A   1      41.235  35.641  28.388  1.00  0.00     0.040 A 
ATOM     83  C   UNL A   1      43.560  35.285  27.903  1.00  0.00     0.040 A 
ATOM     84  F   UNL A   1      44.771  33.660  29.083  1.00  0.00    -0.206 F 
ATOM     85  C   UNL A   1      42.372  35.966  27.655  1.00  0.00     0.006 A 
ENDBRANCH  61  78
ENDBRANCH  35  36
ENDBRANCH  27  30
ENDBRANCH  25  26
ENDBRANCH  24  25
ENDBRANCH  23  24
ENDBRANCH   1  23
TORSDOF 15
ENDMDL
