MODEL 1
REMARK VINA RESULT:     -11.3      0.000      0.000
REMARK SMILES NS(=O)(=O)c1ccc(C#Cc2cc(Cl)cc3c2O[C@H](C(F)(F)F)C(C(=O)NCCCCNC(=O)c2ccc(-c4c5nc(c(-c6c(F)cccc6F)c6ccc([nH]6)c(-c6c(F)cccc6F)c6nc(c(-c7c(F)cccc7F)c7ccc4[nH]7)C=C6)C=C5)cc2)=C3)cc1
REMARK SMILES IDX 28 1 27 2 25 3 26 4 24 6 11 7 12 8 17 9 13 10 16 11 18 12
REMARK SMILES IDX 14 13 15 14 89 15 19 16 10 17 9 18 8 19 5 20 6 21 91 22 7 23
REMARK SMILES IDX 90 24 2 25 3 26 4 27 1 28 20 31 21 32 22 33 23 34 29 35
REMARK SMILES IDX 30 36 31 37 32 38 33 39 34 41 35 42 36 43 88 44 37 45 87 46
REMARK SMILES IDX 38 47 39 48 40 49 81 50 41 51 86 52 80 53 82 54 42 55 85 56
REMARK SMILES IDX 79 57 78 58 43 60 69 61 52 62 68 63 53 64 56 65 67 66 83 67
REMARK SMILES IDX 54 68 55 69 66 71 84 72 57 73 44 74 45 75 50 76 46 77 47 78
REMARK SMILES IDX 49 79 51 80 48 81 70 82 71 83 76 84 72 85 73 86 75 87 77 88
REMARK SMILES IDX 74 89 58 90 59 91 64 92 60 93 61 94 63 95 65 96 62 97
REMARK H PARENT 27 5 1 29 1 30 32 40 82 59 56 70
REMARK Flexibility Score: inf
ROOT
ATOM      1  C   UNL A   1      41.159  29.506  28.737  1.00  0.00     0.116 C 
ENDROOT
BRANCH   1   2
ATOM      2  N   UNL A   1      41.099  30.521  29.777  1.00  0.00    -0.352 N 
ATOM      3  C   UNL A   1      40.159  31.353  30.293  1.00  0.00     0.251 C 
ATOM      4  O   UNL A   1      40.528  32.056  31.238  1.00  0.00    -0.270 OA
ATOM      5  H   UNL A   1      41.968  30.635  30.223  1.00  0.00     0.163 HD
BRANCH   3   6
ATOM      6  C   UNL A   1      38.758  31.463  29.792  1.00  0.00     0.067 C 
ATOM      7  C   UNL A   1      34.941  31.839  28.068  1.00  0.00     0.069 A 
ATOM      8  C   UNL A   1      34.340  33.093  27.981  1.00  0.00     0.041 A 
ATOM      9  C   UNL A   1      36.222  31.726  28.625  1.00  0.00     0.143 A 
ATOM     10  C   UNL A   1      35.028  34.218  28.439  1.00  0.00     0.043 A 
ATOM     11  C   UNL A   1      36.918  32.853  29.074  1.00  0.00     0.020 A 
ATOM     12  O   UNL A   1      36.769  30.477  28.661  1.00  0.00    -0.474 OA
ATOM     13  Cl  UNL A   1      34.288  35.768  28.322  1.00  0.00    -0.084 Cl
ATOM     14  C   UNL A   1      36.313  34.108  28.980  1.00  0.00     0.032 A 
ATOM     15  C   UNL A   1      38.281  32.703  29.580  1.00  0.00     0.025 C 
ATOM     16  C   UNL A   1      37.884  30.270  29.553  1.00  0.00     0.314 C 
BRANCH   7  17
ATOM     17  C   UNL A   1      34.250  30.673  27.600  1.00  0.00    -0.058 C 
ATOM     18  C   UNL A   1      33.724  29.665  27.200  1.00  0.00    -0.062 C 
BRANCH  18  19
ATOM     19  C   UNL A   1      33.122  28.442  26.771  1.00  0.00     0.025 A 
ATOM     20  C   UNL A   1      31.954  25.998  26.102  1.00  0.00     0.082 A 
ATOM     21  C   UNL A   1      33.315  26.204  25.860  1.00  0.00     0.023 A 
ATOM     22  C   UNL A   1      31.165  27.016  26.647  1.00  0.00     0.023 A 
ATOM     23  C   UNL A   1      33.897  27.431  26.193  1.00  0.00     0.018 A 
ATOM     24  C   UNL A   1      31.756  28.238  26.981  1.00  0.00     0.018 A 
BRANCH  20  25
ATOM     25  S   UNL A   1      31.260  24.397  25.815  1.00  0.00     0.238 S 
ATOM     26  O   UNL A   1      30.329  24.094  26.877  1.00  0.00    -0.207 OA
ATOM     27  O   UNL A   1      32.318  23.499  25.420  1.00  0.00    -0.207 OA
BRANCH  25  28
ATOM     28  N   UNL A   1      30.301  24.627  24.453  1.00  0.00    -0.225 NA
ATOM     29  H   UNL A   1      29.482  24.021  24.506  1.00  0.00     0.137 HD
ATOM     30  H   UNL A   1      30.838  24.399  23.616  1.00  0.00     0.137 HD
ENDBRANCH  25  28
ENDBRANCH  20  25
ENDBRANCH  18  19
ENDBRANCH   7  17
BRANCH  16  31
ATOM     31  C   UNL A   1      37.383  29.636  30.866  1.00  0.00     0.429 C 
ATOM     32  F   UNL A   1      36.096  29.232  30.736  1.00  0.00    -0.167 F 
ATOM     33  F   UNL A   1      38.092  28.538  31.220  1.00  0.00    -0.167 F 
ATOM     34  F   UNL A   1      37.441  30.492  31.911  1.00  0.00    -0.167 F 
ENDBRANCH  16  31
ENDBRANCH   3   6
ENDBRANCH   1   2
BRANCH   1  35
ATOM     35  C   UNL A   1      41.050  28.094  29.301  1.00  0.00     0.023 C 
BRANCH  35  36
ATOM     36  C   UNL A   1      39.889  27.301  28.715  1.00  0.00     0.023 C 
BRANCH  36  37
ATOM     37  C   UNL A   1      40.158  26.709  27.338  1.00  0.00     0.116 C 
BRANCH  37  38
ATOM     38  N   UNL A   1      40.129  25.250  27.291  1.00  0.00    -0.352 N 
ATOM     39  C   UNL A   1      41.174  24.400  26.990  1.00  0.00     0.251 C 
ATOM     40  H   UNL A   1      39.266  24.824  27.498  1.00  0.00     0.163 HD
ATOM     41  O   UNL A   1      41.002  23.194  26.876  1.00  0.00    -0.269 OA
BRANCH  39  42
ATOM     42  C   UNL A   1      42.501  25.004  26.754  1.00  0.00     0.039 A 
ATOM     43  C   UNL A   1      43.309  25.308  27.847  1.00  0.00     0.014 A 
ATOM     44  C   UNL A   1      42.845  25.431  25.470  1.00  0.00     0.014 A 
ATOM     45  C   UNL A   1      44.312  26.251  27.698  1.00  0.00     0.010 A 
ATOM     46  C   UNL A   1      43.948  26.274  25.306  1.00  0.00     0.010 A 
ATOM     47  C   UNL A   1      44.640  26.759  26.427  1.00  0.00    -0.014 A 
BRANCH  47  48
ATOM     48  C   UNL A   1      45.672  27.829  26.330  1.00  0.00     0.031 A 
ATOM     49  C   UNL A   1      45.313  29.283  26.519  1.00  0.00     0.074 A 
ATOM     50  C   UNL A   1      46.964  27.477  26.171  1.00  0.00     0.049 A 
ATOM     51  N   UNL A   1      46.100  30.333  26.543  1.00  0.00    -0.248 NA
ATOM     52  C   UNL A   1      43.889  29.607  26.696  1.00  0.00     0.031 C 
ATOM     53  C   UNL A   1      47.448  26.106  25.992  1.00  0.00     0.029 A 
ATOM     54  N   UNL A   1      48.106  28.234  26.177  1.00  0.00    -0.354 N 
ATOM     55  C   UNL A   1      45.269  31.433  26.723  1.00  0.00     0.074 A 
ATOM     56  C   UNL A   1      43.913  30.931  26.749  1.00  0.00     0.031 C 
ATOM     57  C   UNL A   1      48.788  26.112  25.981  1.00  0.00     0.029 A 
ATOM     58  C   UNL A   1      49.254  27.489  26.065  1.00  0.00     0.049 A 
ATOM     59  H   UNL A   1      48.103  29.216  26.253  1.00  0.00     0.167 HD
ATOM     60  C   UNL A   1      45.601  32.741  26.868  1.00  0.00     0.037 A 
ATOM     61  C   UNL A   1      50.542  27.871  26.016  1.00  0.00     0.037 A 
ATOM     62  C   UNL A   1      46.951  33.245  26.837  1.00  0.00     0.049 A 
ATOM     63  C   UNL A   1      50.873  29.333  26.103  1.00  0.00     0.074 A 
ATOM     64  C   UNL A   1      47.391  34.551  26.977  1.00  0.00     0.029 A 
ATOM     65  N   UNL A   1      48.083  32.467  26.641  1.00  0.00    -0.354 N 
ATOM     66  N   UNL A   1      50.076  30.358  26.288  1.00  0.00    -0.248 NA
ATOM     67  C   UNL A   1      52.291  29.688  25.977  1.00  0.00     0.031 C 
ATOM     68  C   UNL A   1      48.780  34.570  26.801  1.00  0.00     0.029 A 
ATOM     69  C   UNL A   1      49.215  33.267  26.631  1.00  0.00     0.049 A 
ATOM     70  H   UNL A   1      48.081  31.488  26.525  1.00  0.00     0.167 HD
ATOM     71  C   UNL A   1      50.900  31.476  26.332  1.00  0.00     0.074 A 
ATOM     72  C   UNL A   1      52.259  30.995  26.187  1.00  0.00     0.031 C 
ATOM     73  C   UNL A   1      50.564  32.782  26.478  1.00  0.00     0.037 A 
BRANCH  60  74
ATOM     74  C   UNL A   1      44.473  33.724  27.044  1.00  0.00     0.057 A 
ATOM     75  C   UNL A   1      43.977  34.021  28.321  1.00  0.00     0.134 A 
ATOM     76  C   UNL A   1      43.872  34.374  25.956  1.00  0.00     0.134 A 
ATOM     77  F   UNL A   1      44.494  33.428  29.408  1.00  0.00    -0.206 F 
ATOM     78  C   UNL A   1      42.936  34.932  28.510  1.00  0.00     0.040 A 
ATOM     79  C   UNL A   1      42.854  35.313  26.136  1.00  0.00     0.040 A 
ATOM     80  F   UNL A   1      44.301  34.145  24.705  1.00  0.00    -0.206 F 
ATOM     81  C   UNL A   1      42.380  35.592  27.416  1.00  0.00     0.006 A 
ENDBRANCH  60  74
BRANCH  61  82
ATOM     82  C   UNL A   1      51.621  26.862  25.853  1.00  0.00     0.057 A 
ATOM     83  C   UNL A   1      52.064  26.467  24.585  1.00  0.00     0.134 A 
ATOM     84  C   UNL A   1      52.268  26.306  26.963  1.00  0.00     0.134 A 
ATOM     85  F   UNL A   1      51.479  26.953  23.480  1.00  0.00    -0.206 F 
ATOM     86  C   UNL A   1      53.114  25.563  24.425  1.00  0.00     0.040 A 
ATOM     87  C   UNL A   1      53.346  25.430  26.818  1.00  0.00     0.040 A 
ATOM     88  F   UNL A   1      51.901  26.655  28.205  1.00  0.00    -0.206 F 
ATOM     89  C   UNL A   1      53.769  25.054  25.544  1.00  0.00     0.006 A 
ENDBRANCH  61  82
BRANCH  73  90
ATOM     90  C   UNL A   1      51.700  33.767  26.542  1.00  0.00     0.057 A 
ATOM     91  C   UNL A   1      52.157  34.398  25.377  1.00  0.00     0.134 A 
ATOM     92  C   UNL A   1      52.316  34.125  27.750  1.00  0.00     0.134 A 
ATOM     93  F   UNL A   1      51.628  34.094  24.183  1.00  0.00    -0.206 F 
ATOM     94  C   UNL A   1      53.163  35.365  25.415  1.00  0.00     0.040 A 
ATOM     95  C   UNL A   1      53.293  35.122  27.805  1.00  0.00     0.040 A 
ATOM     96  F   UNL A   1      51.922  33.568  28.905  1.00  0.00    -0.206 F 
ATOM     97  C   UNL A   1      53.719  35.744  26.635  1.00  0.00     0.006 A 
ENDBRANCH  73  90
ENDBRANCH  47  48
ENDBRANCH  39  42
ENDBRANCH  37  38
ENDBRANCH  36  37
ENDBRANCH  35  36
ENDBRANCH   1  35
TORSDOF 16
ENDMDL
MODEL 2
REMARK VINA RESULT:     -11.3      0.497      5.784
REMARK SMILES NS(=O)(=O)c1ccc(C#Cc2cc(Cl)cc3c2O[C@H](C(F)(F)F)C(C(=O)NCCCCNC(=O)c2ccc(-c4c5nc(c(-c6c(F)cccc6F)c6ccc([nH]6)c(-c6c(F)cccc6F)c6nc(c(-c7c(F)cccc7F)c7ccc4[nH]7)C=C6)C=C5)cc2)=C3)cc1
REMARK SMILES IDX 28 1 27 2 25 3 26 4 24 6 11 7 12 8 17 9 13 10 16 11 18 12
REMARK SMILES IDX 14 13 15 14 89 15 19 16 10 17 9 18 8 19 5 20 6 21 91 22 7 23
REMARK SMILES IDX 90 24 2 25 3 26 4 27 1 28 20 31 21 32 22 33 23 34 29 35
REMARK SMILES IDX 30 36 31 37 32 38 33 39 34 41 35 42 36 43 88 44 37 45 87 46
REMARK SMILES IDX 38 47 39 48 40 49 81 50 41 51 86 52 80 53 82 54 42 55 85 56
REMARK SMILES IDX 79 57 78 58 43 60 69 61 52 62 68 63 53 64 56 65 67 66 83 67
REMARK SMILES IDX 54 68 55 69 66 71 84 72 57 73 44 74 45 75 50 76 46 77 47 78
REMARK SMILES IDX 49 79 51 80 48 81 70 82 71 83 76 84 72 85 73 86 75 87 77 88
REMARK SMILES IDX 74 89 58 90 59 91 64 92 60 93 61 94 63 95 65 96 62 97
REMARK H PARENT 27 5 1 29 1 30 32 40 82 59 56 70
REMARK Flexibility Score: inf
ROOT
ATOM      1  C   UNL A   1      41.432  29.246  28.734  1.00  0.00     0.116 C 
ENDROOT
BRANCH   1   2
ATOM      2  N   UNL A   1      41.381  30.309  29.724  1.00  0.00    -0.352 N 
ATOM      3  C   UNL A   1      40.444  31.158  30.216  1.00  0.00     0.251 C 
ATOM      4  O   UNL A   1      40.823  31.908  31.120  1.00  0.00    -0.270 OA
ATOM      5  H   UNL A   1      42.258  30.450  30.149  1.00  0.00     0.163 HD
BRANCH   3   6
ATOM      6  C   UNL A   1      39.033  31.233  29.735  1.00  0.00     0.067 C 
ATOM      7  C   UNL A   1      35.184  31.522  28.068  1.00  0.00     0.069 A 
ATOM      8  C   UNL A   1      34.544  32.758  28.011  1.00  0.00     0.041 A 
ATOM      9  C   UNL A   1      36.476  31.438  28.606  1.00  0.00     0.143 A 
ATOM     10  C   UNL A   1      35.203  33.895  28.480  1.00  0.00     0.043 A 
ATOM     11  C   UNL A   1      37.143  32.578  29.067  1.00  0.00     0.020 A 
ATOM     12  O   UNL A   1      37.061  30.206  28.612  1.00  0.00    -0.474 OA
ATOM     13  Cl  UNL A   1      34.414  35.423  28.401  1.00  0.00    -0.084 Cl
ATOM     14  C   UNL A   1      36.498  33.815  29.003  1.00  0.00     0.032 A 
ATOM     15  C   UNL A   1      38.516  32.461  29.552  1.00  0.00     0.025 C 
ATOM     16  C   UNL A   1      38.193  30.018  29.486  1.00  0.00     0.314 C 
BRANCH   7  17
ATOM     17  C   UNL A   1      34.524  30.344  27.588  1.00  0.00    -0.058 C 
ATOM     18  C   UNL A   1      33.925  29.362  27.226  1.00  0.00    -0.062 C 
BRANCH  18  19
ATOM     19  C   UNL A   1      33.169  28.233  26.783  1.00  0.00     0.025 A 
ATOM     20  C   UNL A   1      31.702  25.965  26.082  1.00  0.00     0.082 A 
ATOM     21  C   UNL A   1      33.065  26.032  25.774  1.00  0.00     0.023 A 
ATOM     22  C   UNL A   1      31.061  27.037  26.710  1.00  0.00     0.023 A 
ATOM     23  C   UNL A   1      33.796  27.171  26.123  1.00  0.00     0.018 A 
ATOM     24  C   UNL A   1      31.800  28.170  27.060  1.00  0.00     0.018 A 
BRANCH  20  25
ATOM     25  S   UNL A   1      30.821  24.464  25.771  1.00  0.00     0.238 S 
ATOM     26  O   UNL A   1      29.854  24.261  26.825  1.00  0.00    -0.207 OA
ATOM     27  O   UNL A   1      31.764  23.450  25.366  1.00  0.00    -0.207 OA
BRANCH  25  28
ATOM     28  N   UNL A   1      29.903  24.827  24.408  1.00  0.00    -0.225 NA
ATOM     29  H   UNL A   1      29.183  24.117  24.283  1.00  0.00     0.137 HD
ATOM     30  H   UNL A   1      30.507  24.845  23.586  1.00  0.00     0.137 HD
ENDBRANCH  25  28
ENDBRANCH  20  25
ENDBRANCH  18  19
ENDBRANCH   7  17
BRANCH  16  31
ATOM     31  C   UNL A   1      37.730  29.346  30.793  1.00  0.00     0.429 C 
ATOM     32  F   UNL A   1      37.855  30.203  31.836  1.00  0.00    -0.167 F 
ATOM     33  F   UNL A   1      36.427  28.977  30.758  1.00  0.00    -0.167 F 
ATOM     34  F   UNL A   1      38.443  28.236  31.087  1.00  0.00    -0.167 F 
ENDBRANCH  16  31
ENDBRANCH   3   6
ENDBRANCH   1   2
BRANCH   1  35
ATOM     35  C   UNL A   1      41.452  27.861  29.372  1.00  0.00     0.023 C 
BRANCH  35  36
ATOM     36  C   UNL A   1      40.371  26.935  28.830  1.00  0.00     0.023 C 
BRANCH  36  37
ATOM     37  C   UNL A   1      40.551  26.539  27.370  1.00  0.00     0.116 C 
BRANCH  37  38
ATOM     38  N   UNL A   1      40.544  25.099  27.128  1.00  0.00    -0.352 N 
ATOM     39  C   UNL A   1      41.608  24.307  26.750  1.00  0.00     0.251 C 
ATOM     40  H   UNL A   1      39.680  24.640  27.250  1.00  0.00     0.163 HD
ATOM     41  O   UNL A   1      41.456  23.125  26.470  1.00  0.00    -0.269 OA
BRANCH  39  42
ATOM     42  C   UNL A   1      42.933  24.950  26.637  1.00  0.00     0.039 A 
ATOM     43  C   UNL A   1      43.670  25.184  27.796  1.00  0.00     0.014 A 
ATOM     44  C   UNL A   1      43.341  25.477  25.411  1.00  0.00     0.014 A 
ATOM     45  C   UNL A   1      44.660  26.153  27.775  1.00  0.00     0.010 A 
ATOM     46  C   UNL A   1      44.433  26.349  25.374  1.00  0.00     0.010 A 
ATOM     47  C   UNL A   1      45.049  26.761  26.567  1.00  0.00    -0.014 A 
BRANCH  47  48
ATOM     48  C   UNL A   1      46.062  27.853  26.611  1.00  0.00     0.031 A 
ATOM     49  C   UNL A   1      47.534  27.563  26.440  1.00  0.00     0.074 A 
ATOM     50  C   UNL A   1      45.641  29.130  26.703  1.00  0.00     0.049 A 
ATOM     51  N   UNL A   1      48.540  28.403  26.375  1.00  0.00    -0.248 NA
ATOM     52  C   UNL A   1      47.934  26.151  26.336  1.00  0.00     0.031 C 
ATOM     53  C   UNL A   1      44.245  29.549  26.857  1.00  0.00     0.029 A 
ATOM     54  N   UNL A   1      46.335  30.309  26.638  1.00  0.00    -0.354 N 
ATOM     55  C   UNL A   1      49.683  27.624  26.237  1.00  0.00     0.074 A 
ATOM     56  C   UNL A   1      49.254  26.243  26.282  1.00  0.00     0.031 C 
ATOM     57  C   UNL A   1      44.179  30.885  26.800  1.00  0.00     0.029 A 
ATOM     58  C   UNL A   1      45.530  31.421  26.691  1.00  0.00     0.049 A 
ATOM     59  H   UNL A   1      47.316  30.356  26.561  1.00  0.00     0.167 HD
ATOM     60  C   UNL A   1      50.972  28.017  26.074  1.00  0.00     0.037 A 
ATOM     61  C   UNL A   1      45.842  32.728  26.673  1.00  0.00     0.037 A 
ATOM     62  C   UNL A   1      51.402  29.393  26.035  1.00  0.00     0.049 A 
ATOM     63  C   UNL A   1      47.285  33.132  26.568  1.00  0.00     0.074 A 
ATOM     64  C   UNL A   1      52.683  29.894  25.872  1.00  0.00     0.029 A 
ATOM     65  N   UNL A   1      50.564  30.490  26.173  1.00  0.00    -0.354 N 
ATOM     66  N   UNL A   1      48.350  32.382  26.424  1.00  0.00    -0.248 NA
ATOM     67  C   UNL A   1      47.563  34.572  26.621  1.00  0.00     0.031 C 
ATOM     68  C   UNL A   1      52.627  31.289  25.976  1.00  0.00     0.029 A 
ATOM     69  C   UNL A   1      51.302  31.663  26.124  1.00  0.00     0.049 A 
ATOM     70  H   UNL A   1      49.587  30.442  26.289  1.00  0.00     0.167 HD
ATOM     71  C   UNL A   1      49.423  33.262  26.337  1.00  0.00     0.074 A 
ATOM     72  C   UNL A   1      48.870  34.599  26.412  1.00  0.00     0.031 C 
ATOM     73  C   UNL A   1      50.746  32.989  26.208  1.00  0.00     0.037 A 
BRANCH  60  74
ATOM     74  C   UNL A   1      52.014  26.936  25.956  1.00  0.00     0.057 A 
ATOM     75  C   UNL A   1      52.724  26.502  27.083  1.00  0.00     0.134 A 
ATOM     76  C   UNL A   1      52.321  26.326  24.731  1.00  0.00     0.134 A 
ATOM     77  F   UNL A   1      52.494  27.050  28.286  1.00  0.00    -0.206 F 
ATOM     78  C   UNL A   1      53.692  25.499  26.999  1.00  0.00     0.040 A 
ATOM     79  C   UNL A   1      53.261  25.297  24.641  1.00  0.00     0.040 A 
ATOM     80  F   UNL A   1      51.674  26.684  23.611  1.00  0.00    -0.206 F 
ATOM     81  C   UNL A   1      53.952  24.883  25.778  1.00  0.00     0.006 A 
ENDBRANCH  60  74
BRANCH  61  82
ATOM     82  C   UNL A   1      44.776  33.758  26.780  1.00  0.00     0.057 A 
ATOM     83  C   UNL A   1      44.060  34.184  25.655  1.00  0.00     0.134 A 
ATOM     84  C   UNL A   1      44.414  34.303  28.018  1.00  0.00     0.134 A 
ATOM     85  F   UNL A   1      44.363  33.710  24.438  1.00  0.00    -0.206 F 
ATOM     86  C   UNL A   1      43.020  35.109  25.756  1.00  0.00     0.040 A 
ATOM     87  C   UNL A   1      43.351  35.200  28.139  1.00  0.00     0.040 A 
ATOM     88  F   UNL A   1      45.052  33.925  29.136  1.00  0.00    -0.206 F 
ATOM     89  C   UNL A   1      42.653  35.606  27.004  1.00  0.00     0.006 A 
ENDBRANCH  61  82
BRANCH  73  90
ATOM     90  C   UNL A   1      51.668  34.172  26.084  1.00  0.00     0.057 A 
ATOM     91  C   UNL A   1      52.053  34.640  24.820  1.00  0.00     0.134 A 
ATOM     92  C   UNL A   1      52.142  34.875  27.200  1.00  0.00     0.134 A 
ATOM     93  F   UNL A   1      51.652  34.009  23.706  1.00  0.00    -0.206 F 
ATOM     94  C   UNL A   1      52.852  35.774  24.672  1.00  0.00     0.040 A 
ATOM     95  C   UNL A   1      52.907  36.036  27.063  1.00  0.00     0.040 A 
ATOM     96  F   UNL A   1      51.806  34.488  28.440  1.00  0.00    -0.206 F 
ATOM     97  C   UNL A   1      53.264  36.488  25.795  1.00  0.00     0.006 A 
ENDBRANCH  73  90
ENDBRANCH  47  48
ENDBRANCH  39  42
ENDBRANCH  37  38
ENDBRANCH  36  37
ENDBRANCH  35  36
ENDBRANCH   1  35
TORSDOF 16
ENDMDL
MODEL 3
REMARK VINA RESULT:     -11.1      5.570     12.820
REMARK SMILES NS(=O)(=O)c1ccc(C#Cc2cc(Cl)cc3c2O[C@H](C(F)(F)F)C(C(=O)NCCCCNC(=O)c2ccc(-c4c5nc(c(-c6c(F)cccc6F)c6ccc([nH]6)c(-c6c(F)cccc6F)c6nc(c(-c7c(F)cccc7F)c7ccc4[nH]7)C=C6)C=C5)cc2)=C3)cc1
REMARK SMILES IDX 28 1 27 2 25 3 26 4 24 6 11 7 12 8 17 9 13 10 16 11 18 12
REMARK SMILES IDX 14 13 15 14 89 15 19 16 10 17 9 18 8 19 5 20 6 21 91 22 7 23
REMARK SMILES IDX 90 24 2 25 3 26 4 27 1 28 20 31 21 32 22 33 23 34 29 35
REMARK SMILES IDX 30 36 31 37 32 38 33 39 34 41 35 42 36 43 88 44 37 45 87 46
REMARK SMILES IDX 38 47 39 48 40 49 81 50 41 51 86 52 80 53 82 54 42 55 85 56
REMARK SMILES IDX 79 57 78 58 43 60 69 61 52 62 68 63 53 64 56 65 67 66 83 67
REMARK SMILES IDX 54 68 55 69 66 71 84 72 57 73 44 74 45 75 50 76 46 77 47 78
REMARK SMILES IDX 49 79 51 80 48 81 70 82 71 83 76 84 72 85 73 86 75 87 77 88
REMARK SMILES IDX 74 89 58 90 59 91 64 92 60 93 61 94 63 95 65 96 62 97
REMARK H PARENT 27 5 1 29 1 30 32 40 82 59 56 70
REMARK Flexibility Score: inf
ROOT
ATOM      1  C   UNL A   1      50.313  26.212  30.891  1.00  0.00     0.116 C 
ENDROOT
BRANCH   1   2
ATOM      2  N   UNL A   1      50.188  27.585  30.429  1.00  0.00    -0.352 N 
ATOM      3  C   UNL A   1      49.702  28.218  29.332  1.00  0.00     0.251 C 
ATOM      4  O   UNL A   1      49.753  29.450  29.359  1.00  0.00    -0.270 OA
ATOM      5  H   UNL A   1      50.553  28.222  31.084  1.00  0.00     0.163 HD
BRANCH   3   6
ATOM      6  C   UNL A   1      49.138  27.527  28.135  1.00  0.00     0.067 C 
ATOM      7  C   UNL A   1      47.826  25.376  24.769  1.00  0.00     0.069 A 
ATOM      8  C   UNL A   1      48.240  25.761  23.496  1.00  0.00     0.041 A 
ATOM      9  C   UNL A   1      48.285  26.085  25.887  1.00  0.00     0.143 A 
ATOM     10  C   UNL A   1      49.113  26.840  23.354  1.00  0.00     0.043 A 
ATOM     11  C   UNL A   1      49.169  27.160  25.749  1.00  0.00     0.020 A 
ATOM     12  O   UNL A   1      47.866  25.646  27.108  1.00  0.00    -0.474 OA
ATOM     13  Cl  UNL A   1      49.630  27.310  21.780  1.00  0.00    -0.084 Cl
ATOM     14  C   UNL A   1      49.584  27.539  24.470  1.00  0.00     0.032 A 
ATOM     15  C   UNL A   1      49.683  27.827  26.943  1.00  0.00     0.025 C 
ATOM     16  C   UNL A   1      47.997  26.559  28.218  1.00  0.00     0.314 C 
BRANCH   7  17
ATOM     17  C   UNL A   1      46.931  24.268  24.933  1.00  0.00    -0.058 C 
ATOM     18  C   UNL A   1      46.142  23.373  25.104  1.00  0.00    -0.062 C 
BRANCH  18  19
ATOM     19  C   UNL A   1      45.167  22.343  25.278  1.00  0.00     0.025 A 
ATOM     20  C   UNL A   1      43.347  20.283  25.762  1.00  0.00     0.082 A 
ATOM     21  C   UNL A   1      44.359  20.105  24.813  1.00  0.00     0.023 A 
ATOM     22  C   UNL A   1      43.219  21.495  26.447  1.00  0.00     0.023 A 
ATOM     23  C   UNL A   1      45.267  21.140  24.570  1.00  0.00     0.018 A 
ATOM     24  C   UNL A   1      44.134  22.523  26.202  1.00  0.00     0.018 A 
BRANCH  20  25
ATOM     25  S   UNL A   1      42.297  18.920  26.168  1.00  0.00     0.238 S 
ATOM     26  O   UNL A   1      42.948  17.693  25.771  1.00  0.00    -0.207 OA
ATOM     27  O   UNL A   1      40.945  19.249  25.787  1.00  0.00    -0.207 OA
BRANCH  25  28
ATOM     28  N   UNL A   1      42.322  18.897  27.850  1.00  0.00    -0.225 NA
ATOM     29  H   UNL A   1      41.832  19.715  28.210  1.00  0.00     0.137 HD
ATOM     30  H   UNL A   1      43.288  18.908  28.177  1.00  0.00     0.137 HD
ENDBRANCH  25  28
ENDBRANCH  20  25
ENDBRANCH  18  19
ENDBRANCH   7  17
BRANCH  16  31
ATOM     31  C   UNL A   1      46.649  27.261  28.470  1.00  0.00     0.429 C 
ATOM     32  F   UNL A   1      46.531  27.607  29.776  1.00  0.00    -0.167 F 
ATOM     33  F   UNL A   1      46.516  28.408  27.761  1.00  0.00    -0.167 F 
ATOM     34  F   UNL A   1      45.590  26.482  28.155  1.00  0.00    -0.167 F 
ENDBRANCH  16  31
ENDBRANCH   3   6
ENDBRANCH   1   2
BRANCH   1  35
ATOM     35  C   UNL A   1      48.969  25.612  31.289  1.00  0.00     0.023 C 
BRANCH  35  36
ATOM     36  C   UNL A   1      48.606  25.866  32.747  1.00  0.00     0.023 C 
BRANCH  36  37
ATOM     37  C   UNL A   1      47.620  24.867  33.337  1.00  0.00     0.116 C 
BRANCH  37  38
ATOM     38  N   UNL A   1      47.836  24.566  34.750  1.00  0.00    -0.352 N 
ATOM     39  C   UNL A   1      47.171  25.102  35.833  1.00  0.00     0.251 C 
ATOM     40  H   UNL A   1      48.537  23.904  34.952  1.00  0.00     0.163 HD
ATOM     41  O   UNL A   1      47.516  24.853  36.980  1.00  0.00    -0.269 OA
BRANCH  39  42
ATOM     42  C   UNL A   1      46.060  26.037  35.559  1.00  0.00     0.039 A 
ATOM     43  C   UNL A   1      44.765  25.534  35.455  1.00  0.00     0.014 A 
ATOM     44  C   UNL A   1      46.341  27.363  35.226  1.00  0.00     0.014 A 
ATOM     45  C   UNL A   1      43.812  26.274  34.775  1.00  0.00     0.010 A 
ATOM     46  C   UNL A   1      45.333  28.153  34.667  1.00  0.00     0.010 A 
ATOM     47  C   UNL A   1      44.083  27.590  34.359  1.00  0.00    -0.014 A 
BRANCH  47  48
ATOM     48  C   UNL A   1      43.053  28.315  33.563  1.00  0.00     0.031 A 
ATOM     49  C   UNL A   1      42.817  27.991  32.107  1.00  0.00     0.074 A 
ATOM     50  C   UNL A   1      42.253  29.203  34.186  1.00  0.00     0.049 A 
ATOM     51  N   UNL A   1      41.910  28.472  31.290  1.00  0.00    -0.248 NA
ATOM     52  C   UNL A   1      43.716  27.008  31.482  1.00  0.00     0.031 C 
ATOM     53  C   UNL A   1      42.363  29.596  35.593  1.00  0.00     0.029 A 
ATOM     54  N   UNL A   1      41.165  29.901  33.732  1.00  0.00    -0.354 N 
ATOM     55  C   UNL A   1      42.139  27.863  30.060  1.00  0.00     0.074 A 
ATOM     56  C   UNL A   1      43.302  27.019  30.224  1.00  0.00     0.031 C 
ATOM     57  C   UNL A   1      41.342  30.404  35.905  1.00  0.00     0.029 A 
ATOM     58  C   UNL A   1      40.556  30.655  34.705  1.00  0.00     0.049 A 
ATOM     59  H   UNL A   1      40.852  29.867  32.799  1.00  0.00     0.167 HD
ATOM     60  C   UNL A   1      41.440  27.982  28.904  1.00  0.00     0.037 A 
ATOM     61  C   UNL A   1      39.491  31.474  34.638  1.00  0.00     0.037 A 
ATOM     62  C   UNL A   1      40.284  28.828  28.737  1.00  0.00     0.049 A 
ATOM     63  C   UNL A   1      38.783  31.643  33.324  1.00  0.00     0.074 A 
ATOM     64  C   UNL A   1      39.505  29.015  27.607  1.00  0.00     0.029 A 
ATOM     65  N   UNL A   1      39.745  29.638  29.726  1.00  0.00    -0.354 N 
ATOM     66  N   UNL A   1      39.004  31.049  32.176  1.00  0.00    -0.248 NA
ATOM     67  C   UNL A   1      37.672  32.601  33.303  1.00  0.00     0.031 C 
ATOM     68  C   UNL A   1      38.538  29.985  27.894  1.00  0.00     0.029 A 
ATOM     69  C   UNL A   1      38.662  30.344  29.226  1.00  0.00     0.049 A 
ATOM     70  H   UNL A   1      40.083  29.701  30.649  1.00  0.00     0.167 HD
ATOM     71  C   UNL A   1      38.039  31.538  31.305  1.00  0.00     0.074 A 
ATOM     72  C   UNL A   1      37.214  32.450  32.070  1.00  0.00     0.031 C 
ATOM     73  C   UNL A   1      37.851  31.258  29.990  1.00  0.00     0.037 A 
BRANCH  60  74
ATOM     74  C   UNL A   1      41.931  27.197  27.716  1.00  0.00     0.057 A 
ATOM     75  C   UNL A   1      41.402  25.931  27.429  1.00  0.00     0.134 A 
ATOM     76  C   UNL A   1      42.927  27.684  26.858  1.00  0.00     0.134 A 
ATOM     77  F   UNL A   1      40.455  25.394  28.213  1.00  0.00    -0.206 F 
ATOM     78  C   UNL A   1      41.838  25.186  26.331  1.00  0.00     0.040 A 
ATOM     79  C   UNL A   1      43.346  26.963  25.737  1.00  0.00     0.040 A 
ATOM     80  F   UNL A   1      43.473  28.892  27.066  1.00  0.00    -0.206 F 
ATOM     81  C   UNL A   1      42.802  25.708  25.473  1.00  0.00     0.006 A 
ENDBRANCH  60  74
BRANCH  61  82
ATOM     82  C   UNL A   1      39.037  32.219  35.841  1.00  0.00     0.057 A 
ATOM     83  C   UNL A   1      39.435  33.541  36.071  1.00  0.00     0.134 A 
ATOM     84  C   UNL A   1      38.156  31.641  36.762  1.00  0.00     0.134 A 
ATOM     85  F   UNL A   1      40.287  34.150  35.233  1.00  0.00    -0.206 F 
ATOM     86  C   UNL A   1      38.968  34.265  37.168  1.00  0.00     0.040 A 
ATOM     87  C   UNL A   1      37.650  32.366  37.843  1.00  0.00     0.040 A 
ATOM     88  F   UNL A   1      37.726  30.382  36.589  1.00  0.00    -0.206 F 
ATOM     89  C   UNL A   1      38.060  33.682  38.049  1.00  0.00     0.006 A 
ENDBRANCH  61  82
BRANCH  73  90
ATOM     90  C   UNL A   1      36.671  31.912  29.325  1.00  0.00     0.057 A 
ATOM     91  C   UNL A   1      36.742  33.251  28.913  1.00  0.00     0.134 A 
ATOM     92  C   UNL A   1      35.484  31.219  29.049  1.00  0.00     0.134 A 
ATOM     93  F   UNL A   1      37.840  33.982  29.156  1.00  0.00    -0.206 F 
ATOM     94  C   UNL A   1      35.690  33.864  28.233  1.00  0.00     0.040 A 
ATOM     95  C   UNL A   1      34.441  31.810  28.332  1.00  0.00     0.040 A 
ATOM     96  F   UNL A   1      35.349  29.932  29.406  1.00  0.00    -0.206 F 
ATOM     97  C   UNL A   1      34.543  33.136  27.922  1.00  0.00     0.006 A 
ENDBRANCH  73  90
ENDBRANCH  47  48
ENDBRANCH  39  42
ENDBRANCH  37  38
ENDBRANCH  36  37
ENDBRANCH  35  36
ENDBRANCH   1  35
TORSDOF 16
ENDMDL
