MODEL 1
REMARK VINA RESULT:     -11.3      0.000      0.000
REMARK SMILES [NH3+][C@@H](CNc1ccc(C(=O)NCCCCNC(=O)c2ccc(-c3c4nc(c(-c5c(F)cccc5F)c5ccc([nH]5)c(-c5c(F)cccc5F)c5nc(c(-c6c(F)cccc6F)c6ccc3[nH]6)C=C5)C=C4)cc2)c(F)c1F)c1ccccc1
REMARK SMILES IDX 12 1 11 2 9 3 10 4 8 6 5 7 6 8 75 9 7 10 73 11 76 12 74 13
REMARK SMILES IDX 4 14 3 16 2 17 1 18 77 22 78 23 82 24 79 25 81 26 80 27
REMARK SMILES IDX 13 28 14 29 15 30 16 31 17 32 18 34 19 35 20 36 72 37 21 38
REMARK SMILES IDX 71 39 22 40 23 41 24 42 65 43 25 44 70 45 64 46 66 47 26 48
REMARK SMILES IDX 69 49 63 50 62 51 27 53 53 54 36 55 52 56 37 57 40 58 51 59
REMARK SMILES IDX 67 60 38 61 39 62 50 64 68 65 41 66 28 67 29 68 34 69 30 70
REMARK SMILES IDX 31 71 33 72 35 73 32 74 54 75 55 76 60 77 56 78 57 79 59 80
REMARK SMILES IDX 61 81 58 82 42 83 43 84 48 85 44 86 45 87 47 88 49 89 46 90
REMARK H PARENT 11 5 4 15 1 19 1 20 1 21 16 33 66 52 40 63
REMARK Flexibility Score: inf
ROOT
ATOM      1  C   UNL A   1      34.995  20.711  25.220  1.00  0.00     0.116 C 
ENDROOT
BRANCH   1   2
ATOM      2  N   UNL A   1      34.407  21.098  26.488  1.00  0.00    -0.352 N 
ATOM      3  C   UNL A   1      33.523  22.104  26.789  1.00  0.00     0.254 C 
ATOM      4  O   UNL A   1      33.166  22.250  27.957  1.00  0.00    -0.269 OA
ATOM      5  H   UNL A   1      34.689  20.553  27.259  1.00  0.00     0.163 HD
BRANCH   3   6
ATOM      6  C   UNL A   1      33.042  23.069  25.778  1.00  0.00     0.078 A 
ATOM      7  C   UNL A   1      31.955  24.862  23.867  1.00  0.00     0.074 A 
ATOM      8  C   UNL A   1      31.258  23.713  24.249  1.00  0.00     0.030 A 
ATOM      9  C   UNL A   1      33.240  25.043  24.411  1.00  0.00     0.182 A 
ATOM     10  C   UNL A   1      31.790  22.827  25.196  1.00  0.00     0.019 A 
ATOM     11  C   UNL A   1      33.785  24.156  25.336  1.00  0.00     0.173 A 
ATOM     12  F   UNL A   1      33.955  26.119  24.040  1.00  0.00    -0.201 F 
ATOM     13  F   UNL A   1      35.035  24.369  25.777  1.00  0.00    -0.203 F 
BRANCH   7  14
ATOM     14  N   UNL A   1      31.447  25.803  22.985  1.00  0.00    -0.376 N 
ATOM     15  H   UNL A   1      31.845  25.851  22.086  1.00  0.00     0.160 HD
BRANCH  14  16
ATOM     16  C   UNL A   1      30.359  26.729  23.299  1.00  0.00     0.183 C 
BRANCH  16  17
ATOM     17  C   UNL A   1      30.878  28.187  23.549  1.00  0.00     0.231 C 
BRANCH  17  18
ATOM     18  N   UNL A   1      31.651  28.649  22.373  1.00  0.00    -0.350 N 
ATOM     19  H   UNL A   1      32.582  28.943  22.672  1.00  0.00     0.345 HD
ATOM     20  H   UNL A   1      31.170  29.436  21.938  1.00  0.00     0.345 HD
ATOM     21  H   UNL A   1      31.735  27.887  21.700  1.00  0.00     0.345 HD
ENDBRANCH  17  18
BRANCH  17  22
ATOM     22  C   UNL A   1      31.646  28.391  24.857  1.00  0.00     0.011 A 
ATOM     23  C   UNL A   1      32.818  29.168  24.906  1.00  0.00     0.010 A 
ATOM     24  C   UNL A   1      31.251  27.745  26.044  1.00  0.00     0.010 A 
ATOM     25  C   UNL A   1      33.530  29.335  26.099  1.00  0.00     0.001 A 
ATOM     26  C   UNL A   1      31.962  27.911  27.236  1.00  0.00     0.001 A 
ATOM     27  C   UNL A   1      33.098  28.713  27.265  1.00  0.00     0.000 A 
ENDBRANCH  17  22
ENDBRANCH  16  17
ENDBRANCH  14  16
ENDBRANCH   7  14
ENDBRANCH   3   6
ENDBRANCH   1   2
BRANCH   1  28
ATOM     28  C   UNL A   1      36.378  21.313  24.975  1.00  0.00     0.023 C 
BRANCH  28  29
ATOM     29  C   UNL A   1      37.545  20.329  24.885  1.00  0.00     0.023 C 
BRANCH  29  30
ATOM     30  C   UNL A   1      38.790  20.677  25.694  1.00  0.00     0.116 C 
BRANCH  30  31
ATOM     31  N   UNL A   1      39.806  19.635  25.684  1.00  0.00    -0.352 N 
ATOM     32  C   UNL A   1      41.133  19.672  26.045  1.00  0.00     0.251 C 
ATOM     33  H   UNL A   1      39.491  18.758  25.365  1.00  0.00     0.163 HD
ATOM     34  O   UNL A   1      41.838  18.683  25.874  1.00  0.00    -0.269 OA
BRANCH  32  35
ATOM     35  C   UNL A   1      41.732  20.910  26.589  1.00  0.00     0.039 A 
ATOM     36  C   UNL A   1      42.305  21.821  25.696  1.00  0.00     0.014 A 
ATOM     37  C   UNL A   1      41.724  21.188  27.958  1.00  0.00     0.014 A 
ATOM     38  C   UNL A   1      42.763  23.057  26.161  1.00  0.00     0.010 A 
ATOM     39  C   UNL A   1      42.114  22.447  28.411  1.00  0.00     0.010 A 
ATOM     40  C   UNL A   1      42.613  23.403  27.513  1.00  0.00    -0.014 A 
BRANCH  40  41
ATOM     41  C   UNL A   1      42.907  24.779  27.993  1.00  0.00     0.031 A 
ATOM     42  C   UNL A   1      44.301  25.175  28.387  1.00  0.00     0.074 A 
ATOM     43  C   UNL A   1      41.890  25.648  28.157  1.00  0.00     0.049 A 
ATOM     44  N   UNL A   1      44.722  26.297  28.915  1.00  0.00    -0.248 NA
ATOM     45  C   UNL A   1      45.357  24.171  28.184  1.00  0.00     0.031 C 
ATOM     46  C   UNL A   1      40.482  25.371  27.863  1.00  0.00     0.029 A 
ATOM     47  N   UNL A   1      41.880  26.938  28.627  1.00  0.00    -0.354 N 
ATOM     48  C   UNL A   1      46.085  26.130  29.122  1.00  0.00     0.074 A 
ATOM     49  C   UNL A   1      46.414  24.785  28.700  1.00  0.00     0.031 C 
ATOM     50  C   UNL A   1      39.750  26.461  28.142  1.00  0.00     0.029 A 
ATOM     51  C   UNL A   1      40.627  27.500  28.669  1.00  0.00     0.049 A 
ATOM     52  H   UNL A   1      42.695  27.416  28.907  1.00  0.00     0.167 HD
ATOM     53  C   UNL A   1      46.983  27.023  29.602  1.00  0.00     0.037 A 
ATOM     54  C   UNL A   1      40.226  28.713  29.096  1.00  0.00     0.037 A 
ATOM     55  C   UNL A   1      46.663  28.370  29.997  1.00  0.00     0.049 A 
ATOM     56  C   UNL A   1      41.243  29.683  29.626  1.00  0.00     0.074 A 
ATOM     57  C   UNL A   1      47.519  29.368  30.430  1.00  0.00     0.029 A 
ATOM     58  N   UNL A   1      45.384  28.906  30.008  1.00  0.00    -0.354 N 
ATOM     59  N   UNL A   1      42.538  29.532  29.754  1.00  0.00    -0.248 NA
ATOM     60  C   UNL A   1      40.742  30.991  30.069  1.00  0.00     0.031 C 
ATOM     61  C   UNL A   1      46.754  30.498  30.735  1.00  0.00     0.029 A 
ATOM     62  C   UNL A   1      45.426  30.215  30.460  1.00  0.00     0.049 A 
ATOM     63  H   UNL A   1      44.568  28.428  29.736  1.00  0.00     0.167 HD
ATOM     64  C   UNL A   1      43.009  30.729  30.276  1.00  0.00     0.074 A 
ATOM     65  C   UNL A   1      41.864  31.602  30.425  1.00  0.00     0.031 C 
ATOM     66  C   UNL A   1      44.278  31.073  30.604  1.00  0.00     0.037 A 
BRANCH  53  67
ATOM     67  C   UNL A   1      48.409  26.573  29.718  1.00  0.00     0.057 A 
ATOM     68  C   UNL A   1      49.341  26.816  28.702  1.00  0.00     0.134 A 
ATOM     69  C   UNL A   1      48.865  25.929  30.876  1.00  0.00     0.134 A 
ATOM     70  F   UNL A   1      48.964  27.419  27.565  1.00  0.00    -0.206 F 
ATOM     71  C   UNL A   1      50.673  26.416  28.823  1.00  0.00     0.040 A 
ATOM     72  C   UNL A   1      50.199  25.545  31.018  1.00  0.00     0.040 A 
ATOM     73  F   UNL A   1      48.023  25.672  31.889  1.00  0.00    -0.206 F 
ATOM     74  C   UNL A   1      51.107  25.784  29.988  1.00  0.00     0.006 A 
ENDBRANCH  53  67
BRANCH  54  75
ATOM     75  C   UNL A   1      38.791  29.086  29.029  1.00  0.00     0.057 A 
ATOM     76  C   UNL A   1      38.227  29.557  27.838  1.00  0.00     0.134 A 
ATOM     77  C   UNL A   1      37.957  28.993  30.148  1.00  0.00     0.134 A 
ATOM     78  F   UNL A   1      38.983  29.687  26.738  1.00  0.00    -0.206 F 
ATOM     79  C   UNL A   1      36.886  29.937  27.766  1.00  0.00     0.040 A 
ATOM     80  C   UNL A   1      36.609  29.350  30.085  1.00  0.00     0.040 A 
ATOM     81  F   UNL A   1      38.438  28.543  31.317  1.00  0.00    -0.206 F 
ATOM     82  C   UNL A   1      36.072  29.830  28.892  1.00  0.00     0.006 A 
ENDBRANCH  54  75
BRANCH  66  83
ATOM     83  C   UNL A   1      44.494  32.456  31.138  1.00  0.00     0.057 A 
ATOM     84  C   UNL A   1      44.727  33.543  30.285  1.00  0.00     0.134 A 
ATOM     85  C   UNL A   1      44.439  32.709  32.513  1.00  0.00     0.134 A 
ATOM     86  F   UNL A   1      44.808  33.362  28.959  1.00  0.00    -0.206 F 
ATOM     87  C   UNL A   1      44.914  34.832  30.786  1.00  0.00     0.040 A 
ATOM     88  C   UNL A   1      44.602  33.997  33.024  1.00  0.00     0.040 A 
ATOM     89  F   UNL A   1      44.214  31.711  33.381  1.00  0.00    -0.206 F 
ATOM     90  C   UNL A   1      44.845  35.063  32.159  1.00  0.00     0.006 A 
ENDBRANCH  66  83
ENDBRANCH  40  41
ENDBRANCH  32  35
ENDBRANCH  30  31
ENDBRANCH  29  30
ENDBRANCH  28  29
ENDBRANCH   1  28
TORSDOF 16
ENDMDL
MODEL 2
REMARK VINA RESULT:     -11.3      1.610      2.372
REMARK SMILES [NH3+][C@@H](CNc1ccc(C(=O)NCCCCNC(=O)c2ccc(-c3c4nc(c(-c5c(F)cccc5F)c5ccc([nH]5)c(-c5c(F)cccc5F)c5nc(c(-c6c(F)cccc6F)c6ccc3[nH]6)C=C5)C=C4)cc2)c(F)c1F)c1ccccc1
REMARK SMILES IDX 12 1 11 2 9 3 10 4 8 6 5 7 6 8 75 9 7 10 73 11 76 12 74 13
REMARK SMILES IDX 4 14 3 16 2 17 1 18 77 22 78 23 82 24 79 25 81 26 80 27
REMARK SMILES IDX 13 28 14 29 15 30 16 31 17 32 18 34 19 35 20 36 72 37 21 38
REMARK SMILES IDX 71 39 22 40 23 41 24 42 65 43 25 44 70 45 64 46 66 47 26 48
REMARK SMILES IDX 69 49 63 50 62 51 27 53 53 54 36 55 52 56 37 57 40 58 51 59
REMARK SMILES IDX 67 60 38 61 39 62 50 64 68 65 41 66 28 67 29 68 34 69 30 70
REMARK SMILES IDX 31 71 33 72 35 73 32 74 54 75 55 76 60 77 56 78 57 79 59 80
REMARK SMILES IDX 61 81 58 82 42 83 43 84 48 85 44 86 45 87 47 88 49 89 46 90
REMARK H PARENT 11 5 4 15 1 19 1 20 1 21 16 33 66 52 40 63
REMARK Flexibility Score: inf
ROOT
ATOM      1  C   UNL A   1      35.661  21.517  25.508  1.00  0.00     0.116 C 
ENDROOT
BRANCH   1   2
ATOM      2  N   UNL A   1      34.771  20.380  25.651  1.00  0.00    -0.352 N 
ATOM      3  C   UNL A   1      33.433  20.257  25.373  1.00  0.00     0.254 C 
ATOM      4  O   UNL A   1      32.879  19.180  25.587  1.00  0.00    -0.269 OA
ATOM      5  H   UNL A   1      35.195  19.565  26.005  1.00  0.00     0.163 HD
BRANCH   3   6
ATOM      6  C   UNL A   1      32.610  21.391  24.902  1.00  0.00     0.078 A 
ATOM      7  C   UNL A   1      31.020  23.486  23.840  1.00  0.00     0.074 A 
ATOM      8  C   UNL A   1      31.720  22.621  22.996  1.00  0.00     0.030 A 
ATOM      9  C   UNL A   1      31.202  23.320  25.226  1.00  0.00     0.182 A 
ATOM     10  C   UNL A   1      32.503  21.582  23.517  1.00  0.00     0.019 A 
ATOM     11  C   UNL A   1      31.997  22.303  25.751  1.00  0.00     0.173 A 
ATOM     12  F   UNL A   1      30.572  24.156  26.068  1.00  0.00    -0.201 F 
ATOM     13  F   UNL A   1      32.160  22.233  27.081  1.00  0.00    -0.203 F 
BRANCH   7  14
ATOM     14  N   UNL A   1      30.180  24.489  23.377  1.00  0.00    -0.376 N 
ATOM     15  H   UNL A   1      29.285  24.228  23.064  1.00  0.00     0.160 HD
BRANCH  14  16
ATOM     16  C   UNL A   1      30.536  25.906  23.324  1.00  0.00     0.183 C 
BRANCH  16  17
ATOM     17  C   UNL A   1      29.401  26.822  23.897  1.00  0.00     0.231 C 
BRANCH  17  18
ATOM     18  N   UNL A   1      28.160  26.032  24.068  1.00  0.00    -0.350 N 
ATOM     19  H   UNL A   1      27.917  25.988  25.058  1.00  0.00     0.345 HD
ATOM     20  H   UNL A   1      28.306  25.088  23.712  1.00  0.00     0.345 HD
ATOM     21  H   UNL A   1      27.400  26.477  23.551  1.00  0.00     0.345 HD
ENDBRANCH  17  18
BRANCH  17  22
ATOM     22  C   UNL A   1      29.153  28.118  23.121  1.00  0.00     0.011 A 
ATOM     23  C   UNL A   1      30.203  28.808  22.489  1.00  0.00     0.010 A 
ATOM     24  C   UNL A   1      27.875  28.709  23.076  1.00  0.00     0.010 A 
ATOM     25  C   UNL A   1      29.976  30.003  21.799  1.00  0.00     0.001 A 
ATOM     26  C   UNL A   1      27.647  29.903  22.386  1.00  0.00     0.001 A 
ATOM     27  C   UNL A   1      28.697  30.546  21.741  1.00  0.00     0.000 A 
ENDBRANCH  17  22
ENDBRANCH  16  17
ENDBRANCH  14  16
ENDBRANCH   7  14
ENDBRANCH   3   6
ENDBRANCH   1   2
BRANCH   1  28
ATOM     28  C   UNL A   1      36.843  21.258  24.576  1.00  0.00     0.023 C 
BRANCH  28  29
ATOM     29  C   UNL A   1      37.771  20.104  24.955  1.00  0.00     0.023 C 
BRANCH  29  30
ATOM     30  C   UNL A   1      39.014  20.469  25.760  1.00  0.00     0.116 C 
BRANCH  30  31
ATOM     31  N   UNL A   1      40.027  19.425  25.779  1.00  0.00    -0.352 N 
ATOM     32  C   UNL A   1      41.364  19.477  26.103  1.00  0.00     0.251 C 
ATOM     33  H   UNL A   1      39.703  18.534  25.515  1.00  0.00     0.163 HD
ATOM     34  O   UNL A   1      42.063  18.478  25.967  1.00  0.00    -0.269 OA
BRANCH  32  35
ATOM     35  C   UNL A   1      41.978  20.740  26.567  1.00  0.00     0.039 A 
ATOM     36  C   UNL A   1      42.568  21.581  25.618  1.00  0.00     0.014 A 
ATOM     37  C   UNL A   1      41.968  21.110  27.913  1.00  0.00     0.014 A 
ATOM     38  C   UNL A   1      43.041  22.839  26.001  1.00  0.00     0.010 A 
ATOM     39  C   UNL A   1      42.374  22.391  28.283  1.00  0.00     0.010 A 
ATOM     40  C   UNL A   1      42.891  23.278  27.326  1.00  0.00    -0.014 A 
BRANCH  40  41
ATOM     41  C   UNL A   1      43.203  24.678  27.714  1.00  0.00     0.031 A 
ATOM     42  C   UNL A   1      44.622  25.120  27.927  1.00  0.00     0.074 A 
ATOM     43  C   UNL A   1      42.189  25.532  27.961  1.00  0.00     0.049 A 
ATOM     44  N   UNL A   1      45.072  26.271  28.358  1.00  0.00    -0.248 NA
ATOM     45  C   UNL A   1      45.673  24.131  27.642  1.00  0.00     0.031 C 
ATOM     46  C   UNL A   1      40.764  25.212  27.844  1.00  0.00     0.029 A 
ATOM     47  N   UNL A   1      42.200  26.840  28.378  1.00  0.00    -0.354 N 
ATOM     48  C   UNL A   1      46.453  26.142  28.411  1.00  0.00     0.074 A 
ATOM     49  C   UNL A   1      46.766  24.788  28.006  1.00  0.00     0.031 C 
ATOM     50  C   UNL A   1      40.041  26.297  28.164  1.00  0.00     0.029 A 
ATOM     51  C   UNL A   1      40.946  27.376  28.544  1.00  0.00     0.049 A 
ATOM     52  H   UNL A   1      43.029  27.346  28.542  1.00  0.00     0.167 HD
ATOM     53  C   UNL A   1      47.378  27.073  28.748  1.00  0.00     0.037 A 
ATOM     54  C   UNL A   1      40.566  28.597  28.967  1.00  0.00     0.037 A 
ATOM     55  C   UNL A   1      47.070  28.429  29.124  1.00  0.00     0.049 A 
ATOM     56  C   UNL A   1      41.611  29.610  29.336  1.00  0.00     0.074 A 
ATOM     57  C   UNL A   1      47.944  29.463  29.414  1.00  0.00     0.029 A 
ATOM     58  N   UNL A   1      45.788  28.938  29.263  1.00  0.00    -0.354 N 
ATOM     59  N   UNL A   1      42.916  29.492  29.318  1.00  0.00    -0.248 NA
ATOM     60  C   UNL A   1      41.132  30.925  29.783  1.00  0.00     0.031 C 
ATOM     61  C   UNL A   1      47.191  30.588  29.763  1.00  0.00     0.029 A 
ATOM     62  C   UNL A   1      45.848  30.266  29.655  1.00  0.00     0.049 A 
ATOM     63  H   UNL A   1      44.958  28.432  29.107  1.00  0.00     0.167 HD
ATOM     64  C   UNL A   1      43.413  30.719  29.734  1.00  0.00     0.074 A 
ATOM     65  C   UNL A   1      42.271  31.574  29.981  1.00  0.00     0.031 C 
ATOM     66  C   UNL A   1      44.702  31.103  29.898  1.00  0.00     0.037 A 
BRANCH  53  67
ATOM     67  C   UNL A   1      48.818  26.659  28.714  1.00  0.00     0.057 A 
ATOM     68  C   UNL A   1      49.586  26.765  27.549  1.00  0.00     0.134 A 
ATOM     69  C   UNL A   1      49.456  26.192  29.870  1.00  0.00     0.134 A 
ATOM     70  F   UNL A   1      49.031  27.196  26.406  1.00  0.00    -0.206 F 
ATOM     71  C   UNL A   1      50.933  26.400  27.527  1.00  0.00     0.040 A 
ATOM     72  C   UNL A   1      50.808  25.845  29.867  1.00  0.00     0.040 A 
ATOM     73  F   UNL A   1      48.778  26.073  31.022  1.00  0.00    -0.206 F 
ATOM     74  C   UNL A   1      51.550  25.945  28.691  1.00  0.00     0.006 A 
ENDBRANCH  53  67
BRANCH  54  75
ATOM     75  C   UNL A   1      39.124  28.937  29.053  1.00  0.00     0.057 A 
ATOM     76  C   UNL A   1      38.410  28.739  30.241  1.00  0.00     0.134 A 
ATOM     77  C   UNL A   1      38.426  29.454  27.957  1.00  0.00     0.134 A 
ATOM     78  F   UNL A   1      39.021  28.227  31.319  1.00  0.00    -0.206 F 
ATOM     79  C   UNL A   1      37.047  29.029  30.330  1.00  0.00     0.040 A 
ATOM     80  C   UNL A   1      37.068  29.768  28.039  1.00  0.00     0.040 A 
ATOM     81  F   UNL A   1      39.056  29.671  26.793  1.00  0.00    -0.206 F 
ATOM     82  C   UNL A   1      36.374  29.549  29.227  1.00  0.00     0.006 A 
ENDBRANCH  54  75
BRANCH  66  83
ATOM     83  C   UNL A   1      44.942  32.512  30.349  1.00  0.00     0.057 A 
ATOM     84  C   UNL A   1      45.074  32.837  31.705  1.00  0.00     0.134 A 
ATOM     85  C   UNL A   1      45.073  33.549  29.417  1.00  0.00     0.134 A 
ATOM     86  F   UNL A   1      44.943  31.891  32.646  1.00  0.00    -0.206 F 
ATOM     87  C   UNL A   1      45.312  34.148  32.119  1.00  0.00     0.040 A 
ATOM     88  C   UNL A   1      45.333  34.860  29.818  1.00  0.00     0.040 A 
ATOM     89  F   UNL A   1      44.962  33.302  28.103  1.00  0.00    -0.206 F 
ATOM     90  C   UNL A   1      45.448  35.163  31.173  1.00  0.00     0.006 A 
ENDBRANCH  66  83
ENDBRANCH  40  41
ENDBRANCH  32  35
ENDBRANCH  30  31
ENDBRANCH  29  30
ENDBRANCH  28  29
ENDBRANCH   1  28
TORSDOF 16
ENDMDL
MODEL 3
REMARK VINA RESULT:     -11.2      4.526      9.383
REMARK SMILES [NH3+][C@@H](CNc1ccc(C(=O)NCCCCNC(=O)c2ccc(-c3c4nc(c(-c5c(F)cccc5F)c5ccc([nH]5)c(-c5c(F)cccc5F)c5nc(c(-c6c(F)cccc6F)c6ccc3[nH]6)C=C5)C=C4)cc2)c(F)c1F)c1ccccc1
REMARK SMILES IDX 12 1 11 2 9 3 10 4 8 6 5 7 6 8 75 9 7 10 73 11 76 12 74 13
REMARK SMILES IDX 4 14 3 16 2 17 1 18 77 22 78 23 82 24 79 25 81 26 80 27
REMARK SMILES IDX 13 28 14 29 15 30 16 31 17 32 18 34 19 35 20 36 72 37 21 38
REMARK SMILES IDX 71 39 22 40 23 41 24 42 65 43 25 44 70 45 64 46 66 47 26 48
REMARK SMILES IDX 69 49 63 50 62 51 27 53 53 54 36 55 52 56 37 57 40 58 51 59
REMARK SMILES IDX 67 60 38 61 39 62 50 64 68 65 41 66 28 67 29 68 34 69 30 70
REMARK SMILES IDX 31 71 33 72 35 73 32 74 54 75 55 76 60 77 56 78 57 79 59 80
REMARK SMILES IDX 61 81 58 82 42 83 43 84 48 85 44 86 45 87 47 88 49 89 46 90
REMARK H PARENT 11 5 4 15 1 19 1 20 1 21 16 33 66 52 40 63
REMARK Flexibility Score: inf
ROOT
ATOM      1  C   UNL A   1      33.264  29.979  26.151  1.00  0.00     0.116 C 
ENDROOT
BRANCH   1   2
ATOM      2  N   UNL A   1      33.363  29.654  24.740  1.00  0.00    -0.352 N 
ATOM      3  C   UNL A   1      33.152  28.468  24.083  1.00  0.00     0.254 C 
ATOM      4  O   UNL A   1      33.308  28.429  22.864  1.00  0.00    -0.269 OA
ATOM      5  H   UNL A   1      33.625  30.406  24.160  1.00  0.00     0.163 HD
BRANCH   3   6
ATOM      6  C   UNL A   1      32.821  27.213  24.792  1.00  0.00     0.078 A 
ATOM      7  C   UNL A   1      32.352  24.804  26.213  1.00  0.00     0.074 A 
ATOM      8  C   UNL A   1      33.650  25.195  25.876  1.00  0.00     0.030 A 
ATOM      9  C   UNL A   1      31.297  25.612  25.751  1.00  0.00     0.182 A 
ATOM     10  C   UNL A   1      33.885  26.387  25.177  1.00  0.00     0.019 A 
ATOM     11  C   UNL A   1      31.522  26.787  25.037  1.00  0.00     0.173 A 
ATOM     12  F   UNL A   1      30.032  25.249  26.026  1.00  0.00    -0.201 F 
ATOM     13  F   UNL A   1      30.466  27.484  24.590  1.00  0.00    -0.203 F 
BRANCH   7  14
ATOM     14  N   UNL A   1      32.068  23.669  26.958  1.00  0.00    -0.376 N 
ATOM     15  H   UNL A   1      31.142  23.543  27.265  1.00  0.00     0.160 HD
BRANCH  14  16
ATOM     16  C   UNL A   1      33.051  22.648  27.318  1.00  0.00     0.183 C 
BRANCH  16  17
ATOM     17  C   UNL A   1      33.310  21.639  26.147  1.00  0.00     0.231 C 
BRANCH  17  18
ATOM     18  N   UNL A   1      33.262  20.252  26.663  1.00  0.00    -0.350 N 
ATOM     19  H   UNL A   1      33.964  20.136  27.395  1.00  0.00     0.345 HD
ATOM     20  H   UNL A   1      33.452  19.599  25.904  1.00  0.00     0.345 HD
ATOM     21  H   UNL A   1      32.336  20.065  27.049  1.00  0.00     0.345 HD
ENDBRANCH  17  18
BRANCH  17  22
ATOM     22  C   UNL A   1      34.576  21.902  25.327  1.00  0.00     0.011 A 
ATOM     23  C   UNL A   1      34.517  22.493  24.052  1.00  0.00     0.010 A 
ATOM     24  C   UNL A   1      35.842  21.488  25.787  1.00  0.00     0.010 A 
ATOM     25  C   UNL A   1      35.674  22.711  23.297  1.00  0.00     0.001 A 
ATOM     26  C   UNL A   1      36.999  21.707  25.033  1.00  0.00     0.001 A 
ATOM     27  C   UNL A   1      36.915  22.325  23.790  1.00  0.00     0.000 A 
ENDBRANCH  17  22
ENDBRANCH  16  17
ENDBRANCH  14  16
ENDBRANCH   7  14
ENDBRANCH   3   6
ENDBRANCH   1   2
BRANCH   1  28
ATOM     28  C   UNL A   1      31.844  30.310  26.606  1.00  0.00     0.023 C 
BRANCH  28  29
ATOM     29  C   UNL A   1      31.550  31.779  26.911  1.00  0.00     0.023 C 
BRANCH  29  30
ATOM     30  C   UNL A   1      32.736  32.632  27.350  1.00  0.00     0.116 C 
BRANCH  30  31
ATOM     31  N   UNL A   1      32.387  34.012  27.647  1.00  0.00    -0.352 N 
ATOM     32  C   UNL A   1      32.969  34.921  28.502  1.00  0.00     0.251 C 
ATOM     33  H   UNL A   1      31.605  34.353  27.157  1.00  0.00     0.163 HD
ATOM     34  O   UNL A   1      32.452  36.022  28.664  1.00  0.00    -0.269 OA
BRANCH  32  35
ATOM     35  C   UNL A   1      34.183  34.565  29.267  1.00  0.00     0.039 A 
ATOM     36  C   UNL A   1      34.034  34.124  30.586  1.00  0.00     0.014 A 
ATOM     37  C   UNL A   1      35.458  34.647  28.702  1.00  0.00     0.014 A 
ATOM     38  C   UNL A   1      35.144  33.657  31.294  1.00  0.00     0.010 A 
ATOM     39  C   UNL A   1      36.553  34.116  29.380  1.00  0.00     0.010 A 
ATOM     40  C   UNL A   1      36.402  33.592  30.674  1.00  0.00    -0.014 A 
BRANCH  40  41
ATOM     41  C   UNL A   1      37.552  32.919  31.333  1.00  0.00     0.031 A 
ATOM     42  C   UNL A   1      38.195  31.713  30.713  1.00  0.00     0.074 A 
ATOM     43  C   UNL A   1      37.960  33.351  32.543  1.00  0.00     0.049 A 
ATOM     44  N   UNL A   1      39.142  30.945  31.191  1.00  0.00    -0.248 NA
ATOM     45  C   UNL A   1      37.693  31.298  29.394  1.00  0.00     0.031 C 
ATOM     46  C   UNL A   1      37.384  34.479  33.279  1.00  0.00     0.029 A 
ATOM     47  N   UNL A   1      38.945  32.883  33.377  1.00  0.00    -0.354 N 
ATOM     48  C   UNL A   1      39.338  29.950  30.242  1.00  0.00     0.074 A 
ATOM     49  C   UNL A   1      38.385  30.187  29.179  1.00  0.00     0.031 C 
ATOM     50  C   UNL A   1      38.036  34.625  34.443  1.00  0.00     0.029 A 
ATOM     51  C   UNL A   1      39.049  33.581  34.555  1.00  0.00     0.049 A 
ATOM     52  H   UNL A   1      39.523  32.117  33.151  1.00  0.00     0.167 HD
ATOM     53  C   UNL A   1      40.243  28.942  30.248  1.00  0.00     0.037 A 
ATOM     54  C   UNL A   1      39.860  33.396  35.613  1.00  0.00     0.037 A 
ATOM     55  C   UNL A   1      41.210  28.720  31.292  1.00  0.00     0.049 A 
ATOM     56  C   UNL A   1      40.853  32.269  35.595  1.00  0.00     0.074 A 
ATOM     57  C   UNL A   1      42.212  27.767  31.351  1.00  0.00     0.029 A 
ATOM     58  N   UNL A   1      41.294  29.461  32.461  1.00  0.00    -0.354 N 
ATOM     59  N   UNL A   1      41.070  31.377  34.660  1.00  0.00    -0.248 NA
ATOM     60  C   UNL A   1      41.714  32.125  36.777  1.00  0.00     0.031 C 
ATOM     61  C   UNL A   1      42.881  27.909  32.571  1.00  0.00     0.029 A 
ATOM     62  C   UNL A   1      42.318  28.973  33.256  1.00  0.00     0.049 A 
ATOM     63  H   UNL A   1      40.712  30.221  32.692  1.00  0.00     0.167 HD
ATOM     64  C   UNL A   1      42.101  30.577  35.133  1.00  0.00     0.074 A 
ATOM     65  C   UNL A   1      42.479  31.099  36.429  1.00  0.00     0.031 C 
ATOM     66  C   UNL A   1      42.682  29.503  34.545  1.00  0.00     0.037 A 
BRANCH  53  67
ATOM     67  C   UNL A   1      40.238  28.003  29.080  1.00  0.00     0.057 A 
ATOM     68  C   UNL A   1      39.491  26.819  29.091  1.00  0.00     0.134 A 
ATOM     69  C   UNL A   1      40.952  28.307  27.913  1.00  0.00     0.134 A 
ATOM     70  F   UNL A   1      38.795  26.466  30.182  1.00  0.00    -0.206 F 
ATOM     71  C   UNL A   1      39.470  25.958  27.993  1.00  0.00     0.040 A 
ATOM     72  C   UNL A   1      40.921  27.466  26.800  1.00  0.00     0.040 A 
ATOM     73  F   UNL A   1      41.682  29.430  27.835  1.00  0.00    -0.206 F 
ATOM     74  C   UNL A   1      40.182  26.285  26.839  1.00  0.00     0.006 A 
ENDBRANCH  53  67
BRANCH  54  75
ATOM     75  C   UNL A   1      39.778  34.309  36.781  1.00  0.00     0.057 A 
ATOM     76  C   UNL A   1      38.990  33.985  37.891  1.00  0.00     0.134 A 
ATOM     77  C   UNL A   1      40.472  35.523  36.812  1.00  0.00     0.134 A 
ATOM     78  F   UNL A   1      38.286  32.844  37.909  1.00  0.00    -0.206 F 
ATOM     79  C   UNL A   1      38.881  34.845  38.985  1.00  0.00     0.040 A 
ATOM     80  C   UNL A   1      40.389  36.383  37.908  1.00  0.00     0.040 A 
ATOM     81  F   UNL A   1      41.249  35.887  35.780  1.00  0.00    -0.206 F 
ATOM     82  C   UNL A   1      39.586  36.046  38.996  1.00  0.00     0.006 A 
ENDBRANCH  54  75
BRANCH  66  83
ATOM     83  C   UNL A   1      43.797  28.836  35.291  1.00  0.00     0.057 A 
ATOM     84  C   UNL A   1      43.556  27.788  36.189  1.00  0.00     0.134 A 
ATOM     85  C   UNL A   1      45.126  29.224  35.088  1.00  0.00     0.134 A 
ATOM     86  F   UNL A   1      42.302  27.382  36.439  1.00  0.00    -0.206 F 
ATOM     87  C   UNL A   1      44.599  27.161  36.871  1.00  0.00     0.040 A 
ATOM     88  C   UNL A   1      46.180  28.590  35.748  1.00  0.00     0.040 A 
ATOM     89  F   UNL A   1      45.424  30.218  34.237  1.00  0.00    -0.206 F 
ATOM     90  C   UNL A   1      45.916  27.558  36.647  1.00  0.00     0.006 A 
ENDBRANCH  66  83
ENDBRANCH  40  41
ENDBRANCH  32  35
ENDBRANCH  30  31
ENDBRANCH  29  30
ENDBRANCH  28  29
ENDBRANCH   1  28
TORSDOF 16
ENDMDL
