MODEL 1
REMARK VINA RESULT:     -11.9      0.000      0.000
REMARK SMILES Cc1ccc(S(=O)(=O)/C=C/C(=O)NCCCCNC(=O)c2ccc(-c3c4nc(c(-c5c(F)cccc5F)c5ccc([nH]5)c(-c5c(F)cccc5F)c5nc(c(-c6c(F)cccc6F)c6ccc3[nH]6)C=C5)C=C4)cc2)cc1
REMARK SMILES IDX 15 1 14 2 13 3 11 4 12 5 10 7 9 8 6 9 7 10 8 11 5 12 1 13
REMARK SMILES IDX 2 14 3 15 76 16 4 17 75 18 16 19 17 20 18 21 19 22 20 24
REMARK SMILES IDX 21 25 22 26 74 27 23 28 73 29 24 30 25 31 26 32 67 33 27 34
REMARK SMILES IDX 72 35 66 36 68 37 28 38 71 39 65 40 64 41 29 43 55 44 38 45
REMARK SMILES IDX 54 46 39 47 42 48 53 49 69 50 40 51 41 52 52 54 70 55 43 56
REMARK SMILES IDX 30 57 31 58 36 59 32 60 33 61 35 62 37 63 34 64 56 65 57 66
REMARK SMILES IDX 62 67 58 68 59 69 61 70 63 71 60 72 44 73 45 74 50 75 46 76
REMARK SMILES IDX 47 77 49 78 51 79 48 80
REMARK H PARENT 13 6 18 23 68 42 42 53
REMARK Flexibility Score: inf
ROOT
ATOM      1  C   UNL A   1      37.794  23.501  25.868  1.00  0.00     0.023 C 
ENDROOT
BRANCH   1   2
ATOM      2  C   UNL A   1      36.390  23.089  25.408  1.00  0.00     0.116 C 
BRANCH   2   3
ATOM      3  N   UNL A   1      35.652  22.383  26.445  1.00  0.00    -0.353 N 
ATOM      4  C   UNL A   1      34.346  22.499  26.810  1.00  0.00     0.244 C 
ATOM      5  O   UNL A   1      33.853  21.767  27.660  1.00  0.00    -0.270 OA
ATOM      6  H   UNL A   1      36.175  21.725  26.958  1.00  0.00     0.163 HD
BRANCH   4   7
ATOM      7  C   UNL A   1      33.513  23.504  26.137  1.00  0.00     0.083 C 
ATOM      8  C   UNL A   1      32.394  23.929  26.732  1.00  0.00     0.117 C 
BRANCH   8   9
ATOM      9  S   UNL A   1      31.398  25.095  25.937  1.00  0.00     0.200 S 
ATOM     10  O   UNL A   1      30.053  25.015  26.502  1.00  0.00    -0.219 OA
ATOM     11  O   UNL A   1      31.606  24.957  24.520  1.00  0.00    -0.219 OA
BRANCH   9  12
ATOM     12  C   UNL A   1      32.024  26.699  26.387  1.00  0.00     0.071 A 
ATOM     13  C   UNL A   1      33.712  30.557  27.254  1.00  0.00     0.044 C 
ATOM     14  C   UNL A   1      33.120  29.210  26.960  1.00  0.00    -0.051 A 
ATOM     15  C   UNL A   1      33.919  28.201  26.409  1.00  0.00     0.005 A 
ATOM     16  C   UNL A   1      31.777  28.940  27.249  1.00  0.00     0.005 A 
ATOM     17  C   UNL A   1      33.374  26.949  26.118  1.00  0.00     0.021 A 
ATOM     18  C   UNL A   1      31.226  27.687  26.967  1.00  0.00     0.021 A 
ENDBRANCH   9  12
ENDBRANCH   8   9
ENDBRANCH   4   7
ENDBRANCH   2   3
ENDBRANCH   1   2
BRANCH   1  19
ATOM     19  C   UNL A   1      38.812  22.359  25.965  1.00  0.00     0.023 C 
BRANCH  19  20
ATOM     20  C   UNL A   1      39.810  22.507  27.106  1.00  0.00     0.116 C 
BRANCH  20  21
ATOM     21  N   UNL A   1      41.125  23.002  26.718  1.00  0.00    -0.352 N 
ATOM     22  C   UNL A   1      41.554  24.302  26.512  1.00  0.00     0.251 C 
ATOM     23  H   UNL A   1      41.811  22.308  26.583  1.00  0.00     0.163 HD
ATOM     24  O   UNL A   1      42.691  24.507  26.096  1.00  0.00    -0.269 OA
BRANCH  22  25
ATOM     25  C   UNL A   1      40.706  25.449  26.930  1.00  0.00     0.039 A 
ATOM     26  C   UNL A   1      40.780  26.627  26.176  1.00  0.00     0.014 A 
ATOM     27  C   UNL A   1      40.033  25.452  28.148  1.00  0.00     0.014 A 
ATOM     28  C   UNL A   1      40.440  27.843  26.767  1.00  0.00     0.010 A 
ATOM     29  C   UNL A   1      39.804  26.660  28.777  1.00  0.00     0.010 A 
ATOM     30  C   UNL A   1      40.081  27.857  28.112  1.00  0.00    -0.014 A 
BRANCH  30  31
ATOM     31  C   UNL A   1      40.079  29.061  28.935  1.00  0.00     0.031 A 
ATOM     32  C   UNL A   1      38.997  30.055  28.807  1.00  0.00     0.074 A 
ATOM     33  C   UNL A   1      41.023  29.203  29.894  1.00  0.00     0.049 A 
ATOM     34  N   UNL A   1      39.066  31.269  29.236  1.00  0.00    -0.248 NA
ATOM     35  C   UNL A   1      37.737  29.750  28.143  1.00  0.00     0.031 C 
ATOM     36  C   UNL A   1      41.049  30.172  30.987  1.00  0.00     0.029 A 
ATOM     37  N   UNL A   1      42.296  28.618  29.921  1.00  0.00    -0.354 N 
ATOM     38  C   UNL A   1      37.817  31.832  29.125  1.00  0.00     0.074 A 
ATOM     39  C   UNL A   1      37.031  30.852  28.410  1.00  0.00     0.031 C 
ATOM     40  C   UNL A   1      42.324  30.351  31.370  1.00  0.00     0.029 A 
ATOM     41  C   UNL A   1      43.159  29.612  30.440  1.00  0.00     0.049 A 
ATOM     42  H   UNL A   1      42.538  27.707  29.638  1.00  0.00     0.167 HD
ATOM     43  C   UNL A   1      37.563  33.023  29.740  1.00  0.00     0.037 A 
ATOM     44  C   UNL A   1      44.140  30.152  29.659  1.00  0.00     0.037 A 
ATOM     45  C   UNL A   1      38.771  33.580  30.343  1.00  0.00     0.049 A 
ATOM     46  C   UNL A   1      43.997  31.638  29.405  1.00  0.00     0.074 A 
ATOM     47  C   UNL A   1      39.322  33.551  31.614  1.00  0.00     0.029 A 
ATOM     48  N   UNL A   1      39.770  34.040  29.504  1.00  0.00    -0.354 N 
ATOM     49  N   UNL A   1      42.983  32.360  29.796  1.00  0.00    -0.248 NA
ATOM     50  C   UNL A   1      44.949  32.408  28.601  1.00  0.00     0.031 C 
ATOM     51  C   UNL A   1      40.688  33.946  31.513  1.00  0.00     0.029 A 
ATOM     52  C   UNL A   1      40.956  34.226  30.186  1.00  0.00     0.049 A 
ATOM     53  H   UNL A   1      39.650  34.213  28.543  1.00  0.00     0.167 HD
ATOM     54  C   UNL A   1      43.098  33.619  29.274  1.00  0.00     0.074 A 
ATOM     55  C   UNL A   1      44.348  33.608  28.540  1.00  0.00     0.031 C 
ATOM     56  C   UNL A   1      42.146  34.580  29.435  1.00  0.00     0.037 A 
BRANCH  43  57
ATOM     57  C   UNL A   1      36.180  33.577  29.976  1.00  0.00     0.057 A 
ATOM     58  C   UNL A   1      35.388  34.013  28.895  1.00  0.00     0.134 A 
ATOM     59  C   UNL A   1      35.582  33.748  31.237  1.00  0.00     0.134 A 
ATOM     60  F   UNL A   1      35.771  33.832  27.625  1.00  0.00    -0.206 F 
ATOM     61  C   UNL A   1      34.160  34.667  29.064  1.00  0.00     0.040 A 
ATOM     62  C   UNL A   1      34.385  34.454  31.425  1.00  0.00     0.040 A 
ATOM     63  F   UNL A   1      36.096  33.189  32.338  1.00  0.00    -0.206 F 
ATOM     64  C   UNL A   1      33.673  34.928  30.334  1.00  0.00     0.006 A 
ENDBRANCH  43  57
BRANCH  44  65
ATOM     65  C   UNL A   1      44.703  29.173  28.689  1.00  0.00     0.057 A 
ATOM     66  C   UNL A   1      45.638  28.227  29.152  1.00  0.00     0.134 A 
ATOM     67  C   UNL A   1      44.085  28.910  27.464  1.00  0.00     0.134 A 
ATOM     68  F   UNL A   1      46.270  28.419  30.321  1.00  0.00    -0.206 F 
ATOM     69  C   UNL A   1      45.846  27.013  28.493  1.00  0.00     0.040 A 
ATOM     70  C   UNL A   1      44.306  27.707  26.783  1.00  0.00     0.040 A 
ATOM     71  F   UNL A   1      43.169  29.751  26.965  1.00  0.00    -0.206 F 
ATOM     72  C   UNL A   1      45.151  26.738  27.322  1.00  0.00     0.006 A 
ENDBRANCH  44  65
BRANCH  56  73
ATOM     73  C   UNL A   1      42.297  35.956  28.873  1.00  0.00     0.057 A 
ATOM     74  C   UNL A   1      41.831  36.284  27.593  1.00  0.00     0.134 A 
ATOM     75  C   UNL A   1      43.021  36.952  29.549  1.00  0.00     0.134 A 
ATOM     76  F   UNL A   1      41.155  35.389  26.858  1.00  0.00    -0.206 F 
ATOM     77  C   UNL A   1      42.058  37.541  27.024  1.00  0.00     0.040 A 
ATOM     78  C   UNL A   1      43.291  38.196  28.975  1.00  0.00     0.040 A 
ATOM     79  F   UNL A   1      43.477  36.758  30.796  1.00  0.00    -0.206 F 
ATOM     80  C   UNL A   1      42.803  38.497  27.709  1.00  0.00     0.006 A 
ENDBRANCH  56  73
ENDBRANCH  30  31
ENDBRANCH  22  25
ENDBRANCH  20  21
ENDBRANCH  19  20
ENDBRANCH   1  19
TORSDOF 13
ENDMDL
MODEL 2
REMARK VINA RESULT:     -11.8      3.960      9.439
REMARK SMILES Cc1ccc(S(=O)(=O)/C=C/C(=O)NCCCCNC(=O)c2ccc(-c3c4nc(c(-c5c(F)cccc5F)c5ccc([nH]5)c(-c5c(F)cccc5F)c5nc(c(-c6c(F)cccc6F)c6ccc3[nH]6)C=C5)C=C4)cc2)cc1
REMARK SMILES IDX 15 1 14 2 13 3 11 4 12 5 10 7 9 8 6 9 7 10 8 11 5 12 1 13
REMARK SMILES IDX 2 14 3 15 76 16 4 17 75 18 16 19 17 20 18 21 19 22 20 24
REMARK SMILES IDX 21 25 22 26 74 27 23 28 73 29 24 30 25 31 26 32 67 33 27 34
REMARK SMILES IDX 72 35 66 36 68 37 28 38 71 39 65 40 64 41 29 43 55 44 38 45
REMARK SMILES IDX 54 46 39 47 42 48 53 49 69 50 40 51 41 52 52 54 70 55 43 56
REMARK SMILES IDX 30 57 31 58 36 59 32 60 33 61 35 62 37 63 34 64 56 65 57 66
REMARK SMILES IDX 62 67 58 68 59 69 61 70 63 71 60 72 44 73 45 74 50 75 46 76
REMARK SMILES IDX 47 77 49 78 51 79 48 80
REMARK H PARENT 13 6 18 23 68 42 42 53
REMARK Flexibility Score: inf
ROOT
ATOM      1  C   UNL A   1      34.357  28.882  26.835  1.00  0.00     0.023 C 
ENDROOT
BRANCH   1   2
ATOM      2  C   UNL A   1      33.406  28.257  25.806  1.00  0.00     0.116 C 
BRANCH   2   3
ATOM      3  N   UNL A   1      32.461  27.333  26.415  1.00  0.00    -0.353 N 
ATOM      4  C   UNL A   1      32.285  26.002  26.192  1.00  0.00     0.244 C 
ATOM      5  O   UNL A   1      31.490  25.343  26.851  1.00  0.00    -0.270 OA
ATOM      6  H   UNL A   1      31.859  27.729  27.087  1.00  0.00     0.163 HD
BRANCH   4   7
ATOM      7  C   UNL A   1      33.098  25.347  25.159  1.00  0.00     0.083 C 
ATOM      8  C   UNL A   1      33.192  24.014  25.148  1.00  0.00     0.117 C 
BRANCH   8   9
ATOM      9  S   UNL A   1      34.162  23.238  23.949  1.00  0.00     0.200 S 
ATOM     10  O   UNL A   1      34.430  24.198  22.880  1.00  0.00    -0.219 OA
ATOM     11  O   UNL A   1      33.561  21.964  23.654  1.00  0.00    -0.219 OA
BRANCH   9  12
ATOM     12  C   UNL A   1      35.736  22.892  24.703  1.00  0.00     0.071 A 
ATOM     13  C   UNL A   1      39.593  21.881  26.312  1.00  0.00     0.044 C 
ATOM     14  C   UNL A   1      38.244  22.237  25.759  1.00  0.00    -0.051 A 
ATOM     15  C   UNL A   1      37.506  21.281  25.048  1.00  0.00     0.005 A 
ATOM     16  C   UNL A   1      37.701  23.511  25.961  1.00  0.00     0.005 A 
ATOM     17  C   UNL A   1      36.257  21.607  24.517  1.00  0.00     0.021 A 
ATOM     18  C   UNL A   1      36.448  23.842  25.438  1.00  0.00     0.021 A 
ENDBRANCH   9  12
ENDBRANCH   8   9
ENDBRANCH   4   7
ENDBRANCH   2   3
ENDBRANCH   1   2
BRANCH   1  19
ATOM     19  C   UNL A   1      33.793  30.083  27.603  1.00  0.00     0.023 C 
BRANCH  19  20
ATOM     20  C   UNL A   1      34.721  31.290  27.645  1.00  0.00     0.116 C 
BRANCH  20  21
ATOM     21  N   UNL A   1      35.103  31.731  28.980  1.00  0.00    -0.352 N 
ATOM     22  C   UNL A   1      35.984  31.158  29.882  1.00  0.00     0.251 C 
ATOM     23  H   UNL A   1      34.669  32.561  29.287  1.00  0.00     0.163 HD
ATOM     24  O   UNL A   1      36.102  31.641  31.004  1.00  0.00    -0.269 OA
BRANCH  22  25
ATOM     25  C   UNL A   1      36.893  30.063  29.452  1.00  0.00     0.039 A 
ATOM     26  C   UNL A   1      37.049  28.967  30.310  1.00  0.00     0.014 A 
ATOM     27  C   UNL A   1      37.739  30.205  28.356  1.00  0.00     0.014 A 
ATOM     28  C   UNL A   1      38.207  28.195  30.235  1.00  0.00     0.010 A 
ATOM     29  C   UNL A   1      38.937  29.520  28.349  1.00  0.00     0.010 A 
ATOM     30  C   UNL A   1      39.203  28.568  29.336  1.00  0.00    -0.014 A 
BRANCH  30  31
ATOM     31  C   UNL A   1      40.583  28.103  29.422  1.00  0.00     0.031 A 
ATOM     32  C   UNL A   1      40.974  26.806  28.837  1.00  0.00     0.074 A 
ATOM     33  C   UNL A   1      41.521  28.922  29.947  1.00  0.00     0.049 A 
ATOM     34  N   UNL A   1      42.056  26.170  29.131  1.00  0.00    -0.248 NA
ATOM     35  C   UNL A   1      40.135  26.103  27.876  1.00  0.00     0.031 C 
ATOM     36  C   UNL A   1      42.974  28.776  29.884  1.00  0.00     0.029 A 
ATOM     37  N   UNL A   1      41.319  29.961  30.865  1.00  0.00    -0.354 N 
ATOM     38  C   UNL A   1      42.182  25.117  28.256  1.00  0.00     0.074 A 
ATOM     39  C   UNL A   1      40.942  25.102  27.513  1.00  0.00     0.031 C 
ATOM     40  C   UNL A   1      43.516  29.438  30.919  1.00  0.00     0.029 A 
ATOM     41  C   UNL A   1      42.421  29.904  31.751  1.00  0.00     0.049 A 
ATOM     42  H   UNL A   1      40.567  30.596  30.890  1.00  0.00     0.167 HD
ATOM     43  C   UNL A   1      43.364  24.438  28.191  1.00  0.00     0.037 A 
ATOM     44  C   UNL A   1      42.236  29.584  33.065  1.00  0.00     0.037 A 
ATOM     45  C   UNL A   1      44.302  24.903  29.209  1.00  0.00     0.049 A 
ATOM     46  C   UNL A   1      42.925  28.309  33.506  1.00  0.00     0.074 A 
ATOM     47  C   UNL A   1      45.342  25.819  29.223  1.00  0.00     0.029 A 
ATOM     48  N   UNL A   1      44.025  24.620  30.534  1.00  0.00    -0.354 N 
ATOM     49  N   UNL A   1      43.566  27.501  32.707  1.00  0.00    -0.248 NA
ATOM     50  C   UNL A   1      42.858  27.795  34.877  1.00  0.00     0.031 C 
ATOM     51  C   UNL A   1      45.644  26.124  30.582  1.00  0.00     0.029 A 
ATOM     52  C   UNL A   1      44.797  25.384  31.386  1.00  0.00     0.049 A 
ATOM     53  H   UNL A   1      43.360  23.958  30.831  1.00  0.00     0.167 HD
ATOM     54  C   UNL A   1      43.932  26.379  33.398  1.00  0.00     0.074 A 
ATOM     55  C   UNL A   1      43.477  26.610  34.755  1.00  0.00     0.031 C 
ATOM     56  C   UNL A   1      44.544  25.312  32.814  1.00  0.00     0.037 A 
BRANCH  43  57
ATOM     57  C   UNL A   1      43.743  23.502  27.071  1.00  0.00     0.057 A 
ATOM     58  C   UNL A   1      44.597  23.930  26.036  1.00  0.00     0.134 A 
ATOM     59  C   UNL A   1      43.274  22.184  26.926  1.00  0.00     0.134 A 
ATOM     60  F   UNL A   1      45.206  25.122  26.074  1.00  0.00    -0.206 F 
ATOM     61  C   UNL A   1      44.868  23.155  24.900  1.00  0.00     0.040 A 
ATOM     62  C   UNL A   1      43.486  21.421  25.768  1.00  0.00     0.040 A 
ATOM     63  F   UNL A   1      42.642  21.551  27.921  1.00  0.00    -0.206 F 
ATOM     64  C   UNL A   1      44.278  21.912  24.742  1.00  0.00     0.006 A 
ENDBRANCH  43  57
BRANCH  44  65
ATOM     65  C   UNL A   1      40.935  30.077  33.597  1.00  0.00     0.057 A 
ATOM     66  C   UNL A   1      40.823  31.435  33.950  1.00  0.00     0.134 A 
ATOM     67  C   UNL A   1      39.747  29.366  33.411  1.00  0.00     0.134 A 
ATOM     68  F   UNL A   1      41.926  32.175  34.145  1.00  0.00    -0.206 F 
ATOM     69  C   UNL A   1      39.589  32.088  33.983  1.00  0.00     0.040 A 
ATOM     70  C   UNL A   1      38.503  30.006  33.467  1.00  0.00     0.040 A 
ATOM     71  F   UNL A   1      39.769  28.075  33.055  1.00  0.00    -0.206 F 
ATOM     72  C   UNL A   1      38.426  31.378  33.707  1.00  0.00     0.006 A 
ENDBRANCH  44  65
BRANCH  56  73
ATOM     73  C   UNL A   1      44.954  24.102  33.588  1.00  0.00     0.057 A 
ATOM     74  C   UNL A   1      46.277  23.904  33.999  1.00  0.00     0.134 A 
ATOM     75  C   UNL A   1      44.058  23.047  33.832  1.00  0.00     0.134 A 
ATOM     76  F   UNL A   1      47.212  24.842  33.782  1.00  0.00    -0.206 F 
ATOM     77  C   UNL A   1      46.685  22.727  34.635  1.00  0.00     0.040 A 
ATOM     78  C   UNL A   1      44.462  21.851  34.428  1.00  0.00     0.040 A 
ATOM     79  F   UNL A   1      42.758  23.148  33.516  1.00  0.00    -0.206 F 
ATOM     80  C   UNL A   1      45.779  21.690  34.838  1.00  0.00     0.006 A 
ENDBRANCH  56  73
ENDBRANCH  30  31
ENDBRANCH  22  25
ENDBRANCH  20  21
ENDBRANCH  19  20
ENDBRANCH   1  19
TORSDOF 13
ENDMDL
MODEL 3
REMARK VINA RESULT:     -11.7      4.106      9.433
REMARK SMILES Cc1ccc(S(=O)(=O)/C=C/C(=O)NCCCCNC(=O)c2ccc(-c3c4nc(c(-c5c(F)cccc5F)c5ccc([nH]5)c(-c5c(F)cccc5F)c5nc(c(-c6c(F)cccc6F)c6ccc3[nH]6)C=C5)C=C4)cc2)cc1
REMARK SMILES IDX 15 1 14 2 13 3 11 4 12 5 10 7 9 8 6 9 7 10 8 11 5 12 1 13
REMARK SMILES IDX 2 14 3 15 76 16 4 17 75 18 16 19 17 20 18 21 19 22 20 24
REMARK SMILES IDX 21 25 22 26 74 27 23 28 73 29 24 30 25 31 26 32 67 33 27 34
REMARK SMILES IDX 72 35 66 36 68 37 28 38 71 39 65 40 64 41 29 43 55 44 38 45
REMARK SMILES IDX 54 46 39 47 42 48 53 49 69 50 40 51 41 52 52 54 70 55 43 56
REMARK SMILES IDX 30 57 31 58 36 59 32 60 33 61 35 62 37 63 34 64 56 65 57 66
REMARK SMILES IDX 62 67 58 68 59 69 61 70 63 71 60 72 44 73 45 74 50 75 46 76
REMARK SMILES IDX 47 77 49 78 51 79 48 80
REMARK H PARENT 13 6 18 23 68 42 42 53
REMARK Flexibility Score: inf
ROOT
ATOM      1  C   UNL A   1      32.896  29.638  25.359  1.00  0.00     0.023 C 
ENDROOT
BRANCH   1   2
ATOM      2  C   UNL A   1      31.508  29.109  24.976  1.00  0.00     0.116 C 
BRANCH   2   3
ATOM      3  N   UNL A   1      31.019  29.685  23.732  1.00  0.00    -0.353 N 
ATOM      4  C   UNL A   1      30.679  29.069  22.567  1.00  0.00     0.244 C 
ATOM      5  O   UNL A   1      30.205  29.695  21.627  1.00  0.00    -0.270 OA
ATOM      6  H   UNL A   1      30.922  30.665  23.732  1.00  0.00     0.163 HD
BRANCH   4   7
ATOM      7  C   UNL A   1      30.857  27.615  22.462  1.00  0.00     0.083 C 
ATOM      8  C   UNL A   1      32.092  27.112  22.368  1.00  0.00     0.117 C 
BRANCH   8   9
ATOM      9  S   UNL A   1      32.307  25.405  22.223  1.00  0.00     0.200 S 
ATOM     10  O   UNL A   1      32.894  25.123  20.915  1.00  0.00    -0.219 OA
ATOM     11  O   UNL A   1      31.079  24.771  22.626  1.00  0.00    -0.219 OA
BRANCH   9  12
ATOM     12  C   UNL A   1      33.535  24.935  23.423  1.00  0.00     0.071 A 
ATOM     13  C   UNL A   1      36.663  23.714  26.107  1.00  0.00     0.044 C 
ATOM     14  C   UNL A   1      35.565  24.140  25.176  1.00  0.00    -0.051 A 
ATOM     15  C   UNL A   1      35.347  23.436  23.986  1.00  0.00     0.005 A 
ATOM     16  C   UNL A   1      34.739  25.224  25.494  1.00  0.00     0.005 A 
ATOM     17  C   UNL A   1      34.338  23.834  23.107  1.00  0.00     0.021 A 
ATOM     18  C   UNL A   1      33.722  25.623  24.623  1.00  0.00     0.021 A 
ENDBRANCH   9  12
ENDBRANCH   8   9
ENDBRANCH   4   7
ENDBRANCH   2   3
ENDBRANCH   1   2
BRANCH   1  19
ATOM     19  C   UNL A   1      32.945  30.478  26.641  1.00  0.00     0.023 C 
BRANCH  19  20
ATOM     20  C   UNL A   1      33.943  29.979  27.677  1.00  0.00     0.116 C 
BRANCH  20  21
ATOM     21  N   UNL A   1      34.652  31.022  28.407  1.00  0.00    -0.352 N 
ATOM     22  C   UNL A   1      35.893  30.984  29.021  1.00  0.00     0.251 C 
ATOM     23  H   UNL A   1      34.179  31.884  28.471  1.00  0.00     0.163 HD
ATOM     24  O   UNL A   1      36.279  31.953  29.668  1.00  0.00    -0.269 OA
BRANCH  22  25
ATOM     25  C   UNL A   1      36.817  29.846  28.779  1.00  0.00     0.039 A 
ATOM     26  C   UNL A   1      37.047  28.953  29.833  1.00  0.00     0.014 A 
ATOM     27  C   UNL A   1      37.607  29.778  27.636  1.00  0.00     0.014 A 
ATOM     28  C   UNL A   1      38.225  28.209  29.859  1.00  0.00     0.010 A 
ATOM     29  C   UNL A   1      38.827  29.135  27.708  1.00  0.00     0.010 A 
ATOM     30  C   UNL A   1      39.167  28.413  28.854  1.00  0.00    -0.014 A 
BRANCH  30  31
ATOM     31  C   UNL A   1      40.564  28.007  28.962  1.00  0.00     0.031 A 
ATOM     32  C   UNL A   1      41.022  26.732  28.379  1.00  0.00     0.074 A 
ATOM     33  C   UNL A   1      41.457  28.863  29.509  1.00  0.00     0.049 A 
ATOM     34  N   UNL A   1      42.125  26.141  28.689  1.00  0.00    -0.248 NA
ATOM     35  C   UNL A   1      40.231  25.998  27.399  1.00  0.00     0.031 C 
ATOM     36  C   UNL A   1      42.915  28.780  29.472  1.00  0.00     0.029 A 
ATOM     37  N   UNL A   1      41.193  29.887  30.428  1.00  0.00    -0.354 N 
ATOM     38  C   UNL A   1      42.312  25.099  27.811  1.00  0.00     0.074 A 
ATOM     39  C   UNL A   1      41.088  25.035  27.046  1.00  0.00     0.031 C 
ATOM     40  C   UNL A   1      43.409  29.459  30.520  1.00  0.00     0.029 A 
ATOM     41  C   UNL A   1      42.280  29.872  31.334  1.00  0.00     0.049 A 
ATOM     42  H   UNL A   1      40.414  30.489  30.442  1.00  0.00     0.167 HD
ATOM     43  C   UNL A   1      43.523  24.473  27.765  1.00  0.00     0.037 A 
ATOM     44  C   UNL A   1      42.085  29.537  32.643  1.00  0.00     0.037 A 
ATOM     45  C   UNL A   1      44.422  24.972  28.803  1.00  0.00     0.049 A 
ATOM     46  C   UNL A   1      42.820  28.290  33.090  1.00  0.00     0.074 A 
ATOM     47  C   UNL A   1      45.421  25.931  28.841  1.00  0.00     0.029 A 
ATOM     48  N   UNL A   1      44.133  24.670  30.121  1.00  0.00    -0.354 N 
ATOM     49  N   UNL A   1      43.510  27.516  32.299  1.00  0.00    -0.248 NA
ATOM     50  C   UNL A   1      42.751  27.767  34.457  1.00  0.00     0.031 C 
ATOM     51  C   UNL A   1      45.684  26.242  30.206  1.00  0.00     0.029 A 
ATOM     52  C   UNL A   1      44.856  25.462  30.991  1.00  0.00     0.049 A 
ATOM     53  H   UNL A   1      43.492  23.978  30.403  1.00  0.00     0.167 HD
ATOM     54  C   UNL A   1      43.912  26.407  32.991  1.00  0.00     0.074 A 
ATOM     55  C   UNL A   1      43.423  26.610  34.341  1.00  0.00     0.031 C 
ATOM     56  C   UNL A   1      44.581  25.371  32.413  1.00  0.00     0.037 A 
BRANCH  43  57
ATOM     57  C   UNL A   1      43.963  23.560  26.648  1.00  0.00     0.057 A 
ATOM     58  C   UNL A   1      43.571  22.206  26.631  1.00  0.00     0.134 A 
ATOM     59  C   UNL A   1      44.802  23.932  25.583  1.00  0.00     0.134 A 
ATOM     60  F   UNL A   1      42.696  21.717  27.519  1.00  0.00    -0.206 F 
ATOM     61  C   UNL A   1      44.064  21.281  25.702  1.00  0.00     0.040 A 
ATOM     62  C   UNL A   1      45.352  23.006  24.684  1.00  0.00     0.040 A 
ATOM     63  F   UNL A   1      45.082  25.215  25.326  1.00  0.00    -0.206 F 
ATOM     64  C   UNL A   1      44.991  21.669  24.749  1.00  0.00     0.006 A 
ENDBRANCH  43  57
BRANCH  44  65
ATOM     65  C   UNL A   1      40.755  29.970  33.153  1.00  0.00     0.057 A 
ATOM     66  C   UNL A   1      40.540  31.340  33.395  1.00  0.00     0.134 A 
ATOM     67  C   UNL A   1      39.624  29.157  33.045  1.00  0.00     0.134 A 
ATOM     68  F   UNL A   1      41.583  32.177  33.511  1.00  0.00    -0.206 F 
ATOM     69  C   UNL A   1      39.259  31.896  33.394  1.00  0.00     0.040 A 
ATOM     70  C   UNL A   1      38.335  29.701  33.068  1.00  0.00     0.040 A 
ATOM     71  F   UNL A   1      39.744  27.846  32.796  1.00  0.00    -0.206 F 
ATOM     72  C   UNL A   1      38.153  31.078  33.196  1.00  0.00     0.006 A 
ENDBRANCH  44  65
BRANCH  56  73
ATOM     73  C   UNL A   1      45.028  24.175  33.189  1.00  0.00     0.057 A 
ATOM     74  C   UNL A   1      44.212  23.046  33.336  1.00  0.00     0.134 A 
ATOM     75  C   UNL A   1      46.234  24.174  33.909  1.00  0.00     0.134 A 
ATOM     76  F   UNL A   1      43.028  22.967  32.711  1.00  0.00    -0.206 F 
ATOM     77  C   UNL A   1      44.585  21.966  34.143  1.00  0.00     0.040 A 
ATOM     78  C   UNL A   1      46.597  23.121  34.751  1.00  0.00     0.040 A 
ATOM     79  F   UNL A   1      47.108  25.187  33.808  1.00  0.00    -0.206 F 
ATOM     80  C   UNL A   1      45.773  22.008  34.866  1.00  0.00     0.006 A 
ENDBRANCH  56  73
ENDBRANCH  30  31
ENDBRANCH  22  25
ENDBRANCH  20  21
ENDBRANCH  19  20
ENDBRANCH   1  19
TORSDOF 13
ENDMDL
