MODEL 1
REMARK VINA RESULT:     -11.5      0.000      0.000
REMARK SMILES CC[C@@H]1CCC[C@@](CC[NH+]2CCOCC2)(C(=O)NCCCCNC(=O)c2ccc(-c3c4nc(c(-c5c(F)cccc5F)c5ccc([nH]5)c(-c5c(F)cccc5F)c5nc(c(-c6c(F)cccc6F)c6ccc3[nH]6)C=C5)C=C4)cc2)C1
REMARK SMILES IDX 20 1 19 2 18 3 16 4 17 5 7 7 3 8 4 9 80 10 5 11 6 12 2 13
REMARK SMILES IDX 1 14 8 15 9 16 10 17 11 18 15 19 12 21 14 22 13 23 21 24
REMARK SMILES IDX 22 25 23 26 24 27 25 29 26 30 27 31 79 32 28 33 78 34 29 35
REMARK SMILES IDX 30 36 31 37 72 38 32 39 77 40 71 41 73 42 33 43 76 44 70 45
REMARK SMILES IDX 69 46 34 48 60 49 43 50 59 51 44 52 47 53 58 54 74 55 45 56
REMARK SMILES IDX 46 57 57 59 75 60 48 61 35 62 36 63 41 64 37 65 38 66 40 67
REMARK SMILES IDX 42 68 39 69 61 70 62 71 67 72 63 73 64 74 66 75 68 76 65 77
REMARK SMILES IDX 49 78 50 79 55 80 51 81 52 82 54 83 56 84 53 85
REMARK H PARENT 18 6 10 20 23 28 73 47 47 58
REMARK Flexibility Score: inf
ROOT
ATOM      1  C   UNL A   1      32.134  29.790  27.160  1.00  0.00     0.023 C 
ENDROOT
BRANCH   1   2
ATOM      2  C   UNL A   1      33.084  28.935  26.299  1.00  0.00     0.116 C 
BRANCH   2   3
ATOM      3  N   UNL A   1      32.313  27.937  25.560  1.00  0.00    -0.356 N 
ATOM      4  C   UNL A   1      32.423  27.715  24.203  1.00  0.00     0.226 C 
ATOM      5  O   UNL A   1      33.412  28.101  23.581  1.00  0.00    -0.274 OA
ATOM      6  H   UNL A   1      31.670  27.387  26.065  1.00  0.00     0.163 HD
BRANCH   4   7
ATOM      7  C   UNL A   1      31.206  27.045  23.478  1.00  0.00     0.055 C 
ATOM      8  C   UNL A   1      32.132  24.591  23.527  1.00  0.00    -0.010 C 
ATOM      9  C   UNL A   1      30.958  24.149  24.404  1.00  0.00     0.003 C 
ATOM     10  C   UNL A   1      31.754  25.819  22.681  1.00  0.00     0.020 C 
ATOM     11  C   UNL A   1      30.361  25.283  25.217  1.00  0.00     0.001 C 
ATOM     12  C   UNL A   1      30.065  26.545  24.394  1.00  0.00     0.017 C 
BRANCH   8  13
ATOM     13  C   UNL A   1      32.562  23.448  22.578  1.00  0.00     0.000 C 
ATOM     14  C   UNL A   1      32.109  22.068  23.029  1.00  0.00     0.004 C 
ENDBRANCH   8  13
BRANCH   7  15
ATOM     15  C   UNL A   1      30.663  28.053  22.355  1.00  0.00     0.078 C 
BRANCH  15  16
ATOM     16  C   UNL A   1      29.927  29.399  22.659  1.00  0.00     0.263 C 
BRANCH  16  17
ATOM     17  N   UNL A   1      28.610  29.638  22.036  1.00  0.00    -0.331 N 
ATOM     18  C   UNL A   1      28.587  30.806  21.163  1.00  0.00     0.291 C 
ATOM     19  C   UNL A   1      27.515  29.852  23.022  1.00  0.00     0.291 C 
ATOM     20  H   UNL A   1      28.456  28.781  21.506  1.00  0.00     0.348 HD
ATOM     21  C   UNL A   1      28.814  32.077  21.974  1.00  0.00     0.221 C 
ATOM     22  C   UNL A   1      27.478  31.246  23.701  1.00  0.00     0.221 C 
ATOM     23  O   UNL A   1      27.669  32.334  22.780  1.00  0.00    -0.370 OA
ENDBRANCH  16  17
ENDBRANCH  15  16
ENDBRANCH   7  15
ENDBRANCH   4   7
ENDBRANCH   2   3
ENDBRANCH   1   2
BRANCH   1  24
ATOM     24  C   UNL A   1      32.030  31.289  26.835  1.00  0.00     0.023 C 
BRANCH  24  25
ATOM     25  C   UNL A   1      33.067  32.255  27.422  1.00  0.00     0.116 C 
BRANCH  25  26
ATOM     26  N   UNL A   1      32.611  33.629  27.657  1.00  0.00    -0.352 N 
ATOM     27  C   UNL A   1      33.143  34.599  28.482  1.00  0.00     0.251 C 
ATOM     28  H   UNL A   1      31.809  33.897  27.155  1.00  0.00     0.163 HD
ATOM     29  O   UNL A   1      32.646  35.718  28.561  1.00  0.00    -0.269 OA
BRANCH  27  30
ATOM     30  C   UNL A   1      34.297  34.258  29.332  1.00  0.00     0.039 A 
ATOM     31  C   UNL A   1      34.060  33.660  30.571  1.00  0.00     0.014 A 
ATOM     32  C   UNL A   1      35.597  34.412  28.848  1.00  0.00     0.014 A 
ATOM     33  C   UNL A   1      35.123  33.082  31.264  1.00  0.00     0.010 A 
ATOM     34  C   UNL A   1      36.639  33.762  29.498  1.00  0.00     0.010 A 
ATOM     35  C   UNL A   1      36.406  33.058  30.693  1.00  0.00    -0.014 A 
BRANCH  35  36
ATOM     36  C   UNL A   1      37.502  32.245  31.280  1.00  0.00     0.031 A 
ATOM     37  C   UNL A   1      38.030  32.561  32.649  1.00  0.00     0.074 A 
ATOM     38  C   UNL A   1      38.099  31.294  30.533  1.00  0.00     0.049 A 
ATOM     39  N   UNL A   1      39.063  32.056  33.273  1.00  0.00    -0.248 NA
ATOM     40  C   UNL A   1      37.321  33.608  33.402  1.00  0.00     0.031 C 
ATOM     41  C   UNL A   1      37.725  30.927  29.163  1.00  0.00     0.029 A 
ATOM     42  N   UNL A   1      39.163  30.472  30.812  1.00  0.00    -0.354 N 
ATOM     43  C   UNL A   1      39.146  32.741  34.478  1.00  0.00     0.074 A 
ATOM     44  C   UNL A   1      38.086  33.727  34.477  1.00  0.00     0.031 C 
ATOM     45  C   UNL A   1      38.530  29.943  28.733  1.00  0.00     0.029 A 
ATOM     46  C   UNL A   1      39.504  29.636  29.775  1.00  0.00     0.049 A 
ATOM     47  H   UNL A   1      39.638  30.481  31.674  1.00  0.00     0.167 HD
ATOM     48  C   UNL A   1      40.011  32.552  35.501  1.00  0.00     0.037 A 
ATOM     49  C   UNL A   1      40.496  28.730  29.670  1.00  0.00     0.037 A 
ATOM     50  C   UNL A   1      41.042  31.548  35.517  1.00  0.00     0.049 A 
ATOM     51  C   UNL A   1      41.435  28.528  30.827  1.00  0.00     0.074 A 
ATOM     52  C   UNL A   1      41.924  31.235  36.537  1.00  0.00     0.029 A 
ATOM     53  N   UNL A   1      41.327  30.693  34.465  1.00  0.00    -0.354 N 
ATOM     54  N   UNL A   1      41.458  29.137  31.987  1.00  0.00    -0.248 NA
ATOM     55  C   UNL A   1      42.485  27.513  30.660  1.00  0.00     0.031 C 
ATOM     56  C   UNL A   1      42.765  30.211  36.089  1.00  0.00     0.029 A 
ATOM     57  C   UNL A   1      42.381  29.860  34.804  1.00  0.00     0.049 A 
ATOM     58  H   UNL A   1      40.852  30.678  33.602  1.00  0.00     0.167 HD
ATOM     59  C   UNL A   1      42.502  28.560  32.698  1.00  0.00     0.074 A 
ATOM     60  C   UNL A   1      43.083  27.546  31.843  1.00  0.00     0.031 C 
ATOM     61  C   UNL A   1      42.938  28.844  33.949  1.00  0.00     0.037 A 
BRANCH  48  62
ATOM     62  C   UNL A   1      39.873  33.449  36.695  1.00  0.00     0.057 A 
ATOM     63  C   UNL A   1      40.581  34.654  36.794  1.00  0.00     0.134 A 
ATOM     64  C   UNL A   1      39.009  33.117  37.745  1.00  0.00     0.134 A 
ATOM     65  F   UNL A   1      41.435  35.023  35.828  1.00  0.00    -0.206 F 
ATOM     66  C   UNL A   1      40.456  35.483  37.911  1.00  0.00     0.040 A 
ATOM     67  C   UNL A   1      38.855  33.952  38.854  1.00  0.00     0.040 A 
ATOM     68  F   UNL A   1      38.295  31.982  37.708  1.00  0.00    -0.206 F 
ATOM     69  C   UNL A   1      39.587  35.134  38.942  1.00  0.00     0.006 A 
ENDBRANCH  48  62
BRANCH  49  70
ATOM     70  C   UNL A   1      40.640  27.923  28.433  1.00  0.00     0.057 A 
ATOM     71  C   UNL A   1      41.401  28.393  27.355  1.00  0.00     0.134 A 
ATOM     72  C   UNL A   1      40.016  26.679  28.287  1.00  0.00     0.134 A 
ATOM     73  F   UNL A   1      42.007  29.588  27.428  1.00  0.00    -0.206 F 
ATOM     74  C   UNL A   1      41.522  27.665  26.171  1.00  0.00     0.040 A 
ATOM     75  C   UNL A   1      40.147  25.929  27.117  1.00  0.00     0.040 A 
ATOM     76  F   UNL A   1      39.279  26.171  29.284  1.00  0.00    -0.206 F 
ATOM     77  C   UNL A   1      40.896  26.426  26.051  1.00  0.00     0.006 A 
ENDBRANCH  49  70
BRANCH  61  78
ATOM     78  C   UNL A   1      44.072  28.025  34.488  1.00  0.00     0.057 A 
ATOM     79  C   UNL A   1      45.399  28.465  34.418  1.00  0.00     0.134 A 
ATOM     80  C   UNL A   1      43.824  26.809  35.137  1.00  0.00     0.134 A 
ATOM     81  F   UNL A   1      45.703  29.615  33.797  1.00  0.00    -0.206 F 
ATOM     82  C   UNL A   1      46.443  27.717  34.965  1.00  0.00     0.040 A 
ATOM     83  C   UNL A   1      44.856  26.064  35.707  1.00  0.00     0.040 A 
ATOM     84  F   UNL A   1      42.573  26.336  35.241  1.00  0.00    -0.206 F 
ATOM     85  C   UNL A   1      46.171  26.517  35.620  1.00  0.00     0.006 A 
ENDBRANCH  61  78
ENDBRANCH  35  36
ENDBRANCH  27  30
ENDBRANCH  25  26
ENDBRANCH  24  25
ENDBRANCH   1  24
TORSDOF 15
ENDMDL
MODEL 2
REMARK VINA RESULT:     -11.5      5.725     10.913
REMARK SMILES CC[C@@H]1CCC[C@@](CC[NH+]2CCOCC2)(C(=O)NCCCCNC(=O)c2ccc(-c3c4nc(c(-c5c(F)cccc5F)c5ccc([nH]5)c(-c5c(F)cccc5F)c5nc(c(-c6c(F)cccc6F)c6ccc3[nH]6)C=C5)C=C4)cc2)C1
REMARK SMILES IDX 20 1 19 2 18 3 16 4 17 5 7 7 3 8 4 9 80 10 5 11 6 12 2 13
REMARK SMILES IDX 1 14 8 15 9 16 10 17 11 18 15 19 12 21 14 22 13 23 21 24
REMARK SMILES IDX 22 25 23 26 24 27 25 29 26 30 27 31 79 32 28 33 78 34 29 35
REMARK SMILES IDX 30 36 31 37 72 38 32 39 77 40 71 41 73 42 33 43 76 44 70 45
REMARK SMILES IDX 69 46 34 48 60 49 43 50 59 51 44 52 47 53 58 54 74 55 45 56
REMARK SMILES IDX 46 57 57 59 75 60 48 61 35 62 36 63 41 64 37 65 38 66 40 67
REMARK SMILES IDX 42 68 39 69 61 70 62 71 67 72 63 73 64 74 66 75 68 76 65 77
REMARK SMILES IDX 49 78 50 79 55 80 51 81 52 82 54 83 56 84 53 85
REMARK H PARENT 18 6 10 20 23 28 73 47 47 58
REMARK Flexibility Score: inf
ROOT
ATOM      1  C   UNL A   1      37.378  21.880  24.556  1.00  0.00     0.023 C 
ENDROOT
BRANCH   1   2
ATOM      2  C   UNL A   1      36.413  22.625  25.499  1.00  0.00     0.116 C 
BRANCH   2   3
ATOM      3  N   UNL A   1      35.100  22.738  24.867  1.00  0.00    -0.356 N 
ATOM      4  C   UNL A   1      33.908  22.426  25.486  1.00  0.00     0.226 C 
ATOM      5  O   UNL A   1      33.836  22.356  26.712  1.00  0.00    -0.274 OA
ATOM      6  H   UNL A   1      35.064  23.058  23.936  1.00  0.00     0.163 HD
BRANCH   4   7
ATOM      7  C   UNL A   1      32.686  22.075  24.570  1.00  0.00     0.055 C 
ATOM      8  C   UNL A   1      31.653  24.484  24.495  1.00  0.00    -0.010 C 
ATOM      9  C   UNL A   1      31.878  24.550  22.982  1.00  0.00     0.003 C 
ATOM     10  C   UNL A   1      31.515  23.027  24.966  1.00  0.00     0.020 C 
ATOM     11  C   UNL A   1      33.003  23.651  22.507  1.00  0.00     0.001 C 
ATOM     12  C   UNL A   1      32.919  22.217  23.048  1.00  0.00     0.017 C 
BRANCH   8  13
ATOM     13  C   UNL A   1      30.373  25.257  24.889  1.00  0.00     0.000 C 
ATOM     14  C   UNL A   1      30.639  26.546  25.653  1.00  0.00     0.004 C 
ENDBRANCH   8  13
BRANCH   7  15
ATOM     15  C   UNL A   1      32.168  20.606  24.953  1.00  0.00     0.078 C 
BRANCH  15  16
ATOM     16  C   UNL A   1      32.994  19.296  24.743  1.00  0.00     0.263 C 
BRANCH  16  17
ATOM     17  N   UNL A   1      32.287  18.080  24.293  1.00  0.00    -0.331 N 
ATOM     18  C   UNL A   1      32.368  16.978  25.244  1.00  0.00     0.291 C 
ATOM     19  C   UNL A   1      32.796  17.537  23.004  1.00  0.00     0.291 C 
ATOM     20  H   UNL A   1      31.325  18.407  24.192  1.00  0.00     0.348 HD
ATOM     21  C   UNL A   1      33.810  16.500  25.378  1.00  0.00     0.221 C 
ATOM     22  C   UNL A   1      34.137  16.761  23.079  1.00  0.00     0.221 C 
ATOM     23  O   UNL A   1      34.201  15.838  24.179  1.00  0.00    -0.370 OA
ENDBRANCH  16  17
ENDBRANCH  15  16
ENDBRANCH   7  15
ENDBRANCH   4   7
ENDBRANCH   2   3
ENDBRANCH   1   2
BRANCH   1  24
ATOM     24  C   UNL A   1      37.993  20.564  25.058  1.00  0.00     0.023 C 
BRANCH  24  25
ATOM     25  C   UNL A   1      39.295  20.608  25.868  1.00  0.00     0.116 C 
BRANCH  25  26
ATOM     26  N   UNL A   1      40.125  19.400  25.825  1.00  0.00    -0.352 N 
ATOM     27  C   UNL A   1      41.462  19.246  26.129  1.00  0.00     0.251 C 
ATOM     28  H   UNL A   1      39.662  18.582  25.536  1.00  0.00     0.163 HD
ATOM     29  O   UNL A   1      42.016  18.154  26.053  1.00  0.00    -0.269 OA
BRANCH  27  30
ATOM     30  C   UNL A   1      42.253  20.434  26.493  1.00  0.00     0.039 A 
ATOM     31  C   UNL A   1      42.936  21.117  25.484  1.00  0.00     0.014 A 
ATOM     32  C   UNL A   1      42.210  20.936  27.794  1.00  0.00     0.014 A 
ATOM     33  C   UNL A   1      43.456  22.383  25.749  1.00  0.00     0.010 A 
ATOM     34  C   UNL A   1      42.654  22.232  28.032  1.00  0.00     0.010 A 
ATOM     35  C   UNL A   1      43.247  22.982  27.001  1.00  0.00    -0.014 A 
BRANCH  35  36
ATOM     36  C   UNL A   1      43.567  24.414  27.241  1.00  0.00     0.031 A 
ATOM     37  C   UNL A   1      44.986  24.896  27.160  1.00  0.00     0.074 A 
ATOM     38  C   UNL A   1      42.593  25.255  27.643  1.00  0.00     0.049 A 
ATOM     39  N   UNL A   1      45.479  26.069  27.465  1.00  0.00    -0.248 NA
ATOM     40  C   UNL A   1      45.989  23.918  26.709  1.00  0.00     0.031 C 
ATOM     41  C   UNL A   1      41.182  24.901  27.822  1.00  0.00     0.029 A 
ATOM     42  N   UNL A   1      42.644  26.582  27.995  1.00  0.00    -0.354 N 
ATOM     43  C   UNL A   1      46.849  25.963  27.269  1.00  0.00     0.074 A 
ATOM     44  C   UNL A   1      47.114  24.599  26.864  1.00  0.00     0.031 C 
ATOM     45  C   UNL A   1      40.502  25.986  28.227  1.00  0.00     0.029 A 
ATOM     46  C   UNL A   1      41.430  27.100  28.379  1.00  0.00     0.049 A 
ATOM     47  H   UNL A   1      43.474  27.112  27.974  1.00  0.00     0.167 HD
ATOM     48  C   UNL A   1      47.798  26.920  27.395  1.00  0.00     0.037 A 
ATOM     49  C   UNL A   1      41.102  28.333  28.813  1.00  0.00     0.037 A 
ATOM     50  C   UNL A   1      47.531  28.285  27.764  1.00  0.00     0.049 A 
ATOM     51  C   UNL A   1      42.173  29.382  28.930  1.00  0.00     0.074 A 
ATOM     52  C   UNL A   1      48.418  29.344  27.851  1.00  0.00     0.029 A 
ATOM     53  N   UNL A   1      46.282  28.780  28.103  1.00  0.00    -0.354 N 
ATOM     54  N   UNL A   1      43.454  29.285  28.677  1.00  0.00    -0.248 NA
ATOM     55  C   UNL A   1      41.751  30.712  29.393  1.00  0.00     0.031 C 
ATOM     56  C   UNL A   1      47.711  30.473  28.276  1.00  0.00     0.029 A 
ATOM     57  C   UNL A   1      46.376  30.127  28.414  1.00  0.00     0.049 A 
ATOM     58  H   UNL A   1      45.450  28.254  28.122  1.00  0.00     0.167 HD
ATOM     59  C   UNL A   1      43.986  30.545  28.918  1.00  0.00     0.074 A 
ATOM     60  C   UNL A   1      42.887  31.393  29.332  1.00  0.00     0.031 C 
ATOM     61  C   UNL A   1      45.270  30.962  28.807  1.00  0.00     0.037 A 
BRANCH  48  62
ATOM     62  C   UNL A   1      49.218  26.521  27.124  1.00  0.00     0.057 A 
ATOM     63  C   UNL A   1      50.069  26.089  28.149  1.00  0.00     0.134 A 
ATOM     64  C   UNL A   1      49.734  26.548  25.823  1.00  0.00     0.134 A 
ATOM     65  F   UNL A   1      49.640  26.052  29.420  1.00  0.00    -0.206 F 
ATOM     66  C   UNL A   1      51.394  25.727  27.894  1.00  0.00     0.040 A 
ATOM     67  C   UNL A   1      51.048  26.162  25.552  1.00  0.00     0.040 A 
ATOM     68  F   UNL A   1      48.969  26.944  24.794  1.00  0.00    -0.206 F 
ATOM     69  C   UNL A   1      51.884  25.758  26.591  1.00  0.00     0.006 A 
ENDBRANCH  48  62
BRANCH  49  70
ATOM     70  C   UNL A   1      39.693  28.654  29.149  1.00  0.00     0.057 A 
ATOM     71  C   UNL A   1      38.831  29.193  28.186  1.00  0.00     0.134 A 
ATOM     72  C   UNL A   1      39.175  28.446  30.433  1.00  0.00     0.134 A 
ATOM     73  F   UNL A   1      39.275  29.434  26.943  1.00  0.00    -0.206 F 
ATOM     74  C   UNL A   1      37.512  29.532  28.491  1.00  0.00     0.040 A 
ATOM     75  C   UNL A   1      37.851  28.759  30.746  1.00  0.00     0.040 A 
ATOM     76  F   UNL A   1      39.947  27.926  31.397  1.00  0.00    -0.206 F 
ATOM     77  C   UNL A   1      37.017  29.311  29.774  1.00  0.00     0.006 A 
ENDBRANCH  49  70
BRANCH  61  78
ATOM     78  C   UNL A   1      45.556  32.405  29.096  1.00  0.00     0.057 A 
ATOM     79  C   UNL A   1      45.948  32.841  30.367  1.00  0.00     0.134 A 
ATOM     80  C   UNL A   1      45.494  33.359  28.072  1.00  0.00     0.134 A 
ATOM     81  F   UNL A   1      46.012  31.977  31.392  1.00  0.00    -0.206 F 
ATOM     82  C   UNL A   1      46.257  34.179  30.614  1.00  0.00     0.040 A 
ATOM     83  C   UNL A   1      45.822  34.695  28.302  1.00  0.00     0.040 A 
ATOM     84  F   UNL A   1      45.131  33.004  26.831  1.00  0.00    -0.206 F 
ATOM     85  C   UNL A   1      46.204  35.109  29.576  1.00  0.00     0.006 A 
ENDBRANCH  61  78
ENDBRANCH  35  36
ENDBRANCH  27  30
ENDBRANCH  25  26
ENDBRANCH  24  25
ENDBRANCH   1  24
TORSDOF 15
ENDMDL
MODEL 3
REMARK VINA RESULT:     -11.5      1.734      7.240
REMARK SMILES CC[C@@H]1CCC[C@@](CC[NH+]2CCOCC2)(C(=O)NCCCCNC(=O)c2ccc(-c3c4nc(c(-c5c(F)cccc5F)c5ccc([nH]5)c(-c5c(F)cccc5F)c5nc(c(-c6c(F)cccc6F)c6ccc3[nH]6)C=C5)C=C4)cc2)C1
REMARK SMILES IDX 20 1 19 2 18 3 16 4 17 5 7 7 3 8 4 9 80 10 5 11 6 12 2 13
REMARK SMILES IDX 1 14 8 15 9 16 10 17 11 18 15 19 12 21 14 22 13 23 21 24
REMARK SMILES IDX 22 25 23 26 24 27 25 29 26 30 27 31 79 32 28 33 78 34 29 35
REMARK SMILES IDX 30 36 31 37 72 38 32 39 77 40 71 41 73 42 33 43 76 44 70 45
REMARK SMILES IDX 69 46 34 48 60 49 43 50 59 51 44 52 47 53 58 54 74 55 45 56
REMARK SMILES IDX 46 57 57 59 75 60 48 61 35 62 36 63 41 64 37 65 38 66 40 67
REMARK SMILES IDX 42 68 39 69 61 70 62 71 67 72 63 73 64 74 66 75 68 76 65 77
REMARK SMILES IDX 49 78 50 79 55 80 51 81 52 82 54 83 56 84 53 85
REMARK H PARENT 18 6 10 20 23 28 73 47 47 58
REMARK Flexibility Score: inf
ROOT
ATOM      1  C   UNL A   1      32.060  29.517  26.758  1.00  0.00     0.023 C 
ENDROOT
BRANCH   1   2
ATOM      2  C   UNL A   1      31.594  28.431  27.748  1.00  0.00     0.116 C 
BRANCH   2   3
ATOM      3  N   UNL A   1      31.284  27.203  27.019  1.00  0.00    -0.356 N 
ATOM      4  C   UNL A   1      32.183  26.516  26.232  1.00  0.00     0.226 C 
ATOM      5  O   UNL A   1      33.394  26.696  26.357  1.00  0.00    -0.274 OA
ATOM      6  H   UNL A   1      30.370  26.843  27.094  1.00  0.00     0.163 HD
BRANCH   4   7
ATOM      7  C   UNL A   1      31.603  25.579  25.118  1.00  0.00     0.055 C 
ATOM      8  C   UNL A   1      30.387  27.451  23.741  1.00  0.00    -0.010 C 
ATOM      9  C   UNL A   1      31.286  27.166  22.534  1.00  0.00     0.003 C 
ATOM     10  C   UNL A   1      30.258  26.204  24.633  1.00  0.00     0.020 C 
ATOM     11  C   UNL A   1      32.620  26.553  22.915  1.00  0.00     0.001 C 
ATOM     12  C   UNL A   1      32.502  25.364  23.879  1.00  0.00     0.017 C 
BRANCH   8  13
ATOM     13  C   UNL A   1      28.976  27.880  23.279  1.00  0.00     0.000 C 
ATOM     14  C   UNL A   1      28.941  29.223  22.564  1.00  0.00     0.004 C 
ENDBRANCH   8  13
BRANCH   7  15
ATOM     15  C   UNL A   1      31.185  24.184  25.793  1.00  0.00     0.078 C 
BRANCH  15  16
ATOM     16  C   UNL A   1      31.997  23.473  26.923  1.00  0.00     0.263 C 
BRANCH  16  17
ATOM     17  N   UNL A   1      32.220  22.017  26.822  1.00  0.00    -0.331 N 
ATOM     18  C   UNL A   1      33.532  21.597  27.303  1.00  0.00     0.291 C 
ATOM     19  C   UNL A   1      32.115  21.492  25.433  1.00  0.00     0.291 C 
ATOM     20  H   UNL A   1      31.477  21.637  27.408  1.00  0.00     0.348 HD
ATOM     21  C   UNL A   1      34.629  22.170  26.413  1.00  0.00     0.221 C 
ATOM     22  C   UNL A   1      33.332  21.770  24.511  1.00  0.00     0.221 C 
ATOM     23  O   UNL A   1      34.597  21.519  25.146  1.00  0.00    -0.370 OA
ENDBRANCH  16  17
ENDBRANCH  15  16
ENDBRANCH   7  15
ENDBRANCH   4   7
ENDBRANCH   2   3
ENDBRANCH   1   2
BRANCH   1  24
ATOM     24  C   UNL A   1      31.364  30.886  26.819  1.00  0.00     0.023 C 
BRANCH  24  25
ATOM     25  C   UNL A   1      32.110  32.128  26.314  1.00  0.00     0.116 C 
BRANCH  25  26
ATOM     26  N   UNL A   1      32.013  33.327  27.152  1.00  0.00    -0.352 N 
ATOM     27  C   UNL A   1      32.934  33.855  28.034  1.00  0.00     0.251 C 
ATOM     28  H   UNL A   1      31.169  33.826  27.075  1.00  0.00     0.163 HD
ATOM     29  O   UNL A   1      32.705  34.885  28.661  1.00  0.00    -0.269 OA
BRANCH  27  30
ATOM     30  C   UNL A   1      34.193  33.128  28.273  1.00  0.00     0.039 A 
ATOM     31  C   UNL A   1      35.398  33.822  28.151  1.00  0.00     0.014 A 
ATOM     32  C   UNL A   1      34.168  31.812  28.736  1.00  0.00     0.014 A 
ATOM     33  C   UNL A   1      36.570  33.242  28.634  1.00  0.00     0.010 A 
ATOM     34  C   UNL A   1      35.321  31.272  29.293  1.00  0.00     0.010 A 
ATOM     35  C   UNL A   1      36.525  31.997  29.282  1.00  0.00    -0.014 A 
BRANCH  35  36
ATOM     36  C   UNL A   1      37.698  31.463  30.022  1.00  0.00     0.031 A 
ATOM     37  C   UNL A   1      38.600  30.449  29.380  1.00  0.00     0.074 A 
ATOM     38  C   UNL A   1      37.885  31.808  31.312  1.00  0.00     0.049 A 
ATOM     39  N   UNL A   1      39.587  29.771  29.907  1.00  0.00    -0.248 NA
ATOM     40  C   UNL A   1      38.333  30.130  27.968  1.00  0.00     0.031 C 
ATOM     41  C   UNL A   1      37.046  32.737  32.076  1.00  0.00     0.029 A 
ATOM     42  N   UNL A   1      38.831  31.401  32.220  1.00  0.00    -0.354 N 
ATOM     43  C   UNL A   1      40.042  28.928  28.902  1.00  0.00     0.074 A 
ATOM     44  C   UNL A   1      39.193  29.147  27.750  1.00  0.00     0.031 C 
ATOM     45  C   UNL A   1      37.528  32.843  33.324  1.00  0.00     0.029 A 
ATOM     46  C   UNL A   1      38.681  31.962  33.466  1.00  0.00     0.049 A 
ATOM     47  H   UNL A   1      39.551  30.766  31.999  1.00  0.00     0.167 HD
ATOM     48  C   UNL A   1      41.084  28.064  28.929  1.00  0.00     0.037 A 
ATOM     49  C   UNL A   1      39.387  31.780  34.599  1.00  0.00     0.037 A 
ATOM     50  C   UNL A   1      41.949  27.872  30.062  1.00  0.00     0.049 A 
ATOM     51  C   UNL A   1      40.550  30.827  34.599  1.00  0.00     0.074 A 
ATOM     52  C   UNL A   1      43.073  27.070  30.162  1.00  0.00     0.029 A 
ATOM     53  N   UNL A   1      41.789  28.491  31.291  1.00  0.00    -0.354 N 
ATOM     54  N   UNL A   1      41.009  30.087  33.620  1.00  0.00    -0.248 NA
ATOM     55  C   UNL A   1      41.292  30.685  35.860  1.00  0.00     0.031 C 
ATOM     56  C   UNL A   1      43.574  27.179  31.463  1.00  0.00     0.029 A 
ATOM     57  C   UNL A   1      42.785  28.079  32.161  1.00  0.00     0.049 A 
ATOM     58  H   UNL A   1      41.073  29.129  31.515  1.00  0.00     0.167 HD
ATOM     59  C   UNL A   1      42.110  29.415  34.136  1.00  0.00     0.074 A 
ATOM     60  C   UNL A   1      42.255  29.842  35.513  1.00  0.00     0.031 C 
ATOM     61  C   UNL A   1      42.927  28.526  33.523  1.00  0.00     0.037 A 
BRANCH  48  62
ATOM     62  C   UNL A   1      41.348  27.266  27.687  1.00  0.00     0.057 A 
ATOM     63  C   UNL A   1      40.764  26.009  27.483  1.00  0.00     0.134 A 
ATOM     64  C   UNL A   1      42.178  27.767  26.676  1.00  0.00     0.134 A 
ATOM     65  F   UNL A   1      39.971  25.468  28.419  1.00  0.00    -0.206 F 
ATOM     66  C   UNL A   1      41.020  25.265  26.330  1.00  0.00     0.040 A 
ATOM     67  C   UNL A   1      42.418  27.043  25.507  1.00  0.00     0.040 A 
ATOM     68  F   UNL A   1      42.761  28.968  26.805  1.00  0.00    -0.206 F 
ATOM     69  C   UNL A   1      41.845  25.785  25.335  1.00  0.00     0.006 A 
ENDBRANCH  48  62
BRANCH  49  70
ATOM     70  C   UNL A   1      39.032  32.535  35.827  1.00  0.00     0.057 A 
ATOM     71  C   UNL A   1      39.538  33.822  36.050  1.00  0.00     0.134 A 
ATOM     72  C   UNL A   1      38.196  31.992  36.810  1.00  0.00     0.134 A 
ATOM     73  F   UNL A   1      40.361  34.387  35.153  1.00  0.00    -0.206 F 
ATOM     74  C   UNL A   1      39.242  34.533  37.213  1.00  0.00     0.040 A 
ATOM     75  C   UNL A   1      37.874  32.702  37.968  1.00  0.00     0.040 A 
ATOM     76  F   UNL A   1      37.674  30.768  36.653  1.00  0.00    -0.206 F 
ATOM     77  C   UNL A   1      38.404  33.975  38.175  1.00  0.00     0.006 A 
ENDBRANCH  49  70
BRANCH  61  78
ATOM     78  C   UNL A   1      44.076  27.982  34.318  1.00  0.00     0.057 A 
ATOM     79  C   UNL A   1      45.304  28.650  34.394  1.00  0.00     0.134 A 
ATOM     80  C   UNL A   1      43.929  26.804  35.063  1.00  0.00     0.134 A 
ATOM     81  F   UNL A   1      45.510  29.775  33.693  1.00  0.00    -0.206 F 
ATOM     82  C   UNL A   1      46.351  28.160  35.176  1.00  0.00     0.040 A 
ATOM     83  C   UNL A   1      44.962  26.317  35.865  1.00  0.00     0.040 A 
ATOM     84  F   UNL A   1      42.776  26.121  35.037  1.00  0.00    -0.206 F 
ATOM     85  C   UNL A   1      46.178  26.995  35.922  1.00  0.00     0.006 A 
ENDBRANCH  61  78
ENDBRANCH  35  36
ENDBRANCH  27  30
ENDBRANCH  25  26
ENDBRANCH  24  25
ENDBRANCH   1  24
TORSDOF 15
ENDMDL
