MODEL 1
REMARK VINA RESULT:     -12.4      0.000      0.000
REMARK SMILES Cc1cc(C(=O)NCCCCNC(=O)c2ccc(-c3c4nc(c(-c5c(F)cccc5F)c5ccc([nH]5)c(-c5c(F)cccc5F)c5nc(c(-c6c(F)cccc6F)c6ccc3[nH]6)C=C5)C=C4)cc2)ccc1NS(=O)(=O)c1ccc(C#N)cc1C
REMARK SMILES IDX 8 1 7 2 5 3 6 4 4 6 1 7 2 8 3 9 71 10 70 11 69 12 72 13
REMARK SMILES IDX 73 15 74 16 75 17 76 18 77 19 83 20 78 21 82 22 84 23 79 24
REMARK SMILES IDX 80 25 81 26 9 27 10 28 11 29 12 30 13 31 14 33 15 34 16 35
REMARK SMILES IDX 68 36 17 37 67 38 18 39 19 40 20 41 61 42 21 43 66 44 60 45
REMARK SMILES IDX 62 46 22 47 65 48 59 49 58 50 23 52 49 53 32 54 48 55 33 56
REMARK SMILES IDX 36 57 47 58 63 59 34 60 35 61 46 63 64 64 37 65 24 66 25 67
REMARK SMILES IDX 30 68 26 69 27 70 29 71 31 72 28 73 50 74 51 75 56 76 52 77
REMARK SMILES IDX 53 78 55 79 57 80 54 81 38 82 39 83 44 84 40 85 41 86 43 87
REMARK SMILES IDX 45 88 42 89
REMARK H PARENT 7 5 72 14 12 32 62 51 36 62
REMARK Flexibility Score: inf
ROOT
ATOM      1  C   UNL A   1      33.217  33.579  28.282  1.00  0.00     0.116 C 
ENDROOT
BRANCH   1   2
ATOM      2  N   UNL A   1      32.215  33.479  27.234  1.00  0.00    -0.352 N 
ATOM      3  C   UNL A   1      31.659  32.385  26.608  1.00  0.00     0.251 C 
ATOM      4  O   UNL A   1      30.686  32.564  25.877  1.00  0.00    -0.269 OA
ATOM      5  H   UNL A   1      31.871  34.345  26.917  1.00  0.00     0.163 HD
BRANCH   3   6
ATOM      6  C   UNL A   1      32.142  30.997  26.849  1.00  0.00     0.040 A 
ATOM      7  C   UNL A   1      35.480  29.251  27.210  1.00  0.00     0.046 C 
ATOM      8  C   UNL A   1      34.020  29.448  26.913  1.00  0.00    -0.026 A 
ATOM      9  C   UNL A   1      33.517  30.763  26.895  1.00  0.00     0.019 A 
ATOM     10  C   UNL A   1      33.124  28.374  26.776  1.00  0.00     0.052 A 
ATOM     11  C   UNL A   1      31.783  28.604  27.043  1.00  0.00     0.028 A 
ATOM     12  C   UNL A   1      31.299  29.913  27.073  1.00  0.00     0.016 A 
BRANCH  10  13
ATOM     13  N   UNL A   1      33.536  27.263  25.977  1.00  0.00    -0.279 N 
ATOM     14  H   UNL A   1      33.788  26.448  26.469  1.00  0.00     0.180 HD
BRANCH  13  15
ATOM     15  S   UNL A   1      33.645  27.172  24.310  1.00  0.00     0.262 S 
ATOM     16  O   UNL A   1      34.401  28.345  23.924  1.00  0.00    -0.201 OA
ATOM     17  O   UNL A   1      34.096  25.838  23.978  1.00  0.00    -0.201 OA
BRANCH  15  18
ATOM     18  C   UNL A   1      32.016  27.362  23.557  1.00  0.00     0.090 A 
ATOM     19  C   UNL A   1      31.770  28.365  22.613  1.00  0.00     0.024 A 
ATOM     20  C   UNL A   1      30.930  26.659  24.121  1.00  0.00    -0.029 A 
ATOM     21  C   UNL A   1      30.464  28.834  22.418  1.00  0.00     0.021 A 
ATOM     22  C   UNL A   1      29.623  27.133  23.902  1.00  0.00     0.024 A 
ATOM     23  C   UNL A   1      31.069  25.375  24.895  1.00  0.00     0.046 C 
ATOM     24  C   UNL A   1      29.401  28.267  23.123  1.00  0.00     0.052 A 
BRANCH  24  25
ATOM     25  C   UNL A   1      28.108  28.892  23.116  1.00  0.00     0.099 C 
ATOM     26  N   UNL A   1      27.080  29.416  23.187  1.00  0.00    -0.192 NA
ENDBRANCH  24  25
ENDBRANCH  15  18
ENDBRANCH  13  15
ENDBRANCH  10  13
ENDBRANCH   3   6
ENDBRANCH   1   2
BRANCH   1  27
ATOM     27  C   UNL A   1      33.923  34.942  28.307  1.00  0.00     0.023 C 
BRANCH  27  28
ATOM     28  C   UNL A   1      33.259  36.002  29.171  1.00  0.00     0.023 C 
BRANCH  28  29
ATOM     29  C   UNL A   1      33.009  35.572  30.599  1.00  0.00     0.116 C 
BRANCH  29  30
ATOM     30  N   UNL A   1      34.058  35.931  31.539  1.00  0.00    -0.352 N 
ATOM     31  C   UNL A   1      34.849  35.119  32.336  1.00  0.00     0.251 C 
ATOM     32  H   UNL A   1      34.231  36.897  31.623  1.00  0.00     0.163 HD
ATOM     33  O   UNL A   1      35.551  35.636  33.203  1.00  0.00    -0.269 OA
BRANCH  31  34
ATOM     34  C   UNL A   1      35.033  33.667  32.021  1.00  0.00     0.039 A 
ATOM     35  C   UNL A   1      35.210  32.846  33.147  1.00  0.00     0.014 A 
ATOM     36  C   UNL A   1      35.598  33.291  30.816  1.00  0.00     0.014 A 
ATOM     37  C   UNL A   1      36.272  31.961  33.167  1.00  0.00     0.010 A 
ATOM     38  C   UNL A   1      36.776  32.611  30.884  1.00  0.00     0.010 A 
ATOM     39  C   UNL A   1      37.135  32.005  32.088  1.00  0.00    -0.014 A 
BRANCH  39  40
ATOM     40  C   UNL A   1      38.426  31.374  32.029  1.00  0.00     0.031 A 
ATOM     41  C   UNL A   1      38.464  30.121  31.265  1.00  0.00     0.074 A 
ATOM     42  C   UNL A   1      39.470  32.146  32.408  1.00  0.00     0.049 A 
ATOM     43  N   UNL A   1      39.412  29.266  31.306  1.00  0.00    -0.248 NA
ATOM     44  C   UNL A   1      37.356  29.692  30.405  1.00  0.00     0.031 C 
ATOM     45  C   UNL A   1      40.885  32.036  32.087  1.00  0.00     0.029 A 
ATOM     46  N   UNL A   1      39.425  33.166  33.369  1.00  0.00    -0.354 N 
ATOM     47  C   UNL A   1      39.242  28.433  30.217  1.00  0.00     0.074 A 
ATOM     48  C   UNL A   1      37.878  28.620  29.809  1.00  0.00     0.031 C 
ATOM     49  C   UNL A   1      41.596  32.692  33.026  1.00  0.00     0.029 A 
ATOM     50  C   UNL A   1      40.657  33.116  34.054  1.00  0.00     0.049 A 
ATOM     51  H   UNL A   1      38.684  33.792  33.532  1.00  0.00     0.167 HD
ATOM     52  C   UNL A   1      40.361  27.865  29.685  1.00  0.00     0.037 A 
ATOM     53  C   UNL A   1      40.673  32.674  35.350  1.00  0.00     0.037 A 
ATOM     54  C   UNL A   1      41.505  28.208  30.534  1.00  0.00     0.049 A 
ATOM     55  C   UNL A   1      41.355  31.328  35.463  1.00  0.00     0.074 A 
ATOM     56  C   UNL A   1      42.466  29.200  30.433  1.00  0.00     0.029 A 
ATOM     57  N   UNL A   1      41.508  27.787  31.859  1.00  0.00    -0.354 N 
ATOM     58  N   UNL A   1      41.404  30.451  34.494  1.00  0.00    -0.248 NA
ATOM     59  C   UNL A   1      42.105  30.906  36.642  1.00  0.00     0.031 C 
ATOM     60  C   UNL A   1      42.979  29.438  31.738  1.00  0.00     0.029 A 
ATOM     61  C   UNL A   1      42.340  28.584  32.622  1.00  0.00     0.049 A 
ATOM     62  H   UNL A   1      40.989  27.025  32.206  1.00  0.00     0.167 HD
ATOM     63  C   UNL A   1      42.193  29.397  34.873  1.00  0.00     0.074 A 
ATOM     64  C   UNL A   1      42.602  29.727  36.228  1.00  0.00     0.031 C 
ATOM     65  C   UNL A   1      42.477  28.342  34.051  1.00  0.00     0.037 A 
BRANCH  52  66
ATOM     66  C   UNL A   1      40.512  27.287  28.292  1.00  0.00     0.057 A 
ATOM     67  C   UNL A   1      40.012  25.995  28.022  1.00  0.00     0.134 A 
ATOM     68  C   UNL A   1      41.166  27.880  27.196  1.00  0.00     0.134 A 
ATOM     69  F   UNL A   1      39.308  25.308  28.933  1.00  0.00    -0.206 F 
ATOM     70  C   UNL A   1      40.204  25.331  26.803  1.00  0.00     0.040 A 
ATOM     71  C   UNL A   1      41.372  27.224  25.971  1.00  0.00     0.040 A 
ATOM     72  F   UNL A   1      41.626  29.131  27.221  1.00  0.00    -0.206 F 
ATOM     73  C   UNL A   1      40.898  25.939  25.773  1.00  0.00     0.006 A 
ENDBRANCH  52  66
BRANCH  53  74
ATOM     74  C   UNL A   1      39.446  33.110  36.091  1.00  0.00     0.057 A 
ATOM     75  C   UNL A   1      38.473  32.126  36.362  1.00  0.00     0.134 A 
ATOM     76  C   UNL A   1      39.447  34.238  36.919  1.00  0.00     0.134 A 
ATOM     77  F   UNL A   1      38.394  31.028  35.592  1.00  0.00    -0.206 F 
ATOM     78  C   UNL A   1      37.686  32.166  37.515  1.00  0.00     0.040 A 
ATOM     79  C   UNL A   1      38.637  34.296  38.063  1.00  0.00     0.040 A 
ATOM     80  F   UNL A   1      40.328  35.228  36.726  1.00  0.00    -0.206 F 
ATOM     81  C   UNL A   1      37.809  33.228  38.401  1.00  0.00     0.006 A 
ENDBRANCH  53  74
BRANCH  65  82
ATOM     82  C   UNL A   1      42.995  26.999  34.508  1.00  0.00     0.057 A 
ATOM     83  C   UNL A   1      42.179  25.973  35.003  1.00  0.00     0.134 A 
ATOM     84  C   UNL A   1      44.347  26.634  34.296  1.00  0.00     0.134 A 
ATOM     85  F   UNL A   1      40.852  26.118  35.119  1.00  0.00    -0.206 F 
ATOM     86  C   UNL A   1      42.681  24.713  35.346  1.00  0.00     0.040 A 
ATOM     87  C   UNL A   1      44.839  25.355  34.555  1.00  0.00     0.040 A 
ATOM     88  F   UNL A   1      45.249  27.491  33.797  1.00  0.00    -0.206 F 
ATOM     89  C   UNL A   1      44.012  24.395  35.110  1.00  0.00     0.006 A 
ENDBRANCH  65  82
ENDBRANCH  39  40
ENDBRANCH  31  34
ENDBRANCH  29  30
ENDBRANCH  28  29
ENDBRANCH  27  28
ENDBRANCH   1  27
TORSDOF 15
ENDMDL
MODEL 2
REMARK VINA RESULT:     -12.4      3.889      9.254
REMARK SMILES Cc1cc(C(=O)NCCCCNC(=O)c2ccc(-c3c4nc(c(-c5c(F)cccc5F)c5ccc([nH]5)c(-c5c(F)cccc5F)c5nc(c(-c6c(F)cccc6F)c6ccc3[nH]6)C=C5)C=C4)cc2)ccc1NS(=O)(=O)c1ccc(C#N)cc1C
REMARK SMILES IDX 8 1 7 2 5 3 6 4 4 6 1 7 2 8 3 9 71 10 70 11 69 12 72 13
REMARK SMILES IDX 73 15 74 16 75 17 76 18 77 19 83 20 78 21 82 22 84 23 79 24
REMARK SMILES IDX 80 25 81 26 9 27 10 28 11 29 12 30 13 31 14 33 15 34 16 35
REMARK SMILES IDX 68 36 17 37 67 38 18 39 19 40 20 41 61 42 21 43 66 44 60 45
REMARK SMILES IDX 62 46 22 47 65 48 59 49 58 50 23 52 49 53 32 54 48 55 33 56
REMARK SMILES IDX 36 57 47 58 63 59 34 60 35 61 46 63 64 64 37 65 24 66 25 67
REMARK SMILES IDX 30 68 26 69 27 70 29 71 31 72 28 73 50 74 51 75 56 76 52 77
REMARK SMILES IDX 53 78 55 79 57 80 54 81 38 82 39 83 44 84 40 85 41 86 43 87
REMARK SMILES IDX 45 88 42 89
REMARK H PARENT 7 5 72 14 12 32 62 51 36 62
REMARK Flexibility Score: inf
ROOT
ATOM      1  C   UNL A   1      34.970  22.422  26.916  1.00  0.00     0.116 C 
ENDROOT
BRANCH   1   2
ATOM      2  N   UNL A   1      34.357  21.105  26.941  1.00  0.00    -0.352 N 
ATOM      3  C   UNL A   1      33.370  20.545  26.160  1.00  0.00     0.251 C 
ATOM      4  O   UNL A   1      33.157  19.338  26.265  1.00  0.00    -0.269 OA
ATOM      5  H   UNL A   1      34.709  20.506  27.639  1.00  0.00     0.163 HD
BRANCH   3   6
ATOM      6  C   UNL A   1      32.617  21.330  25.142  1.00  0.00     0.040 A 
ATOM      7  C   UNL A   1      31.889  21.081  21.437  1.00  0.00     0.046 C 
ATOM      8  C   UNL A   1      32.095  21.698  22.792  1.00  0.00    -0.026 A 
ATOM      9  C   UNL A   1      32.614  20.886  23.819  1.00  0.00     0.019 A 
ATOM     10  C   UNL A   1      31.679  23.003  23.101  1.00  0.00     0.052 A 
ATOM     11  C   UNL A   1      31.402  23.305  24.426  1.00  0.00     0.028 A 
ATOM     12  C   UNL A   1      31.876  22.470  25.438  1.00  0.00     0.016 A 
BRANCH  10  13
ATOM     13  N   UNL A   1      31.973  24.036  22.157  1.00  0.00    -0.279 N 
ATOM     14  H   UNL A   1      31.332  24.139  21.417  1.00  0.00     0.180 HD
BRANCH  13  15
ATOM     15  S   UNL A   1      33.272  25.090  22.150  1.00  0.00     0.262 S 
ATOM     16  O   UNL A   1      34.409  24.280  22.531  1.00  0.00    -0.201 OA
ATOM     17  O   UNL A   1      33.241  25.806  20.893  1.00  0.00    -0.201 OA
BRANCH  15  18
ATOM     18  C   UNL A   1      33.089  26.330  23.449  1.00  0.00     0.090 A 
ATOM     19  C   UNL A   1      33.999  26.405  24.508  1.00  0.00     0.024 A 
ATOM     20  C   UNL A   1      31.876  27.049  23.524  1.00  0.00    -0.029 A 
ATOM     21  C   UNL A   1      33.607  26.979  25.725  1.00  0.00     0.021 A 
ATOM     22  C   UNL A   1      31.505  27.634  24.749  1.00  0.00     0.024 A 
ATOM     23  C   UNL A   1      30.972  27.298  22.346  1.00  0.00     0.046 C 
ATOM     24  C   UNL A   1      32.330  27.524  25.867  1.00  0.00     0.052 A 
BRANCH  24  25
ATOM     25  C   UNL A   1      31.835  27.891  27.163  1.00  0.00     0.099 C 
ATOM     26  N   UNL A   1      31.365  28.200  28.173  1.00  0.00    -0.192 NA
ENDBRANCH  24  25
ENDBRANCH  15  18
ENDBRANCH  13  15
ENDBRANCH  10  13
ENDBRANCH   3   6
ENDBRANCH   1   2
BRANCH   1  27
ATOM     27  C   UNL A   1      36.056  22.556  25.838  1.00  0.00     0.023 C 
BRANCH  27  28
ATOM     28  C   UNL A   1      36.996  21.368  25.711  1.00  0.00     0.023 C 
BRANCH  28  29
ATOM     29  C   UNL A   1      38.420  21.737  25.364  1.00  0.00     0.116 C 
BRANCH  29  30
ATOM     30  N   UNL A   1      39.328  21.808  26.497  1.00  0.00    -0.352 N 
ATOM     31  C   UNL A   1      39.934  22.910  27.079  1.00  0.00     0.251 C 
ATOM     32  H   UNL A   1      39.546  20.942  26.912  1.00  0.00     0.163 HD
ATOM     33  O   UNL A   1      40.817  22.733  27.915  1.00  0.00    -0.269 OA
BRANCH  31  34
ATOM     34  C   UNL A   1      39.388  24.289  26.878  1.00  0.00     0.039 A 
ATOM     35  C   UNL A   1      40.218  25.139  26.129  1.00  0.00     0.014 A 
ATOM     36  C   UNL A   1      38.537  24.836  27.822  1.00  0.00     0.014 A 
ATOM     37  C   UNL A   1      40.510  26.397  26.627  1.00  0.00     0.010 A 
ATOM     38  C   UNL A   1      38.975  25.960  28.456  1.00  0.00     0.010 A 
ATOM     39  C   UNL A   1      40.011  26.696  27.881  1.00  0.00    -0.014 A 
BRANCH  39  40
ATOM     40  C   UNL A   1      40.407  27.820  28.687  1.00  0.00     0.031 A 
ATOM     41  C   UNL A   1      39.445  28.928  28.712  1.00  0.00     0.074 A 
ATOM     42  C   UNL A   1      41.433  27.594  29.537  1.00  0.00     0.049 A 
ATOM     43  N   UNL A   1      39.699  30.110  29.124  1.00  0.00    -0.248 NA
ATOM     44  C   UNL A   1      38.080  28.795  28.192  1.00  0.00     0.031 C 
ATOM     45  C   UNL A   1      41.813  28.290  30.758  1.00  0.00     0.029 A 
ATOM     46  N   UNL A   1      42.493  26.702  29.321  1.00  0.00    -0.354 N 
ATOM     47  C   UNL A   1      38.481  30.735  29.312  1.00  0.00     0.074 A 
ATOM     48  C   UNL A   1      37.539  29.958  28.556  1.00  0.00     0.031 C 
ATOM     49  C   UNL A   1      43.116  28.050  31.008  1.00  0.00     0.029 A 
ATOM     50  C   UNL A   1      43.641  27.311  29.869  1.00  0.00     0.049 A 
ATOM     51  H   UNL A   1      42.445  25.825  28.877  1.00  0.00     0.167 HD
ATOM     52  C   UNL A   1      38.417  31.705  30.267  1.00  0.00     0.037 A 
ATOM     53  C   UNL A   1      44.609  27.777  29.020  1.00  0.00     0.037 A 
ATOM     54  C   UNL A   1      39.766  31.931  30.791  1.00  0.00     0.049 A 
ATOM     55  C   UNL A   1      44.661  29.290  29.025  1.00  0.00     0.074 A 
ATOM     56  C   UNL A   1      40.414  31.449  31.916  1.00  0.00     0.029 A 
ATOM     57  N   UNL A   1      40.759  32.374  29.923  1.00  0.00    -0.354 N 
ATOM     58  N   UNL A   1      43.636  30.055  29.298  1.00  0.00    -0.248 NA
ATOM     59  C   UNL A   1      45.888  30.049  28.808  1.00  0.00     0.031 C 
ATOM     60  C   UNL A   1      41.813  31.518  31.672  1.00  0.00     0.029 A 
ATOM     61  C   UNL A   1      42.011  32.052  30.410  1.00  0.00     0.049 A 
ATOM     62  H   UNL A   1      40.591  32.853  29.078  1.00  0.00     0.167 HD
ATOM     63  C   UNL A   1      44.042  31.363  29.336  1.00  0.00     0.074 A 
ATOM     64  C   UNL A   1      45.458  31.306  29.016  1.00  0.00     0.031 C 
ATOM     65  C   UNL A   1      43.203  32.396  29.648  1.00  0.00     0.037 A 
BRANCH  52  66
ATOM     66  C   UNL A   1      37.168  32.225  30.951  1.00  0.00     0.057 A 
ATOM     67  C   UNL A   1      36.407  33.235  30.325  1.00  0.00     0.134 A 
ATOM     68  C   UNL A   1      36.679  31.850  32.216  1.00  0.00     0.134 A 
ATOM     69  F   UNL A   1      36.695  33.671  29.090  1.00  0.00    -0.206 F 
ATOM     70  C   UNL A   1      35.307  33.860  30.928  1.00  0.00     0.040 A 
ATOM     71  C   UNL A   1      35.581  32.472  32.836  1.00  0.00     0.040 A 
ATOM     72  F   UNL A   1      37.203  30.850  32.925  1.00  0.00    -0.206 F 
ATOM     73  C   UNL A   1      34.896  33.488  32.195  1.00  0.00     0.006 A 
ENDBRANCH  52  66
BRANCH  53  74
ATOM     74  C   UNL A   1      44.759  26.889  27.823  1.00  0.00     0.057 A 
ATOM     75  C   UNL A   1      44.241  27.363  26.600  1.00  0.00     0.134 A 
ATOM     76  C   UNL A   1      45.765  25.921  27.747  1.00  0.00     0.134 A 
ATOM     77  F   UNL A   1      43.254  28.275  26.595  1.00  0.00    -0.206 F 
ATOM     78  C   UNL A   1      44.834  27.045  25.377  1.00  0.00     0.040 A 
ATOM     79  C   UNL A   1      46.344  25.574  26.516  1.00  0.00     0.040 A 
ATOM     80  F   UNL A   1      46.305  25.404  28.859  1.00  0.00    -0.206 F 
ATOM     81  C   UNL A   1      45.928  26.190  25.338  1.00  0.00     0.006 A 
ENDBRANCH  53  74
BRANCH  65  82
ATOM     82  C   UNL A   1      43.466  33.852  29.339  1.00  0.00     0.057 A 
ATOM     83  C   UNL A   1      43.683  34.350  28.047  1.00  0.00     0.134 A 
ATOM     84  C   UNL A   1      43.333  34.841  30.343  1.00  0.00     0.134 A 
ATOM     85  F   UNL A   1      43.686  33.552  26.972  1.00  0.00    -0.206 F 
ATOM     86  C   UNL A   1      43.847  35.715  27.786  1.00  0.00     0.040 A 
ATOM     87  C   UNL A   1      43.410  36.209  30.080  1.00  0.00     0.040 A 
ATOM     88  F   UNL A   1      43.089  34.530  31.625  1.00  0.00    -0.206 F 
ATOM     89  C   UNL A   1      43.697  36.651  28.801  1.00  0.00     0.006 A 
ENDBRANCH  65  82
ENDBRANCH  39  40
ENDBRANCH  31  34
ENDBRANCH  29  30
ENDBRANCH  28  29
ENDBRANCH  27  28
ENDBRANCH   1  27
TORSDOF 15
ENDMDL
MODEL 3
REMARK VINA RESULT:     -12.3      3.004      5.450
REMARK SMILES Cc1cc(C(=O)NCCCCNC(=O)c2ccc(-c3c4nc(c(-c5c(F)cccc5F)c5ccc([nH]5)c(-c5c(F)cccc5F)c5nc(c(-c6c(F)cccc6F)c6ccc3[nH]6)C=C5)C=C4)cc2)ccc1NS(=O)(=O)c1ccc(C#N)cc1C
REMARK SMILES IDX 8 1 7 2 5 3 6 4 4 6 1 7 2 8 3 9 71 10 70 11 69 12 72 13
REMARK SMILES IDX 73 15 74 16 75 17 76 18 77 19 83 20 78 21 82 22 84 23 79 24
REMARK SMILES IDX 80 25 81 26 9 27 10 28 11 29 12 30 13 31 14 33 15 34 16 35
REMARK SMILES IDX 68 36 17 37 67 38 18 39 19 40 20 41 61 42 21 43 66 44 60 45
REMARK SMILES IDX 62 46 22 47 65 48 59 49 58 50 23 52 49 53 32 54 48 55 33 56
REMARK SMILES IDX 36 57 47 58 63 59 34 60 35 61 46 63 64 64 37 65 24 66 25 67
REMARK SMILES IDX 30 68 26 69 27 70 29 71 31 72 28 73 50 74 51 75 56 76 52 77
REMARK SMILES IDX 53 78 55 79 57 80 54 81 38 82 39 83 44 84 40 85 41 86 43 87
REMARK SMILES IDX 45 88 42 89
REMARK H PARENT 7 5 72 14 12 32 62 51 36 62
REMARK Flexibility Score: inf
ROOT
ATOM      1  C   UNL A   1      31.381  29.655  25.289  1.00  0.00     0.116 C 
ENDROOT
BRANCH   1   2
ATOM      2  N   UNL A   1      30.857  29.917  23.959  1.00  0.00    -0.352 N 
ATOM      3  C   UNL A   1      30.833  29.142  22.821  1.00  0.00     0.251 C 
ATOM      4  O   UNL A   1      30.158  29.528  21.867  1.00  0.00    -0.269 OA
ATOM      5  H   UNL A   1      30.446  30.805  23.852  1.00  0.00     0.163 HD
BRANCH   3   6
ATOM      6  C   UNL A   1      31.522  27.824  22.739  1.00  0.00     0.040 A 
ATOM      7  C   UNL A   1      30.594  24.182  23.181  1.00  0.00     0.046 C 
ATOM      8  C   UNL A   1      31.439  25.424  23.142  1.00  0.00    -0.026 A 
ATOM      9  C   UNL A   1      30.790  26.666  23.005  1.00  0.00     0.019 A 
ATOM     10  C   UNL A   1      32.843  25.383  23.114  1.00  0.00     0.052 A 
ATOM     11  C   UNL A   1      33.517  26.455  22.550  1.00  0.00     0.028 A 
ATOM     12  C   UNL A   1      32.855  27.670  22.370  1.00  0.00     0.016 A 
BRANCH  10  13
ATOM     13  N   UNL A   1      33.500  24.494  24.021  1.00  0.00    -0.279 N 
ATOM     14  H   UNL A   1      33.532  24.783  24.961  1.00  0.00     0.180 HD
BRANCH  13  15
ATOM     15  S   UNL A   1      34.223  23.023  23.684  1.00  0.00     0.262 S 
ATOM     16  O   UNL A   1      33.203  22.036  23.965  1.00  0.00    -0.201 OA
ATOM     17  O   UNL A   1      34.833  23.131  22.376  1.00  0.00    -0.201 OA
BRANCH  15  18
ATOM     18  C   UNL A   1      35.564  22.695  24.847  1.00  0.00     0.090 A 
ATOM     19  C   UNL A   1      36.347  23.736  25.358  1.00  0.00     0.024 A 
ATOM     20  C   UNL A   1      35.981  21.359  25.030  1.00  0.00    -0.029 A 
ATOM     21  C   UNL A   1      37.643  23.471  25.821  1.00  0.00     0.021 A 
ATOM     22  C   UNL A   1      37.279  21.110  25.513  1.00  0.00     0.024 A 
ATOM     23  C   UNL A   1      35.093  20.163  24.810  1.00  0.00     0.046 C 
ATOM     24  C   UNL A   1      38.135  22.164  25.826  1.00  0.00     0.052 A 
BRANCH  24  25
ATOM     25  C   UNL A   1      39.527  21.912  26.066  1.00  0.00     0.099 C 
ATOM     26  N   UNL A   1      40.636  21.632  26.240  1.00  0.00    -0.192 NA
ENDBRANCH  24  25
ENDBRANCH  15  18
ENDBRANCH  13  15
ENDBRANCH  10  13
ENDBRANCH   3   6
ENDBRANCH   1   2
BRANCH   1  27
ATOM     27  C   UNL A   1      32.901  29.853  25.384  1.00  0.00     0.023 C 
BRANCH  27  28
ATOM     28  C   UNL A   1      33.477  29.795  26.789  1.00  0.00     0.023 C 
BRANCH  28  29
ATOM     29  C   UNL A   1      33.216  31.032  27.619  1.00  0.00     0.116 C 
BRANCH  29  30
ATOM     30  N   UNL A   1      34.373  31.887  27.825  1.00  0.00    -0.352 N 
ATOM     31  C   UNL A   1      35.635  31.570  28.302  1.00  0.00     0.251 C 
ATOM     32  H   UNL A   1      34.240  32.834  27.590  1.00  0.00     0.163 HD
ATOM     33  O   UNL A   1      36.414  32.480  28.577  1.00  0.00    -0.269 OA
BRANCH  31  34
ATOM     34  C   UNL A   1      36.140  30.162  28.280  1.00  0.00     0.039 A 
ATOM     35  C   UNL A   1      36.277  29.574  29.548  1.00  0.00     0.014 A 
ATOM     36  C   UNL A   1      36.960  29.741  27.249  1.00  0.00     0.014 A 
ATOM     37  C   UNL A   1      37.470  28.950  29.870  1.00  0.00     0.010 A 
ATOM     38  C   UNL A   1      38.217  29.347  27.595  1.00  0.00     0.010 A 
ATOM     39  C   UNL A   1      38.477  29.018  28.925  1.00  0.00    -0.014 A 
BRANCH  39  40
ATOM     40  C   UNL A   1      39.855  28.676  29.154  1.00  0.00     0.031 A 
ATOM     41  C   UNL A   1      40.211  27.294  28.813  1.00  0.00     0.074 A 
ATOM     42  C   UNL A   1      40.689  29.722  29.353  1.00  0.00     0.049 A 
ATOM     43  N   UNL A   1      41.281  26.700  29.181  1.00  0.00    -0.248 NA
ATOM     44  C   UNL A   1      39.317  26.419  28.047  1.00  0.00     0.031 C 
ATOM     45  C   UNL A   1      42.132  29.820  29.184  1.00  0.00     0.029 A 
ATOM     46  N   UNL A   1      40.342  30.941  29.952  1.00  0.00    -0.354 N 
ATOM     47  C   UNL A   1      41.404  25.576  28.387  1.00  0.00     0.074 A 
ATOM     48  C   UNL A   1      40.092  25.353  27.845  1.00  0.00     0.031 C 
ATOM     49  C   UNL A   1      42.588  30.848  29.926  1.00  0.00     0.029 A 
ATOM     50  C   UNL A   1      41.464  31.344  30.706  1.00  0.00     0.049 A 
ATOM     51  H   UNL A   1      39.488  31.421  29.863  1.00  0.00     0.167 HD
ATOM     52  C   UNL A   1      42.664  25.123  28.135  1.00  0.00     0.037 A 
ATOM     53  C   UNL A   1      41.389  31.302  32.073  1.00  0.00     0.037 A 
ATOM     54  C   UNL A   1      43.610  25.922  28.919  1.00  0.00     0.049 A 
ATOM     55  C   UNL A   1      42.276  30.215  32.639  1.00  0.00     0.074 A 
ATOM     56  C   UNL A   1      44.387  27.020  28.590  1.00  0.00     0.029 A 
ATOM     57  N   UNL A   1      43.515  25.906  30.306  1.00  0.00    -0.354 N 
ATOM     58  N   UNL A   1      42.604  29.128  31.990  1.00  0.00    -0.248 NA
ATOM     59  C   UNL A   1      42.929  30.311  33.941  1.00  0.00     0.031 C 
ATOM     60  C   UNL A   1      44.676  27.720  29.793  1.00  0.00     0.029 A 
ATOM     61  C   UNL A   1      44.088  27.041  30.847  1.00  0.00     0.049 A 
ATOM     62  H   UNL A   1      43.097  25.184  30.831  1.00  0.00     0.167 HD
ATOM     63  C   UNL A   1      43.509  28.412  32.728  1.00  0.00     0.074 A 
ATOM     64  C   UNL A   1      43.674  29.192  33.943  1.00  0.00     0.031 C 
ATOM     65  C   UNL A   1      44.078  27.250  32.289  1.00  0.00     0.037 A 
BRANCH  52  66
ATOM     66  C   UNL A   1      43.093  24.216  26.999  1.00  0.00     0.057 A 
ATOM     67  C   UNL A   1      43.772  23.014  27.293  1.00  0.00     0.134 A 
ATOM     68  C   UNL A   1      42.943  24.458  25.621  1.00  0.00     0.134 A 
ATOM     69  F   UNL A   1      43.950  22.597  28.554  1.00  0.00    -0.206 F 
ATOM     70  C   UNL A   1      44.309  22.170  26.312  1.00  0.00     0.040 A 
ATOM     71  C   UNL A   1      43.481  23.624  24.626  1.00  0.00     0.040 A 
ATOM     72  F   UNL A   1      42.250  25.491  25.141  1.00  0.00    -0.206 F 
ATOM     73  C   UNL A   1      44.177  22.479  24.970  1.00  0.00     0.006 A 
ENDBRANCH  52  66
BRANCH  53  74
ATOM     74  C   UNL A   1      40.018  31.668  32.556  1.00  0.00     0.057 A 
ATOM     75  C   UNL A   1      39.596  32.998  32.349  1.00  0.00     0.134 A 
ATOM     76  C   UNL A   1      39.014  30.708  32.720  1.00  0.00     0.134 A 
ATOM     77  F   UNL A   1      40.504  33.978  32.211  1.00  0.00    -0.206 F 
ATOM     78  C   UNL A   1      38.257  33.317  32.112  1.00  0.00     0.040 A 
ATOM     79  C   UNL A   1      37.665  31.029  32.512  1.00  0.00     0.040 A 
ATOM     80  F   UNL A   1      39.325  29.422  32.934  1.00  0.00    -0.206 F 
ATOM     81  C   UNL A   1      37.292  32.318  32.137  1.00  0.00     0.006 A 
ENDBRANCH  53  74
BRANCH  65  82
ATOM     82  C   UNL A   1      44.760  26.230  33.169  1.00  0.00     0.057 A 
ATOM     83  C   UNL A   1      44.095  25.457  34.130  1.00  0.00     0.134 A 
ATOM     84  C   UNL A   1      46.111  25.868  32.946  1.00  0.00     0.134 A 
ATOM     85  F   UNL A   1      42.780  25.579  34.351  1.00  0.00    -0.206 F 
ATOM     86  C   UNL A   1      44.742  24.466  34.877  1.00  0.00     0.040 A 
ATOM     87  C   UNL A   1      46.742  24.825  33.624  1.00  0.00     0.040 A 
ATOM     88  F   UNL A   1      46.876  26.488  32.036  1.00  0.00    -0.206 F 
ATOM     89  C   UNL A   1      46.066  24.137  34.616  1.00  0.00     0.006 A 
ENDBRANCH  65  82
ENDBRANCH  39  40
ENDBRANCH  31  34
ENDBRANCH  29  30
ENDBRANCH  28  29
ENDBRANCH  27  28
ENDBRANCH   1  27
TORSDOF 15
ENDMDL
