MODEL 1
REMARK VINA RESULT:     -11.7      0.000      0.000
REMARK SMILES Cc1ccc2c(c1)C=C(C(=O)NCCCCNC(=O)c1ccc(-c3c4nc(c(-c5c(F)cccc5F)c5ccc([nH]5)c(-c5c(F)cccc5F)c5nc(c(-c6c(F)cccc6F)c6ccc3[nH]6)C=C5)C=C4)cc1)[C@@H](C(F)(F)F)O2
REMARK SMILES IDX 15 1 14 2 13 3 12 4 10 5 11 6 9 8 1 9 2 10 3 11 7 12 4 13
REMARK SMILES IDX 6 14 5 15 8 16 79 17 74 18 75 19 76 20 77 21 78 22 16 23
REMARK SMILES IDX 17 24 18 25 19 27 20 28 21 29 73 30 22 31 72 32 23 33 24 34
REMARK SMILES IDX 25 35 66 36 26 37 71 38 65 39 67 40 27 41 70 42 64 43 63 44
REMARK SMILES IDX 28 46 54 47 37 48 53 49 38 50 41 51 52 52 68 53 39 54 40 55
REMARK SMILES IDX 51 57 69 58 42 59 29 60 30 61 35 62 31 63 32 64 34 65 36 66
REMARK SMILES IDX 33 67 55 68 56 69 61 70 57 71 58 72 60 73 62 74 59 75 43 76
REMARK SMILES IDX 44 77 49 78 45 79 46 80 48 81 50 82 47 83
REMARK H PARENT 12 7 17 26 67 45 41 56
REMARK Flexibility Score: inf
ROOT
ATOM      1  C   UNL A   1      32.850  29.943  26.064  1.00  0.00     0.023 C 
ENDROOT
BRANCH   1   2
ATOM      2  C   UNL A   1      31.756  28.918  26.374  1.00  0.00     0.023 C 
BRANCH   2   3
ATOM      3  C   UNL A   1      32.239  27.690  27.144  1.00  0.00     0.116 C 
BRANCH   3   4
ATOM      4  N   UNL A   1      31.381  26.538  26.929  1.00  0.00    -0.352 N 
ATOM      5  C   UNL A   1      31.452  25.362  26.260  1.00  0.00     0.251 C 
ATOM      6  O   UNL A   1      30.449  24.647  26.357  1.00  0.00    -0.270 OA
ATOM      7  H   UNL A   1      30.519  26.637  27.394  1.00  0.00     0.163 HD
BRANCH   5   8
ATOM      8  C   UNL A   1      32.615  24.897  25.445  1.00  0.00     0.067 C 
ATOM      9  C   UNL A   1      38.355  22.688  26.112  1.00  0.00     0.044 C 
ATOM     10  C   UNL A   1      37.102  23.067  25.379  1.00  0.00    -0.050 A 
ATOM     11  C   UNL A   1      37.026  22.953  23.985  1.00  0.00     0.007 A 
ATOM     12  C   UNL A   1      35.989  23.540  26.091  1.00  0.00     0.015 A 
ATOM     13  C   UNL A   1      35.857  23.310  23.314  1.00  0.00     0.047 A 
ATOM     14  C   UNL A   1      34.818  23.905  25.419  1.00  0.00     0.017 A 
ATOM     15  C   UNL A   1      34.766  23.794  24.030  1.00  0.00     0.128 A 
ATOM     16  C   UNL A   1      33.637  24.363  26.141  1.00  0.00     0.025 C 
ATOM     17  O   UNL A   1      33.646  24.106  23.312  1.00  0.00    -0.475 OA
ATOM     18  C   UNL A   1      32.718  25.025  23.951  1.00  0.00     0.314 C 
BRANCH  18  19
ATOM     19  C   UNL A   1      33.036  26.465  23.502  1.00  0.00     0.429 C 
ATOM     20  F   UNL A   1      33.938  27.033  24.341  1.00  0.00    -0.167 F 
ATOM     21  F   UNL A   1      33.585  26.513  22.264  1.00  0.00    -0.167 F 
ATOM     22  F   UNL A   1      31.944  27.263  23.478  1.00  0.00    -0.167 F 
ENDBRANCH  18  19
ENDBRANCH   5   8
ENDBRANCH   3   4
ENDBRANCH   2   3
ENDBRANCH   1   2
BRANCH   1  23
ATOM     23  C   UNL A   1      34.100  29.858  26.937  1.00  0.00     0.116 C 
BRANCH  23  24
ATOM     24  N   UNL A   1      34.171  30.858  27.995  1.00  0.00    -0.352 N 
ATOM     25  C   UNL A   1      35.201  31.064  28.890  1.00  0.00     0.251 C 
ATOM     26  H   UNL A   1      33.394  31.455  28.082  1.00  0.00     0.163 HD
ATOM     27  O   UNL A   1      35.107  31.901  29.779  1.00  0.00    -0.269 OA
BRANCH  25  28
ATOM     28  C   UNL A   1      36.395  30.200  28.796  1.00  0.00     0.039 A 
ATOM     29  C   UNL A   1      36.815  29.468  29.905  1.00  0.00     0.014 A 
ATOM     30  C   UNL A   1      37.169  30.238  27.633  1.00  0.00     0.014 A 
ATOM     31  C   UNL A   1      38.102  28.946  29.927  1.00  0.00     0.010 A 
ATOM     32  C   UNL A   1      38.432  29.641  27.629  1.00  0.00     0.010 A 
ATOM     33  C   UNL A   1      38.938  29.061  28.803  1.00  0.00    -0.014 A 
BRANCH  33  34
ATOM     34  C   UNL A   1      40.359  28.642  28.921  1.00  0.00     0.031 A 
ATOM     35  C   UNL A   1      40.789  27.262  28.490  1.00  0.00     0.074 A 
ATOM     36  C   UNL A   1      41.281  29.539  29.318  1.00  0.00     0.049 A 
ATOM     37  N   UNL A   1      41.994  26.751  28.439  1.00  0.00    -0.248 NA
ATOM     38  C   UNL A   1      39.730  26.334  28.062  1.00  0.00     0.031 C 
ATOM     39  C   UNL A   1      40.995  30.908  29.749  1.00  0.00     0.029 A 
ATOM     40  N   UNL A   1      42.647  29.445  29.380  1.00  0.00    -0.354 N 
ATOM     41  C   UNL A   1      41.835  25.442  27.999  1.00  0.00     0.074 A 
ATOM     42  C   UNL A   1      40.416  25.227  27.820  1.00  0.00     0.031 C 
ATOM     43  C   UNL A   1      42.154  31.547  29.970  1.00  0.00     0.029 A 
ATOM     44  C   UNL A   1      43.259  30.622  29.739  1.00  0.00     0.049 A 
ATOM     45  H   UNL A   1      43.142  28.617  29.187  1.00  0.00     0.167 HD
ATOM     46  C   UNL A   1      42.784  24.505  27.753  1.00  0.00     0.037 A 
ATOM     47  C   UNL A   1      44.564  30.923  29.861  1.00  0.00     0.037 A 
ATOM     48  C   UNL A   1      44.200  24.721  27.898  1.00  0.00     0.049 A 
ATOM     49  C   UNL A   1      45.593  29.868  29.580  1.00  0.00     0.074 A 
ATOM     50  C   UNL A   1      45.239  23.837  27.667  1.00  0.00     0.029 A 
ATOM     51  N   UNL A   1      44.776  25.915  28.305  1.00  0.00    -0.354 N 
ATOM     52  N   UNL A   1      45.424  28.635  29.170  1.00  0.00    -0.248 NA
ATOM     53  C   UNL A   1      46.997  30.251  29.784  1.00  0.00     0.031 C 
ATOM     54  C   UNL A   1      46.444  24.489  27.955  1.00  0.00     0.029 A 
ATOM     55  C   UNL A   1      46.155  25.789  28.336  1.00  0.00     0.049 A 
ATOM     56  H   UNL A   1      44.278  26.733  28.537  1.00  0.00     0.167 HD
ATOM     57  C   UNL A   1      46.698  28.096  29.059  1.00  0.00     0.074 A 
ATOM     58  C   UNL A   1      47.631  29.146  29.419  1.00  0.00     0.031 C 
ATOM     59  C   UNL A   1      47.066  26.842  28.700  1.00  0.00     0.037 A 
BRANCH  46  60
ATOM     60  C   UNL A   1      42.314  23.151  27.311  1.00  0.00     0.057 A 
ATOM     61  C   UNL A   1      41.902  22.196  28.249  1.00  0.00     0.134 A 
ATOM     62  C   UNL A   1      42.290  22.782  25.960  1.00  0.00     0.134 A 
ATOM     63  F   UNL A   1      41.905  22.485  29.560  1.00  0.00    -0.206 F 
ATOM     64  C   UNL A   1      41.482  20.923  27.860  1.00  0.00     0.040 A 
ATOM     65  C   UNL A   1      41.853  21.519  25.556  1.00  0.00     0.040 A 
ATOM     66  F   UNL A   1      42.656  23.656  25.010  1.00  0.00    -0.206 F 
ATOM     67  C   UNL A   1      41.452  20.584  26.508  1.00  0.00     0.006 A 
ENDBRANCH  46  60
BRANCH  47  68
ATOM     68  C   UNL A   1      44.972  32.292  30.256  1.00  0.00     0.057 A 
ATOM     69  C   UNL A   1      45.163  33.299  29.303  1.00  0.00     0.134 A 
ATOM     70  C   UNL A   1      45.170  32.625  31.600  1.00  0.00     0.134 A 
ATOM     71  F   UNL A   1      44.992  33.037  27.998  1.00  0.00    -0.206 F 
ATOM     72  C   UNL A   1      45.547  34.587  29.671  1.00  0.00     0.040 A 
ATOM     73  C   UNL A   1      45.532  33.917  31.985  1.00  0.00     0.040 A 
ATOM     74  F   UNL A   1      44.982  31.706  32.559  1.00  0.00    -0.206 F 
ATOM     75  C   UNL A   1      45.727  34.901  31.017  1.00  0.00     0.006 A 
ENDBRANCH  47  68
BRANCH  59  76
ATOM     76  C   UNL A   1      48.536  26.556  28.669  1.00  0.00     0.057 A 
ATOM     77  C   UNL A   1      49.179  26.000  29.781  1.00  0.00     0.134 A 
ATOM     78  C   UNL A   1      49.311  26.820  27.533  1.00  0.00     0.134 A 
ATOM     79  F   UNL A   1      48.492  25.727  30.901  1.00  0.00    -0.206 F 
ATOM     80  C   UNL A   1      50.544  25.707  29.761  1.00  0.00     0.040 A 
ATOM     81  C   UNL A   1      50.672  26.513  27.494  1.00  0.00     0.040 A 
ATOM     82  F   UNL A   1      48.748  27.337  26.431  1.00  0.00    -0.206 F 
ATOM     83  C   UNL A   1      51.292  25.956  28.611  1.00  0.00     0.006 A 
ENDBRANCH  59  76
ENDBRANCH  33  34
ENDBRANCH  25  28
ENDBRANCH  23  24
ENDBRANCH   1  23
TORSDOF 12
ENDMDL
MODEL 2
REMARK VINA RESULT:     -11.6      3.766      7.141
REMARK SMILES Cc1ccc2c(c1)C=C(C(=O)NCCCCNC(=O)c1ccc(-c3c4nc(c(-c5c(F)cccc5F)c5ccc([nH]5)c(-c5c(F)cccc5F)c5nc(c(-c6c(F)cccc6F)c6ccc3[nH]6)C=C5)C=C4)cc1)[C@@H](C(F)(F)F)O2
REMARK SMILES IDX 15 1 14 2 13 3 12 4 10 5 11 6 9 8 1 9 2 10 3 11 7 12 4 13
REMARK SMILES IDX 6 14 5 15 8 16 79 17 74 18 75 19 76 20 77 21 78 22 16 23
REMARK SMILES IDX 17 24 18 25 19 27 20 28 21 29 73 30 22 31 72 32 23 33 24 34
REMARK SMILES IDX 25 35 66 36 26 37 71 38 65 39 67 40 27 41 70 42 64 43 63 44
REMARK SMILES IDX 28 46 54 47 37 48 53 49 38 50 41 51 52 52 68 53 39 54 40 55
REMARK SMILES IDX 51 57 69 58 42 59 29 60 30 61 35 62 31 63 32 64 34 65 36 66
REMARK SMILES IDX 33 67 55 68 56 69 61 70 57 71 58 72 60 73 62 74 59 75 43 76
REMARK SMILES IDX 44 77 49 78 45 79 46 80 48 81 50 82 47 83
REMARK H PARENT 12 7 17 26 67 45 41 56
REMARK Flexibility Score: inf
ROOT
ATOM      1  C   UNL A   1      31.349  30.587  25.502  1.00  0.00     0.023 C 
ENDROOT
BRANCH   1   2
ATOM      2  C   UNL A   1      31.359  29.112  25.093  1.00  0.00     0.023 C 
BRANCH   2   3
ATOM      3  C   UNL A   1      32.058  28.185  26.086  1.00  0.00     0.116 C 
BRANCH   3   4
ATOM      4  N   UNL A   1      31.299  26.970  26.328  1.00  0.00    -0.352 N 
ATOM      5  C   UNL A   1      31.426  25.652  26.047  1.00  0.00     0.251 C 
ATOM      6  O   UNL A   1      30.507  24.940  26.466  1.00  0.00    -0.270 OA
ATOM      7  H   UNL A   1      30.473  27.154  26.831  1.00  0.00     0.163 HD
BRANCH   5   8
ATOM      8  C   UNL A   1      32.556  25.030  25.293  1.00  0.00     0.067 C 
ATOM      9  C   UNL A   1      38.437  23.274  26.063  1.00  0.00     0.044 C 
ATOM     10  C   UNL A   1      37.121  23.404  25.355  1.00  0.00    -0.050 A 
ATOM     11  C   UNL A   1      36.960  22.927  24.049  1.00  0.00     0.007 A 
ATOM     12  C   UNL A   1      36.033  24.008  26.005  1.00  0.00     0.015 A 
ATOM     13  C   UNL A   1      35.732  23.055  23.400  1.00  0.00     0.047 A 
ATOM     14  C   UNL A   1      34.802  24.144  25.354  1.00  0.00     0.017 A 
ATOM     15  C   UNL A   1      34.666  23.672  24.048  1.00  0.00     0.128 A 
ATOM     16  C   UNL A   1      33.648  24.732  26.022  1.00  0.00     0.025 C 
ATOM     17  O   UNL A   1      33.487  23.746  23.363  1.00  0.00    -0.475 OA
ATOM     18  C   UNL A   1      32.554  24.767  23.813  1.00  0.00     0.314 C 
BRANCH  18  19
ATOM     19  C   UNL A   1      32.765  26.050  22.984  1.00  0.00     0.429 C 
ATOM     20  F   UNL A   1      31.595  26.724  22.851  1.00  0.00    -0.167 F 
ATOM     21  F   UNL A   1      33.635  26.908  23.569  1.00  0.00    -0.167 F 
ATOM     22  F   UNL A   1      33.234  25.802  21.741  1.00  0.00    -0.167 F 
ENDBRANCH  18  19
ENDBRANCH   5   8
ENDBRANCH   3   4
ENDBRANCH   2   3
ENDBRANCH   1   2
BRANCH   1  23
ATOM     23  C   UNL A   1      32.163  30.933  26.747  1.00  0.00     0.116 C 
BRANCH  23  24
ATOM     24  N   UNL A   1      32.076  32.327  27.162  1.00  0.00    -0.352 N 
ATOM     25  C   UNL A   1      33.073  33.104  27.715  1.00  0.00     0.251 C 
ATOM     26  H   UNL A   1      31.205  32.766  27.032  1.00  0.00     0.163 HD
ATOM     27  O   UNL A   1      32.850  34.251  28.083  1.00  0.00    -0.269 OA
BRANCH  25  28
ATOM     28  C   UNL A   1      34.403  32.495  27.921  1.00  0.00     0.039 A 
ATOM     29  C   UNL A   1      34.510  31.137  28.220  1.00  0.00     0.014 A 
ATOM     30  C   UNL A   1      35.529  33.321  27.949  1.00  0.00     0.014 A 
ATOM     31  C   UNL A   1      35.698  30.650  28.749  1.00  0.00     0.010 A 
ATOM     32  C   UNL A   1      36.746  32.807  28.404  1.00  0.00     0.010 A 
ATOM     33  C   UNL A   1      36.817  31.490  28.882  1.00  0.00    -0.014 A 
BRANCH  33  34
ATOM     34  C   UNL A   1      38.013  30.981  29.604  1.00  0.00     0.031 A 
ATOM     35  C   UNL A   1      38.222  31.301  31.062  1.00  0.00     0.074 A 
ATOM     36  C   UNL A   1      38.858  30.143  28.973  1.00  0.00     0.049 A 
ATOM     37  N   UNL A   1      39.157  30.875  31.875  1.00  0.00    -0.248 NA
ATOM     38  C   UNL A   1      37.258  32.218  31.691  1.00  0.00     0.031 C 
ATOM     39  C   UNL A   1      38.759  29.746  27.568  1.00  0.00     0.029 A 
ATOM     40  N   UNL A   1      39.938  29.443  29.445  1.00  0.00    -0.354 N 
ATOM     41  C   UNL A   1      38.908  31.490  33.098  1.00  0.00     0.074 A 
ATOM     42  C   UNL A   1      37.750  32.337  32.915  1.00  0.00     0.031 C 
ATOM     43  C   UNL A   1      39.698  28.824  27.308  1.00  0.00     0.029 A 
ATOM     44  C   UNL A   1      40.490  28.599  28.513  1.00  0.00     0.049 A 
ATOM     45  H   UNL A   1      40.284  29.535  30.361  1.00  0.00     0.167 HD
ATOM     46  C   UNL A   1      39.575  31.353  34.270  1.00  0.00     0.037 A 
ATOM     47  C   UNL A   1      41.515  27.735  28.619  1.00  0.00     0.037 A 
ATOM     48  C   UNL A   1      40.708  30.489  34.468  1.00  0.00     0.049 A 
ATOM     49  C   UNL A   1      42.234  27.602  29.929  1.00  0.00     0.074 A 
ATOM     50  C   UNL A   1      41.446  30.278  35.620  1.00  0.00     0.029 A 
ATOM     51  N   UNL A   1      41.263  29.682  33.486  1.00  0.00    -0.354 N 
ATOM     52  N   UNL A   1      41.988  28.195  31.072  1.00  0.00    -0.248 NA
ATOM     53  C   UNL A   1      43.377  26.679  29.960  1.00  0.00     0.031 C 
ATOM     54  C   UNL A   1      42.462  29.360  35.330  1.00  0.00     0.029 A 
ATOM     55  C   UNL A   1      42.337  28.976  34.005  1.00  0.00     0.049 A 
ATOM     56  H   UNL A   1      40.941  29.620  32.557  1.00  0.00     0.167 HD
ATOM     57  C   UNL A   1      42.939  27.712  31.960  1.00  0.00     0.074 A 
ATOM     58  C   UNL A   1      43.749  26.757  31.230  1.00  0.00     0.031 C 
ATOM     59  C   UNL A   1      43.132  28.035  33.262  1.00  0.00     0.037 A 
BRANCH  46  60
ATOM     60  C   UNL A   1      39.095  32.173  35.432  1.00  0.00     0.057 A 
ATOM     61  C   UNL A   1      39.502  33.505  35.582  1.00  0.00     0.134 A 
ATOM     62  C   UNL A   1      38.251  31.640  36.414  1.00  0.00     0.134 A 
ATOM     63  F   UNL A   1      40.314  34.075  34.678  1.00  0.00    -0.206 F 
ATOM     64  C   UNL A   1      39.085  34.278  36.667  1.00  0.00     0.040 A 
ATOM     65  C   UNL A   1      37.811  32.409  37.493  1.00  0.00     0.040 A 
ATOM     66  F   UNL A   1      37.811  30.376  36.319  1.00  0.00    -0.206 F 
ATOM     67  C   UNL A   1      38.232  33.731  37.625  1.00  0.00     0.006 A 
ENDBRANCH  46  60
BRANCH  47  68
ATOM     68  C   UNL A   1      41.916  26.916  27.451  1.00  0.00     0.057 A 
ATOM     69  C   UNL A   1      41.402  25.629  27.253  1.00  0.00     0.134 A 
ATOM     70  C   UNL A   1      42.815  27.409  26.499  1.00  0.00     0.134 A 
ATOM     71  F   UNL A   1      40.539  25.102  28.134  1.00  0.00    -0.206 F 
ATOM     72  C   UNL A   1      41.777  24.856  26.155  1.00  0.00     0.040 A 
ATOM     73  C   UNL A   1      43.181  26.655  25.383  1.00  0.00     0.040 A 
ATOM     74  F   UNL A   1      43.325  28.643  26.627  1.00  0.00    -0.206 F 
ATOM     75  C   UNL A   1      42.665  25.372  25.212  1.00  0.00     0.006 A 
ENDBRANCH  47  68
BRANCH  59  76
ATOM     76  C   UNL A   1      44.253  27.335  33.968  1.00  0.00     0.057 A 
ATOM     77  C   UNL A   1      44.039  26.108  34.607  1.00  0.00     0.134 A 
ATOM     78  C   UNL A   1      45.546  27.873  34.006  1.00  0.00     0.134 A 
ATOM     79  F   UNL A   1      42.823  25.543  34.610  1.00  0.00    -0.206 F 
ATOM     80  C   UNL A   1      45.078  25.433  35.251  1.00  0.00     0.040 A 
ATOM     81  C   UNL A   1      46.596  27.197  34.629  1.00  0.00     0.040 A 
ATOM     82  F   UNL A   1      45.816  29.037  33.398  1.00  0.00    -0.206 F 
ATOM     83  C   UNL A   1      46.362  25.974  35.255  1.00  0.00     0.006 A 
ENDBRANCH  59  76
ENDBRANCH  33  34
ENDBRANCH  25  28
ENDBRANCH  23  24
ENDBRANCH   1  23
TORSDOF 12
ENDMDL
MODEL 3
REMARK VINA RESULT:     -11.6      2.244      7.556
REMARK SMILES Cc1ccc2c(c1)C=C(C(=O)NCCCCNC(=O)c1ccc(-c3c4nc(c(-c5c(F)cccc5F)c5ccc([nH]5)c(-c5c(F)cccc5F)c5nc(c(-c6c(F)cccc6F)c6ccc3[nH]6)C=C5)C=C4)cc1)[C@@H](C(F)(F)F)O2
REMARK SMILES IDX 15 1 14 2 13 3 12 4 10 5 11 6 9 8 1 9 2 10 3 11 7 12 4 13
REMARK SMILES IDX 6 14 5 15 8 16 79 17 74 18 75 19 76 20 77 21 78 22 16 23
REMARK SMILES IDX 17 24 18 25 19 27 20 28 21 29 73 30 22 31 72 32 23 33 24 34
REMARK SMILES IDX 25 35 66 36 26 37 71 38 65 39 67 40 27 41 70 42 64 43 63 44
REMARK SMILES IDX 28 46 54 47 37 48 53 49 38 50 41 51 52 52 68 53 39 54 40 55
REMARK SMILES IDX 51 57 69 58 42 59 29 60 30 61 35 62 31 63 32 64 34 65 36 66
REMARK SMILES IDX 33 67 55 68 56 69 61 70 57 71 58 72 60 73 62 74 59 75 43 76
REMARK SMILES IDX 44 77 49 78 45 79 46 80 48 81 50 82 47 83
REMARK H PARENT 12 7 17 26 67 45 41 56
REMARK Flexibility Score: inf
ROOT
ATOM      1  C   UNL A   1      37.821  21.265  25.007  1.00  0.00     0.023 C 
ENDROOT
BRANCH   1   2
ATOM      2  C   UNL A   1      36.665  22.108  25.552  1.00  0.00     0.023 C 
BRANCH   2   3
ATOM      3  C   UNL A   1      36.568  23.510  24.954  1.00  0.00     0.116 C 
BRANCH   3   4
ATOM      4  N   UNL A   1      35.651  23.562  23.828  1.00  0.00    -0.352 N 
ATOM      5  C   UNL A   1      34.434  24.097  23.567  1.00  0.00     0.251 C 
ATOM      6  O   UNL A   1      34.011  23.892  22.424  1.00  0.00    -0.270 OA
ATOM      7  H   UNL A   1      36.010  23.083  23.047  1.00  0.00     0.163 HD
BRANCH   5   8
ATOM      8  C   UNL A   1      33.605  24.881  24.532  1.00  0.00     0.067 C 
ATOM      9  C   UNL A   1      33.429  30.407  27.306  1.00  0.00     0.044 C 
ATOM     10  C   UNL A   1      32.926  29.053  26.902  1.00  0.00    -0.050 A 
ATOM     11  C   UNL A   1      31.707  28.567  27.392  1.00  0.00     0.007 A 
ATOM     12  C   UNL A   1      33.679  28.260  26.022  1.00  0.00     0.015 A 
ATOM     13  C   UNL A   1      31.250  27.306  27.010  1.00  0.00     0.047 A 
ATOM     14  C   UNL A   1      33.225  26.992  25.644  1.00  0.00     0.017 A 
ATOM     15  C   UNL A   1      32.014  26.521  26.151  1.00  0.00     0.128 A 
ATOM     16  C   UNL A   1      33.971  26.166  24.702  1.00  0.00     0.025 C 
ATOM     17  O   UNL A   1      31.497  25.306  25.803  1.00  0.00    -0.475 OA
ATOM     18  C   UNL A   1      32.456  24.322  25.323  1.00  0.00     0.314 C 
BRANCH  18  19
ATOM     19  C   UNL A   1      32.920  23.446  26.502  1.00  0.00     0.429 C 
ATOM     20  F   UNL A   1      33.082  22.160  26.101  1.00  0.00    -0.167 F 
ATOM     21  F   UNL A   1      34.115  23.842  27.003  1.00  0.00    -0.167 F 
ATOM     22  F   UNL A   1      32.045  23.443  27.533  1.00  0.00    -0.167 F 
ENDBRANCH  18  19
ENDBRANCH   5   8
ENDBRANCH   3   4
ENDBRANCH   2   3
ENDBRANCH   1   2
BRANCH   1  23
ATOM     23  C   UNL A   1      39.043  21.154  25.916  1.00  0.00     0.116 C 
BRANCH  23  24
ATOM     24  N   UNL A   1      39.803  19.919  25.765  1.00  0.00    -0.352 N 
ATOM     25  C   UNL A   1      41.138  19.715  26.042  1.00  0.00     0.251 C 
ATOM     26  H   UNL A   1      39.305  19.141  25.426  1.00  0.00     0.163 HD
ATOM     27  O   UNL A   1      41.675  18.638  25.808  1.00  0.00    -0.269 OA
BRANCH  25  28
ATOM     28  C   UNL A   1      41.928  20.849  26.563  1.00  0.00     0.039 A 
ATOM     29  C   UNL A   1      42.075  21.022  27.939  1.00  0.00     0.014 A 
ATOM     30  C   UNL A   1      42.402  21.812  25.670  1.00  0.00     0.014 A 
ATOM     31  C   UNL A   1      42.505  22.250  28.427  1.00  0.00     0.010 A 
ATOM     32  C   UNL A   1      42.912  23.016  26.164  1.00  0.00     0.010 A 
ATOM     33  C   UNL A   1      42.892  23.273  27.544  1.00  0.00    -0.014 A 
BRANCH  33  34
ATOM     34  C   UNL A   1      43.185  24.622  28.094  1.00  0.00     0.031 A 
ATOM     35  C   UNL A   1      44.608  25.097  28.239  1.00  0.00     0.074 A 
ATOM     36  C   UNL A   1      42.166  25.460  28.366  1.00  0.00     0.049 A 
ATOM     37  N   UNL A   1      45.052  26.270  28.617  1.00  0.00    -0.248 NA
ATOM     38  C   UNL A   1      45.672  24.132  27.919  1.00  0.00     0.031 C 
ATOM     39  C   UNL A   1      40.746  25.124  28.256  1.00  0.00     0.029 A 
ATOM     40  N   UNL A   1      42.172  26.776  28.747  1.00  0.00    -0.354 N 
ATOM     41  C   UNL A   1      46.440  26.175  28.605  1.00  0.00     0.074 A 
ATOM     42  C   UNL A   1      46.766  24.824  28.205  1.00  0.00     0.031 C 
ATOM     43  C   UNL A   1      40.018  26.224  28.500  1.00  0.00     0.029 A 
ATOM     44  C   UNL A   1      40.916  27.327  28.826  1.00  0.00     0.049 A 
ATOM     45  H   UNL A   1      42.995  27.278  28.946  1.00  0.00     0.167 HD
ATOM     46  C   UNL A   1      47.361  27.129  28.887  1.00  0.00     0.037 A 
ATOM     47  C   UNL A   1      40.532  28.581  29.120  1.00  0.00     0.037 A 
ATOM     48  C   UNL A   1      47.045  28.484  29.255  1.00  0.00     0.049 A 
ATOM     49  C   UNL A   1      41.573  29.618  29.427  1.00  0.00     0.074 A 
ATOM     50  C   UNL A   1      47.908  29.524  29.553  1.00  0.00     0.029 A 
ATOM     51  N   UNL A   1      45.759  28.990  29.364  1.00  0.00    -0.354 N 
ATOM     52  N   UNL A   1      42.878  29.508  29.415  1.00  0.00    -0.248 NA
ATOM     53  C   UNL A   1      41.081  30.954  29.791  1.00  0.00     0.031 C 
ATOM     54  C   UNL A   1      47.144  30.655  29.865  1.00  0.00     0.029 A 
ATOM     55  C   UNL A   1      45.805  30.326  29.730  1.00  0.00     0.049 A 
ATOM     56  H   UNL A   1      44.934  28.477  29.204  1.00  0.00     0.167 HD
ATOM     57  C   UNL A   1      43.365  30.761  29.762  1.00  0.00     0.074 A 
ATOM     58  C   UNL A   1      42.215  31.621  29.951  1.00  0.00     0.031 C 
ATOM     59  C   UNL A   1      44.650  31.163  29.918  1.00  0.00     0.037 A 
BRANCH  46  60
ATOM     60  C   UNL A   1      48.806  26.730  28.820  1.00  0.00     0.057 A 
ATOM     61  C   UNL A   1      49.475  26.275  29.963  1.00  0.00     0.134 A 
ATOM     62  C   UNL A   1      49.541  26.816  27.631  1.00  0.00     0.134 A 
ATOM     63  F   UNL A   1      48.828  26.172  31.134  1.00  0.00    -0.206 F 
ATOM     64  C   UNL A   1      50.824  25.920  29.927  1.00  0.00     0.040 A 
ATOM     65  C   UNL A   1      50.886  26.445  27.577  1.00  0.00     0.040 A 
ATOM     66  F   UNL A   1      48.955  27.228  26.497  1.00  0.00    -0.206 F 
ATOM     67  C   UNL A   1      51.532  25.999  28.729  1.00  0.00     0.006 A 
ENDBRANCH  46  60
BRANCH  47  68
ATOM     68  C   UNL A   1      39.092  28.931  29.127  1.00  0.00     0.057 A 
ATOM     69  C   UNL A   1      38.315  28.799  30.283  1.00  0.00     0.134 A 
ATOM     70  C   UNL A   1      38.463  29.415  27.974  1.00  0.00     0.134 A 
ATOM     71  F   UNL A   1      38.863  28.336  31.417  1.00  0.00    -0.206 F 
ATOM     72  C   UNL A   1      36.961  29.126  30.293  1.00  0.00     0.040 A 
ATOM     73  C   UNL A   1      37.113  29.768  27.976  1.00  0.00     0.040 A 
ATOM     74  F   UNL A   1      39.161  29.580  26.842  1.00  0.00    -0.206 F 
ATOM     75  C   UNL A   1      36.356  29.619  29.137  1.00  0.00     0.006 A 
ENDBRANCH  47  68
BRANCH  59  76
ATOM     76  C   UNL A   1      44.863  32.597  30.299  1.00  0.00     0.057 A 
ATOM     77  C   UNL A   1      44.949  32.973  31.644  1.00  0.00     0.134 A 
ATOM     78  C   UNL A   1      44.995  33.601  29.332  1.00  0.00     0.134 A 
ATOM     79  F   UNL A   1      44.828  32.058  32.618  1.00  0.00    -0.206 F 
ATOM     80  C   UNL A   1      45.170  34.301  32.015  1.00  0.00     0.040 A 
ATOM     81  C   UNL A   1      45.236  34.928  29.690  1.00  0.00     0.040 A 
ATOM     82  F   UNL A   1      44.938  33.299  28.026  1.00  0.00    -0.206 F 
ATOM     83  C   UNL A   1      45.322  35.281  31.036  1.00  0.00     0.006 A 
ENDBRANCH  59  76
ENDBRANCH  33  34
ENDBRANCH  25  28
ENDBRANCH  23  24
ENDBRANCH   1  23
TORSDOF 12
ENDMDL
