MODEL 1
REMARK VINA RESULT:     -11.9      0.000      0.000
REMARK SMILES CC1(C)O[C@](C)([C@H](O)C2CCCCC2)CC[C@H]1C(=O)NCCCCNC(=O)c1ccc(-c2c3nc(c(-c4c(F)cccc4F)c4ccc([nH]4)c(-c4c(F)cccc4F)c4nc(c(-c5c(F)cccc5F)c5ccc2[nH]5)C=C4)C=C3)cc1
REMARK SMILES IDX 22 1 21 2 20 3 18 4 19 5 17 7 1 8 2 9 3 10 4 11 5 12 16 13
REMARK SMILES IDX 6 14 15 15 7 16 9 17 10 18 14 19 11 20 13 21 12 22 8 23
REMARK SMILES IDX 23 25 24 26 25 27 26 28 27 30 28 31 29 32 81 33 30 34 80 35
REMARK SMILES IDX 31 36 32 37 33 38 74 39 34 40 79 41 73 42 75 43 35 44 78 45
REMARK SMILES IDX 72 46 71 47 36 49 62 50 45 51 61 52 46 53 49 54 60 55 76 56
REMARK SMILES IDX 47 57 48 58 59 60 77 61 50 62 37 63 38 64 43 65 39 66 40 67
REMARK SMILES IDX 42 68 44 69 41 70 63 71 64 72 69 73 65 74 66 75 68 76 70 77
REMARK SMILES IDX 67 78 51 79 52 80 57 81 53 82 54 83 56 84 58 85 55 86
REMARK H PARENT 20 6 8 24 25 29 75 48 49 59
REMARK Flexibility Score: inf
ROOT
ATOM      1  C   UNL A   1      36.509  20.051  25.006  1.00  0.00     0.023 C 
ENDROOT
BRANCH   1   2
ATOM      2  C   UNL A   1      35.332  20.879  25.524  1.00  0.00     0.116 C 
BRANCH   2   3
ATOM      3  N   UNL A   1      34.064  20.195  25.380  1.00  0.00    -0.356 N 
ATOM      4  C   UNL A   1      32.821  20.649  25.074  1.00  0.00     0.226 C 
ATOM      5  O   UNL A   1      31.922  19.800  25.059  1.00  0.00    -0.275 OA
ATOM      6  H   UNL A   1      34.112  19.224  25.531  1.00  0.00     0.163 HD
BRANCH   4   7
ATOM      7  C   UNL A   1      32.483  22.113  24.757  1.00  0.00     0.110 C 
ATOM      8  C   UNL A   1      32.852  22.767  27.298  1.00  0.00     0.043 C 
ATOM      9  C   UNL A   1      32.113  23.000  25.985  1.00  0.00     0.075 C 
ATOM     10  C   UNL A   1      30.623  22.735  26.319  1.00  0.00     0.043 C 
ATOM     11  O   UNL A   1      32.178  24.408  25.736  1.00  0.00    -0.366 OA
ATOM     12  C   UNL A   1      33.198  24.967  24.902  1.00  0.00     0.092 C 
ATOM     13  C   UNL A   1      33.373  22.742  23.678  1.00  0.00     0.019 C 
ATOM     14  C   UNL A   1      34.642  24.857  25.440  1.00  0.00     0.045 C 
ATOM     15  C   UNL A   1      33.128  24.248  23.539  1.00  0.00     0.039 C 
BRANCH  12  16
ATOM     16  C   UNL A   1      32.800  26.482  24.741  1.00  0.00     0.149 C 
BRANCH  16  17
ATOM     17  C   UNL A   1      33.544  27.513  25.667  1.00  0.00     0.021 C 
ATOM     18  C   UNL A   1      33.682  28.962  25.174  1.00  0.00     0.006 C 
ATOM     19  C   UNL A   1      32.988  27.549  27.108  1.00  0.00     0.006 C 
ATOM     20  C   UNL A   1      32.372  29.738  25.234  1.00  0.00     0.000 C 
ATOM     21  C   UNL A   1      31.738  28.417  27.293  1.00  0.00     0.000 C 
ATOM     22  C   UNL A   1      31.866  29.804  26.669  1.00  0.00     0.000 C 
ENDBRANCH  16  17
BRANCH  16  23
ATOM     23  O   UNL A   1      32.836  26.857  23.365  1.00  0.00    -0.390 OA
ATOM     24  H   UNL A   1      33.755  26.856  23.053  1.00  0.00     0.211 HD
ENDBRANCH  16  23
ENDBRANCH  12  16
ENDBRANCH   4   7
ENDBRANCH   2   3
ENDBRANCH   1   2
BRANCH   1  25
ATOM     25  C   UNL A   1      37.750  20.849  24.648  1.00  0.00     0.023 C 
BRANCH  25  26
ATOM     26  C   UNL A   1      38.803  20.891  25.740  1.00  0.00     0.116 C 
BRANCH  26  27
ATOM     27  N   UNL A   1      39.727  19.762  25.699  1.00  0.00    -0.352 N 
ATOM     28  C   UNL A   1      41.065  19.732  26.021  1.00  0.00     0.251 C 
ATOM     29  H   UNL A   1      39.342  18.908  25.400  1.00  0.00     0.163 HD
ATOM     30  O   UNL A   1      41.738  18.728  25.825  1.00  0.00    -0.269 OA
BRANCH  28  31
ATOM     31  C   UNL A   1      41.681  20.954  26.569  1.00  0.00     0.039 A 
ATOM     32  C   UNL A   1      42.235  21.887  25.691  1.00  0.00     0.014 A 
ATOM     33  C   UNL A   1      41.600  21.217  27.937  1.00  0.00     0.014 A 
ATOM     34  C   UNL A   1      42.614  23.137  26.178  1.00  0.00     0.010 A 
ATOM     35  C   UNL A   1      41.882  22.494  28.399  1.00  0.00     0.010 A 
ATOM     36  C   UNL A   1      42.385  23.468  27.524  1.00  0.00    -0.014 A 
BRANCH  36  37
ATOM     37  C   UNL A   1      42.650  24.830  28.046  1.00  0.00     0.031 A 
ATOM     38  C   UNL A   1      44.033  25.193  28.510  1.00  0.00     0.074 A 
ATOM     39  C   UNL A   1      41.631  25.698  28.197  1.00  0.00     0.049 A 
ATOM     40  N   UNL A   1      44.446  26.281  29.106  1.00  0.00    -0.248 NA
ATOM     41  C   UNL A   1      45.082  24.179  28.313  1.00  0.00     0.031 C 
ATOM     42  C   UNL A   1      40.232  25.438  27.849  1.00  0.00     0.029 A 
ATOM     43  N   UNL A   1      41.615  26.976  28.697  1.00  0.00    -0.354 N 
ATOM     44  C   UNL A   1      45.790  26.069  29.380  1.00  0.00     0.074 A 
ATOM     45  C   UNL A   1      46.112  24.731  28.935  1.00  0.00     0.031 C 
ATOM     46  C   UNL A   1      39.500  26.531  28.121  1.00  0.00     0.029 A 
ATOM     47  C   UNL A   1      40.368  27.553  28.696  1.00  0.00     0.049 A 
ATOM     48  H   UNL A   1      42.421  27.436  29.027  1.00  0.00     0.167 HD
ATOM     49  C   UNL A   1      46.685  26.925  29.929  1.00  0.00     0.037 A 
ATOM     50  C   UNL A   1      39.972  28.768  29.116  1.00  0.00     0.037 A 
ATOM     51  C   UNL A   1      46.372  28.271  30.323  1.00  0.00     0.049 A 
ATOM     52  C   UNL A   1      40.990  29.712  29.691  1.00  0.00     0.074 A 
ATOM     53  C   UNL A   1      47.224  29.245  30.811  1.00  0.00     0.029 A 
ATOM     54  N   UNL A   1      45.106  28.833  30.268  1.00  0.00    -0.354 N 
ATOM     55  N   UNL A   1      42.273  29.525  29.880  1.00  0.00    -0.248 NA
ATOM     56  C   UNL A   1      40.506  31.036  30.106  1.00  0.00     0.031 C 
ATOM     57  C   UNL A   1      46.466  30.392  31.079  1.00  0.00     0.029 A 
ATOM     58  C   UNL A   1      45.150  30.138  30.727  1.00  0.00     0.049 A 
ATOM     59  H   UNL A   1      44.296  28.373  29.949  1.00  0.00     0.167 HD
ATOM     60  C   UNL A   1      42.755  30.710  30.418  1.00  0.00     0.074 A 
ATOM     61  C   UNL A   1      41.628  31.616  30.510  1.00  0.00     0.031 C 
ATOM     62  C   UNL A   1      44.015  31.021  30.805  1.00  0.00     0.037 A 
BRANCH  49  63
ATOM     63  C   UNL A   1      48.087  26.427  30.114  1.00  0.00     0.057 A 
ATOM     64  C   UNL A   1      49.059  26.577  29.117  1.00  0.00     0.134 A 
ATOM     65  C   UNL A   1      48.473  25.806  31.308  1.00  0.00     0.134 A 
ATOM     66  F   UNL A   1      48.748  27.149  27.944  1.00  0.00    -0.206 F 
ATOM     67  C   UNL A   1      50.360  26.102  29.289  1.00  0.00     0.040 A 
ATOM     68  C   UNL A   1      49.778  25.349  31.501  1.00  0.00     0.040 A 
ATOM     69  F   UNL A   1      47.591  25.632  32.302  1.00  0.00    -0.206 F 
ATOM     70  C   UNL A   1      50.724  25.491  30.487  1.00  0.00     0.006 A 
ENDBRANCH  49  63
BRANCH  50  71
ATOM     71  C   UNL A   1      38.551  29.176  28.982  1.00  0.00     0.057 A 
ATOM     72  C   UNL A   1      38.048  29.634  27.759  1.00  0.00     0.134 A 
ATOM     73  C   UNL A   1      37.665  29.120  30.064  1.00  0.00     0.134 A 
ATOM     74  F   UNL A   1      38.855  29.726  26.690  1.00  0.00    -0.206 F 
ATOM     75  C   UNL A   1      36.720  30.041  27.619  1.00  0.00     0.040 A 
ATOM     76  C   UNL A   1      36.329  29.504  29.933  1.00  0.00     0.040 A 
ATOM     77  F   UNL A   1      38.084  28.683  31.260  1.00  0.00    -0.206 F 
ATOM     78  C   UNL A   1      35.855  29.972  28.709  1.00  0.00     0.006 A 
ENDBRANCH  50  71
BRANCH  62  79
ATOM     79  C   UNL A   1      44.243  32.403  31.341  1.00  0.00     0.057 A 
ATOM     80  C   UNL A   1      44.498  33.486  30.492  1.00  0.00     0.134 A 
ATOM     81  C   UNL A   1      44.166  32.656  32.715  1.00  0.00     0.134 A 
ATOM     82  F   UNL A   1      44.598  33.303  29.167  1.00  0.00    -0.206 F 
ATOM     83  C   UNL A   1      44.687  34.773  30.995  1.00  0.00     0.040 A 
ATOM     84  C   UNL A   1      44.331  33.943  33.228  1.00  0.00     0.040 A 
ATOM     85  F   UNL A   1      43.916  31.660  33.580  1.00  0.00    -0.206 F 
ATOM     86  C   UNL A   1      44.596  35.006  32.366  1.00  0.00     0.006 A 
ENDBRANCH  62  79
ENDBRANCH  36  37
ENDBRANCH  28  31
ENDBRANCH  26  27
ENDBRANCH  25  26
ENDBRANCH   1  25
TORSDOF 14
ENDMDL
MODEL 2
REMARK VINA RESULT:     -11.8      0.406      6.244
REMARK SMILES CC1(C)O[C@](C)([C@H](O)C2CCCCC2)CC[C@H]1C(=O)NCCCCNC(=O)c1ccc(-c2c3nc(c(-c4c(F)cccc4F)c4ccc([nH]4)c(-c4c(F)cccc4F)c4nc(c(-c5c(F)cccc5F)c5ccc2[nH]5)C=C4)C=C3)cc1
REMARK SMILES IDX 22 1 21 2 20 3 18 4 19 5 17 7 1 8 2 9 3 10 4 11 5 12 16 13
REMARK SMILES IDX 6 14 15 15 7 16 9 17 10 18 14 19 11 20 13 21 12 22 8 23
REMARK SMILES IDX 23 25 24 26 25 27 26 28 27 30 28 31 29 32 81 33 30 34 80 35
REMARK SMILES IDX 31 36 32 37 33 38 74 39 34 40 79 41 73 42 75 43 35 44 78 45
REMARK SMILES IDX 72 46 71 47 36 49 62 50 45 51 61 52 46 53 49 54 60 55 76 56
REMARK SMILES IDX 47 57 48 58 59 60 77 61 50 62 37 63 38 64 43 65 39 66 40 67
REMARK SMILES IDX 42 68 44 69 41 70 63 71 64 72 69 73 65 74 66 75 68 76 70 77
REMARK SMILES IDX 67 78 51 79 52 80 57 81 53 82 54 83 56 84 58 85 55 86
REMARK H PARENT 20 6 8 24 25 29 75 48 49 59
REMARK Flexibility Score: inf
ROOT
ATOM      1  C   UNL A   1      36.379  20.382  25.007  1.00  0.00     0.023 C 
ENDROOT
BRANCH   1   2
ATOM      2  C   UNL A   1      35.196  21.088  25.671  1.00  0.00     0.116 C 
BRANCH   2   3
ATOM      3  N   UNL A   1      33.957  20.357  25.522  1.00  0.00    -0.356 N 
ATOM      4  C   UNL A   1      32.704  20.757  25.180  1.00  0.00     0.226 C 
ATOM      5  O   UNL A   1      31.836  19.877  25.173  1.00  0.00    -0.275 OA
ATOM      6  H   UNL A   1      34.036  19.392  25.701  1.00  0.00     0.163 HD
BRANCH   4   7
ATOM      7  C   UNL A   1      32.322  22.199  24.817  1.00  0.00     0.110 C 
ATOM      8  C   UNL A   1      32.840  22.981  27.295  1.00  0.00     0.043 C 
ATOM      9  C   UNL A   1      32.015  23.139  26.022  1.00  0.00     0.075 C 
ATOM     10  C   UNL A   1      30.554  22.869  26.465  1.00  0.00     0.043 C 
ATOM     11  O   UNL A   1      32.040  24.534  25.703  1.00  0.00    -0.366 OA
ATOM     12  C   UNL A   1      32.994  25.066  24.780  1.00  0.00     0.092 C 
ATOM     13  C   UNL A   1      33.129  22.788  23.654  1.00  0.00     0.019 C 
ATOM     14  C   UNL A   1      34.471  25.003  25.228  1.00  0.00     0.045 C 
ATOM     15  C   UNL A   1      32.850  24.281  23.460  1.00  0.00     0.039 C 
BRANCH  12  16
ATOM     16  C   UNL A   1      32.560  26.566  24.573  1.00  0.00     0.149 C 
BRANCH  16  17
ATOM     17  C   UNL A   1      33.418  27.660  25.309  1.00  0.00     0.021 C 
ATOM     18  C   UNL A   1      33.284  29.120  24.844  1.00  0.00     0.006 C 
ATOM     19  C   UNL A   1      33.255  27.631  26.844  1.00  0.00     0.006 C 
ATOM     20  C   UNL A   1      31.967  29.759  25.266  1.00  0.00     0.000 C 
ATOM     21  C   UNL A   1      32.019  28.367  27.375  1.00  0.00     0.000 C 
ATOM     22  C   UNL A   1      31.847  29.764  26.784  1.00  0.00     0.000 C 
ENDBRANCH  16  17
BRANCH  16  23
ATOM     23  O   UNL A   1      32.394  26.843  23.183  1.00  0.00    -0.390 OA
ATOM     24  H   UNL A   1      33.258  26.815  22.742  1.00  0.00     0.211 HD
ENDBRANCH  16  23
ENDBRANCH  12  16
ENDBRANCH   4   7
ENDBRANCH   2   3
ENDBRANCH   1   2
BRANCH   1  25
ATOM     25  C   UNL A   1      37.564  21.276  24.686  1.00  0.00     0.023 C 
BRANCH  25  26
ATOM     26  C   UNL A   1      38.670  21.247  25.724  1.00  0.00     0.116 C 
BRANCH  26  27
ATOM     27  N   UNL A   1      39.500  20.049  25.657  1.00  0.00    -0.352 N 
ATOM     28  C   UNL A   1      40.827  19.899  25.989  1.00  0.00     0.251 C 
ATOM     29  H   UNL A   1      39.049  19.238  25.327  1.00  0.00     0.163 HD
ATOM     30  O   UNL A   1      41.418  18.851  25.768  1.00  0.00    -0.269 OA
BRANCH  28  31
ATOM     31  C   UNL A   1      41.534  21.050  26.581  1.00  0.00     0.039 A 
ATOM     32  C   UNL A   1      42.093  22.010  25.737  1.00  0.00     0.014 A 
ATOM     33  C   UNL A   1      41.534  21.225  27.966  1.00  0.00     0.014 A 
ATOM     34  C   UNL A   1      42.562  23.205  26.282  1.00  0.00     0.010 A 
ATOM     35  C   UNL A   1      41.906  22.453  28.493  1.00  0.00     0.010 A 
ATOM     36  C   UNL A   1      42.417  23.456  27.656  1.00  0.00    -0.014 A 
BRANCH  36  37
ATOM     37  C   UNL A   1      42.780  24.766  28.250  1.00  0.00     0.031 A 
ATOM     38  C   UNL A   1      41.719  25.810  28.453  1.00  0.00     0.074 A 
ATOM     39  C   UNL A   1      44.072  25.048  28.508  1.00  0.00     0.049 A 
ATOM     40  N   UNL A   1      41.845  27.052  28.842  1.00  0.00    -0.248 NA
ATOM     41  C   UNL A   1      40.335  25.416  28.137  1.00  0.00     0.031 C 
ATOM     42  C   UNL A   1      45.202  24.142  28.288  1.00  0.00     0.029 A 
ATOM     43  N   UNL A   1      44.654  26.188  29.002  1.00  0.00    -0.354 N 
ATOM     44  C   UNL A   1      40.567  27.593  28.788  1.00  0.00     0.074 A 
ATOM     45  C   UNL A   1      39.689  26.563  28.278  1.00  0.00     0.031 C 
ATOM     46  C   UNL A   1      46.335  24.751  28.670  1.00  0.00     0.029 A 
ATOM     47  C   UNL A   1      46.020  26.100  29.126  1.00  0.00     0.049 A 
ATOM     48  H   UNL A   1      44.142  26.993  29.244  1.00  0.00     0.167 HD
ATOM     49  C   UNL A   1      40.157  28.830  29.156  1.00  0.00     0.037 A 
ATOM     50  C   UNL A   1      46.914  27.010  29.555  1.00  0.00     0.037 A 
ATOM     51  C   UNL A   1      41.026  29.833  29.709  1.00  0.00     0.049 A 
ATOM     52  C   UNL A   1      46.430  28.364  29.990  1.00  0.00     0.074 A 
ATOM     53  C   UNL A   1      40.696  31.086  30.191  1.00  0.00     0.029 A 
ATOM     54  N   UNL A   1      42.397  29.692  29.857  1.00  0.00    -0.354 N 
ATOM     55  N   UNL A   1      45.208  28.839  30.000  1.00  0.00    -0.248 NA
ATOM     56  C   UNL A   1      47.447  29.306  30.476  1.00  0.00     0.031 C 
ATOM     57  C   UNL A   1      41.874  31.717  30.606  1.00  0.00     0.029 A 
ATOM     58  C   UNL A   1      42.931  30.842  30.411  1.00  0.00     0.049 A 
ATOM     59  H   UNL A   1      42.913  28.892  29.606  1.00  0.00     0.167 HD
ATOM     60  C   UNL A   1      45.305  30.126  30.510  1.00  0.00     0.074 A 
ATOM     61  C   UNL A   1      46.704  30.352  30.812  1.00  0.00     0.031 C 
ATOM     62  C   UNL A   1      44.326  31.041  30.707  1.00  0.00     0.037 A 
BRANCH  49  63
ATOM     63  C   UNL A   1      38.702  29.150  28.986  1.00  0.00     0.057 A 
ATOM     64  C   UNL A   1      37.799  29.056  30.052  1.00  0.00     0.134 A 
ATOM     65  C   UNL A   1      38.203  29.572  27.749  1.00  0.00     0.134 A 
ATOM     66  F   UNL A   1      38.212  28.641  31.259  1.00  0.00    -0.206 F 
ATOM     67  C   UNL A   1      36.443  29.344  29.887  1.00  0.00     0.040 A 
ATOM     68  C   UNL A   1      36.854  29.887  27.578  1.00  0.00     0.040 A 
ATOM     69  F   UNL A   1      39.015  29.684  26.688  1.00  0.00    -0.206 F 
ATOM     70  C   UNL A   1      35.969  29.767  28.648  1.00  0.00     0.006 A 
ENDBRANCH  49  63
BRANCH  50  71
ATOM     71  C   UNL A   1      48.355  26.661  29.624  1.00  0.00     0.057 A 
ATOM     72  C   UNL A   1      49.225  26.994  28.580  1.00  0.00     0.134 A 
ATOM     73  C   UNL A   1      48.896  25.990  30.727  1.00  0.00     0.134 A 
ATOM     74  F   UNL A   1      48.761  27.623  27.490  1.00  0.00    -0.206 F 
ATOM     75  C   UNL A   1      50.579  26.656  28.620  1.00  0.00     0.040 A 
ATOM     76  C   UNL A   1      50.252  25.663  30.789  1.00  0.00     0.040 A 
ATOM     77  F   UNL A   1      48.115  25.649  31.762  1.00  0.00    -0.206 F 
ATOM     78  C   UNL A   1      51.096  25.992  29.730  1.00  0.00     0.006 A 
ENDBRANCH  50  71
BRANCH  62  79
ATOM     79  C   UNL A   1      44.733  32.359  31.295  1.00  0.00     0.057 A 
ATOM     80  C   UNL A   1      44.755  32.568  32.679  1.00  0.00     0.134 A 
ATOM     81  C   UNL A   1      45.143  33.412  30.471  1.00  0.00     0.134 A 
ATOM     82  F   UNL A   1      44.359  31.600  33.520  1.00  0.00    -0.206 F 
ATOM     83  C   UNL A   1      45.155  33.789  33.222  1.00  0.00     0.040 A 
ATOM     84  C   UNL A   1      45.566  34.630  31.002  1.00  0.00     0.040 A 
ATOM     85  F   UNL A   1      45.150  33.271  29.136  1.00  0.00    -0.206 F 
ATOM     86  C   UNL A   1      45.570  34.822  32.383  1.00  0.00     0.006 A 
ENDBRANCH  62  79
ENDBRANCH  36  37
ENDBRANCH  28  31
ENDBRANCH  26  27
ENDBRANCH  25  26
ENDBRANCH   1  25
TORSDOF 14
ENDMDL
MODEL 3
REMARK VINA RESULT:     -11.7      2.359      7.675
REMARK SMILES CC1(C)O[C@](C)([C@H](O)C2CCCCC2)CC[C@H]1C(=O)NCCCCNC(=O)c1ccc(-c2c3nc(c(-c4c(F)cccc4F)c4ccc([nH]4)c(-c4c(F)cccc4F)c4nc(c(-c5c(F)cccc5F)c5ccc2[nH]5)C=C4)C=C3)cc1
REMARK SMILES IDX 22 1 21 2 20 3 18 4 19 5 17 7 1 8 2 9 3 10 4 11 5 12 16 13
REMARK SMILES IDX 6 14 15 15 7 16 9 17 10 18 14 19 11 20 13 21 12 22 8 23
REMARK SMILES IDX 23 25 24 26 25 27 26 28 27 30 28 31 29 32 81 33 30 34 80 35
REMARK SMILES IDX 31 36 32 37 33 38 74 39 34 40 79 41 73 42 75 43 35 44 78 45
REMARK SMILES IDX 72 46 71 47 36 49 62 50 45 51 61 52 46 53 49 54 60 55 76 56
REMARK SMILES IDX 47 57 48 58 59 60 77 61 50 62 37 63 38 64 43 65 39 66 40 67
REMARK SMILES IDX 42 68 44 69 41 70 63 71 64 72 69 73 65 74 66 75 68 76 70 77
REMARK SMILES IDX 67 78 51 79 52 80 57 81 53 82 54 83 56 84 58 85 55 86
REMARK H PARENT 20 6 8 24 25 29 75 48 49 59
REMARK Flexibility Score: inf
ROOT
ATOM      1  C   UNL A   1      33.090  29.687  25.128  1.00  0.00     0.023 C 
ENDROOT
BRANCH   1   2
ATOM      2  C   UNL A   1      31.608  29.314  25.109  1.00  0.00     0.116 C 
BRANCH   2   3
ATOM      3  N   UNL A   1      31.036  29.374  23.780  1.00  0.00    -0.356 N 
ATOM      4  C   UNL A   1      30.650  28.399  22.916  1.00  0.00     0.226 C 
ATOM      5  O   UNL A   1      30.220  28.783  21.822  1.00  0.00    -0.275 OA
ATOM      6  H   UNL A   1      30.902  30.288  23.441  1.00  0.00     0.163 HD
BRANCH   4   7
ATOM      7  C   UNL A   1      30.719  26.894  23.216  1.00  0.00     0.110 C 
ATOM      8  C   UNL A   1      33.340  26.919  22.831  1.00  0.00     0.043 C 
ATOM      9  C   UNL A   1      32.014  26.171  22.738  1.00  0.00     0.075 C 
ATOM     10  C   UNL A   1      31.844  25.857  21.230  1.00  0.00     0.043 C 
ATOM     11  O   UNL A   1      32.235  24.894  23.346  1.00  0.00    -0.366 OA
ATOM     12  C   UNL A   1      31.914  24.663  24.721  1.00  0.00     0.092 C 
ATOM     13  C   UNL A   1      30.160  26.503  24.589  1.00  0.00     0.019 C 
ATOM     14  C   UNL A   1      32.754  25.450  25.750  1.00  0.00     0.045 C 
ATOM     15  C   UNL A   1      30.428  25.031  24.919  1.00  0.00     0.039 C 
BRANCH  12  16
ATOM     16  C   UNL A   1      32.124  23.115  24.928  1.00  0.00     0.149 C 
BRANCH  16  17
ATOM     17  C   UNL A   1      33.026  22.376  23.874  1.00  0.00     0.021 C 
ATOM     18  C   UNL A   1      34.479  22.053  24.262  1.00  0.00     0.006 C 
ATOM     19  C   UNL A   1      32.383  21.086  23.320  1.00  0.00     0.006 C 
ATOM     20  C   UNL A   1      34.587  20.914  25.267  1.00  0.00     0.000 C 
ATOM     21  C   UNL A   1      32.555  19.848  24.207  1.00  0.00     0.000 C 
ATOM     22  C   UNL A   1      33.990  19.640  24.684  1.00  0.00     0.000 C 
ENDBRANCH  16  17
BRANCH  16  23
ATOM     23  O   UNL A   1      32.522  22.849  26.272  1.00  0.00    -0.390 OA
ATOM     24  H   UNL A   1      33.246  22.203  26.274  1.00  0.00     0.211 HD
ENDBRANCH  16  23
ENDBRANCH  12  16
ENDBRANCH   4   7
ENDBRANCH   2   3
ENDBRANCH   1   2
BRANCH   1  25
ATOM     25  C   UNL A   1      33.966  28.798  25.994  1.00  0.00     0.023 C 
BRANCH  25  26
ATOM     26  C   UNL A   1      33.692  28.909  27.482  1.00  0.00     0.116 C 
BRANCH  26  27
ATOM     27  N   UNL A   1      33.808  30.270  27.995  1.00  0.00    -0.352 N 
ATOM     28  C   UNL A   1      34.899  30.885  28.567  1.00  0.00     0.251 C 
ATOM     29  H   UNL A   1      32.997  30.822  27.924  1.00  0.00     0.163 HD
ATOM     30  O   UNL A   1      34.807  32.003  29.056  1.00  0.00    -0.269 OA
BRANCH  28  31
ATOM     31  C   UNL A   1      36.174  30.147  28.615  1.00  0.00     0.039 A 
ATOM     32  C   UNL A   1      37.038  30.214  27.521  1.00  0.00     0.014 A 
ATOM     33  C   UNL A   1      36.551  29.492  29.788  1.00  0.00     0.014 A 
ATOM     34  C   UNL A   1      38.332  29.709  27.645  1.00  0.00     0.010 A 
ATOM     35  C   UNL A   1      37.868  29.084  29.943  1.00  0.00     0.010 A 
ATOM     36  C   UNL A   1      38.772  29.195  28.876  1.00  0.00    -0.014 A 
BRANCH  36  37
ATOM     37  C   UNL A   1      40.179  28.774  29.085  1.00  0.00     0.031 A 
ATOM     38  C   UNL A   1      41.166  29.743  29.671  1.00  0.00     0.074 A 
ATOM     39  C   UNL A   1      40.585  27.564  28.654  1.00  0.00     0.049 A 
ATOM     40  N   UNL A   1      42.458  29.616  29.823  1.00  0.00    -0.248 NA
ATOM     41  C   UNL A   1      40.634  31.046  30.107  1.00  0.00     0.031 C 
ATOM     42  C   UNL A   1      39.737  26.562  28.005  1.00  0.00     0.029 A 
ATOM     43  N   UNL A   1      41.825  26.976  28.686  1.00  0.00    -0.354 N 
ATOM     44  C   UNL A   1      42.895  30.828  30.342  1.00  0.00     0.074 A 
ATOM     45  C   UNL A   1      41.741  31.696  30.429  1.00  0.00     0.031 C 
ATOM     46  C   UNL A   1      40.474  25.475  27.726  1.00  0.00     0.029 A 
ATOM     47  C   UNL A   1      41.852  25.716  28.140  1.00  0.00     0.049 A 
ATOM     48  H   UNL A   1      42.620  27.416  29.064  1.00  0.00     0.167 HD
ATOM     49  C   UNL A   1      44.142  31.177  30.738  1.00  0.00     0.037 A 
ATOM     50  C   UNL A   1      42.876  24.856  27.988  1.00  0.00     0.037 A 
ATOM     51  C   UNL A   1      45.275  30.294  30.696  1.00  0.00     0.049 A 
ATOM     52  C   UNL A   1      44.243  25.254  28.466  1.00  0.00     0.074 A 
ATOM     53  C   UNL A   1      46.561  30.522  31.150  1.00  0.00     0.029 A 
ATOM     54  N   UNL A   1      45.253  29.010  30.174  1.00  0.00    -0.354 N 
ATOM     55  N   UNL A   1      44.629  26.378  29.020  1.00  0.00    -0.248 NA
ATOM     56  C   UNL A   1      45.317  24.264  28.301  1.00  0.00     0.031 C 
ATOM     57  C   UNL A   1      47.328  29.383  30.876  1.00  0.00     0.029 A 
ATOM     58  C   UNL A   1      46.509  28.437  30.281  1.00  0.00     0.049 A 
ATOM     59  H   UNL A   1      44.463  28.571  29.786  1.00  0.00     0.167 HD
ATOM     60  C   UNL A   1      45.982  26.225  29.287  1.00  0.00     0.074 A 
ATOM     61  C   UNL A   1      46.348  24.893  28.848  1.00  0.00     0.031 C 
ATOM     62  C   UNL A   1      46.847  27.108  29.841  1.00  0.00     0.037 A 
BRANCH  49  63
ATOM     63  C   UNL A   1      44.331  32.568  31.264  1.00  0.00     0.057 A 
ATOM     64  C   UNL A   1      44.680  33.633  30.422  1.00  0.00     0.134 A 
ATOM     65  C   UNL A   1      44.147  32.851  32.622  1.00  0.00     0.134 A 
ATOM     66  F   UNL A   1      44.887  33.425  29.113  1.00  0.00    -0.206 F 
ATOM     67  C   UNL A   1      44.865  34.924  30.917  1.00  0.00     0.040 A 
ATOM     68  C   UNL A   1      44.305  34.143  33.125  1.00  0.00     0.040 A 
ATOM     69  F   UNL A   1      43.811  31.877  33.481  1.00  0.00    -0.206 F 
ATOM     70  C   UNL A   1      44.672  35.183  32.272  1.00  0.00     0.006 A 
ENDBRANCH  49  63
BRANCH  50  71
ATOM     71  C   UNL A   1      42.642  23.521  27.384  1.00  0.00     0.057 A 
ATOM     72  C   UNL A   1      42.760  23.326  26.003  1.00  0.00     0.134 A 
ATOM     73  C   UNL A   1      42.296  22.412  28.165  1.00  0.00     0.134 A 
ATOM     74  F   UNL A   1      43.072  24.356  25.202  1.00  0.00    -0.206 F 
ATOM     75  C   UNL A   1      42.525  22.082  25.416  1.00  0.00     0.040 A 
ATOM     76  C   UNL A   1      42.077  21.157  27.594  1.00  0.00     0.040 A 
ATOM     77  F   UNL A   1      42.174  22.531  29.495  1.00  0.00    -0.206 F 
ATOM     78  C   UNL A   1      42.186  20.991  26.214  1.00  0.00     0.006 A 
ENDBRANCH  50  71
BRANCH  62  79
ATOM     79  C   UNL A   1      48.263  26.653  30.024  1.00  0.00     0.057 A 
ATOM     80  C   UNL A   1      49.248  26.917  29.065  1.00  0.00     0.134 A 
ATOM     81  C   UNL A   1      48.651  25.978  31.187  1.00  0.00     0.134 A 
ATOM     82  F   UNL A   1      48.934  27.547  27.924  1.00  0.00    -0.206 F 
ATOM     83  C   UNL A   1      50.569  26.510  29.251  1.00  0.00     0.040 A 
ATOM     84  C   UNL A   1      49.973  25.585  31.394  1.00  0.00     0.040 A 
ATOM     85  F   UNL A   1      47.753  25.701  32.146  1.00  0.00    -0.206 F 
ATOM     86  C   UNL A   1      50.936  25.848  30.421  1.00  0.00     0.006 A 
ENDBRANCH  62  79
ENDBRANCH  36  37
ENDBRANCH  28  31
ENDBRANCH  26  27
ENDBRANCH  25  26
ENDBRANCH   1  25
TORSDOF 14
ENDMDL
