MODEL 1
REMARK VINA RESULT:     -11.9      0.000      0.000
REMARK SMILES O=C(NCCCCNC(=O)c1ccc(-c2c3nc(c(-c4c(F)cccc4F)c4ccc([nH]4)c(-c4c(F)cccc4F)c4nc(c(-c5c(F)cccc5F)c5ccc2[nH]5)C=C4)C=C3)cc1)c1ccc(Cn2cc(Cl)c(=O)[nH]c2=O)cc1
REMARK SMILES IDX 5 1 4 2 3 3 1 4 2 5 65 7 66 8 80 9 67 10 79 11 68 12 69 13
REMARK SMILES IDX 70 14 71 15 77 16 72 17 76 18 78 19 73 20 74 21 75 23 6 24
REMARK SMILES IDX 7 25 8 26 9 27 10 29 11 30 12 31 64 32 13 33 63 34 14 35
REMARK SMILES IDX 15 36 16 37 57 38 17 39 62 40 56 41 58 42 18 43 61 44 55 45
REMARK SMILES IDX 54 46 19 48 45 49 28 50 44 51 29 52 32 53 43 54 59 55 30 56
REMARK SMILES IDX 31 57 42 59 60 60 33 61 20 62 21 63 26 64 22 65 23 66 25 67
REMARK SMILES IDX 27 68 24 69 46 70 47 71 52 72 48 73 49 74 51 75 53 76 50 77
REMARK SMILES IDX 34 78 35 79 40 80 36 81 37 82 39 83 41 84 38 85
REMARK H PARENT 3 6 76 22 8 28 58 47 32 58
REMARK Flexibility Score: inf
ROOT
ATOM      1  C   UNL A   1      32.925  29.418  24.944  1.00  0.00     0.023 C 
ENDROOT
BRANCH   1   2
ATOM      2  C   UNL A   1      31.401  29.405  25.029  1.00  0.00     0.116 C 
BRANCH   2   3
ATOM      3  N   UNL A   1      30.771  29.817  23.784  1.00  0.00    -0.352 N 
ATOM      4  O   UNL A   1      29.981  29.543  21.678  1.00  0.00    -0.269 OA
ATOM      5  C   UNL A   1      30.379  29.038  22.723  1.00  0.00     0.251 C 
ATOM      6  H   UNL A   1      30.604  30.783  23.688  1.00  0.00     0.163 HD
BRANCH   5   7
ATOM      7  C   UNL A   1      30.456  27.571  22.852  1.00  0.00     0.039 A 
ATOM      8  C   UNL A   1      29.590  26.902  23.721  1.00  0.00     0.014 A 
ATOM      9  C   UNL A   1      31.429  26.874  22.137  1.00  0.00     0.014 A 
ATOM     10  C   UNL A   1      29.755  25.537  23.936  1.00  0.00     0.006 A 
ATOM     11  C   UNL A   1      31.599  25.506  22.365  1.00  0.00     0.006 A 
ATOM     12  C   UNL A   1      30.781  24.831  23.286  1.00  0.00    -0.028 A 
BRANCH  12  13
ATOM     13  C   UNL A   1      31.039  23.375  23.619  1.00  0.00     0.162 C 
BRANCH  13  14
ATOM     14  N   UNL A   1      31.912  23.214  24.789  1.00  0.00    -0.295 N 
ATOM     15  C   UNL A   1      33.241  23.595  24.714  1.00  0.00     0.117 A 
ATOM     16  C   UNL A   1      31.376  22.680  25.957  1.00  0.00     0.328 A 
ATOM     17  C   UNL A   1      34.090  23.463  25.738  1.00  0.00     0.122 A 
ATOM     18  N   UNL A   1      32.250  22.570  27.011  1.00  0.00    -0.273 N 
ATOM     19  O   UNL A   1      30.210  22.320  26.085  1.00  0.00    -0.248 OA
ATOM     20  Cl  UNL A   1      35.740  23.915  25.617  1.00  0.00    -0.077 Cl
ATOM     21  C   UNL A   1      33.578  22.911  27.013  1.00  0.00     0.272 A 
ATOM     22  H   UNL A   1      31.885  22.211  27.851  1.00  0.00     0.175 HD
ATOM     23  O   UNL A   1      34.275  22.763  28.011  1.00  0.00    -0.268 OA
ENDBRANCH  13  14
ENDBRANCH  12  13
ENDBRANCH   5   7
ENDBRANCH   2   3
ENDBRANCH   1   2
BRANCH   1  24
ATOM     24  C   UNL A   1      33.629  28.312  25.730  1.00  0.00     0.023 C 
BRANCH  24  25
ATOM     25  C   UNL A   1      33.680  28.510  27.241  1.00  0.00     0.116 C 
BRANCH  25  26
ATOM     26  N   UNL A   1      33.660  29.909  27.641  1.00  0.00    -0.352 N 
ATOM     27  C   UNL A   1      34.660  30.663  28.208  1.00  0.00     0.251 C 
ATOM     28  H   UNL A   1      32.811  30.380  27.485  1.00  0.00     0.163 HD
ATOM     29  O   UNL A   1      34.432  31.809  28.582  1.00  0.00    -0.269 OA
BRANCH  27  30
ATOM     30  C   UNL A   1      36.005  30.078  28.398  1.00  0.00     0.039 A 
ATOM     31  C   UNL A   1      36.917  30.123  27.339  1.00  0.00     0.014 A 
ATOM     32  C   UNL A   1      36.373  29.507  29.618  1.00  0.00     0.014 A 
ATOM     33  C   UNL A   1      38.223  29.665  27.529  1.00  0.00     0.010 A 
ATOM     34  C   UNL A   1      37.692  29.114  29.827  1.00  0.00     0.010 A 
ATOM     35  C   UNL A   1      38.632  29.191  28.785  1.00  0.00    -0.014 A 
BRANCH  35  36
ATOM     36  C   UNL A   1      40.032  28.765  29.043  1.00  0.00     0.031 A 
ATOM     37  C   UNL A   1      41.010  29.737  29.642  1.00  0.00     0.074 A 
ATOM     38  C   UNL A   1      40.446  27.542  28.658  1.00  0.00     0.049 A 
ATOM     39  N   UNL A   1      42.301  29.613  29.813  1.00  0.00    -0.248 NA
ATOM     40  C   UNL A   1      40.468  31.033  30.080  1.00  0.00     0.031 C 
ATOM     41  C   UNL A   1      39.606  26.519  28.031  1.00  0.00     0.029 A 
ATOM     42  N   UNL A   1      41.687  26.960  28.719  1.00  0.00    -0.354 N 
ATOM     43  C   UNL A   1      42.728  30.821  30.348  1.00  0.00     0.074 A 
ATOM     44  C   UNL A   1      41.567  31.678  30.441  1.00  0.00     0.031 C 
ATOM     45  C   UNL A   1      40.355  25.434  27.774  1.00  0.00     0.029 A 
ATOM     46  C   UNL A   1      41.732  25.696  28.179  1.00  0.00     0.049 A 
ATOM     47  H   UNL A   1      42.473  27.405  29.112  1.00  0.00     0.167 HD
ATOM     48  C   UNL A   1      43.973  31.178  30.743  1.00  0.00     0.037 A 
ATOM     49  C   UNL A   1      42.770  24.853  28.016  1.00  0.00     0.037 A 
ATOM     50  C   UNL A   1      45.120  30.310  30.693  1.00  0.00     0.049 A 
ATOM     51  C   UNL A   1      44.139  25.269  28.478  1.00  0.00     0.074 A 
ATOM     52  C   UNL A   1      46.410  30.561  31.128  1.00  0.00     0.029 A 
ATOM     53  N   UNL A   1      45.111  29.022  30.184  1.00  0.00    -0.354 N 
ATOM     54  N   UNL A   1      44.519  26.396  29.030  1.00  0.00    -0.248 NA
ATOM     55  C   UNL A   1      45.226  24.296  28.295  1.00  0.00     0.031 C 
ATOM     56  C   UNL A   1      47.190  29.433  30.853  1.00  0.00     0.029 A 
ATOM     57  C   UNL A   1      46.376  28.468  30.284  1.00  0.00     0.049 A 
ATOM     58  H   UNL A   1      44.323  28.567  29.806  1.00  0.00     0.167 HD
ATOM     59  C   UNL A   1      45.875  26.252  29.295  1.00  0.00     0.074 A 
ATOM     60  C   UNL A   1      46.251  24.929  28.847  1.00  0.00     0.031 C 
ATOM     61  C   UNL A   1      46.728  27.138  29.861  1.00  0.00     0.037 A 
BRANCH  48  62
ATOM     62  C   UNL A   1      44.162  32.567  31.276  1.00  0.00     0.057 A 
ATOM     63  C   UNL A   1      44.076  32.849  32.645  1.00  0.00     0.134 A 
ATOM     64  C   UNL A   1      44.481  33.625  30.415  1.00  0.00     0.134 A 
ATOM     65  F   UNL A   1      43.761  31.882  33.520  1.00  0.00    -0.206 F 
ATOM     66  C   UNL A   1      44.281  34.138  33.139  1.00  0.00     0.040 A 
ATOM     67  C   UNL A   1      44.713  34.913  30.900  1.00  0.00     0.040 A 
ATOM     68  F   UNL A   1      44.584  33.421  29.094  1.00  0.00    -0.206 F 
ATOM     69  C   UNL A   1      44.609  35.173  32.264  1.00  0.00     0.006 A 
ENDBRANCH  48  62
BRANCH  49  70
ATOM     70  C   UNL A   1      42.558  23.519  27.399  1.00  0.00     0.057 A 
ATOM     71  C   UNL A   1      42.256  22.402  28.188  1.00  0.00     0.134 A 
ATOM     72  C   UNL A   1      42.679  23.322  26.019  1.00  0.00     0.134 A 
ATOM     73  F   UNL A   1      42.148  22.525  29.519  1.00  0.00    -0.206 F 
ATOM     74  C   UNL A   1      42.105  21.131  27.629  1.00  0.00     0.040 A 
ATOM     75  C   UNL A   1      42.507  22.061  25.444  1.00  0.00     0.040 A 
ATOM     76  F   UNL A   1      42.961  24.353  25.210  1.00  0.00    -0.206 F 
ATOM     77  C   UNL A   1      42.228  20.960  26.252  1.00  0.00     0.006 A 
ENDBRANCH  49  70
BRANCH  61  78
ATOM     78  C   UNL A   1      48.142  26.689  30.083  1.00  0.00     0.057 A 
ATOM     79  C   UNL A   1      48.530  26.011  31.244  1.00  0.00     0.134 A 
ATOM     80  C   UNL A   1      49.112  26.891  29.092  1.00  0.00     0.134 A 
ATOM     81  F   UNL A   1      47.650  25.798  32.234  1.00  0.00    -0.206 F 
ATOM     82  C   UNL A   1      49.840  25.561  31.419  1.00  0.00     0.040 A 
ATOM     83  C   UNL A   1      50.418  26.426  29.247  1.00  0.00     0.040 A 
ATOM     84  F   UNL A   1      48.799  27.527  27.953  1.00  0.00    -0.206 F 
ATOM     85  C   UNL A   1      50.786  25.762  30.415  1.00  0.00     0.006 A 
ENDBRANCH  61  78
ENDBRANCH  35  36
ENDBRANCH  27  30
ENDBRANCH  25  26
ENDBRANCH  24  25
ENDBRANCH   1  24
TORSDOF 13
ENDMDL
MODEL 2
REMARK VINA RESULT:     -11.9      2.372      7.439
REMARK SMILES O=C(NCCCCNC(=O)c1ccc(-c2c3nc(c(-c4c(F)cccc4F)c4ccc([nH]4)c(-c4c(F)cccc4F)c4nc(c(-c5c(F)cccc5F)c5ccc2[nH]5)C=C4)C=C3)cc1)c1ccc(Cn2cc(Cl)c(=O)[nH]c2=O)cc1
REMARK SMILES IDX 5 1 4 2 3 3 1 4 2 5 65 7 66 8 80 9 67 10 79 11 68 12 69 13
REMARK SMILES IDX 70 14 71 15 77 16 72 17 76 18 78 19 73 20 74 21 75 23 6 24
REMARK SMILES IDX 7 25 8 26 9 27 10 29 11 30 12 31 64 32 13 33 63 34 14 35
REMARK SMILES IDX 15 36 16 37 57 38 17 39 62 40 56 41 58 42 18 43 61 44 55 45
REMARK SMILES IDX 54 46 19 48 45 49 28 50 44 51 29 52 32 53 43 54 59 55 30 56
REMARK SMILES IDX 31 57 42 59 60 60 33 61 20 62 21 63 26 64 22 65 23 66 25 67
REMARK SMILES IDX 27 68 24 69 46 70 47 71 52 72 48 73 49 74 51 75 53 76 50 77
REMARK SMILES IDX 34 78 35 79 40 80 36 81 37 82 39 83 41 84 38 85
REMARK H PARENT 3 6 76 22 8 28 58 47 32 58
REMARK Flexibility Score: inf
ROOT
ATOM      1  C   UNL A   1      36.432  21.427  24.665  1.00  0.00     0.023 C 
ENDROOT
BRANCH   1   2
ATOM      2  C   UNL A   1      35.200  21.531  25.560  1.00  0.00     0.116 C 
BRANCH   2   3
ATOM      3  N   UNL A   1      34.405  20.313  25.558  1.00  0.00    -0.352 N 
ATOM      4  O   UNL A   1      32.504  19.086  25.441  1.00  0.00    -0.269 OA
ATOM      5  C   UNL A   1      33.070  20.161  25.270  1.00  0.00     0.251 C 
ATOM      6  H   UNL A   1      34.887  19.488  25.794  1.00  0.00     0.163 HD
BRANCH   5   7
ATOM      7  C   UNL A   1      32.317  21.321  24.762  1.00  0.00     0.039 A 
ATOM      8  C   UNL A   1      32.426  21.688  23.418  1.00  0.00     0.014 A 
ATOM      9  C   UNL A   1      31.537  22.068  25.646  1.00  0.00     0.014 A 
ATOM     10  C   UNL A   1      31.816  22.859  22.976  1.00  0.00     0.006 A 
ATOM     11  C   UNL A   1      30.937  23.248  25.201  1.00  0.00     0.006 A 
ATOM     12  C   UNL A   1      31.093  23.669  23.869  1.00  0.00    -0.028 A 
BRANCH  12  13
ATOM     13  C   UNL A   1      30.540  25.004  23.416  1.00  0.00     0.162 C 
BRANCH  13  14
ATOM     14  N   UNL A   1      31.587  26.025  23.271  1.00  0.00    -0.295 N 
ATOM     15  C   UNL A   1      32.222  26.522  24.398  1.00  0.00     0.117 A 
ATOM     16  C   UNL A   1      31.920  26.468  21.997  1.00  0.00     0.328 A 
ATOM     17  C   UNL A   1      33.173  27.460  24.336  1.00  0.00     0.122 A 
ATOM     18  N   UNL A   1      32.915  27.414  21.942  1.00  0.00    -0.273 N 
ATOM     19  O   UNL A   1      31.392  26.070  20.962  1.00  0.00    -0.248 OA
ATOM     20  Cl  UNL A   1      33.928  28.084  25.743  1.00  0.00    -0.077 Cl
ATOM     21  C   UNL A   1      33.581  27.965  23.005  1.00  0.00     0.272 A 
ATOM     22  H   UNL A   1      33.177  27.728  21.046  1.00  0.00     0.175 HD
ATOM     23  O   UNL A   1      34.450  28.815  22.846  1.00  0.00    -0.268 OA
ENDBRANCH  13  14
ENDBRANCH  12  13
ENDBRANCH   5   7
ENDBRANCH   2   3
ENDBRANCH   1   2
BRANCH   1  24
ATOM     24  C   UNL A   1      37.371  20.264  24.985  1.00  0.00     0.023 C 
BRANCH  24  25
ATOM     25  C   UNL A   1      38.656  20.638  25.715  1.00  0.00     0.116 C 
BRANCH  25  26
ATOM     26  N   UNL A   1      39.677  19.604  25.651  1.00  0.00    -0.352 N 
ATOM     27  C   UNL A   1      41.009  19.679  25.986  1.00  0.00     0.251 C 
ATOM     28  H   UNL A   1      39.372  18.729  25.321  1.00  0.00     0.163 HD
ATOM     29  O   UNL A   1      41.755  18.730  25.766  1.00  0.00    -0.269 OA
BRANCH  27  30
ATOM     30  C   UNL A   1      41.549  20.921  26.581  1.00  0.00     0.039 A 
ATOM     31  C   UNL A   1      42.027  21.925  25.732  1.00  0.00     0.014 A 
ATOM     32  C   UNL A   1      41.568  21.104  27.964  1.00  0.00     0.014 A 
ATOM     33  C   UNL A   1      42.451  23.142  26.269  1.00  0.00     0.010 A 
ATOM     34  C   UNL A   1      41.927  22.341  28.493  1.00  0.00     0.010 A 
ATOM     35  C   UNL A   1      42.369  23.374  27.651  1.00  0.00    -0.014 A 
BRANCH  35  36
ATOM     36  C   UNL A   1      42.742  24.683  28.248  1.00  0.00     0.031 A 
ATOM     37  C   UNL A   1      41.689  25.735  28.457  1.00  0.00     0.074 A 
ATOM     38  C   UNL A   1      44.033  24.957  28.516  1.00  0.00     0.049 A 
ATOM     39  N   UNL A   1      41.827  26.983  28.827  1.00  0.00    -0.248 NA
ATOM     40  C   UNL A   1      40.297  25.339  28.187  1.00  0.00     0.031 C 
ATOM     41  C   UNL A   1      45.156  24.038  28.322  1.00  0.00     0.029 A 
ATOM     42  N   UNL A   1      44.622  26.103  28.990  1.00  0.00    -0.354 N 
ATOM     43  C   UNL A   1      40.549  27.526  28.803  1.00  0.00     0.074 A 
ATOM     44  C   UNL A   1      39.654  26.485  28.349  1.00  0.00     0.031 C 
ATOM     45  C   UNL A   1      46.295  24.653  28.683  1.00  0.00     0.029 A 
ATOM     46  C   UNL A   1      45.990  26.019  29.094  1.00  0.00     0.049 A 
ATOM     47  H   UNL A   1      44.113  26.910  29.233  1.00  0.00     0.167 HD
ATOM     48  C   UNL A   1      40.156  28.776  29.147  1.00  0.00     0.037 A 
ATOM     49  C   UNL A   1      46.896  26.945  29.464  1.00  0.00     0.037 A 
ATOM     50  C   UNL A   1      41.040  29.797  29.641  1.00  0.00     0.049 A 
ATOM     51  C   UNL A   1      46.430  28.320  29.854  1.00  0.00     0.074 A 
ATOM     52  C   UNL A   1      40.724  31.074  30.072  1.00  0.00     0.029 A 
ATOM     53  N   UNL A   1      42.411  29.655  29.776  1.00  0.00    -0.354 N 
ATOM     54  N   UNL A   1      45.212  28.804  29.877  1.00  0.00    -0.248 NA
ATOM     55  C   UNL A   1      47.463  29.278  30.273  1.00  0.00     0.031 C 
ATOM     56  C   UNL A   1      41.911  31.715  30.440  1.00  0.00     0.029 A 
ATOM     57  C   UNL A   1      42.958  30.825  30.276  1.00  0.00     0.049 A 
ATOM     58  H   UNL A   1      42.922  28.843  29.551  1.00  0.00     0.167 HD
ATOM     59  C   UNL A   1      45.329  30.106  30.347  1.00  0.00     0.074 A 
ATOM     60  C   UNL A   1      46.735  30.336  30.600  1.00  0.00     0.031 C 
ATOM     61  C   UNL A   1      44.357  31.027  30.551  1.00  0.00     0.037 A 
BRANCH  48  62
ATOM     62  C   UNL A   1      38.699  29.107  29.009  1.00  0.00     0.057 A 
ATOM     63  C   UNL A   1      37.824  29.049  30.100  1.00  0.00     0.134 A 
ATOM     64  C   UNL A   1      38.178  29.536  27.782  1.00  0.00     0.134 A 
ATOM     65  F   UNL A   1      38.260  28.634  31.299  1.00  0.00    -0.206 F 
ATOM     66  C   UNL A   1      36.476  29.388  29.973  1.00  0.00     0.040 A 
ATOM     67  C   UNL A   1      36.838  29.902  27.648  1.00  0.00     0.040 A 
ATOM     68  F   UNL A   1      38.964  29.620  26.699  1.00  0.00    -0.206 F 
ATOM     69  C   UNL A   1      35.982  29.823  28.745  1.00  0.00     0.006 A 
ENDBRANCH  48  62
BRANCH  49  70
ATOM     70  C   UNL A   1      48.341  26.603  29.500  1.00  0.00     0.057 A 
ATOM     71  C   UNL A   1      49.171  26.876  28.406  1.00  0.00     0.134 A 
ATOM     72  C   UNL A   1      48.919  25.974  30.608  1.00  0.00     0.134 A 
ATOM     73  F   UNL A   1      48.670  27.459  27.308  1.00  0.00    -0.206 F 
ATOM     74  C   UNL A   1      50.520  26.515  28.404  1.00  0.00     0.040 A 
ATOM     75  C   UNL A   1      50.271  25.629  30.629  1.00  0.00     0.040 A 
ATOM     76  F   UNL A   1      48.177  25.691  31.689  1.00  0.00    -0.206 F 
ATOM     77  C   UNL A   1      51.073  25.891  29.520  1.00  0.00     0.006 A 
ENDBRANCH  49  70
BRANCH  61  78
ATOM     78  C   UNL A   1      44.768  32.348  31.129  1.00  0.00     0.057 A 
ATOM     79  C   UNL A   1      44.837  32.563  32.510  1.00  0.00     0.134 A 
ATOM     80  C   UNL A   1      45.152  33.399  30.286  1.00  0.00     0.134 A 
ATOM     81  F   UNL A   1      44.470  31.599  33.368  1.00  0.00    -0.206 F 
ATOM     82  C   UNL A   1      45.262  33.786  33.033  1.00  0.00     0.040 A 
ATOM     83  C   UNL A   1      45.600  34.617  30.799  1.00  0.00     0.040 A 
ATOM     84  F   UNL A   1      45.116  33.252  28.953  1.00  0.00    -0.206 F 
ATOM     85  C   UNL A   1      45.652  34.814  32.177  1.00  0.00     0.006 A 
ENDBRANCH  61  78
ENDBRANCH  35  36
ENDBRANCH  27  30
ENDBRANCH  25  26
ENDBRANCH  24  25
ENDBRANCH   1  24
TORSDOF 13
ENDMDL
MODEL 3
REMARK VINA RESULT:     -11.9      2.741      7.603
REMARK SMILES O=C(NCCCCNC(=O)c1ccc(-c2c3nc(c(-c4c(F)cccc4F)c4ccc([nH]4)c(-c4c(F)cccc4F)c4nc(c(-c5c(F)cccc5F)c5ccc2[nH]5)C=C4)C=C3)cc1)c1ccc(Cn2cc(Cl)c(=O)[nH]c2=O)cc1
REMARK SMILES IDX 5 1 4 2 3 3 1 4 2 5 65 7 66 8 80 9 67 10 79 11 68 12 69 13
REMARK SMILES IDX 70 14 71 15 77 16 72 17 76 18 78 19 73 20 74 21 75 23 6 24
REMARK SMILES IDX 7 25 8 26 9 27 10 29 11 30 12 31 64 32 13 33 63 34 14 35
REMARK SMILES IDX 15 36 16 37 57 38 17 39 62 40 56 41 58 42 18 43 61 44 55 45
REMARK SMILES IDX 54 46 19 48 45 49 28 50 44 51 29 52 32 53 43 54 59 55 30 56
REMARK SMILES IDX 31 57 42 59 60 60 33 61 20 62 21 63 26 64 22 65 23 66 25 67
REMARK SMILES IDX 27 68 24 69 46 70 47 71 52 72 48 73 49 74 51 75 53 76 50 77
REMARK SMILES IDX 34 78 35 79 40 80 36 81 37 82 39 83 41 84 38 85
REMARK H PARENT 3 6 76 22 8 28 58 47 32 58
REMARK Flexibility Score: inf
ROOT
ATOM      1  C   UNL A   1      36.941  21.133  24.655  1.00  0.00     0.023 C 
ENDROOT
BRANCH   1   2
ATOM      2  C   UNL A   1      35.637  21.190  25.446  1.00  0.00     0.116 C 
BRANCH   2   3
ATOM      3  N   UNL A   1      34.480  20.838  24.638  1.00  0.00    -0.352 N 
ATOM      4  O   UNL A   1      32.473  21.179  23.644  1.00  0.00    -0.269 OA
ATOM      5  C   UNL A   1      33.456  21.647  24.209  1.00  0.00     0.251 C 
ATOM      6  H   UNL A   1      34.423  19.895  24.361  1.00  0.00     0.163 HD
BRANCH   5   7
ATOM      7  C   UNL A   1      33.547  23.098  24.453  1.00  0.00     0.039 A 
ATOM      8  C   UNL A   1      33.229  23.614  25.712  1.00  0.00     0.014 A 
ATOM      9  C   UNL A   1      33.908  23.945  23.404  1.00  0.00     0.014 A 
ATOM     10  C   UNL A   1      33.192  24.993  25.898  1.00  0.00     0.006 A 
ATOM     11  C   UNL A   1      33.857  25.328  23.592  1.00  0.00     0.006 A 
ATOM     12  C   UNL A   1      33.473  25.865  24.832  1.00  0.00    -0.028 A 
BRANCH  12  13
ATOM     13  C   UNL A   1      33.307  27.361  25.003  1.00  0.00     0.162 C 
BRANCH  13  14
ATOM     14  N   UNL A   1      32.319  27.925  24.073  1.00  0.00    -0.295 N 
ATOM     15  C   UNL A   1      30.991  27.543  24.166  1.00  0.00     0.117 A 
ATOM     16  C   UNL A   1      32.744  28.839  23.115  1.00  0.00     0.328 A 
ATOM     17  C   UNL A   1      30.046  28.009  23.344  1.00  0.00     0.122 A 
ATOM     18  N   UNL A   1      31.762  29.330  22.291  1.00  0.00    -0.273 N 
ATOM     19  O   UNL A   1      33.906  29.213  22.980  1.00  0.00    -0.248 OA
ATOM     20  Cl  UNL A   1      28.411  27.503  23.457  1.00  0.00    -0.077 Cl
ATOM     21  C   UNL A   1      30.434  28.995  22.309  1.00  0.00     0.272 A 
ATOM     22  H   UNL A   1      32.041  29.992  21.617  1.00  0.00     0.175 HD
ATOM     23  O   UNL A   1      29.637  29.487  21.518  1.00  0.00    -0.268 OA
ENDBRANCH  13  14
ENDBRANCH  12  13
ENDBRANCH   5   7
ENDBRANCH   2   3
ENDBRANCH   1   2
BRANCH   1  24
ATOM     24  C   UNL A   1      37.846  19.945  24.977  1.00  0.00     0.023 C 
BRANCH  24  25
ATOM     25  C   UNL A   1      39.085  20.268  25.805  1.00  0.00     0.116 C 
BRANCH  25  26
ATOM     26  N   UNL A   1      40.061  19.189  25.828  1.00  0.00    -0.352 N 
ATOM     27  C   UNL A   1      41.408  19.243  26.097  1.00  0.00     0.251 C 
ATOM     28  H   UNL A   1      39.707  18.294  25.620  1.00  0.00     0.163 HD
ATOM     29  O   UNL A   1      42.105  18.242  25.965  1.00  0.00    -0.269 OA
BRANCH  27  30
ATOM     30  C   UNL A   1      42.024  20.522  26.513  1.00  0.00     0.039 A 
ATOM     31  C   UNL A   1      42.492  21.398  25.528  1.00  0.00     0.014 A 
ATOM     32  C   UNL A   1      42.123  20.865  27.863  1.00  0.00     0.014 A 
ATOM     33  C   UNL A   1      42.988  22.651  25.896  1.00  0.00     0.010 A 
ATOM     34  C   UNL A   1      42.553  22.139  28.222  1.00  0.00     0.010 A 
ATOM     35  C   UNL A   1      42.988  23.047  27.242  1.00  0.00    -0.014 A 
BRANCH  35  36
ATOM     36  C   UNL A   1      43.439  24.399  27.661  1.00  0.00     0.031 A 
ATOM     37  C   UNL A   1      42.425  25.435  28.060  1.00  0.00     0.074 A 
ATOM     38  C   UNL A   1      44.745  24.724  27.595  1.00  0.00     0.049 A 
ATOM     39  N   UNL A   1      42.596  26.706  28.317  1.00  0.00    -0.248 NA
ATOM     40  C   UNL A   1      41.026  24.986  28.154  1.00  0.00     0.031 C 
ATOM     41  C   UNL A   1      45.825  23.824  27.187  1.00  0.00     0.029 A 
ATOM     42  N   UNL A   1      45.383  25.912  27.852  1.00  0.00    -0.354 N 
ATOM     43  C   UNL A   1      41.329  27.213  28.573  1.00  0.00     0.074 A 
ATOM     44  C   UNL A   1      40.394  26.123  28.405  1.00  0.00     0.031 C 
ATOM     45  C   UNL A   1      46.991  24.490  27.230  1.00  0.00     0.029 A 
ATOM     46  C   UNL A   1      46.738  25.871  27.628  1.00  0.00     0.049 A 
ATOM     47  H   UNL A   1      44.914  26.719  28.166  1.00  0.00     0.167 HD
ATOM     48  C   UNL A   1      40.978  28.471  28.933  1.00  0.00     0.037 A 
ATOM     49  C   UNL A   1      47.669  26.841  27.719  1.00  0.00     0.037 A 
ATOM     50  C   UNL A   1      41.912  29.544  29.144  1.00  0.00     0.049 A 
ATOM     51  C   UNL A   1      47.253  28.225  28.134  1.00  0.00     0.074 A 
ATOM     52  C   UNL A   1      41.657  30.837  29.569  1.00  0.00     0.029 A 
ATOM     53  N   UNL A   1      43.281  29.446  28.953  1.00  0.00    -0.354 N 
ATOM     54  N   UNL A   1      46.057  28.678  28.424  1.00  0.00    -0.248 NA
ATOM     55  C   UNL A   1      48.316  29.235  28.240  1.00  0.00     0.031 C 
ATOM     56  C   UNL A   1      42.871  31.530  29.606  1.00  0.00     0.029 A 
ATOM     57  C   UNL A   1      43.884  30.659  29.242  1.00  0.00     0.049 A 
ATOM     58  H   UNL A   1      43.756  28.636  28.656  1.00  0.00     0.167 HD
ATOM     59  C   UNL A   1      46.230  30.009  28.780  1.00  0.00     0.074 A 
ATOM     60  C   UNL A   1      47.645  30.291  28.675  1.00  0.00     0.031 C 
ATOM     61  C   UNL A   1      45.298  30.915  29.162  1.00  0.00     0.037 A 
BRANCH  48  62
ATOM     62  C   UNL A   1      39.519  28.755  29.131  1.00  0.00     0.057 A 
ATOM     63  C   UNL A   1      38.905  28.616  30.383  1.00  0.00     0.134 A 
ATOM     64  C   UNL A   1      38.731  29.219  28.071  1.00  0.00     0.134 A 
ATOM     65  F   UNL A   1      39.602  28.164  31.435  1.00  0.00    -0.206 F 
ATOM     66  C   UNL A   1      37.553  28.910  30.568  1.00  0.00     0.040 A 
ATOM     67  C   UNL A   1      37.385  29.540  28.250  1.00  0.00     0.040 A 
ATOM     68  F   UNL A   1      39.259  29.380  26.849  1.00  0.00    -0.206 F 
ATOM     69  C   UNL A   1      36.792  29.382  29.501  1.00  0.00     0.006 A 
ENDBRANCH  48  62
BRANCH  49  70
ATOM     70  C   UNL A   1      49.092  26.541  27.424  1.00  0.00     0.057 A 
ATOM     71  C   UNL A   1      49.615  26.725  26.138  1.00  0.00     0.134 A 
ATOM     72  C   UNL A   1      49.954  26.039  28.406  1.00  0.00     0.134 A 
ATOM     73  F   UNL A   1      48.832  27.184  25.151  1.00  0.00    -0.206 F 
ATOM     74  C   UNL A   1      50.938  26.399  25.833  1.00  0.00     0.040 A 
ATOM     75  C   UNL A   1      51.286  25.731  28.120  1.00  0.00     0.040 A 
ATOM     76  F   UNL A   1      49.515  25.846  29.658  1.00  0.00    -0.206 F 
ATOM     77  C   UNL A   1      51.777  25.902  26.828  1.00  0.00     0.006 A 
ENDBRANCH  49  70
BRANCH  61  78
ATOM     78  C   UNL A   1      45.781  32.280  29.552  1.00  0.00     0.057 A 
ATOM     79  C   UNL A   1      46.162  32.584  30.863  1.00  0.00     0.134 A 
ATOM     80  C   UNL A   1      45.918  33.284  28.584  1.00  0.00     0.134 A 
ATOM     81  F   UNL A   1      46.042  31.669  31.836  1.00  0.00    -0.206 F 
ATOM     82  C   UNL A   1      46.650  33.847  31.203  1.00  0.00     0.040 A 
ATOM     83  C   UNL A   1      46.426  34.542  28.908  1.00  0.00     0.040 A 
ATOM     84  F   UNL A   1      45.578  33.051  27.307  1.00  0.00    -0.206 F 
ATOM     85  C   UNL A   1      46.789  34.828  30.222  1.00  0.00     0.006 A 
ENDBRANCH  61  78
ENDBRANCH  35  36
ENDBRANCH  27  30
ENDBRANCH  25  26
ENDBRANCH  24  25
ENDBRANCH   1  24
TORSDOF 13
ENDMDL
