MODEL 1
REMARK VINA RESULT:     -12.2      0.000      0.000
REMARK SMILES O=C(NCCCCNC(=O)c1c(F)cccc1N1CC[C@@H]([NH+]2CCCCC2)C1)c1ccc(-c2c3nc(c(-c4c(F)cccc4F)c4ccc([nH]4)c(-c4c(F)cccc4F)c4nc(c(-c5c(F)cccc5F)c5ccc2[nH]5)C=C4)C=C3)cc1
REMARK SMILES IDX 5 1 4 2 3 3 1 4 2 5 29 7 30 8 82 9 31 10 81 11 32 12 33 13
REMARK SMILES IDX 34 14 75 15 35 16 80 17 74 18 76 19 36 20 79 21 73 22 72 23
REMARK SMILES IDX 37 25 63 26 46 27 62 28 47 29 50 30 61 31 77 32 48 33 49 34
REMARK SMILES IDX 60 36 78 37 51 38 38 39 39 40 44 41 40 42 41 43 43 44 45 45
REMARK SMILES IDX 42 46 64 47 65 48 70 49 66 50 67 51 69 52 71 53 68 54 52 55
REMARK SMILES IDX 53 56 58 57 54 58 55 59 57 60 59 61 56 62 6 63 7 64 8 65
REMARK SMILES IDX 9 66 10 68 11 69 12 70 17 71 13 72 14 73 16 74 15 75 18 76
REMARK SMILES IDX 19 77 28 78 20 79 21 80 22 81 23 82 27 83 24 85 26 86 25 87
REMARK H PARENT 3 6 76 24 50 35 8 67 22 84
REMARK Flexibility Score: inf
ROOT
ATOM      1  C   UNL A   1      38.037  19.644  24.674  1.00  0.00     0.023 C 
ENDROOT
BRANCH   1   2
ATOM      2  C   UNL A   1      39.048  19.984  25.759  1.00  0.00     0.116 C 
BRANCH   2   3
ATOM      3  N   UNL A   1      40.220  19.123  25.748  1.00  0.00    -0.352 N 
ATOM      4  O   UNL A   1      42.405  18.583  25.900  1.00  0.00    -0.269 OA
ATOM      5  C   UNL A   1      41.523  19.420  26.071  1.00  0.00     0.251 C 
ATOM      6  H   UNL A   1      40.056  18.193  25.470  1.00  0.00     0.163 HD
BRANCH   5   7
ATOM      7  C   UNL A   1      41.872  20.760  26.594  1.00  0.00     0.039 A 
ATOM      8  C   UNL A   1      41.842  21.026  27.965  1.00  0.00     0.014 A 
ATOM      9  C   UNL A   1      42.248  21.765  25.695  1.00  0.00     0.014 A 
ATOM     10  C   UNL A   1      42.049  22.323  28.423  1.00  0.00     0.010 A 
ATOM     11  C   UNL A   1      42.542  23.049  26.167  1.00  0.00     0.010 A 
ATOM     12  C   UNL A   1      42.423  23.343  27.532  1.00  0.00    -0.014 A 
BRANCH  12  13
ATOM     13  C   UNL A   1      42.781  24.678  28.073  1.00  0.00     0.031 A 
ATOM     14  C   UNL A   1      44.205  25.051  28.375  1.00  0.00     0.074 A 
ATOM     15  C   UNL A   1      41.791  25.573  28.265  1.00  0.00     0.049 A 
ATOM     16  N   UNL A   1      44.675  26.182  28.837  1.00  0.00    -0.248 NA
ATOM     17  C   UNL A   1      45.236  24.030  28.131  1.00  0.00     0.031 C 
ATOM     18  C   UNL A   1      40.370  25.317  28.019  1.00  0.00     0.029 A 
ATOM     19  N   UNL A   1      41.824  26.876  28.692  1.00  0.00    -0.354 N 
ATOM     20  C   UNL A   1      46.048  26.008  28.952  1.00  0.00     0.074 A 
ATOM     21  C   UNL A   1      46.338  24.655  28.529  1.00  0.00     0.031 C 
ATOM     22  C   UNL A   1      39.673  26.437  28.252  1.00  0.00     0.029 A 
ATOM     23  C   UNL A   1      40.585  27.470  28.729  1.00  0.00     0.049 A 
ATOM     24  H   UNL A   1      42.653  27.340  28.947  1.00  0.00     0.167 HD
ATOM     25  C   UNL A   1      46.976  26.904  29.365  1.00  0.00     0.037 A 
ATOM     26  C   UNL A   1      40.216  28.703  29.122  1.00  0.00     0.037 A 
ATOM     27  C   UNL A   1      46.681  28.257  29.762  1.00  0.00     0.049 A 
ATOM     28  C   UNL A   1      41.266  29.660  29.602  1.00  0.00     0.074 A 
ATOM     29  C   UNL A   1      47.565  29.249  30.150  1.00  0.00     0.029 A 
ATOM     30  N   UNL A   1      45.411  28.807  29.827  1.00  0.00    -0.354 N 
ATOM     31  N   UNL A   1      42.564  29.489  29.673  1.00  0.00    -0.248 NA
ATOM     32  C   UNL A   1      40.804  30.974  30.069  1.00  0.00     0.031 C 
ATOM     33  C   UNL A   1      46.828  30.385  30.494  1.00  0.00     0.029 A 
ATOM     34  C   UNL A   1      45.486  30.116  30.276  1.00  0.00     0.049 A 
ATOM     35  H   UNL A   1      44.578  28.338  29.589  1.00  0.00     0.167 HD
ATOM     36  C   UNL A   1      43.073  30.672  30.186  1.00  0.00     0.074 A 
ATOM     37  C   UNL A   1      41.949  31.563  30.385  1.00  0.00     0.031 C 
ATOM     38  C   UNL A   1      44.358  30.988  30.474  1.00  0.00     0.037 A 
BRANCH  25  39
ATOM     39  C   UNL A   1      48.412  26.473  29.414  1.00  0.00     0.057 A 
ATOM     40  C   UNL A   1      48.935  25.872  30.566  1.00  0.00     0.134 A 
ATOM     41  C   UNL A   1      49.304  26.770  28.377  1.00  0.00     0.134 A 
ATOM     42  F   UNL A   1      48.135  25.571  31.600  1.00  0.00    -0.206 F 
ATOM     43  C   UNL A   1      50.299  25.606  30.696  1.00  0.00     0.040 A 
ATOM     44  C   UNL A   1      50.668  26.493  28.488  1.00  0.00     0.040 A 
ATOM     45  F   UNL A   1      48.865  27.342  27.246  1.00  0.00    -0.206 F 
ATOM     46  C   UNL A   1      51.171  25.921  29.655  1.00  0.00     0.006 A 
ENDBRANCH  25  39
BRANCH  26  47
ATOM     47  C   UNL A   1      38.783  29.084  29.091  1.00  0.00     0.057 A 
ATOM     48  C   UNL A   1      38.186  29.572  27.921  1.00  0.00     0.134 A 
ATOM     49  C   UNL A   1      37.983  28.997  30.235  1.00  0.00     0.134 A 
ATOM     50  F   UNL A   1      38.901  29.686  26.792  1.00  0.00    -0.206 F 
ATOM     51  C   UNL A   1      36.852  29.979  27.895  1.00  0.00     0.040 A 
ATOM     52  C   UNL A   1      36.639  29.375  30.216  1.00  0.00     0.040 A 
ATOM     53  F   UNL A   1      38.493  28.522  31.380  1.00  0.00    -0.206 F 
ATOM     54  C   UNL A   1      36.073  29.875  29.045  1.00  0.00     0.006 A 
ENDBRANCH  26  47
BRANCH  38  55
ATOM     55  C   UNL A   1      44.622  32.352  31.035  1.00  0.00     0.057 A 
ATOM     56  C   UNL A   1      44.894  33.435  30.189  1.00  0.00     0.134 A 
ATOM     57  C   UNL A   1      44.672  32.578  32.415  1.00  0.00     0.134 A 
ATOM     58  F   UNL A   1      44.871  33.281  28.857  1.00  0.00    -0.206 F 
ATOM     59  C   UNL A   1      45.219  34.692  30.698  1.00  0.00     0.040 A 
ATOM     60  C   UNL A   1      44.973  33.836  32.936  1.00  0.00     0.040 A 
ATOM     61  F   UNL A   1      44.408  31.583  33.276  1.00  0.00    -0.206 F 
ATOM     62  C   UNL A   1      45.257  34.895  32.077  1.00  0.00     0.006 A 
ENDBRANCH  38  55
ENDBRANCH  12  13
ENDBRANCH   5   7
ENDBRANCH   2   3
ENDBRANCH   1   2
BRANCH   1  63
ATOM     63  C   UNL A   1      36.581  19.975  24.994  1.00  0.00     0.023 C 
BRANCH  63  64
ATOM     64  C   UNL A   1      36.313  21.394  25.490  1.00  0.00     0.116 C 
BRANCH  64  65
ATOM     65  N   UNL A   1      35.310  21.459  26.538  1.00  0.00    -0.352 N 
ATOM     66  C   UNL A   1      33.942  21.340  26.435  1.00  0.00     0.256 C 
ATOM     67  H   UNL A   1      35.656  21.608  27.447  1.00  0.00     0.163 HD
ATOM     68  O   UNL A   1      33.251  21.391  27.449  1.00  0.00    -0.269 OA
BRANCH  66  69
ATOM     69  C   UNL A   1      33.318  21.187  25.107  1.00  0.00     0.098 A 
ATOM     70  C   UNL A   1      33.084  19.877  24.669  1.00  0.00     0.138 A 
ATOM     71  C   UNL A   1      32.890  22.297  24.347  1.00  0.00     0.053 A 
ATOM     72  F   UNL A   1      33.481  18.826  25.405  1.00  0.00    -0.206 F 
ATOM     73  C   UNL A   1      32.469  19.630  23.451  1.00  0.00     0.040 A 
ATOM     74  C   UNL A   1      32.227  22.013  23.138  1.00  0.00     0.027 A 
ATOM     75  C   UNL A   1      32.035  20.703  22.682  1.00  0.00     0.005 A 
BRANCH  71  76
ATOM     76  N   UNL A   1      33.108  23.609  24.691  1.00  0.00    -0.365 N 
ATOM     77  C   UNL A   1      34.269  24.375  24.291  1.00  0.00     0.123 C 
ATOM     78  C   UNL A   1      32.261  24.364  25.620  1.00  0.00     0.181 C 
ATOM     79  C   UNL A   1      34.478  25.331  25.449  1.00  0.00     0.088 C 
ATOM     80  C   UNL A   1      33.070  25.667  25.955  1.00  0.00     0.205 C 
BRANCH  80  81
ATOM     81  N   UNL A   1      32.447  26.929  25.510  1.00  0.00    -0.331 N 
ATOM     82  C   UNL A   1      33.314  28.049  25.153  1.00  0.00     0.262 C 
ATOM     83  C   UNL A   1      31.290  27.363  26.301  1.00  0.00     0.262 C 
ATOM     84  H   UNL A   1      32.100  26.615  24.604  1.00  0.00     0.348 HD
ATOM     85  C   UNL A   1      33.729  28.947  26.320  1.00  0.00     0.062 C 
ATOM     86  C   UNL A   1      31.621  28.213  27.528  1.00  0.00     0.062 C 
ATOM     87  C   UNL A   1      32.555  29.371  27.193  1.00  0.00     0.012 C 
ENDBRANCH  80  81
ENDBRANCH  71  76
ENDBRANCH  66  69
ENDBRANCH  64  65
ENDBRANCH  63  64
ENDBRANCH   1  63
TORSDOF 13
ENDMDL
MODEL 2
REMARK VINA RESULT:     -12.2      0.189      6.218
REMARK SMILES O=C(NCCCCNC(=O)c1c(F)cccc1N1CC[C@@H]([NH+]2CCCCC2)C1)c1ccc(-c2c3nc(c(-c4c(F)cccc4F)c4ccc([nH]4)c(-c4c(F)cccc4F)c4nc(c(-c5c(F)cccc5F)c5ccc2[nH]5)C=C4)C=C3)cc1
REMARK SMILES IDX 5 1 4 2 3 3 1 4 2 5 29 7 30 8 82 9 31 10 81 11 32 12 33 13
REMARK SMILES IDX 34 14 75 15 35 16 80 17 74 18 76 19 36 20 79 21 73 22 72 23
REMARK SMILES IDX 37 25 63 26 46 27 62 28 47 29 50 30 61 31 77 32 48 33 49 34
REMARK SMILES IDX 60 36 78 37 51 38 38 39 39 40 44 41 40 42 41 43 43 44 45 45
REMARK SMILES IDX 42 46 64 47 65 48 70 49 66 50 67 51 69 52 71 53 68 54 52 55
REMARK SMILES IDX 53 56 58 57 54 58 55 59 57 60 59 61 56 62 6 63 7 64 8 65
REMARK SMILES IDX 9 66 10 68 11 69 12 70 17 71 13 72 14 73 16 74 15 75 18 76
REMARK SMILES IDX 19 77 28 78 20 79 21 80 22 81 23 82 27 83 24 85 26 86 25 87
REMARK H PARENT 3 6 76 24 50 35 8 67 22 84
REMARK Flexibility Score: inf
ROOT
ATOM      1  C   UNL A   1      38.105  19.588  24.683  1.00  0.00     0.023 C 
ENDROOT
BRANCH   1   2
ATOM      2  C   UNL A   1      39.083  19.910  25.803  1.00  0.00     0.116 C 
BRANCH   2   3
ATOM      3  N   UNL A   1      40.280  19.086  25.781  1.00  0.00    -0.352 N 
ATOM      4  O   UNL A   1      42.484  18.616  25.893  1.00  0.00    -0.269 OA
ATOM      5  C   UNL A   1      41.581  19.429  26.069  1.00  0.00     0.251 C 
ATOM      6  H   UNL A   1      40.140  18.146  25.523  1.00  0.00     0.163 HD
BRANCH   5   7
ATOM      7  C   UNL A   1      41.899  20.788  26.562  1.00  0.00     0.039 A 
ATOM      8  C   UNL A   1      42.233  21.813  25.675  1.00  0.00     0.014 A 
ATOM      9  C   UNL A   1      41.848  21.041  27.937  1.00  0.00     0.014 A 
ATOM     10  C   UNL A   1      42.652  23.045  26.168  1.00  0.00     0.010 A 
ATOM     11  C   UNL A   1      42.184  22.308  28.426  1.00  0.00     0.010 A 
ATOM     12  C   UNL A   1      42.610  23.314  27.546  1.00  0.00    -0.014 A 
BRANCH  12  13
ATOM     13  C   UNL A   1      42.920  24.684  28.024  1.00  0.00     0.031 A 
ATOM     14  C   UNL A   1      41.838  25.697  28.270  1.00  0.00     0.074 A 
ATOM     15  C   UNL A   1      44.209  24.998  28.263  1.00  0.00     0.049 A 
ATOM     16  N   UNL A   1      41.952  26.929  28.701  1.00  0.00    -0.248 NA
ATOM     17  C   UNL A   1      40.452  25.284  27.999  1.00  0.00     0.031 C 
ATOM     18  C   UNL A   1      45.346  24.098  28.048  1.00  0.00     0.029 A 
ATOM     19  N   UNL A   1      44.783  26.143  28.753  1.00  0.00    -0.354 N 
ATOM     20  C   UNL A   1      40.662  27.441  28.741  1.00  0.00     0.074 A 
ATOM     21  C   UNL A   1      39.778  26.395  28.273  1.00  0.00     0.031 C 
ATOM     22  C   UNL A   1      46.471  24.706  28.446  1.00  0.00     0.029 A 
ATOM     23  C   UNL A   1      46.148  26.059  28.881  1.00  0.00     0.049 A 
ATOM     24  H   UNL A   1      44.267  26.947  28.989  1.00  0.00     0.167 HD
ATOM     25  C   UNL A   1      40.259  28.670  29.142  1.00  0.00     0.037 A 
ATOM     26  C   UNL A   1      47.049  26.975  29.283  1.00  0.00     0.037 A 
ATOM     27  C   UNL A   1      41.144  29.698  29.629  1.00  0.00     0.049 A 
ATOM     28  C   UNL A   1      46.571  28.336  29.692  1.00  0.00     0.074 A 
ATOM     29  C   UNL A   1      40.816  30.958  30.101  1.00  0.00     0.029 A 
ATOM     30  N   UNL A   1      42.522  29.589  29.703  1.00  0.00    -0.354 N 
ATOM     31  N   UNL A   1      45.344  28.793  29.755  1.00  0.00    -0.248 NA
ATOM     32  C   UNL A   1      47.599  29.315  30.072  1.00  0.00     0.031 C 
ATOM     33  C   UNL A   1      42.000  31.629  30.418  1.00  0.00     0.029 A 
ATOM     34  C   UNL A   1      43.063  30.770  30.186  1.00  0.00     0.049 A 
ATOM     35  H   UNL A   1      43.042  28.792  29.450  1.00  0.00     0.167 HD
ATOM     36  C   UNL A   1      45.450  30.107  30.186  1.00  0.00     0.074 A 
ATOM     37  C   UNL A   1      46.860  30.368  30.394  1.00  0.00     0.031 C 
ATOM     38  C   UNL A   1      44.468  31.017  30.383  1.00  0.00     0.037 A 
BRANCH  25  39
ATOM     39  C   UNL A   1      38.796  28.996  29.083  1.00  0.00     0.057 A 
ATOM     40  C   UNL A   1      38.231  29.523  27.915  1.00  0.00     0.134 A 
ATOM     41  C   UNL A   1      37.979  28.914  30.217  1.00  0.00     0.134 A 
ATOM     42  F   UNL A   1      38.963  29.638  26.797  1.00  0.00    -0.206 F 
ATOM     43  C   UNL A   1      36.912  29.980  27.883  1.00  0.00     0.040 A 
ATOM     44  C   UNL A   1      36.653  29.351  30.193  1.00  0.00     0.040 A 
ATOM     45  F   UNL A   1      38.459  28.414  31.366  1.00  0.00    -0.206 F 
ATOM     46  C   UNL A   1      36.121  29.898  29.027  1.00  0.00     0.006 A 
ENDBRANCH  25  39
BRANCH  26  47
ATOM     47  C   UNL A   1      48.491  26.629  29.297  1.00  0.00     0.057 A 
ATOM     48  C   UNL A   1      49.079  26.011  30.409  1.00  0.00     0.134 A 
ATOM     49  C   UNL A   1      49.322  26.931  28.214  1.00  0.00     0.134 A 
ATOM     50  F   UNL A   1      48.337  25.703  31.484  1.00  0.00    -0.206 F 
ATOM     51  C   UNL A   1      50.443  25.726  30.452  1.00  0.00     0.040 A 
ATOM     52  C   UNL A   1      50.684  26.626  28.231  1.00  0.00     0.040 A 
ATOM     53  F   UNL A   1      48.813  27.506  27.115  1.00  0.00    -0.206 F 
ATOM     54  C   UNL A   1      51.249  26.029  29.357  1.00  0.00     0.006 A 
ENDBRANCH  26  47
BRANCH  38  55
ATOM     55  C   UNL A   1      44.877  32.382  30.848  1.00  0.00     0.057 A 
ATOM     56  C   UNL A   1      45.179  33.392  29.925  1.00  0.00     0.134 A 
ATOM     57  C   UNL A   1      45.038  32.674  32.206  1.00  0.00     0.134 A 
ATOM     58  F   UNL A   1      45.054  33.171  28.608  1.00  0.00    -0.206 F 
ATOM     59  C   UNL A   1      45.638  34.642  30.340  1.00  0.00     0.040 A 
ATOM     60  C   UNL A   1      45.473  33.928  32.634  1.00  0.00     0.040 A 
ATOM     61  F   UNL A   1      44.753  31.752  33.138  1.00  0.00    -0.206 F 
ATOM     62  C   UNL A   1      45.783  34.913  31.699  1.00  0.00     0.006 A 
ENDBRANCH  38  55
ENDBRANCH  12  13
ENDBRANCH   5   7
ENDBRANCH   2   3
ENDBRANCH   1   2
BRANCH   1  63
ATOM     63  C   UNL A   1      36.640  19.918  24.963  1.00  0.00     0.023 C 
BRANCH  63  64
ATOM     64  C   UNL A   1      36.354  21.346  25.423  1.00  0.00     0.116 C 
BRANCH  64  65
ATOM     65  N   UNL A   1      35.365  21.423  26.482  1.00  0.00    -0.352 N 
ATOM     66  C   UNL A   1      33.994  21.317  26.395  1.00  0.00     0.256 C 
ATOM     67  H   UNL A   1      35.722  21.571  27.387  1.00  0.00     0.163 HD
ATOM     68  O   UNL A   1      33.315  21.377  27.417  1.00  0.00    -0.269 OA
BRANCH  66  69
ATOM     69  C   UNL A   1      33.354  21.168  25.075  1.00  0.00     0.098 A 
ATOM     70  C   UNL A   1      33.117  19.859  24.635  1.00  0.00     0.138 A 
ATOM     71  C   UNL A   1      32.912  22.280  24.325  1.00  0.00     0.053 A 
ATOM     72  F   UNL A   1      33.525  18.806  25.362  1.00  0.00    -0.206 F 
ATOM     73  C   UNL A   1      32.487  19.615  23.424  1.00  0.00     0.040 A 
ATOM     74  C   UNL A   1      32.235  21.998  23.123  1.00  0.00     0.027 A 
ATOM     75  C   UNL A   1      32.040  20.689  22.665  1.00  0.00     0.005 A 
BRANCH  71  76
ATOM     76  N   UNL A   1      33.132  23.591  24.670  1.00  0.00    -0.365 N 
ATOM     77  C   UNL A   1      34.286  24.360  24.259  1.00  0.00     0.123 C 
ATOM     78  C   UNL A   1      32.295  24.341  25.613  1.00  0.00     0.181 C 
ATOM     79  C   UNL A   1      34.507  25.313  25.418  1.00  0.00     0.088 C 
ATOM     80  C   UNL A   1      33.105  25.644  25.942  1.00  0.00     0.205 C 
BRANCH  80  81
ATOM     81  N   UNL A   1      32.474  26.906  25.510  1.00  0.00    -0.331 N 
ATOM     82  C   UNL A   1      33.333  28.033  25.157  1.00  0.00     0.262 C 
ATOM     83  C   UNL A   1      31.318  27.328  26.310  1.00  0.00     0.262 C 
ATOM     84  H   UNL A   1      32.124  26.597  24.604  1.00  0.00     0.348 HD
ATOM     85  C   UNL A   1      33.749  28.925  26.328  1.00  0.00     0.062 C 
ATOM     86  C   UNL A   1      31.651  28.171  27.541  1.00  0.00     0.062 C 
ATOM     87  C   UNL A   1      32.577  29.336  27.211  1.00  0.00     0.012 C 
ENDBRANCH  80  81
ENDBRANCH  71  76
ENDBRANCH  66  69
ENDBRANCH  64  65
ENDBRANCH  63  64
ENDBRANCH   1  63
TORSDOF 13
ENDMDL
MODEL 3
REMARK VINA RESULT:     -12.2      4.155      9.333
REMARK SMILES O=C(NCCCCNC(=O)c1c(F)cccc1N1CC[C@@H]([NH+]2CCCCC2)C1)c1ccc(-c2c3nc(c(-c4c(F)cccc4F)c4ccc([nH]4)c(-c4c(F)cccc4F)c4nc(c(-c5c(F)cccc5F)c5ccc2[nH]5)C=C4)C=C3)cc1
REMARK SMILES IDX 5 1 4 2 3 3 1 4 2 5 29 7 30 8 82 9 31 10 81 11 32 12 33 13
REMARK SMILES IDX 34 14 75 15 35 16 80 17 74 18 76 19 36 20 79 21 73 22 72 23
REMARK SMILES IDX 37 25 63 26 46 27 62 28 47 29 50 30 61 31 77 32 48 33 49 34
REMARK SMILES IDX 60 36 78 37 51 38 38 39 39 40 44 41 40 42 41 43 43 44 45 45
REMARK SMILES IDX 42 46 64 47 65 48 70 49 66 50 67 51 69 52 71 53 68 54 52 55
REMARK SMILES IDX 53 56 58 57 54 58 55 59 57 60 59 61 56 62 6 63 7 64 8 65
REMARK SMILES IDX 9 66 10 68 11 69 12 70 17 71 13 72 14 73 16 74 15 75 18 76
REMARK SMILES IDX 19 77 28 78 20 79 21 80 22 81 23 82 27 83 24 85 26 86 25 87
REMARK H PARENT 3 6 76 24 50 35 8 67 22 84
REMARK Flexibility Score: inf
ROOT
ATOM      1  C   UNL A   1      31.379  32.021  26.971  1.00  0.00     0.023 C 
ENDROOT
BRANCH   1   2
ATOM      2  C   UNL A   1      32.610  32.915  26.980  1.00  0.00     0.116 C 
BRANCH   2   3
ATOM      3  N   UNL A   1      32.386  34.202  27.617  1.00  0.00    -0.352 N 
ATOM      4  O   UNL A   1      32.684  35.859  29.118  1.00  0.00    -0.269 OA
ATOM      5  C   UNL A   1      33.087  34.806  28.634  1.00  0.00     0.251 C 
ATOM      6  H   UNL A   1      31.621  34.716  27.270  1.00  0.00     0.163 HD
BRANCH   5   7
ATOM      7  C   UNL A   1      34.313  34.172  29.170  1.00  0.00     0.039 A 
ATOM      8  C   UNL A   1      35.568  34.466  28.633  1.00  0.00     0.014 A 
ATOM      9  C   UNL A   1      34.203  33.274  30.238  1.00  0.00     0.014 A 
ATOM     10  C   UNL A   1      36.688  33.764  29.065  1.00  0.00     0.010 A 
ATOM     11  C   UNL A   1      35.345  32.634  30.732  1.00  0.00     0.010 A 
ATOM     12  C   UNL A   1      36.593  32.858  30.134  1.00  0.00    -0.014 A 
BRANCH  12  13
ATOM     13  C   UNL A   1      37.832  32.239  30.667  1.00  0.00     0.031 A 
ATOM     14  C   UNL A   1      38.533  32.792  31.876  1.00  0.00     0.074 A 
ATOM     15  C   UNL A   1      38.308  31.137  30.053  1.00  0.00     0.049 A 
ATOM     16  N   UNL A   1      39.615  32.353  32.468  1.00  0.00    -0.248 NA
ATOM     17  C   UNL A   1      37.953  33.990  32.503  1.00  0.00     0.031 C 
ATOM     18  C   UNL A   1      37.717  30.518  28.864  1.00  0.00     0.029 A 
ATOM     19  N   UNL A   1      39.379  30.333  30.347  1.00  0.00    -0.354 N 
ATOM     20  C   UNL A   1      39.853  33.221  33.524  1.00  0.00     0.074 A 
ATOM     21  C   UNL A   1      38.814  34.228  33.485  1.00  0.00     0.031 C 
ATOM     22  C   UNL A   1      38.402  29.409  28.558  1.00  0.00     0.029 A 
ATOM     23  C   UNL A   1      39.519  29.272  29.484  1.00  0.00     0.049 A 
ATOM     24  H   UNL A   1      39.988  30.498  31.103  1.00  0.00     0.167 HD
ATOM     25  C   UNL A   1      40.846  33.171  34.445  1.00  0.00     0.037 A 
ATOM     26  C   UNL A   1      40.454  28.306  29.428  1.00  0.00     0.037 A 
ATOM     27  C   UNL A   1      41.863  32.152  34.490  1.00  0.00     0.049 A 
ATOM     28  C   UNL A   1      41.556  28.298  30.445  1.00  0.00     0.074 A 
ATOM     29  C   UNL A   1      42.881  31.997  35.416  1.00  0.00     0.029 A 
ATOM     30  N   UNL A   1      41.996  31.122  33.574  1.00  0.00    -0.354 N 
ATOM     31  N   UNL A   1      41.748  29.108  31.457  1.00  0.00    -0.248 NA
ATOM     32  C   UNL A   1      42.580  27.253  30.307  1.00  0.00     0.031 C 
ATOM     33  C   UNL A   1      43.657  30.900  35.036  1.00  0.00     0.029 A 
ATOM     34  C   UNL A   1      43.096  30.343  33.897  1.00  0.00     0.049 A 
ATOM     35  H   UNL A   1      41.398  30.964  32.808  1.00  0.00     0.167 HD
ATOM     36  C   UNL A   1      42.907  28.670  32.079  1.00  0.00     0.074 A 
ATOM     37  C   UNL A   1      43.363  27.507  31.347  1.00  0.00     0.031 C 
ATOM     38  C   UNL A   1      43.540  29.191  33.156  1.00  0.00     0.037 A 
BRANCH  25  39
ATOM     39  C   UNL A   1      40.900  34.242  35.494  1.00  0.00     0.057 A 
ATOM     40  C   UNL A   1      40.166  34.113  36.681  1.00  0.00     0.134 A 
ATOM     41  C   UNL A   1      41.568  35.452  35.275  1.00  0.00     0.134 A 
ATOM     42  F   UNL A   1      39.495  32.983  36.947  1.00  0.00    -0.206 F 
ATOM     43  C   UNL A   1      40.075  35.160  37.600  1.00  0.00     0.040 A 
ATOM     44  C   UNL A   1      41.499  36.500  36.195  1.00  0.00     0.040 A 
ATOM     45  F   UNL A   1      42.291  35.637  34.160  1.00  0.00    -0.206 F 
ATOM     46  C   UNL A   1      40.740  36.360  37.355  1.00  0.00     0.006 A 
ENDBRANCH  25  39
BRANCH  26  47
ATOM     47  C   UNL A   1      40.388  27.283  28.356  1.00  0.00     0.057 A 
ATOM     48  C   UNL A   1      41.073  27.453  27.146  1.00  0.00     0.134 A 
ATOM     49  C   UNL A   1      39.618  26.124  28.504  1.00  0.00     0.134 A 
ATOM     50  F   UNL A   1      41.823  28.546  26.940  1.00  0.00    -0.206 F 
ATOM     51  C   UNL A   1      40.979  26.520  26.114  1.00  0.00     0.040 A 
ATOM     52  C   UNL A   1      39.537  25.169  27.490  1.00  0.00     0.040 A 
ATOM     53  F   UNL A   1      38.953  25.898  29.646  1.00  0.00    -0.206 F 
ATOM     54  C   UNL A   1      40.212  25.371  26.287  1.00  0.00     0.006 A 
ENDBRANCH  26  47
BRANCH  38  55
ATOM     55  C   UNL A   1      44.796  28.511  33.611  1.00  0.00     0.057 A 
ATOM     56  C   UNL A   1      44.746  27.461  34.538  1.00  0.00     0.134 A 
ATOM     57  C   UNL A   1      46.057  28.941  33.183  1.00  0.00     0.134 A 
ATOM     58  F   UNL A   1      43.568  27.010  34.994  1.00  0.00    -0.206 F 
ATOM     59  C   UNL A   1      45.910  26.871  35.031  1.00  0.00     0.040 A 
ATOM     60  C   UNL A   1      47.227  28.343  33.651  1.00  0.00     0.040 A 
ATOM     61  F   UNL A   1      46.168  29.934  32.288  1.00  0.00    -0.206 F 
ATOM     62  C   UNL A   1      47.155  27.311  34.585  1.00  0.00     0.006 A 
ENDBRANCH  38  55
ENDBRANCH  12  13
ENDBRANCH   5   7
ENDBRANCH   2   3
ENDBRANCH   1   2
BRANCH   1  63
ATOM     63  C   UNL A   1      31.257  31.068  25.783  1.00  0.00     0.023 C 
BRANCH  63  64
ATOM     64  C   UNL A   1      32.233  29.893  25.768  1.00  0.00     0.116 C 
BRANCH  64  65
ATOM     65  N   UNL A   1      32.822  29.650  24.464  1.00  0.00    -0.352 N 
ATOM     66  C   UNL A   1      32.331  28.899  23.419  1.00  0.00     0.256 C 
ATOM     67  H   UNL A   1      33.692  30.081  24.304  1.00  0.00     0.163 HD
ATOM     68  O   UNL A   1      32.964  28.835  22.368  1.00  0.00    -0.269 OA
BRANCH  66  69
ATOM     69  C   UNL A   1      31.069  28.152  23.584  1.00  0.00     0.098 A 
ATOM     70  C   UNL A   1      29.897  28.800  23.173  1.00  0.00     0.138 A 
ATOM     71  C   UNL A   1      31.042  26.818  24.044  1.00  0.00     0.053 A 
ATOM     72  F   UNL A   1      29.934  30.064  22.721  1.00  0.00    -0.206 F 
ATOM     73  C   UNL A   1      28.665  28.167  23.253  1.00  0.00     0.040 A 
ATOM     74  C   UNL A   1      29.784  26.188  24.070  1.00  0.00     0.027 A 
ATOM     75  C   UNL A   1      28.607  26.853  23.701  1.00  0.00     0.005 A 
BRANCH  71  76
ATOM     76  N   UNL A   1      32.140  26.125  24.493  1.00  0.00    -0.365 N 
ATOM     77  C   UNL A   1      32.588  26.111  25.869  1.00  0.00     0.123 C 
ATOM     78  C   UNL A   1      33.079  25.419  23.615  1.00  0.00     0.181 C 
ATOM     79  C   UNL A   1      34.093  25.965  25.748  1.00  0.00     0.088 C 
ATOM     80  C   UNL A   1      34.316  25.077  24.518  1.00  0.00     0.205 C 
BRANCH  80  81
ATOM     81  N   UNL A   1      34.567  23.638  24.727  1.00  0.00    -0.331 N 
ATOM     82  C   UNL A   1      35.282  23.220  25.930  1.00  0.00     0.262 C 
ATOM     83  C   UNL A   1      35.020  22.907  23.538  1.00  0.00     0.262 C 
ATOM     84  H   UNL A   1      33.610  23.344  24.922  1.00  0.00     0.348 HD
ATOM     85  C   UNL A   1      36.808  23.221  25.812  1.00  0.00     0.062 C 
ATOM     86  C   UNL A   1      36.532  22.914  23.307  1.00  0.00     0.062 C 
ATOM     87  C   UNL A   1      37.309  22.516  24.557  1.00  0.00     0.012 C 
ENDBRANCH  80  81
ENDBRANCH  71  76
ENDBRANCH  66  69
ENDBRANCH  64  65
ENDBRANCH  63  64
ENDBRANCH   1  63
TORSDOF 13
ENDMDL
