MODEL 1
REMARK VINA RESULT:     -10.1      0.000      0.000
REMARK SMILES C[N@H+]1CC[C@H](C[N@@H+](CC(=O)NCCCCNC(=O)c2ccc(-c3c4nc(c(-c5c(F)cccc5F)c5ccc([nH]5)c(-c5c(F)cccc5F)c5nc(c(-c6c(F)cccc6F)c6ccc3[nH]6)C=C5)C=C4)cc2)C2CC2)C1
REMARK SMILES IDX 13 1 12 2 11 3 9 4 10 5 8 7 7 8 6 10 5 11 1 12 2 13 3 14
REMARK SMILES IDX 76 15 4 17 73 18 74 19 75 20 14 21 15 22 16 23 17 24 18 26
REMARK SMILES IDX 19 27 20 28 72 29 21 30 71 31 22 32 23 33 24 34 65 35 25 36
REMARK SMILES IDX 70 37 64 38 66 39 26 40 69 41 63 42 62 43 27 45 53 46 36 47
REMARK SMILES IDX 52 48 37 49 40 50 51 51 67 52 38 53 39 54 50 56 68 57 41 58
REMARK SMILES IDX 28 59 29 60 34 61 30 62 31 63 33 64 35 65 32 66 54 67 55 68
REMARK SMILES IDX 60 69 56 70 57 71 59 72 61 73 58 74 42 75 43 76 48 77 44 78
REMARK SMILES IDX 45 79 47 80 49 81 46 82
REMARK H PARENT 11 6 7 9 2 16 16 25 66 44 40 55
REMARK Flexibility Score: inf
ROOT
ATOM      1  C   UNL A   1      37.303  21.423  24.454  1.00  0.00     0.023 C 
ENDROOT
BRANCH   1   2
ATOM      2  C   UNL A   1      37.262  22.620  25.402  1.00  0.00     0.116 C 
BRANCH   2   3
ATOM      3  N   UNL A   1      36.017  22.649  26.143  1.00  0.00    -0.351 N 
ATOM      4  C   UNL A   1      34.992  23.551  26.125  1.00  0.00     0.275 C 
ATOM      5  O   UNL A   1      34.083  23.366  26.945  1.00  0.00    -0.269 OA
ATOM      6  H   UNL A   1      35.889  21.893  26.762  1.00  0.00     0.163 HD
BRANCH   4   7
ATOM      7  C   UNL A   1      34.935  24.723  25.122  1.00  0.00     0.363 C 
BRANCH   7   8
ATOM      8  N   UNL A   1      33.786  24.702  24.157  1.00  0.00    -0.324 N 
ATOM      9  H   UNL A   1      32.919  24.682  24.696  1.00  0.00     0.348 HD
BRANCH   8  10
ATOM     10  C   UNL A   1      33.827  23.490  23.329  1.00  0.00     0.272 C 
BRANCH  10  11
ATOM     11  C   UNL A   1      32.613  22.550  23.309  1.00  0.00     0.105 C 
ATOM     12  C   UNL A   1      30.463  22.549  26.289  1.00  0.00     0.332 C 
ATOM     13  N   UNL A   1      31.658  22.500  25.455  1.00  0.00    -0.337 N 
ATOM     14  C   UNL A   1      32.097  21.124  25.230  1.00  0.00     0.262 C 
ATOM     15  C   UNL A   1      31.424  23.060  24.117  1.00  0.00     0.271 C 
ATOM     16  H   UNL A   1      32.358  23.043  25.962  1.00  0.00     0.347 HD
ATOM     17  C   UNL A   1      32.989  21.224  24.004  1.00  0.00     0.076 C 
ENDBRANCH  10  11
ENDBRANCH   8  10
BRANCH   8  18
ATOM     18  C   UNL A   1      33.754  25.931  23.328  1.00  0.00     0.184 C 
ATOM     19  C   UNL A   1      33.096  25.936  21.977  1.00  0.00     0.071 C 
ATOM     20  C   UNL A   1      32.455  26.659  23.123  1.00  0.00     0.071 C 
ENDBRANCH   8  18
ENDBRANCH   7   8
ENDBRANCH   4   7
ENDBRANCH   2   3
ENDBRANCH   1   2
BRANCH   1  21
ATOM     21  C   UNL A   1      37.888  20.136  24.996  1.00  0.00     0.023 C 
BRANCH  21  22
ATOM     22  C   UNL A   1      39.060  20.326  25.931  1.00  0.00     0.116 C 
BRANCH  22  23
ATOM     23  N   UNL A   1      40.065  19.275  25.849  1.00  0.00    -0.352 N 
ATOM     24  C   UNL A   1      41.423  19.357  26.067  1.00  0.00     0.251 C 
ATOM     25  H   UNL A   1      39.727  18.383  25.604  1.00  0.00     0.163 HD
ATOM     26  O   UNL A   1      42.145  18.388  25.878  1.00  0.00    -0.269 OA
BRANCH  24  27
ATOM     27  C   UNL A   1      42.004  20.652  26.483  1.00  0.00     0.039 A 
ATOM     28  C   UNL A   1      42.304  21.607  25.511  1.00  0.00     0.014 A 
ATOM     29  C   UNL A   1      42.167  20.950  27.838  1.00  0.00     0.014 A 
ATOM     30  C   UNL A   1      42.683  22.890  25.906  1.00  0.00     0.010 A 
ATOM     31  C   UNL A   1      42.402  22.259  28.226  1.00  0.00     0.010 A 
ATOM     32  C   UNL A   1      42.688  23.239  27.267  1.00  0.00    -0.014 A 
BRANCH  32  33
ATOM     33  C   UNL A   1      43.025  24.611  27.715  1.00  0.00     0.031 A 
ATOM     34  C   UNL A   1      44.468  25.038  27.780  1.00  0.00     0.074 A 
ATOM     35  C   UNL A   1      42.049  25.444  28.123  1.00  0.00     0.049 A 
ATOM     36  N   UNL A   1      44.977  26.175  28.182  1.00  0.00    -0.248 NA
ATOM     37  C   UNL A   1      45.477  24.041  27.384  1.00  0.00     0.031 C 
ATOM     38  C   UNL A   1      40.622  25.115  28.191  1.00  0.00     0.029 A 
ATOM     39  N   UNL A   1      42.108  26.743  28.558  1.00  0.00    -0.354 N 
ATOM     40  C   UNL A   1      46.355  26.015  28.111  1.00  0.00     0.074 A 
ATOM     41  C   UNL A   1      46.606  24.651  27.707  1.00  0.00     0.031 C 
ATOM     42  C   UNL A   1      39.939  26.199  28.593  1.00  0.00     0.029 A 
ATOM     43  C   UNL A   1      40.878  27.287  28.838  1.00  0.00     0.049 A 
ATOM     44  H   UNL A   1      42.953  27.239  28.659  1.00  0.00     0.167 HD
ATOM     45  C   UNL A   1      47.326  26.933  28.321  1.00  0.00     0.037 A 
ATOM     46  C   UNL A   1      40.550  28.532  29.233  1.00  0.00     0.037 A 
ATOM     47  C   UNL A   1      47.069  28.303  28.670  1.00  0.00     0.049 A 
ATOM     48  C   UNL A   1      41.641  29.552  29.401  1.00  0.00     0.074 A 
ATOM     49  C   UNL A   1      47.972  29.336  28.841  1.00  0.00     0.029 A 
ATOM     50  N   UNL A   1      45.806  28.831  28.892  1.00  0.00    -0.354 N 
ATOM     51  N   UNL A   1      42.937  29.409  29.252  1.00  0.00    -0.248 NA
ATOM     52  C   UNL A   1      41.224  30.910  29.773  1.00  0.00     0.031 C 
ATOM     53  C   UNL A   1      47.256  30.485  29.194  1.00  0.00     0.029 A 
ATOM     54  C   UNL A   1      45.905  30.175  29.203  1.00  0.00     0.049 A 
ATOM     55  H   UNL A   1      44.963  28.324  28.836  1.00  0.00     0.167 HD
ATOM     56  C   UNL A   1      43.486  30.663  29.485  1.00  0.00     0.074 A 
ATOM     57  C   UNL A   1      42.380  31.557  29.765  1.00  0.00     0.031 C 
ATOM     58  C   UNL A   1      44.787  31.044  29.468  1.00  0.00     0.037 A 
BRANCH  45  59
ATOM     59  C   UNL A   1      48.747  26.480  28.152  1.00  0.00     0.057 A 
ATOM     60  C   UNL A   1      49.496  25.978  29.227  1.00  0.00     0.134 A 
ATOM     61  C   UNL A   1      49.376  26.544  26.904  1.00  0.00     0.134 A 
ATOM     62  F   UNL A   1      48.960  25.907  30.455  1.00  0.00    -0.206 F 
ATOM     63  C   UNL A   1      50.827  25.586  29.072  1.00  0.00     0.040 A 
ATOM     64  C   UNL A   1      50.698  26.128  26.730  1.00  0.00     0.040 A 
ATOM     65  F   UNL A   1      48.720  27.014  25.833  1.00  0.00    -0.206 F 
ATOM     66  C   UNL A   1      51.430  25.656  27.818  1.00  0.00     0.006 A 
ENDBRANCH  45  59
BRANCH  46  67
ATOM     67  C   UNL A   1      39.125  28.899  29.432  1.00  0.00     0.057 A 
ATOM     68  C   UNL A   1      38.516  28.763  30.686  1.00  0.00     0.134 A 
ATOM     69  C   UNL A   1      38.339  29.388  28.383  1.00  0.00     0.134 A 
ATOM     70  F   UNL A   1      39.214  28.286  31.727  1.00  0.00    -0.206 F 
ATOM     71  C   UNL A   1      37.170  29.077  30.884  1.00  0.00     0.040 A 
ATOM     72  C   UNL A   1      36.998  29.728  28.573  1.00  0.00     0.040 A 
ATOM     73  F   UNL A   1      38.866  29.552  27.161  1.00  0.00    -0.206 F 
ATOM     74  C   UNL A   1      36.408  29.566  29.825  1.00  0.00     0.006 A 
ENDBRANCH  46  67
BRANCH  58  75
ATOM     75  C   UNL A   1      45.074  32.493  29.724  1.00  0.00     0.057 A 
ATOM     76  C   UNL A   1      45.163  33.424  28.683  1.00  0.00     0.134 A 
ATOM     77  C   UNL A   1      45.240  32.963  31.033  1.00  0.00     0.134 A 
ATOM     78  F   UNL A   1      45.025  33.034  27.407  1.00  0.00    -0.206 F 
ATOM     79  C   UNL A   1      45.439  34.770  28.932  1.00  0.00     0.040 A 
ATOM     80  C   UNL A   1      45.490  34.310  31.296  1.00  0.00     0.040 A 
ATOM     81  F   UNL A   1      45.156  32.123  32.076  1.00  0.00    -0.206 F 
ATOM     82  C   UNL A   1      45.598  35.216  30.243  1.00  0.00     0.006 A 
ENDBRANCH  58  75
ENDBRANCH  32  33
ENDBRANCH  24  27
ENDBRANCH  22  23
ENDBRANCH  21  22
ENDBRANCH   1  21
TORSDOF 15
ENDMDL
MODEL 2
REMARK VINA RESULT:     -10.0      5.024      9.907
REMARK SMILES C[N@H+]1CC[C@H](C[N@@H+](CC(=O)NCCCCNC(=O)c2ccc(-c3c4nc(c(-c5c(F)cccc5F)c5ccc([nH]5)c(-c5c(F)cccc5F)c5nc(c(-c6c(F)cccc6F)c6ccc3[nH]6)C=C5)C=C4)cc2)C2CC2)C1
REMARK SMILES IDX 13 1 12 2 11 3 9 4 10 5 8 7 7 8 6 10 5 11 1 12 2 13 3 14
REMARK SMILES IDX 76 15 4 17 73 18 74 19 75 20 14 21 15 22 16 23 17 24 18 26
REMARK SMILES IDX 19 27 20 28 72 29 21 30 71 31 22 32 23 33 24 34 65 35 25 36
REMARK SMILES IDX 70 37 64 38 66 39 26 40 69 41 63 42 62 43 27 45 53 46 36 47
REMARK SMILES IDX 52 48 37 49 40 50 51 51 67 52 38 53 39 54 50 56 68 57 41 58
REMARK SMILES IDX 28 59 29 60 34 61 30 62 31 63 33 64 35 65 32 66 54 67 55 68
REMARK SMILES IDX 60 69 56 70 57 71 59 72 61 73 58 74 42 75 43 76 48 77 44 78
REMARK SMILES IDX 45 79 47 80 49 81 46 82
REMARK H PARENT 11 6 7 9 2 16 16 25 66 44 40 55
REMARK Flexibility Score: inf
ROOT
ATOM      1  C   UNL A   1      31.782  30.228  26.750  1.00  0.00     0.023 C 
ENDROOT
BRANCH   1   2
ATOM      2  C   UNL A   1      33.108  29.628  26.285  1.00  0.00     0.116 C 
BRANCH   2   3
ATOM      3  N   UNL A   1      33.267  29.778  24.852  1.00  0.00    -0.351 N 
ATOM      4  C   UNL A   1      33.276  28.842  23.856  1.00  0.00     0.275 C 
ATOM      5  O   UNL A   1      33.528  29.256  22.717  1.00  0.00    -0.269 OA
ATOM      6  H   UNL A   1      33.389  30.706  24.546  1.00  0.00     0.163 HD
BRANCH   4   7
ATOM      7  C   UNL A   1      32.957  27.354  24.111  1.00  0.00     0.363 C 
BRANCH   7   8
ATOM      8  N   UNL A   1      31.500  26.999  24.169  1.00  0.00    -0.324 N 
ATOM      9  H   UNL A   1      31.299  26.355  23.403  1.00  0.00     0.348 HD
BRANCH   8  10
ATOM     10  C   UNL A   1      30.668  28.194  23.980  1.00  0.00     0.272 C 
BRANCH  10  11
ATOM     11  C   UNL A   1      29.835  28.336  22.698  1.00  0.00     0.105 C 
ATOM     12  C   UNL A   1      28.684  31.716  21.831  1.00  0.00     0.332 C 
ATOM     13  N   UNL A   1      28.950  30.511  22.607  1.00  0.00    -0.337 N 
ATOM     14  C   UNL A   1      27.771  29.651  22.680  1.00  0.00     0.262 C 
ATOM     15  C   UNL A   1      30.001  29.683  22.000  1.00  0.00     0.271 C 
ATOM     16  H   UNL A   1      29.234  30.845  23.527  1.00  0.00     0.347 HD
ATOM     17  C   UNL A   1      28.335  28.292  23.060  1.00  0.00     0.076 C 
ENDBRANCH  10  11
ENDBRANCH   8  10
BRANCH   8  18
ATOM     18  C   UNL A   1      31.166  26.292  25.429  1.00  0.00     0.184 C 
ATOM     19  C   UNL A   1      29.771  25.801  25.695  1.00  0.00     0.071 C 
ATOM     20  C   UNL A   1      30.866  24.820  25.402  1.00  0.00     0.071 C 
ENDBRANCH   8  18
ENDBRANCH   7   8
ENDBRANCH   4   7
ENDBRANCH   2   3
ENDBRANCH   1   2
BRANCH   1  21
ATOM     21  C   UNL A   1      31.631  31.731  26.638  1.00  0.00     0.023 C 
BRANCH  21  22
ATOM     22  C   UNL A   1      32.775  32.520  27.232  1.00  0.00     0.116 C 
BRANCH  22  23
ATOM     23  N   UNL A   1      32.424  33.881  27.617  1.00  0.00    -0.352 N 
ATOM     24  C   UNL A   1      33.052  34.715  28.516  1.00  0.00     0.251 C 
ATOM     25  H   UNL A   1      31.629  34.256  27.174  1.00  0.00     0.163 HD
ATOM     26  O   UNL A   1      32.579  35.810  28.785  1.00  0.00    -0.269 OA
BRANCH  24  27
ATOM     27  C   UNL A   1      34.280  34.244  29.192  1.00  0.00     0.039 A 
ATOM     28  C   UNL A   1      34.167  33.438  30.326  1.00  0.00     0.014 A 
ATOM     29  C   UNL A   1      35.536  34.528  28.652  1.00  0.00     0.014 A 
ATOM     30  C   UNL A   1      35.311  32.846  30.861  1.00  0.00     0.010 A 
ATOM     31  C   UNL A   1      36.645  33.827  29.096  1.00  0.00     0.010 A 
ATOM     32  C   UNL A   1      36.552  32.997  30.221  1.00  0.00    -0.014 A 
BRANCH  32  33
ATOM     33  C   UNL A   1      37.774  32.331  30.730  1.00  0.00     0.031 A 
ATOM     34  C   UNL A   1      38.434  32.844  31.983  1.00  0.00     0.074 A 
ATOM     35  C   UNL A   1      38.324  31.315  30.037  1.00  0.00     0.049 A 
ATOM     36  N   UNL A   1      39.529  32.431  32.569  1.00  0.00    -0.248 NA
ATOM     37  C   UNL A   1      37.809  34.004  32.639  1.00  0.00     0.031 C 
ATOM     38  C   UNL A   1      37.827  30.786  28.763  1.00  0.00     0.029 A 
ATOM     39  N   UNL A   1      39.423  30.542  30.308  1.00  0.00    -0.354 N 
ATOM     40  C   UNL A   1      39.730  33.294  33.639  1.00  0.00     0.074 A 
ATOM     41  C   UNL A   1      38.695  34.301  33.575  1.00  0.00     0.031 C 
ATOM     42  C   UNL A   1      38.591  29.746  28.391  1.00  0.00     0.029 A 
ATOM     43  C   UNL A   1      39.643  29.552  29.381  1.00  0.00     0.049 A 
ATOM     44  H   UNL A   1      40.000  30.683  31.093  1.00  0.00     0.167 HD
ATOM     45  C   UNL A   1      40.666  33.233  34.613  1.00  0.00     0.037 A 
ATOM     46  C   UNL A   1      40.582  28.588  29.348  1.00  0.00     0.037 A 
ATOM     47  C   UNL A   1      41.660  32.198  34.703  1.00  0.00     0.049 A 
ATOM     48  C   UNL A   1      41.575  28.502  30.474  1.00  0.00     0.074 A 
ATOM     49  C   UNL A   1      42.614  31.998  35.683  1.00  0.00     0.029 A 
ATOM     50  N   UNL A   1      41.816  31.181  33.773  1.00  0.00    -0.354 N 
ATOM     51  N   UNL A   1      41.705  29.278  31.523  1.00  0.00    -0.248 NA
ATOM     52  C   UNL A   1      42.539  27.395  30.420  1.00  0.00     0.031 C 
ATOM     53  C   UNL A   1      43.368  30.873  35.332  1.00  0.00     0.029 A 
ATOM     54  C   UNL A   1      42.856  30.351  34.154  1.00  0.00     0.049 A 
ATOM     55  H   UNL A   1      41.269  31.066  32.963  1.00  0.00     0.167 HD
ATOM     56  C   UNL A   1      42.745  28.739  32.269  1.00  0.00     0.074 A 
ATOM     57  C   UNL A   1      43.197  27.558  31.559  1.00  0.00     0.031 C 
ATOM     58  C   UNL A   1      43.279  29.177  33.435  1.00  0.00     0.037 A 
BRANCH  45  59
ATOM     59  C   UNL A   1      40.633  34.302  35.666  1.00  0.00     0.057 A 
ATOM     60  C   UNL A   1      39.861  34.170  36.830  1.00  0.00     0.134 A 
ATOM     61  C   UNL A   1      41.382  35.476  35.520  1.00  0.00     0.134 A 
ATOM     62  F   UNL A   1      39.106  33.079  37.024  1.00  0.00    -0.206 F 
ATOM     63  C   UNL A   1      39.809  35.180  37.793  1.00  0.00     0.040 A 
ATOM     64  C   UNL A   1      41.361  36.480  36.490  1.00  0.00     0.040 A 
ATOM     65  F   UNL A   1      42.143  35.668  34.432  1.00  0.00    -0.206 F 
ATOM     66  C   UNL A   1      40.567  36.338  37.626  1.00  0.00     0.006 A 
ENDBRANCH  45  59
BRANCH  46  67
ATOM     67  C   UNL A   1      40.589  27.591  28.248  1.00  0.00     0.057 A 
ATOM     68  C   UNL A   1      41.303  27.828  27.066  1.00  0.00     0.134 A 
ATOM     69  C   UNL A   1      39.884  26.386  28.344  1.00  0.00     0.134 A 
ATOM     70  F   UNL A   1      41.985  28.971  26.908  1.00  0.00    -0.206 F 
ATOM     71  C   UNL A   1      41.297  26.914  26.010  1.00  0.00     0.040 A 
ATOM     72  C   UNL A   1      39.889  25.453  27.306  1.00  0.00     0.040 A 
ATOM     73  F   UNL A   1      39.190  26.094  29.454  1.00  0.00    -0.206 F 
ATOM     74  C   UNL A   1      40.590  25.719  26.131  1.00  0.00     0.006 A 
ENDBRANCH  46  67
BRANCH  58  75
ATOM     75  C   UNL A   1      44.383  28.355  34.028  1.00  0.00     0.057 A 
ATOM     76  C   UNL A   1      45.730  28.615  33.750  1.00  0.00     0.134 A 
ATOM     77  C   UNL A   1      44.091  27.304  34.907  1.00  0.00     0.134 A 
ATOM     78  F   UNL A   1      46.073  29.600  32.907  1.00  0.00    -0.206 F 
ATOM     79  C   UNL A   1      46.750  27.837  34.301  1.00  0.00     0.040 A 
ATOM     80  C   UNL A   1      45.102  26.536  35.485  1.00  0.00     0.040 A 
ATOM     81  F   UNL A   1      42.821  27.011  35.223  1.00  0.00    -0.206 F 
ATOM     82  C   UNL A   1      46.436  26.798  35.176  1.00  0.00     0.006 A 
ENDBRANCH  58  75
ENDBRANCH  32  33
ENDBRANCH  24  27
ENDBRANCH  22  23
ENDBRANCH  21  22
ENDBRANCH   1  21
TORSDOF 15
ENDMDL
MODEL 3
REMARK VINA RESULT:     -10.0      4.815      9.682
REMARK SMILES C[N@H+]1CC[C@H](C[N@@H+](CC(=O)NCCCCNC(=O)c2ccc(-c3c4nc(c(-c5c(F)cccc5F)c5ccc([nH]5)c(-c5c(F)cccc5F)c5nc(c(-c6c(F)cccc6F)c6ccc3[nH]6)C=C5)C=C4)cc2)C2CC2)C1
REMARK SMILES IDX 13 1 12 2 11 3 9 4 10 5 8 7 7 8 6 10 5 11 1 12 2 13 3 14
REMARK SMILES IDX 76 15 4 17 73 18 74 19 75 20 14 21 15 22 16 23 17 24 18 26
REMARK SMILES IDX 19 27 20 28 72 29 21 30 71 31 22 32 23 33 24 34 65 35 25 36
REMARK SMILES IDX 70 37 64 38 66 39 26 40 69 41 63 42 62 43 27 45 53 46 36 47
REMARK SMILES IDX 52 48 37 49 40 50 51 51 67 52 38 53 39 54 50 56 68 57 41 58
REMARK SMILES IDX 28 59 29 60 34 61 30 62 31 63 33 64 35 65 32 66 54 67 55 68
REMARK SMILES IDX 60 69 56 70 57 71 59 72 61 73 58 74 42 75 43 76 48 77 44 78
REMARK SMILES IDX 45 79 47 80 49 81 46 82
REMARK H PARENT 11 6 7 9 2 16 16 25 66 44 40 55
REMARK Flexibility Score: inf
ROOT
ATOM      1  C   UNL A   1      31.833  30.111  26.752  1.00  0.00     0.023 C 
ENDROOT
BRANCH   1   2
ATOM      2  C   UNL A   1      33.160  29.931  26.017  1.00  0.00     0.116 C 
BRANCH   2   3
ATOM      3  N   UNL A   1      33.597  28.550  26.071  1.00  0.00    -0.351 N 
ATOM      4  C   UNL A   1      33.449  27.534  25.170  1.00  0.00     0.275 C 
ATOM      5  O   UNL A   1      33.848  26.420  25.530  1.00  0.00    -0.269 OA
ATOM      6  H   UNL A   1      34.080  28.304  26.893  1.00  0.00     0.163 HD
BRANCH   4   7
ATOM      7  C   UNL A   1      32.851  27.752  23.764  1.00  0.00     0.363 C 
BRANCH   7   8
ATOM      8  N   UNL A   1      31.368  27.552  23.646  1.00  0.00    -0.324 N 
ATOM      9  H   UNL A   1      30.971  27.558  24.586  1.00  0.00     0.348 HD
BRANCH   8  10
ATOM     10  C   UNL A   1      31.068  26.249  23.040  1.00  0.00     0.272 C 
BRANCH  10  11
ATOM     11  C   UNL A   1      30.245  25.223  23.832  1.00  0.00     0.105 C 
ATOM     12  C   UNL A   1      31.779  23.853  26.876  1.00  0.00     0.332 C 
ATOM     13  N   UNL A   1      31.611  24.272  25.490  1.00  0.00    -0.337 N 
ATOM     14  C   UNL A   1      31.260  23.144  24.629  1.00  0.00     0.262 C 
ATOM     15  C   UNL A   1      30.516  25.239  25.333  1.00  0.00     0.271 C 
ATOM     16  H   UNL A   1      32.505  24.686  25.227  1.00  0.00     0.347 HD
ATOM     17  C   UNL A   1      30.658  23.800  23.398  1.00  0.00     0.076 C 
ENDBRANCH  10  11
ENDBRANCH   8  10
BRANCH   8  18
ATOM     18  C   UNL A   1      30.731  28.664  22.898  1.00  0.00     0.184 C 
ATOM     19  C   UNL A   1      29.239  28.738  22.747  1.00  0.00     0.071 C 
ATOM     20  C   UNL A   1      29.949  29.709  23.641  1.00  0.00     0.071 C 
ENDBRANCH   8  18
ENDBRANCH   7   8
ENDBRANCH   4   7
ENDBRANCH   2   3
ENDBRANCH   1   2
BRANCH   1  21
ATOM     21  C   UNL A   1      31.298  31.522  26.871  1.00  0.00     0.023 C 
BRANCH  21  22
ATOM     22  C   UNL A   1      32.291  32.600  26.501  1.00  0.00     0.116 C 
BRANCH  22  23
ATOM     23  N   UNL A   1      32.153  33.828  27.273  1.00  0.00    -0.352 N 
ATOM     24  C   UNL A   1      32.959  34.313  28.280  1.00  0.00     0.251 C 
ATOM     25  H   UNL A   1      31.377  34.389  27.044  1.00  0.00     0.163 HD
ATOM     26  O   UNL A   1      32.657  35.331  28.885  1.00  0.00    -0.269 OA
BRANCH  24  27
ATOM     27  C   UNL A   1      34.172  33.552  28.654  1.00  0.00     0.039 A 
ATOM     28  C   UNL A   1      35.417  34.179  28.581  1.00  0.00     0.014 A 
ATOM     29  C   UNL A   1      34.064  32.255  29.158  1.00  0.00     0.014 A 
ATOM     30  C   UNL A   1      36.539  33.531  29.098  1.00  0.00     0.010 A 
ATOM     31  C   UNL A   1      35.148  31.678  29.798  1.00  0.00     0.010 A 
ATOM     32  C   UNL A   1      36.404  32.296  29.755  1.00  0.00    -0.014 A 
BRANCH  32  33
ATOM     33  C   UNL A   1      37.568  31.612  30.369  1.00  0.00     0.031 A 
ATOM     34  C   UNL A   1      37.943  31.919  31.794  1.00  0.00     0.074 A 
ATOM     35  C   UNL A   1      38.320  30.773  29.631  1.00  0.00     0.049 A 
ATOM     36  N   UNL A   1      38.945  31.464  32.502  1.00  0.00    -0.248 NA
ATOM     37  C   UNL A   1      37.110  32.903  32.506  1.00  0.00     0.031 C 
ATOM     38  C   UNL A   1      38.110  30.464  28.214  1.00  0.00     0.029 A 
ATOM     39  N   UNL A   1      39.415  30.023  29.973  1.00  0.00    -0.354 N 
ATOM     40  C   UNL A   1      38.873  32.124  33.722  1.00  0.00     0.074 A 
ATOM     41  C   UNL A   1      37.783  33.068  33.633  1.00  0.00     0.031 C 
ATOM     42  C   UNL A   1      39.016  29.552  27.823  1.00  0.00     0.029 A 
ATOM     43  C   UNL A   1      39.884  29.234  28.951  1.00  0.00     0.049 A 
ATOM     44  H   UNL A   1      39.826  30.046  30.867  1.00  0.00     0.167 HD
ATOM     45  C   UNL A   1      39.620  31.933  34.834  1.00  0.00     0.037 A 
ATOM     46  C   UNL A   1      40.895  28.345  28.934  1.00  0.00     0.037 A 
ATOM     47  C   UNL A   1      40.667  30.954  34.935  1.00  0.00     0.049 A 
ATOM     48  C   UNL A   1      41.671  28.104  30.199  1.00  0.00     0.074 A 
ATOM     49  C   UNL A   1      41.442  30.626  36.032  1.00  0.00     0.029 A 
ATOM     50  N   UNL A   1      41.077  30.135  33.893  1.00  0.00    -0.354 N 
ATOM     51  N   UNL A   1      41.541  28.679  31.371  1.00  0.00    -0.248 NA
ATOM     52  C   UNL A   1      42.722  27.080  30.145  1.00  0.00     0.031 C 
ATOM     53  C   UNL A   1      42.342  29.627  35.646  1.00  0.00     0.029 A 
ATOM     54  C   UNL A   1      42.099  29.306  34.320  1.00  0.00     0.049 A 
ATOM     55  H   UNL A   1      40.697  30.143  32.984  1.00  0.00     0.167 HD
ATOM     56  C   UNL A   1      42.471  28.067  32.200  1.00  0.00     0.074 A 
ATOM     57  C   UNL A   1      43.145  27.064  31.400  1.00  0.00     0.031 C 
ATOM     58  C   UNL A   1      42.746  28.310  33.506  1.00  0.00     0.037 A 
BRANCH  45  59
ATOM     59  C   UNL A   1      39.304  32.785  36.029  1.00  0.00     0.057 A 
ATOM     60  C   UNL A   1      39.905  34.038  36.222  1.00  0.00     0.134 A 
ATOM     61  C   UNL A   1      38.389  32.354  36.996  1.00  0.00     0.134 A 
ATOM     62  F   UNL A   1      40.805  34.503  35.343  1.00  0.00    -0.206 F 
ATOM     63  C   UNL A   1      39.632  34.815  37.350  1.00  0.00     0.040 A 
ATOM     64  C   UNL A   1      38.085  33.135  38.113  1.00  0.00     0.040 A 
ATOM     65  F   UNL A   1      37.777  31.167  36.874  1.00  0.00    -0.206 F 
ATOM     66  C   UNL A   1      38.714  34.365  38.297  1.00  0.00     0.006 A 
ENDBRANCH  45  59
BRANCH  46  67
ATOM     67  C   UNL A   1      41.187  27.570  27.702  1.00  0.00     0.057 A 
ATOM     68  C   UNL A   1      40.651  26.290  27.512  1.00  0.00     0.134 A 
ATOM     69  C   UNL A   1      42.007  28.082  26.690  1.00  0.00     0.134 A 
ATOM     70  F   UNL A   1      39.869  25.741  28.453  1.00  0.00    -0.206 F 
ATOM     71  C   UNL A   1      40.938  25.537  26.373  1.00  0.00     0.040 A 
ATOM     72  C   UNL A   1      42.284  27.349  25.535  1.00  0.00     0.040 A 
ATOM     73  F   UNL A   1      42.543  29.306  26.806  1.00  0.00    -0.206 F 
ATOM     74  C   UNL A   1      41.755  26.069  25.377  1.00  0.00     0.006 A 
ENDBRANCH  46  67
BRANCH  58  75
ATOM     75  C   UNL A   1      43.791  27.451  34.151  1.00  0.00     0.057 A 
ATOM     76  C   UNL A   1      43.472  26.239  34.774  1.00  0.00     0.134 A 
ATOM     77  C   UNL A   1      45.138  27.835  34.127  1.00  0.00     0.134 A 
ATOM     78  F   UNL A   1      42.198  25.823  34.840  1.00  0.00    -0.206 F 
ATOM     79  C   UNL A   1      44.452  25.451  35.380  1.00  0.00     0.040 A 
ATOM     80  C   UNL A   1      46.131  27.043  34.705  1.00  0.00     0.040 A 
ATOM     81  F   UNL A   1      45.511  28.980  33.536  1.00  0.00    -0.206 F 
ATOM     82  C   UNL A   1      45.787  25.851  35.341  1.00  0.00     0.006 A 
ENDBRANCH  58  75
ENDBRANCH  32  33
ENDBRANCH  24  27
ENDBRANCH  22  23
ENDBRANCH  21  22
ENDBRANCH   1  21
TORSDOF 15
ENDMDL
