MODEL 1
REMARK VINA RESULT:     -11.9      0.000      0.000
REMARK SMILES C=CCn1nc(C(=O)NCCCCNC(=O)c2ccc(-c3c4nc(c(-c5c(F)cccc5F)c5ccc([nH]5)c(-c5c(F)cccc5F)c5nc(c(-c6c(F)cccc6F)c6ccc3[nH]6)C=C5)C=C4)cc2)c2c1CC[C@@H]([NH2+]Cc1nc(C)cc(=O)[nH]1)C2
REMARK SMILES IDX 11 1 10 2 9 3 7 4 8 5 6 7 4 8 5 9 72 10 71 11 73 12 86 13
REMARK SMILES IDX 74 14 75 15 3 16 2 17 1 18 76 19 77 22 78 23 79 24 85 25
REMARK SMILES IDX 80 26 83 27 81 29 82 30 84 31 12 32 13 33 14 34 15 35 16 37
REMARK SMILES IDX 17 38 18 39 70 40 19 41 69 42 20 43 21 44 22 45 63 46 23 47
REMARK SMILES IDX 68 48 62 49 64 50 24 51 67 52 61 53 60 54 25 56 51 57 34 58
REMARK SMILES IDX 50 59 35 60 38 61 49 62 65 63 36 64 37 65 48 67 66 68 39 69
REMARK SMILES IDX 26 70 27 71 32 72 28 73 29 74 31 75 33 76 30 77 52 78 53 79
REMARK SMILES IDX 58 80 54 81 55 82 57 83 59 84 56 85 40 86 41 87 46 88 42 89
REMARK SMILES IDX 43 90 45 91 47 92 44 93
REMARK H PARENT 9 6 76 20 76 21 85 28 14 36 64 55 38 66
REMARK Flexibility Score: inf
ROOT
ATOM      1  C   UNL A   1      38.970  22.363  26.242  1.00  0.00     0.023 C 
ENDROOT
BRANCH   1   2
ATOM      2  C   UNL A   1      37.703  23.120  25.787  1.00  0.00     0.116 C 
BRANCH   2   3
ATOM      3  N   UNL A   1      37.366  22.871  24.394  1.00  0.00    -0.351 N 
ATOM      4  C   UNL A   1      36.348  23.190  23.520  1.00  0.00     0.272 C 
ATOM      5  O   UNL A   1      36.617  22.864  22.354  1.00  0.00    -0.267 OA
ATOM      6  H   UNL A   1      38.054  22.322  23.955  1.00  0.00     0.163 HD
BRANCH   4   7
ATOM      7  C   UNL A   1      35.033  23.819  23.851  1.00  0.00     0.153 A 
ATOM      8  N   UNL A   1      33.096  24.627  23.290  1.00  0.00    -0.265 N 
ATOM      9  N   UNL A   1      34.319  24.329  22.814  1.00  0.00    -0.167 NA
ATOM     10  C   UNL A   1      33.022  24.476  24.642  1.00  0.00     0.043 A 
ATOM     11  C   UNL A   1      34.241  23.948  25.036  1.00  0.00     0.012 A 
ATOM     12  C   UNL A   1      31.786  24.585  25.476  1.00  0.00     0.062 C 
ATOM     13  C   UNL A   1      34.399  23.463  26.427  1.00  0.00     0.105 C 
ATOM     14  C   UNL A   1      32.071  24.206  26.936  1.00  0.00     0.072 C 
ATOM     15  C   UNL A   1      33.054  23.018  27.063  1.00  0.00     0.187 C 
BRANCH   8  16
ATOM     16  C   UNL A   1      32.036  25.024  22.359  1.00  0.00     0.171 C 
BRANCH  16  17
ATOM     17  C   UNL A   1      31.821  26.516  22.278  1.00  0.00    -0.011 C 
ATOM     18  C   UNL A   1      32.771  27.437  22.499  1.00  0.00     0.006 C 
ENDBRANCH  16  17
ENDBRANCH   8  16
BRANCH  15  19
ATOM     19  N   UNL A   1      32.467  21.714  26.623  1.00  0.00    -0.337 N 
ATOM     20  H   UNL A   1      31.917  21.882  25.780  1.00  0.00     0.346 HD
ATOM     21  H   UNL A   1      31.910  21.372  27.407  1.00  0.00     0.346 HD
BRANCH  19  22
ATOM     22  C   UNL A   1      33.449  20.660  26.324  1.00  0.00     0.337 C 
BRANCH  22  23
ATOM     23  C   UNL A   1      33.202  19.988  24.992  1.00  0.00     0.164 A 
ATOM     24  N   UNL A   1      33.461  18.726  24.861  1.00  0.00    -0.234 NA
ATOM     25  N   UNL A   1      32.624  20.744  24.018  1.00  0.00    -0.306 N 
ATOM     26  C   UNL A   1      33.101  18.120  23.687  1.00  0.00     0.045 A 
ATOM     27  C   UNL A   1      32.252  20.209  22.821  1.00  0.00     0.251 A 
ATOM     28  H   UNL A   1      32.471  21.703  24.181  1.00  0.00     0.171 HD
ATOM     29  C   UNL A   1      33.353  16.641  23.625  1.00  0.00     0.067 C 
ATOM     30  C   UNL A   1      32.512  18.767  22.672  1.00  0.00     0.095 A 
ATOM     31  O   UNL A   1      31.724  20.859  21.929  1.00  0.00    -0.270 OA
ENDBRANCH  22  23
ENDBRANCH  19  22
ENDBRANCH  15  19
ENDBRANCH   4   7
ENDBRANCH   2   3
ENDBRANCH   1   2
BRANCH   1  32
ATOM     32  C   UNL A   1      39.267  21.025  25.563  1.00  0.00     0.023 C 
BRANCH  32  33
ATOM     33  C   UNL A   1      39.834  19.972  26.506  1.00  0.00     0.116 C 
BRANCH  33  34
ATOM     34  N   UNL A   1      40.993  19.255  25.974  1.00  0.00    -0.352 N 
ATOM     35  C   UNL A   1      42.232  19.805  25.679  1.00  0.00     0.251 C 
ATOM     36  H   UNL A   1      40.884  18.291  25.809  1.00  0.00     0.163 HD
ATOM     37  O   UNL A   1      43.001  19.284  24.894  1.00  0.00    -0.269 OA
BRANCH  35  38
ATOM     38  C   UNL A   1      42.596  21.054  26.372  1.00  0.00     0.039 A 
ATOM     39  C   UNL A   1      42.801  22.242  25.670  1.00  0.00     0.014 A 
ATOM     40  C   UNL A   1      42.624  21.018  27.767  1.00  0.00     0.014 A 
ATOM     41  C   UNL A   1      42.938  23.424  26.393  1.00  0.00     0.010 A 
ATOM     42  C   UNL A   1      42.638  22.198  28.473  1.00  0.00     0.010 A 
ATOM     43  C   UNL A   1      42.820  23.401  27.795  1.00  0.00    -0.014 A 
BRANCH  43  44
ATOM     44  C   UNL A   1      42.696  24.653  28.542  1.00  0.00     0.031 A 
ATOM     45  C   UNL A   1      41.411  25.370  28.300  1.00  0.00     0.074 A 
ATOM     46  C   UNL A   1      43.552  25.030  29.519  1.00  0.00     0.049 A 
ATOM     47  N   UNL A   1      41.249  26.495  27.690  1.00  0.00    -0.248 NA
ATOM     48  C   UNL A   1      40.145  24.688  28.626  1.00  0.00     0.031 C 
ATOM     49  C   UNL A   1      44.682  24.276  30.070  1.00  0.00     0.029 A 
ATOM     50  N   UNL A   1      43.535  26.145  30.305  1.00  0.00    -0.354 N 
ATOM     51  C   UNL A   1      39.889  26.782  27.766  1.00  0.00     0.074 A 
ATOM     52  C   UNL A   1      39.244  25.560  28.164  1.00  0.00     0.031 C 
ATOM     53  C   UNL A   1      45.082  24.834  31.234  1.00  0.00     0.029 A 
ATOM     54  C   UNL A   1      44.358  26.076  31.429  1.00  0.00     0.049 A 
ATOM     55  H   UNL A   1      42.986  26.935  30.096  1.00  0.00     0.167 HD
ATOM     56  C   UNL A   1      39.456  28.074  27.770  1.00  0.00     0.037 A 
ATOM     57  C   UNL A   1      44.428  26.968  32.451  1.00  0.00     0.037 A 
ATOM     58  C   UNL A   1      40.491  28.958  27.286  1.00  0.00     0.049 A 
ATOM     59  C   UNL A   1      43.860  28.243  31.959  1.00  0.00     0.074 A 
ATOM     60  C   UNL A   1      41.221  29.065  26.118  1.00  0.00     0.029 A 
ATOM     61  N   UNL A   1      41.182  29.680  28.226  1.00  0.00    -0.354 N 
ATOM     62  N   UNL A   1      44.422  28.982  31.046  1.00  0.00    -0.248 NA
ATOM     63  C   UNL A   1      42.438  28.466  32.158  1.00  0.00     0.031 C 
ATOM     64  C   UNL A   1      42.535  29.429  26.539  1.00  0.00     0.029 A 
ATOM     65  C   UNL A   1      42.514  29.610  27.922  1.00  0.00     0.049 A 
ATOM     66  H   UNL A   1      40.787  30.165  28.987  1.00  0.00     0.167 HD
ATOM     67  C   UNL A   1      43.371  29.401  30.247  1.00  0.00     0.074 A 
ATOM     68  C   UNL A   1      42.167  29.133  31.034  1.00  0.00     0.031 C 
ATOM     69  C   UNL A   1      43.559  29.644  28.917  1.00  0.00     0.037 A 
BRANCH  56  70
ATOM     70  C   UNL A   1      38.309  28.590  28.616  1.00  0.00     0.057 A 
ATOM     71  C   UNL A   1      37.442  29.554  28.064  1.00  0.00     0.134 A 
ATOM     72  C   UNL A   1      38.213  28.442  30.015  1.00  0.00     0.134 A 
ATOM     73  F   UNL A   1      37.432  29.795  26.743  1.00  0.00    -0.206 F 
ATOM     74  C   UNL A   1      36.630  30.379  28.852  1.00  0.00     0.040 A 
ATOM     75  C   UNL A   1      37.368  29.226  30.806  1.00  0.00     0.040 A 
ATOM     76  F   UNL A   1      38.995  27.611  30.711  1.00  0.00    -0.206 F 
ATOM     77  C   UNL A   1      36.601  30.226  30.231  1.00  0.00     0.006 A 
ENDBRANCH  56  70
BRANCH  57  78
ATOM     78  C   UNL A   1      44.650  26.729  33.900  1.00  0.00     0.057 A 
ATOM     79  C   UNL A   1      43.669  26.104  34.688  1.00  0.00     0.134 A 
ATOM     80  C   UNL A   1      45.931  26.817  34.472  1.00  0.00     0.134 A 
ATOM     81  F   UNL A   1      42.424  25.938  34.219  1.00  0.00    -0.206 F 
ATOM     82  C   UNL A   1      43.954  25.559  35.947  1.00  0.00     0.040 A 
ATOM     83  C   UNL A   1      46.227  26.281  35.732  1.00  0.00     0.040 A 
ATOM     84  F   UNL A   1      46.960  27.338  33.791  1.00  0.00    -0.206 F 
ATOM     85  C   UNL A   1      45.243  25.632  36.466  1.00  0.00     0.006 A 
ENDBRANCH  57  78
BRANCH  69  86
ATOM     86  C   UNL A   1      44.973  29.752  28.412  1.00  0.00     0.057 A 
ATOM     87  C   UNL A   1      45.748  28.674  27.955  1.00  0.00     0.134 A 
ATOM     88  C   UNL A   1      45.521  31.030  28.262  1.00  0.00     0.134 A 
ATOM     89  F   UNL A   1      45.277  27.421  27.969  1.00  0.00    -0.206 F 
ATOM     90  C   UNL A   1      47.024  28.863  27.413  1.00  0.00     0.040 A 
ATOM     91  C   UNL A   1      46.777  31.236  27.690  1.00  0.00     0.040 A 
ATOM     92  F   UNL A   1      44.818  32.114  28.632  1.00  0.00    -0.206 F 
ATOM     93  C   UNL A   1      47.539  30.148  27.272  1.00  0.00     0.006 A 
ENDBRANCH  69  86
ENDBRANCH  43  44
ENDBRANCH  35  38
ENDBRANCH  33  34
ENDBRANCH  32  33
ENDBRANCH   1  32
TORSDOF 16
ENDMDL
MODEL 2
REMARK VINA RESULT:     -11.8      2.342      6.645
REMARK SMILES C=CCn1nc(C(=O)NCCCCNC(=O)c2ccc(-c3c4nc(c(-c5c(F)cccc5F)c5ccc([nH]5)c(-c5c(F)cccc5F)c5nc(c(-c6c(F)cccc6F)c6ccc3[nH]6)C=C5)C=C4)cc2)c2c1CC[C@@H]([NH2+]Cc1nc(C)cc(=O)[nH]1)C2
REMARK SMILES IDX 11 1 10 2 9 3 7 4 8 5 6 7 4 8 5 9 72 10 71 11 73 12 86 13
REMARK SMILES IDX 74 14 75 15 3 16 2 17 1 18 76 19 77 22 78 23 79 24 85 25
REMARK SMILES IDX 80 26 83 27 81 29 82 30 84 31 12 32 13 33 14 34 15 35 16 37
REMARK SMILES IDX 17 38 18 39 70 40 19 41 69 42 20 43 21 44 22 45 63 46 23 47
REMARK SMILES IDX 68 48 62 49 64 50 24 51 67 52 61 53 60 54 25 56 51 57 34 58
REMARK SMILES IDX 50 59 35 60 38 61 49 62 65 63 36 64 37 65 48 67 66 68 39 69
REMARK SMILES IDX 26 70 27 71 32 72 28 73 29 74 31 75 33 76 30 77 52 78 53 79
REMARK SMILES IDX 58 80 54 81 55 82 57 83 59 84 56 85 40 86 41 87 46 88 42 89
REMARK SMILES IDX 43 90 45 91 47 92 44 93
REMARK H PARENT 9 6 76 20 76 21 85 28 14 36 64 55 38 66
REMARK Flexibility Score: inf
ROOT
ATOM      1  C   UNL A   1      40.506  20.976  26.433  1.00  0.00     0.023 C 
ENDROOT
BRANCH   1   2
ATOM      2  C   UNL A   1      39.082  21.085  25.845  1.00  0.00     0.116 C 
BRANCH   2   3
ATOM      3  N   UNL A   1      38.508  22.413  25.998  1.00  0.00    -0.351 N 
ATOM      4  C   UNL A   1      37.284  23.020  25.815  1.00  0.00     0.272 C 
ATOM      5  O   UNL A   1      37.268  24.178  26.257  1.00  0.00    -0.267 OA
ATOM      6  H   UNL A   1      39.180  23.055  26.320  1.00  0.00     0.163 HD
BRANCH   4   7
ATOM      7  C   UNL A   1      36.078  22.445  25.143  1.00  0.00     0.153 A 
ATOM      8  N   UNL A   1      34.466  20.995  25.005  1.00  0.00    -0.265 N 
ATOM      9  N   UNL A   1      35.672  21.216  25.558  1.00  0.00    -0.167 NA
ATOM     10  C   UNL A   1      34.125  21.968  24.114  1.00  0.00     0.043 A 
ATOM     11  C   UNL A   1      35.128  22.920  24.184  1.00  0.00     0.012 A 
ATOM     12  C   UNL A   1      32.805  22.111  23.425  1.00  0.00     0.062 C 
ATOM     13  C   UNL A   1      34.940  24.217  23.492  1.00  0.00     0.105 C 
ATOM     14  C   UNL A   1      32.747  23.411  22.610  1.00  0.00     0.072 C 
ATOM     15  C   UNL A   1      33.442  24.594  23.324  1.00  0.00     0.187 C 
BRANCH   8  16
ATOM     16  C   UNL A   1      33.686  19.825  25.418  1.00  0.00     0.171 C 
BRANCH  16  17
ATOM     17  C   UNL A   1      33.704  18.694  24.418  1.00  0.00    -0.011 C 
ATOM     18  C   UNL A   1      32.618  18.206  23.799  1.00  0.00     0.006 C 
ENDBRANCH  16  17
ENDBRANCH   8  16
BRANCH  15  19
ATOM     19  N   UNL A   1      32.701  25.075  24.532  1.00  0.00    -0.337 N 
ATOM     20  H   UNL A   1      32.423  24.261  25.078  1.00  0.00     0.346 HD
ATOM     21  H   UNL A   1      31.910  25.617  24.183  1.00  0.00     0.346 HD
BRANCH  19  22
ATOM     22  C   UNL A   1      33.463  25.976  25.410  1.00  0.00     0.337 C 
BRANCH  22  23
ATOM     23  C   UNL A   1      32.933  27.393  25.399  1.00  0.00     0.164 A 
ATOM     24  N   UNL A   1      32.033  27.726  24.530  1.00  0.00    -0.234 NA
ATOM     25  N   UNL A   1      33.376  28.224  26.383  1.00  0.00    -0.306 N 
ATOM     26  C   UNL A   1      31.478  28.974  24.634  1.00  0.00     0.045 A 
ATOM     27  C   UNL A   1      32.877  29.483  26.536  1.00  0.00     0.251 A 
ATOM     28  H   UNL A   1      34.075  27.909  27.000  1.00  0.00     0.171 HD
ATOM     29  C   UNL A   1      30.385  29.273  23.650  1.00  0.00     0.067 C 
ATOM     30  C   UNL A   1      31.829  29.863  25.574  1.00  0.00     0.095 A 
ATOM     31  O   UNL A   1      33.248  30.251  27.414  1.00  0.00    -0.270 OA
ENDBRANCH  22  23
ENDBRANCH  19  22
ENDBRANCH  15  19
ENDBRANCH   4   7
ENDBRANCH   2   3
ENDBRANCH   1   2
BRANCH   1  32
ATOM     32  C   UNL A   1      41.303  19.713  26.103  1.00  0.00     0.023 C 
BRANCH  32  33
ATOM     33  C   UNL A   1      42.739  19.744  26.611  1.00  0.00     0.116 C 
BRANCH  33  34
ATOM     34  N   UNL A   1      43.739  19.415  25.596  1.00  0.00    -0.352 N 
ATOM     35  C   UNL A   1      44.317  20.301  24.698  1.00  0.00     0.251 C 
ATOM     36  H   UNL A   1      44.031  18.476  25.545  1.00  0.00     0.163 HD
ATOM     37  O   UNL A   1      44.816  19.929  23.652  1.00  0.00    -0.269 OA
BRANCH  35  38
ATOM     38  C   UNL A   1      44.319  21.727  25.067  1.00  0.00     0.039 A 
ATOM     39  C   UNL A   1      43.342  22.602  24.592  1.00  0.00     0.014 A 
ATOM     40  C   UNL A   1      45.278  22.140  25.993  1.00  0.00     0.014 A 
ATOM     41  C   UNL A   1      43.276  23.882  25.137  1.00  0.00     0.010 A 
ATOM     42  C   UNL A   1      45.136  23.359  26.614  1.00  0.00     0.010 A 
ATOM     43  C   UNL A   1      44.155  24.244  26.174  1.00  0.00    -0.014 A 
BRANCH  43  44
ATOM     44  C   UNL A   1      43.930  25.475  26.932  1.00  0.00     0.031 A 
ATOM     45  C   UNL A   1      44.912  26.554  26.625  1.00  0.00     0.074 A 
ATOM     46  C   UNL A   1      42.825  25.705  27.677  1.00  0.00     0.049 A 
ATOM     47  N   UNL A   1      45.821  27.028  27.409  1.00  0.00    -0.248 NA
ATOM     48  C   UNL A   1      45.008  27.055  25.241  1.00  0.00     0.031 C 
ATOM     49  C   UNL A   1      41.640  24.854  27.820  1.00  0.00     0.029 A 
ATOM     50  N   UNL A   1      42.481  26.809  28.401  1.00  0.00    -0.354 N 
ATOM     51  C   UNL A   1      46.445  28.052  26.701  1.00  0.00     0.074 A 
ATOM     52  C   UNL A   1      46.050  27.887  25.329  1.00  0.00     0.031 C 
ATOM     53  C   UNL A   1      40.631  25.563  28.373  1.00  0.00     0.029 A 
ATOM     54  C   UNL A   1      41.140  26.859  28.781  1.00  0.00     0.049 A 
ATOM     55  H   UNL A   1      43.127  27.513  28.637  1.00  0.00     0.167 HD
ATOM     56  C   UNL A   1      47.000  29.106  27.362  1.00  0.00     0.037 A 
ATOM     57  C   UNL A   1      40.493  27.896  29.373  1.00  0.00     0.037 A 
ATOM     58  C   UNL A   1      47.199  28.786  28.756  1.00  0.00     0.049 A 
ATOM     59  C   UNL A   1      41.525  28.765  29.984  1.00  0.00     0.074 A 
ATOM     60  C   UNL A   1      47.895  27.814  29.449  1.00  0.00     0.029 A 
ATOM     61  N   UNL A   1      46.296  29.307  29.649  1.00  0.00    -0.354 N 
ATOM     62  N   UNL A   1      42.258  28.414  31.001  1.00  0.00    -0.248 NA
ATOM     63  C   UNL A   1      42.055  29.849  29.174  1.00  0.00     0.031 C 
ATOM     64  C   UNL A   1      47.054  27.476  30.551  1.00  0.00     0.029 A 
ATOM     65  C   UNL A   1      45.940  28.316  30.521  1.00  0.00     0.049 A 
ATOM     66  H   UNL A   1      45.964  30.234  29.660  1.00  0.00     0.167 HD
ATOM     67  C   UNL A   1      43.524  28.883  30.692  1.00  0.00     0.074 A 
ATOM     68  C   UNL A   1      43.318  29.839  29.604  1.00  0.00     0.031 C 
ATOM     69  C   UNL A   1      44.638  28.231  31.139  1.00  0.00     0.037 A 
BRANCH  56  70
ATOM     70  C   UNL A   1      46.941  30.543  26.883  1.00  0.00     0.057 A 
ATOM     71  C   UNL A   1      48.108  31.331  26.958  1.00  0.00     0.134 A 
ATOM     72  C   UNL A   1      45.751  31.270  26.670  1.00  0.00     0.134 A 
ATOM     73  F   UNL A   1      49.308  30.765  27.159  1.00  0.00    -0.206 F 
ATOM     74  C   UNL A   1      48.077  32.731  26.936  1.00  0.00     0.040 A 
ATOM     75  C   UNL A   1      45.716  32.666  26.595  1.00  0.00     0.040 A 
ATOM     76  F   UNL A   1      44.548  30.691  26.623  1.00  0.00    -0.206 F 
ATOM     77  C   UNL A   1      46.875  33.404  26.768  1.00  0.00     0.006 A 
ENDBRANCH  56  70
BRANCH  57  78
ATOM     78  C   UNL A   1      39.096  28.367  29.191  1.00  0.00     0.057 A 
ATOM     79  C   UNL A   1      38.210  28.436  30.278  1.00  0.00     0.134 A 
ATOM     80  C   UNL A   1      38.696  29.050  28.030  1.00  0.00     0.134 A 
ATOM     81  F   UNL A   1      38.515  27.847  31.444  1.00  0.00    -0.206 F 
ATOM     82  C   UNL A   1      37.020  29.176  30.231  1.00  0.00     0.040 A 
ATOM     83  C   UNL A   1      37.507  29.788  27.968  1.00  0.00     0.040 A 
ATOM     84  F   UNL A   1      39.488  29.105  26.950  1.00  0.00    -0.206 F 
ATOM     85  C   UNL A   1      36.674  29.870  29.076  1.00  0.00     0.006 A 
ENDBRANCH  57  78
BRANCH  69  86
ATOM     86  C   UNL A   1      44.465  27.197  32.218  1.00  0.00     0.057 A 
ATOM     87  C   UNL A   1      44.285  25.823  31.994  1.00  0.00     0.134 A 
ATOM     88  C   UNL A   1      44.623  27.603  33.548  1.00  0.00     0.134 A 
ATOM     89  F   UNL A   1      44.216  25.321  30.754  1.00  0.00    -0.206 F 
ATOM     90  C   UNL A   1      44.223  24.906  33.050  1.00  0.00     0.040 A 
ATOM     91  C   UNL A   1      44.600  26.695  34.608  1.00  0.00     0.040 A 
ATOM     92  F   UNL A   1      44.848  28.895  33.837  1.00  0.00    -0.206 F 
ATOM     93  C   UNL A   1      44.389  25.341  34.362  1.00  0.00     0.006 A 
ENDBRANCH  69  86
ENDBRANCH  43  44
ENDBRANCH  35  38
ENDBRANCH  33  34
ENDBRANCH  32  33
ENDBRANCH   1  32
TORSDOF 16
ENDMDL
MODEL 3
REMARK VINA RESULT:     -11.8      4.164      8.952
REMARK SMILES C=CCn1nc(C(=O)NCCCCNC(=O)c2ccc(-c3c4nc(c(-c5c(F)cccc5F)c5ccc([nH]5)c(-c5c(F)cccc5F)c5nc(c(-c6c(F)cccc6F)c6ccc3[nH]6)C=C5)C=C4)cc2)c2c1CC[C@@H]([NH2+]Cc1nc(C)cc(=O)[nH]1)C2
REMARK SMILES IDX 11 1 10 2 9 3 7 4 8 5 6 7 4 8 5 9 72 10 71 11 73 12 86 13
REMARK SMILES IDX 74 14 75 15 3 16 2 17 1 18 76 19 77 22 78 23 79 24 85 25
REMARK SMILES IDX 80 26 83 27 81 29 82 30 84 31 12 32 13 33 14 34 15 35 16 37
REMARK SMILES IDX 17 38 18 39 70 40 19 41 69 42 20 43 21 44 22 45 63 46 23 47
REMARK SMILES IDX 68 48 62 49 64 50 24 51 67 52 61 53 60 54 25 56 51 57 34 58
REMARK SMILES IDX 50 59 35 60 38 61 49 62 65 63 36 64 37 65 48 67 66 68 39 69
REMARK SMILES IDX 26 70 27 71 32 72 28 73 29 74 31 75 33 76 30 77 52 78 53 79
REMARK SMILES IDX 58 80 54 81 55 82 57 83 59 84 56 85 40 86 41 87 46 88 42 89
REMARK SMILES IDX 43 90 45 91 47 92 44 93
REMARK H PARENT 9 6 76 20 76 21 85 28 14 36 64 55 38 66
REMARK Flexibility Score: inf
ROOT
ATOM      1  C   UNL A   1      34.578  30.742  27.645  1.00  0.00     0.023 C 
ENDROOT
BRANCH   1   2
ATOM      2  C   UNL A   1      34.213  29.310  27.193  1.00  0.00     0.116 C 
BRANCH   2   3
ATOM      3  N   UNL A   1      32.881  28.907  27.613  1.00  0.00    -0.351 N 
ATOM      4  C   UNL A   1      32.028  27.843  27.410  1.00  0.00     0.272 C 
ATOM      5  O   UNL A   1      31.032  27.897  28.148  1.00  0.00    -0.267 OA
ATOM      6  H   UNL A   1      32.476  29.581  28.206  1.00  0.00     0.163 HD
BRANCH   4   7
ATOM      7  C   UNL A   1      32.182  26.734  26.419  1.00  0.00     0.153 A 
ATOM      8  N   UNL A   1      31.566  24.845  25.541  1.00  0.00    -0.265 N 
ATOM      9  N   UNL A   1      31.464  25.603  26.648  1.00  0.00    -0.167 NA
ATOM     10  C   UNL A   1      32.451  25.363  24.645  1.00  0.00     0.043 A 
ATOM     11  C   UNL A   1      32.858  26.580  25.167  1.00  0.00     0.012 A 
ATOM     12  C   UNL A   1      32.704  24.858  23.260  1.00  0.00     0.062 C 
ATOM     13  C   UNL A   1      33.660  27.495  24.321  1.00  0.00     0.105 C 
ATOM     14  C   UNL A   1      33.661  25.787  22.500  1.00  0.00     0.072 C 
ATOM     15  C   UNL A   1      33.407  27.282  22.804  1.00  0.00     0.187 C 
BRANCH   8  16
ATOM     16  C   UNL A   1      30.741  23.640  25.414  1.00  0.00     0.171 C 
BRANCH  16  17
ATOM     17  C   UNL A   1      31.454  22.368  25.804  1.00  0.00    -0.011 C 
ATOM     18  C   UNL A   1      31.982  21.491  24.936  1.00  0.00     0.006 C 
ENDBRANCH  16  17
ENDBRANCH   8  16
BRANCH  15  19
ATOM     19  N   UNL A   1      32.124  27.794  22.227  1.00  0.00    -0.337 N 
ATOM     20  H   UNL A   1      31.399  27.098  22.401  1.00  0.00     0.346 HD
ATOM     21  H   UNL A   1      32.301  27.954  21.235  1.00  0.00     0.346 HD
BRANCH  19  22
ATOM     22  C   UNL A   1      31.665  29.079  22.778  1.00  0.00     0.337 C 
BRANCH  22  23
ATOM     23  C   UNL A   1      30.227  29.389  22.424  1.00  0.00     0.164 A 
ATOM     24  N   UNL A   1      29.278  28.708  22.981  1.00  0.00    -0.234 NA
ATOM     25  N   UNL A   1      30.011  30.447  21.594  1.00  0.00    -0.306 N 
ATOM     26  C   UNL A   1      27.987  29.101  22.742  1.00  0.00     0.045 A 
ATOM     27  C   UNL A   1      28.754  30.884  21.304  1.00  0.00     0.251 A 
ATOM     28  H   UNL A   1      30.782  30.908  21.193  1.00  0.00     0.171 HD
ATOM     29  C   UNL A   1      26.934  28.325  23.478  1.00  0.00     0.067 C 
ATOM     30  C   UNL A   1      27.664  30.138  21.957  1.00  0.00     0.095 A 
ATOM     31  O   UNL A   1      28.526  31.836  20.569  1.00  0.00    -0.270 OA
ENDBRANCH  22  23
ENDBRANCH  19  22
ENDBRANCH  15  19
ENDBRANCH   4   7
ENDBRANCH   2   3
ENDBRANCH   1   2
BRANCH   1  32
ATOM     32  C   UNL A   1      33.425  31.660  28.054  1.00  0.00     0.023 C 
BRANCH  32  33
ATOM     33  C   UNL A   1      33.399  32.985  27.303  1.00  0.00     0.116 C 
BRANCH  33  34
ATOM     34  N   UNL A   1      32.874  34.104  28.084  1.00  0.00    -0.352 N 
ATOM     35  C   UNL A   1      33.317  34.510  29.334  1.00  0.00     0.251 C 
ATOM     36  H   UNL A   1      32.136  34.620  27.684  1.00  0.00     0.163 HD
ATOM     37  O   UNL A   1      32.618  35.158  30.090  1.00  0.00    -0.269 OA
BRANCH  35  38
ATOM     38  C   UNL A   1      34.691  34.137  29.715  1.00  0.00     0.039 A 
ATOM     39  C   UNL A   1      34.943  33.309  30.809  1.00  0.00     0.014 A 
ATOM     40  C   UNL A   1      35.719  34.562  28.872  1.00  0.00     0.014 A 
ATOM     41  C   UNL A   1      36.237  32.827  30.992  1.00  0.00     0.010 A 
ATOM     42  C   UNL A   1      36.965  33.992  28.985  1.00  0.00     0.010 A 
ATOM     43  C   UNL A   1      37.237  33.144  30.056  1.00  0.00    -0.014 A 
BRANCH  43  44
ATOM     44  C   UNL A   1      38.520  32.441  30.085  1.00  0.00     0.031 A 
ATOM     45  C   UNL A   1      38.448  31.044  29.569  1.00  0.00     0.074 A 
ATOM     46  C   UNL A   1      39.701  33.046  30.347  1.00  0.00     0.049 A 
ATOM     47  N   UNL A   1      38.594  29.954  30.245  1.00  0.00    -0.248 NA
ATOM     48  C   UNL A   1      38.005  30.821  28.181  1.00  0.00     0.031 C 
ATOM     49  C   UNL A   1      39.954  34.473  30.569  1.00  0.00     0.029 A 
ATOM     50  N   UNL A   1      40.959  32.519  30.377  1.00  0.00    -0.354 N 
ATOM     51  C   UNL A   1      38.500  28.914  29.324  1.00  0.00     0.074 A 
ATOM     52  C   UNL A   1      37.943  29.488  28.129  1.00  0.00     0.031 C 
ATOM     53  C   UNL A   1      41.278  34.724  30.471  1.00  0.00     0.029 A 
ATOM     54  C   UNL A   1      41.985  33.463  30.352  1.00  0.00     0.049 A 
ATOM     55  H   UNL A   1      41.129  31.550  30.414  1.00  0.00     0.167 HD
ATOM     56  C   UNL A   1      39.156  27.740  29.541  1.00  0.00     0.037 A 
ATOM     57  C   UNL A   1      43.316  33.225  30.225  1.00  0.00     0.037 A 
ATOM     58  C   UNL A   1      39.540  27.622  30.928  1.00  0.00     0.049 A 
ATOM     59  C   UNL A   1      43.546  31.812  30.603  1.00  0.00     0.074 A 
ATOM     60  C   UNL A   1      38.868  27.624  32.136  1.00  0.00     0.029 A 
ATOM     61  N   UNL A   1      40.856  27.870  31.233  1.00  0.00    -0.354 N 
ATOM     62  N   UNL A   1      43.401  31.351  31.812  1.00  0.00    -0.248 NA
ATOM     63  C   UNL A   1      43.495  30.818  29.543  1.00  0.00     0.031 C 
ATOM     64  C   UNL A   1      39.717  28.346  33.027  1.00  0.00     0.029 A 
ATOM     65  C   UNL A   1      40.892  28.665  32.345  1.00  0.00     0.049 A 
ATOM     66  H   UNL A   1      41.637  27.533  30.737  1.00  0.00     0.167 HD
ATOM     67  C   UNL A   1      42.778  30.126  31.642  1.00  0.00     0.074 A 
ATOM     68  C   UNL A   1      42.948  29.808  30.224  1.00  0.00     0.031 C 
ATOM     69  C   UNL A   1      41.931  29.636  32.594  1.00  0.00     0.037 A 
BRANCH  56  70
ATOM     70  C   UNL A   1      39.844  26.931  28.460  1.00  0.00     0.057 A 
ATOM     71  C   UNL A   1      40.689  27.598  27.550  1.00  0.00     0.134 A 
ATOM     72  C   UNL A   1      39.470  25.627  28.071  1.00  0.00     0.134 A 
ATOM     73  F   UNL A   1      41.119  28.845  27.798  1.00  0.00    -0.206 F 
ATOM     74  C   UNL A   1      41.040  27.055  26.308  1.00  0.00     0.040 A 
ATOM     75  C   UNL A   1      39.856  25.057  26.855  1.00  0.00     0.040 A 
ATOM     76  F   UNL A   1      38.634  24.871  28.788  1.00  0.00    -0.206 F 
ATOM     77  C   UNL A   1      40.611  25.784  25.950  1.00  0.00     0.006 A 
ENDBRANCH  56  70
BRANCH  57  78
ATOM     78  C   UNL A   1      44.354  34.013  29.513  1.00  0.00     0.057 A 
ATOM     79  C   UNL A   1      45.666  34.093  30.008  1.00  0.00     0.134 A 
ATOM     80  C   UNL A   1      44.173  34.439  28.186  1.00  0.00     0.134 A 
ATOM     81  F   UNL A   1      45.952  33.678  31.251  1.00  0.00    -0.206 F 
ATOM     82  C   UNL A   1      46.740  34.526  29.218  1.00  0.00     0.040 A 
ATOM     83  C   UNL A   1      45.237  34.879  27.389  1.00  0.00     0.040 A 
ATOM     84  F   UNL A   1      42.977  34.352  27.588  1.00  0.00    -0.206 F 
ATOM     85  C   UNL A   1      46.529  34.905  27.897  1.00  0.00     0.006 A 
ENDBRANCH  57  78
BRANCH  69  86
ATOM     86  C   UNL A   1      41.935  30.293  33.948  1.00  0.00     0.057 A 
ATOM     87  C   UNL A   1      41.138  31.389  34.313  1.00  0.00     0.134 A 
ATOM     88  C   UNL A   1      42.690  29.697  34.965  1.00  0.00     0.134 A 
ATOM     89  F   UNL A   1      40.310  31.972  33.436  1.00  0.00    -0.206 F 
ATOM     90  C   UNL A   1      41.127  31.890  35.620  1.00  0.00     0.040 A 
ATOM     91  C   UNL A   1      42.661  30.164  36.280  1.00  0.00     0.040 A 
ATOM     92  F   UNL A   1      43.440  28.614  34.703  1.00  0.00    -0.206 F 
ATOM     93  C   UNL A   1      41.885  31.272  36.610  1.00  0.00     0.006 A 
ENDBRANCH  69  86
ENDBRANCH  43  44
ENDBRANCH  35  38
ENDBRANCH  33  34
ENDBRANCH  32  33
ENDBRANCH   1  32
TORSDOF 16
ENDMDL
