MODEL 1
REMARK VINA RESULT:     -11.4      0.000      0.000
REMARK SMILES CCN1C(=O)/C(=C/c2ccccc2O[C@H](C)C(=O)NCCCCNC(=O)c2ccc(-c3c4nc(c(-c5c(F)cccc5F)c5ccc([nH]5)c(-c5c(F)cccc5F)c5nc(c(-c6c(F)cccc6F)c6ccc3[nH]6)C=C5)C=C4)cc2)S/C1=[NH+]\c1ccc(C)cc1O
REMARK SMILES IDX 20 1 19 2 17 3 18 4 15 6 16 7 14 8 13 9 8 10 9 11 10 12
REMARK SMILES IDX 12 13 11 14 7 15 3 16 4 17 82 18 5 19 6 20 81 21 83 22 2 24
REMARK SMILES IDX 1 25 84 26 85 27 90 28 86 29 89 30 87 31 88 32 91 33 21 35
REMARK SMILES IDX 22 36 23 37 24 38 25 39 26 41 27 42 28 43 80 44 29 45 79 46
REMARK SMILES IDX 30 47 31 48 32 49 73 50 33 51 78 52 72 53 74 54 34 55 77 56
REMARK SMILES IDX 71 57 70 58 35 60 61 61 44 62 60 63 45 64 48 65 59 66 75 67
REMARK SMILES IDX 46 68 47 69 58 71 76 72 49 73 36 74 37 75 42 76 38 77 39 78
REMARK SMILES IDX 41 79 43 80 40 81 62 82 63 83 68 84 64 85 65 86 67 87 69 88
REMARK SMILES IDX 66 89 50 90 51 91 56 92 52 93 53 94 55 95 57 96 54 97
REMARK H PARENT 19 5 83 23 91 34 24 40 74 59 48 70
REMARK Flexibility Score: inf
ROOT
ATOM      1  C   UNL A   1      34.674  24.943  25.148  1.00  0.00     0.116 C 
ENDROOT
BRANCH   1   2
ATOM      2  N   UNL A   1      35.343  24.379  24.000  1.00  0.00    -0.353 N 
ATOM      3  C   UNL A   1      36.135  23.269  23.920  1.00  0.00     0.260 C 
ATOM      4  O   UNL A   1      36.546  22.952  22.799  1.00  0.00    -0.271 OA
ATOM      5  H   UNL A   1      35.210  24.865  23.153  1.00  0.00     0.163 HD
BRANCH   3   6
ATOM      6  C   UNL A   1      36.573  22.483  25.177  1.00  0.00     0.258 C 
ATOM      7  C   UNL A   1      35.903  21.119  25.193  1.00  0.00     0.064 C 
BRANCH   6   8
ATOM      8  O   UNL A   1      37.952  22.638  25.471  1.00  0.00    -0.480 OA
BRANCH   8   9
ATOM      9  C   UNL A   1      38.617  23.495  26.290  1.00  0.00     0.127 A 
ATOM     10  C   UNL A   1      39.827  22.985  26.814  1.00  0.00     0.018 A 
ATOM     11  C   UNL A   1      40.532  23.707  27.791  1.00  0.00     0.012 A 
ATOM     12  C   UNL A   1      40.065  24.940  28.232  1.00  0.00     0.001 A 
ATOM     13  C   UNL A   1      38.180  24.748  26.725  1.00  0.00     0.047 A 
ATOM     14  C   UNL A   1      38.896  25.462  27.693  1.00  0.00     0.004 A 
BRANCH  10  15
ATOM     15  C   UNL A   1      40.385  21.677  26.422  1.00  0.00     0.036 C 
ATOM     16  N   UNL A   1      43.505  20.096  25.523  1.00  0.00    -0.186 N 
ATOM     17  C   UNL A   1      42.144  20.071  25.759  1.00  0.00     0.348 C 
ATOM     18  C   UNL A   1      44.128  21.309  25.697  1.00  0.00     0.324 C 
ATOM     19  O   UNL A   1      41.433  19.075  25.801  1.00  0.00    -0.240 OA
ATOM     20  C   UNL A   1      41.649  21.443  26.046  1.00  0.00     0.110 C 
ATOM     21  S   UNL A   1      42.940  22.566  25.918  1.00  0.00     0.007 SA
ATOM     22  N   UNL A   1      45.414  21.434  25.748  1.00  0.00    -0.231 N 
ATOM     23  H   UNL A   1      45.983  20.636  25.644  1.00  0.00     0.313 HD
BRANCH  16  24
ATOM     24  C   UNL A   1      44.232  18.860  25.259  1.00  0.00     0.244 C 
ATOM     25  C   UNL A   1      44.801  18.794  23.847  1.00  0.00     0.055 C 
ENDBRANCH  16  24
BRANCH  22  26
ATOM     26  C   UNL A   1      46.020  22.693  25.950  1.00  0.00     0.167 A 
ATOM     27  C   UNL A   1      46.084  23.214  27.243  1.00  0.00     0.056 A 
ATOM     28  C   UNL A   1      46.491  23.490  24.894  1.00  0.00     0.162 A 
ATOM     29  C   UNL A   1      46.642  24.478  27.478  1.00  0.00     0.008 A 
ATOM     30  C   UNL A   1      47.078  24.733  25.120  1.00  0.00     0.054 A 
ATOM     31  C   UNL A   1      47.157  25.239  26.421  1.00  0.00    -0.047 A 
ATOM     32  C   UNL A   1      47.728  26.602  26.678  1.00  0.00     0.044 C 
BRANCH  28  33
ATOM     33  O   UNL A   1      46.376  23.084  23.590  1.00  0.00    -0.504 OA
ATOM     34  H   UNL A   1      47.141  22.851  23.102  1.00  0.00     0.293 HD
ENDBRANCH  28  33
ENDBRANCH  22  26
ENDBRANCH  10  15
ENDBRANCH   8   9
ENDBRANCH   6   8
ENDBRANCH   3   6
ENDBRANCH   1   2
BRANCH   1  35
ATOM     35  C   UNL A   1      33.727  26.079  24.787  1.00  0.00     0.023 C 
BRANCH  35  36
ATOM     36  C   UNL A   1      33.655  27.189  25.829  1.00  0.00     0.023 C 
BRANCH  36  37
ATOM     37  C   UNL A   1      34.098  28.562  25.337  1.00  0.00     0.116 C 
BRANCH  37  38
ATOM     38  N   UNL A   1      33.163  29.630  25.658  1.00  0.00    -0.352 N 
ATOM     39  C   UNL A   1      33.239  30.549  26.682  1.00  0.00     0.251 C 
ATOM     40  H   UNL A   1      32.377  29.705  25.071  1.00  0.00     0.163 HD
ATOM     41  O   UNL A   1      32.329  31.331  26.891  1.00  0.00    -0.269 OA
BRANCH  39  42
ATOM     42  C   UNL A   1      34.437  30.546  27.550  1.00  0.00     0.039 A 
ATOM     43  C   UNL A   1      34.781  29.371  28.221  1.00  0.00     0.014 A 
ATOM     44  C   UNL A   1      35.235  31.687  27.660  1.00  0.00     0.014 A 
ATOM     45  C   UNL A   1      35.962  29.325  28.962  1.00  0.00     0.010 A 
ATOM     46  C   UNL A   1      36.451  31.613  28.328  1.00  0.00     0.010 A 
ATOM     47  C   UNL A   1      36.820  30.437  28.998  1.00  0.00    -0.014 A 
BRANCH  47  48
ATOM     48  C   UNL A   1      38.085  30.412  29.772  1.00  0.00     0.031 A 
ATOM     49  C   UNL A   1      39.316  29.802  29.161  1.00  0.00     0.074 A 
ATOM     50  C   UNL A   1      38.113  30.878  31.035  1.00  0.00     0.049 A 
ATOM     51  N   UNL A   1      40.499  29.619  29.690  1.00  0.00    -0.248 NA
ATOM     52  C   UNL A   1      39.190  29.302  27.782  1.00  0.00     0.031 C 
ATOM     53  C   UNL A   1      36.974  31.449  31.757  1.00  0.00     0.029 A 
ATOM     54  N   UNL A   1      39.144  30.941  31.938  1.00  0.00    -0.354 N 
ATOM     55  C   UNL A   1      41.246  28.966  28.718  1.00  0.00     0.074 A 
ATOM     56  C   UNL A   1      40.369  28.729  27.593  1.00  0.00     0.031 C 
ATOM     57  C   UNL A   1      37.377  31.830  32.981  1.00  0.00     0.029 A 
ATOM     58  C   UNL A   1      38.790  31.505  33.140  1.00  0.00     0.049 A 
ATOM     59  H   UNL A   1      40.051  30.613  31.743  1.00  0.00     0.167 HD
ATOM     60  C   UNL A   1      42.556  28.621  28.745  1.00  0.00     0.037 A 
ATOM     61  C   UNL A   1      39.528  31.737  34.242  1.00  0.00     0.037 A 
ATOM     62  C   UNL A   1      43.436  28.890  29.849  1.00  0.00     0.049 A 
ATOM     63  C   UNL A   1      40.984  31.361  34.242  1.00  0.00     0.074 A 
ATOM     64  C   UNL A   1      44.790  28.624  29.959  1.00  0.00     0.029 A 
ATOM     65  N   UNL A   1      43.048  29.495  31.035  1.00  0.00    -0.354 N 
ATOM     66  N   UNL A   1      41.694  30.795  33.296  1.00  0.00    -0.248 NA
ATOM     67  C   UNL A   1      41.745  31.666  35.462  1.00  0.00     0.031 C 
ATOM     68  C   UNL A   1      45.214  29.043  31.225  1.00  0.00     0.029 A 
ATOM     69  C   UNL A   1      44.134  29.607  31.886  1.00  0.00     0.049 A 
ATOM     70  H   UNL A   1      42.135  29.800  31.241  1.00  0.00     0.167 HD
ATOM     71  C   UNL A   1      42.989  30.712  33.788  1.00  0.00     0.074 A 
ATOM     72  C   UNL A   1      42.969  31.290  35.116  1.00  0.00     0.031 C 
ATOM     73  C   UNL A   1      44.097  30.206  33.194  1.00  0.00     0.037 A 
BRANCH  60  74
ATOM     74  C   UNL A   1      43.106  27.927  27.534  1.00  0.00     0.057 A 
ATOM     75  C   UNL A   1      43.499  28.638  26.392  1.00  0.00     0.134 A 
ATOM     76  C   UNL A   1      43.251  26.534  27.508  1.00  0.00     0.134 A 
ATOM     77  F   UNL A   1      43.371  29.973  26.345  1.00  0.00    -0.206 F 
ATOM     78  C   UNL A   1      43.984  27.988  25.255  1.00  0.00     0.040 A 
ATOM     79  C   UNL A   1      43.762  25.875  26.389  1.00  0.00     0.040 A 
ATOM     80  F   UNL A   1      42.898  25.792  28.569  1.00  0.00    -0.206 F 
ATOM     81  C   UNL A   1      44.121  26.601  25.256  1.00  0.00     0.006 A 
ENDBRANCH  60  74
BRANCH  61  82
ATOM     82  C   UNL A   1      38.919  32.402  35.420  1.00  0.00     0.057 A 
ATOM     83  C   UNL A   1      38.357  31.648  36.458  1.00  0.00     0.134 A 
ATOM     84  C   UNL A   1      38.871  33.796  35.535  1.00  0.00     0.134 A 
ATOM     85  F   UNL A   1      38.357  30.309  36.395  1.00  0.00    -0.206 F 
ATOM     86  C   UNL A   1      37.750  32.256  37.557  1.00  0.00     0.040 A 
ATOM     87  C   UNL A   1      38.287  34.417  36.641  1.00  0.00     0.040 A 
ATOM     88  F   UNL A   1      39.399  34.572  34.578  1.00  0.00    -0.206 F 
ATOM     89  C   UNL A   1      37.719  33.646  37.653  1.00  0.00     0.006 A 
ENDBRANCH  61  82
BRANCH  73  90
ATOM     90  C   UNL A   1      45.389  30.306  33.951  1.00  0.00     0.057 A 
ATOM     91  C   UNL A   1      46.225  31.424  33.848  1.00  0.00     0.134 A 
ATOM     92  C   UNL A   1      45.778  29.283  34.825  1.00  0.00     0.134 A 
ATOM     93  F   UNL A   1      45.913  32.432  33.018  1.00  0.00    -0.206 F 
ATOM     94  C   UNL A   1      47.415  31.512  34.570  1.00  0.00     0.040 A 
ATOM     95  C   UNL A   1      46.953  29.370  35.571  1.00  0.00     0.040 A 
ATOM     96  F   UNL A   1      45.017  28.189  34.976  1.00  0.00    -0.206 F 
ATOM     97  C   UNL A   1      47.779  30.485  35.441  1.00  0.00     0.006 A 
ENDBRANCH  73  90
ENDBRANCH  47  48
ENDBRANCH  39  42
ENDBRANCH  37  38
ENDBRANCH  36  37
ENDBRANCH  35  36
ENDBRANCH   1  35
TORSDOF 17
ENDMDL
MODEL 2
REMARK VINA RESULT:     -10.7      0.555      5.863
REMARK SMILES CCN1C(=O)/C(=C/c2ccccc2O[C@H](C)C(=O)NCCCCNC(=O)c2ccc(-c3c4nc(c(-c5c(F)cccc5F)c5ccc([nH]5)c(-c5c(F)cccc5F)c5nc(c(-c6c(F)cccc6F)c6ccc3[nH]6)C=C5)C=C4)cc2)S/C1=[NH+]\c1ccc(C)cc1O
REMARK SMILES IDX 20 1 19 2 17 3 18 4 15 6 16 7 14 8 13 9 8 10 9 11 10 12
REMARK SMILES IDX 12 13 11 14 7 15 3 16 4 17 82 18 5 19 6 20 81 21 83 22 2 24
REMARK SMILES IDX 1 25 84 26 85 27 90 28 86 29 89 30 87 31 88 32 91 33 21 35
REMARK SMILES IDX 22 36 23 37 24 38 25 39 26 41 27 42 28 43 80 44 29 45 79 46
REMARK SMILES IDX 30 47 31 48 32 49 73 50 33 51 78 52 72 53 74 54 34 55 77 56
REMARK SMILES IDX 71 57 70 58 35 60 61 61 44 62 60 63 45 64 48 65 59 66 75 67
REMARK SMILES IDX 46 68 47 69 58 71 76 72 49 73 36 74 37 75 42 76 38 77 39 78
REMARK SMILES IDX 41 79 43 80 40 81 62 82 63 83 68 84 64 85 65 86 67 87 69 88
REMARK SMILES IDX 66 89 50 90 51 91 56 92 52 93 53 94 55 95 57 96 54 97
REMARK H PARENT 19 5 83 23 91 34 24 40 74 59 48 70
REMARK Flexibility Score: inf
ROOT
ATOM      1  C   UNL A   1      34.567  25.198  25.391  1.00  0.00     0.116 C 
ENDROOT
BRANCH   1   2
ATOM      2  N   UNL A   1      35.080  24.515  24.227  1.00  0.00    -0.353 N 
ATOM      3  C   UNL A   1      35.917  23.437  24.157  1.00  0.00     0.260 C 
ATOM      4  O   UNL A   1      36.165  22.991  23.032  1.00  0.00    -0.271 OA
ATOM      5  H   UNL A   1      34.787  24.878  23.360  1.00  0.00     0.163 HD
BRANCH   3   6
ATOM      6  C   UNL A   1      36.595  22.843  25.413  1.00  0.00     0.258 C 
ATOM      7  C   UNL A   1      36.111  21.421  25.638  1.00  0.00     0.064 C 
BRANCH   6   8
ATOM      8  O   UNL A   1      37.968  23.186  25.513  1.00  0.00    -0.480 OA
BRANCH   8   9
ATOM      9  C   UNL A   1      38.655  23.938  26.413  1.00  0.00     0.127 A 
ATOM     10  C   UNL A   1      39.778  23.292  26.979  1.00  0.00     0.018 A 
ATOM     11  C   UNL A   1      40.483  23.897  28.032  1.00  0.00     0.012 A 
ATOM     12  C   UNL A   1      40.103  25.146  28.511  1.00  0.00     0.001 A 
ATOM     13  C   UNL A   1      38.307  25.203  26.888  1.00  0.00     0.047 A 
ATOM     14  C   UNL A   1      39.022  25.800  27.932  1.00  0.00     0.004 A 
BRANCH  10  15
ATOM     15  C   UNL A   1      40.239  21.957  26.552  1.00  0.00     0.036 C 
ATOM     16  N   UNL A   1      43.232  20.182  25.583  1.00  0.00    -0.186 N 
ATOM     17  C   UNL A   1      41.874  20.247  25.833  1.00  0.00     0.348 C 
ATOM     18  C   UNL A   1      43.940  21.344  25.778  1.00  0.00     0.324 C 
ATOM     19  O   UNL A   1      41.095  19.303  25.861  1.00  0.00    -0.240 OA
ATOM     20  C   UNL A   1      41.480  21.643  26.157  1.00  0.00     0.110 C 
ATOM     21  S   UNL A   1      42.846  22.676  26.040  1.00  0.00     0.007 SA
ATOM     22  N   UNL A   1      45.232  21.377  25.818  1.00  0.00    -0.231 N 
ATOM     23  H   UNL A   1      45.742  20.544  25.689  1.00  0.00     0.313 HD
BRANCH  16  24
ATOM     24  C   UNL A   1      43.867  18.905  25.284  1.00  0.00     0.244 C 
ATOM     25  C   UNL A   1      44.583  18.897  23.938  1.00  0.00     0.055 C 
ENDBRANCH  16  24
BRANCH  22  26
ATOM     26  C   UNL A   1      45.927  22.585  26.041  1.00  0.00     0.167 A 
ATOM     27  C   UNL A   1      45.976  23.109  27.334  1.00  0.00     0.056 A 
ATOM     28  C   UNL A   1      46.507  23.334  25.004  1.00  0.00     0.162 A 
ATOM     29  C   UNL A   1      46.621  24.326  27.589  1.00  0.00     0.008 A 
ATOM     30  C   UNL A   1      47.180  24.528  25.252  1.00  0.00     0.054 A 
ATOM     31  C   UNL A   1      47.243  25.035  26.553  1.00  0.00    -0.047 A 
ATOM     32  C   UNL A   1      47.908  26.351  26.829  1.00  0.00     0.044 C 
BRANCH  28  33
ATOM     33  O   UNL A   1      46.417  22.929  23.698  1.00  0.00    -0.504 OA
ATOM     34  H   UNL A   1      46.660  22.056  23.460  1.00  0.00     0.293 HD
ENDBRANCH  28  33
ENDBRANCH  22  26
ENDBRANCH  10  15
ENDBRANCH   8   9
ENDBRANCH   6   8
ENDBRANCH   3   6
ENDBRANCH   1   2
BRANCH   1  35
ATOM     35  C   UNL A   1      33.546  26.273  25.046  1.00  0.00     0.023 C 
BRANCH  35  36
ATOM     36  C   UNL A   1      33.486  27.422  26.046  1.00  0.00     0.023 C 
BRANCH  36  37
ATOM     37  C   UNL A   1      33.840  28.790  25.475  1.00  0.00     0.116 C 
BRANCH  37  38
ATOM     38  N   UNL A   1      33.068  29.883  26.045  1.00  0.00    -0.352 N 
ATOM     39  C   UNL A   1      33.420  30.728  27.076  1.00  0.00     0.251 C 
ATOM     40  H   UNL A   1      32.182  30.039  25.646  1.00  0.00     0.163 HD
ATOM     41  O   UNL A   1      32.628  31.541  27.517  1.00  0.00    -0.269 OA
BRANCH  39  42
ATOM     42  C   UNL A   1      34.771  30.603  27.664  1.00  0.00     0.039 A 
ATOM     43  C   UNL A   1      35.601  31.725  27.694  1.00  0.00     0.014 A 
ATOM     44  C   UNL A   1      35.193  29.392  28.220  1.00  0.00     0.014 A 
ATOM     45  C   UNL A   1      36.838  31.647  28.335  1.00  0.00     0.010 A 
ATOM     46  C   UNL A   1      36.386  29.341  28.930  1.00  0.00     0.010 A 
ATOM     47  C   UNL A   1      37.227  30.462  28.981  1.00  0.00    -0.014 A 
BRANCH  47  48
ATOM     48  C   UNL A   1      38.533  30.355  29.676  1.00  0.00     0.031 A 
ATOM     49  C   UNL A   1      38.665  30.853  31.089  1.00  0.00     0.074 A 
ATOM     50  C   UNL A   1      39.607  29.869  29.025  1.00  0.00     0.049 A 
ATOM     51  N   UNL A   1      39.728  30.915  31.849  1.00  0.00    -0.248 NA
ATOM     52  C   UNL A   1      37.444  31.383  31.718  1.00  0.00     0.031 C 
ATOM     53  C   UNL A   1      39.619  29.399  27.637  1.00  0.00     0.029 A 
ATOM     54  N   UNL A   1      40.901  29.695  29.446  1.00  0.00    -0.354 N 
ATOM     55  C   UNL A   1      39.308  31.508  33.033  1.00  0.00     0.074 A 
ATOM     56  C   UNL A   1      37.911  31.843  32.868  1.00  0.00     0.031 C 
ATOM     57  C   UNL A   1      40.853  28.963  27.333  1.00  0.00     0.029 A 
ATOM     58  C   UNL A   1      41.723  29.149  28.489  1.00  0.00     0.049 A 
ATOM     59  H   UNL A   1      41.211  29.938  30.348  1.00  0.00     0.167 HD
ATOM     60  C   UNL A   1      40.012  31.726  34.169  1.00  0.00     0.037 A 
ATOM     61  C   UNL A   1      43.030  28.832  28.547  1.00  0.00     0.037 A 
ATOM     62  C   UNL A   1      41.391  31.357  34.344  1.00  0.00     0.049 A 
ATOM     63  C   UNL A   1      43.788  29.067  29.825  1.00  0.00     0.074 A 
ATOM     64  C   UNL A   1      42.185  31.491  35.470  1.00  0.00     0.029 A 
ATOM     65  N   UNL A   1      42.180  30.775  33.363  1.00  0.00    -0.354 N 
ATOM     66  N   UNL A   1      43.365  29.576  30.956  1.00  0.00    -0.248 NA
ATOM     67  C   UNL A   1      45.203  28.673  29.836  1.00  0.00     0.031 C 
ATOM     68  C   UNL A   1      43.463  31.014  35.160  1.00  0.00     0.029 A 
ATOM     69  C   UNL A   1      43.453  30.547  33.856  1.00  0.00     0.049 A 
ATOM     70  H   UNL A   1      41.878  30.556  32.452  1.00  0.00     0.167 HD
ATOM     71  C   UNL A   1      44.447  29.528  31.825  1.00  0.00     0.074 A 
ATOM     72  C   UNL A   1      45.545  28.935  31.090  1.00  0.00     0.031 C 
ATOM     73  C   UNL A   1      44.525  29.935  33.115  1.00  0.00     0.037 A 
BRANCH  60  74
ATOM     74  C   UNL A   1      39.289  32.382  35.308  1.00  0.00     0.057 A 
ATOM     75  C   UNL A   1      39.305  33.772  35.488  1.00  0.00     0.134 A 
ATOM     76  C   UNL A   1      38.564  31.620  36.232  1.00  0.00     0.134 A 
ATOM     77  F   UNL A   1      39.995  34.558  34.648  1.00  0.00    -0.206 F 
ATOM     78  C   UNL A   1      38.656  34.378  36.565  1.00  0.00     0.040 A 
ATOM     79  C   UNL A   1      37.885  32.217  37.296  1.00  0.00     0.040 A 
ATOM     80  F   UNL A   1      38.503  30.285  36.117  1.00  0.00    -0.206 F 
ATOM     81  C   UNL A   1      37.939  33.598  37.470  1.00  0.00     0.006 A 
ENDBRANCH  60  74
BRANCH  61  82
ATOM     82  C   UNL A   1      43.697  28.210  27.375  1.00  0.00     0.057 A 
ATOM     83  C   UNL A   1      44.500  28.974  26.519  1.00  0.00     0.134 A 
ATOM     84  C   UNL A   1      43.543  26.853  27.076  1.00  0.00     0.134 A 
ATOM     85  F   UNL A   1      44.670  30.285  26.745  1.00  0.00    -0.206 F 
ATOM     86  C   UNL A   1      45.108  28.415  25.395  1.00  0.00     0.040 A 
ATOM     87  C   UNL A   1      44.164  26.275  25.967  1.00  0.00     0.040 A 
ATOM     88  F   UNL A   1      42.794  26.067  27.863  1.00  0.00    -0.206 F 
ATOM     89  C   UNL A   1      44.945  27.059  25.119  1.00  0.00     0.006 A 
ENDBRANCH  61  82
BRANCH  73  90
ATOM     90  C   UNL A   1      45.822  29.700  33.831  1.00  0.00     0.057 A 
ATOM     91  C   UNL A   1      46.844  30.658  33.849  1.00  0.00     0.134 A 
ATOM     92  C   UNL A   1      46.033  28.513  34.545  1.00  0.00     0.134 A 
ATOM     93  F   UNL A   1      46.708  31.810  33.175  1.00  0.00    -0.206 F 
ATOM     94  C   UNL A   1      48.039  30.434  34.534  1.00  0.00     0.040 A 
ATOM     95  C   UNL A   1      47.213  28.288  35.253  1.00  0.00     0.040 A 
ATOM     96  F   UNL A   1      45.090  27.560  34.574  1.00  0.00    -0.206 F 
ATOM     97  C   UNL A   1      48.223  29.248  35.244  1.00  0.00     0.006 A 
ENDBRANCH  73  90
ENDBRANCH  47  48
ENDBRANCH  39  42
ENDBRANCH  37  38
ENDBRANCH  36  37
ENDBRANCH  35  36
ENDBRANCH   1  35
TORSDOF 17
ENDMDL
MODEL 3
REMARK VINA RESULT:     -10.6      4.228      9.710
REMARK SMILES CCN1C(=O)/C(=C/c2ccccc2O[C@H](C)C(=O)NCCCCNC(=O)c2ccc(-c3c4nc(c(-c5c(F)cccc5F)c5ccc([nH]5)c(-c5c(F)cccc5F)c5nc(c(-c6c(F)cccc6F)c6ccc3[nH]6)C=C5)C=C4)cc2)S/C1=[NH+]\c1ccc(C)cc1O
REMARK SMILES IDX 20 1 19 2 17 3 18 4 15 6 16 7 14 8 13 9 8 10 9 11 10 12
REMARK SMILES IDX 12 13 11 14 7 15 3 16 4 17 82 18 5 19 6 20 81 21 83 22 2 24
REMARK SMILES IDX 1 25 84 26 85 27 90 28 86 29 89 30 87 31 88 32 91 33 21 35
REMARK SMILES IDX 22 36 23 37 24 38 25 39 26 41 27 42 28 43 80 44 29 45 79 46
REMARK SMILES IDX 30 47 31 48 32 49 73 50 33 51 78 52 72 53 74 54 34 55 77 56
REMARK SMILES IDX 71 57 70 58 35 60 61 61 44 62 60 63 45 64 48 65 59 66 75 67
REMARK SMILES IDX 46 68 47 69 58 71 76 72 49 73 36 74 37 75 42 76 38 77 39 78
REMARK SMILES IDX 41 79 43 80 40 81 62 82 63 83 68 84 64 85 65 86 67 87 69 88
REMARK SMILES IDX 66 89 50 90 51 91 56 92 52 93 53 94 55 95 57 96 54 97
REMARK H PARENT 19 5 83 23 91 34 24 40 74 59 48 70
REMARK Flexibility Score: inf
ROOT
ATOM      1  C   UNL A   1      34.305  31.277  27.657  1.00  0.00     0.116 C 
ENDROOT
BRANCH   1   2
ATOM      2  N   UNL A   1      33.190  31.219  26.741  1.00  0.00    -0.353 N 
ATOM      3  C   UNL A   1      32.372  30.168  26.442  1.00  0.00     0.260 C 
ATOM      4  O   UNL A   1      31.438  30.387  25.663  1.00  0.00    -0.271 OA
ATOM      5  H   UNL A   1      32.993  32.057  26.263  1.00  0.00     0.163 HD
BRANCH   3   6
ATOM      6  C   UNL A   1      32.637  28.744  26.981  1.00  0.00     0.258 C 
ATOM      7  C   UNL A   1      31.462  28.283  27.827  1.00  0.00     0.064 C 
BRANCH   6   8
ATOM      8  O   UNL A   1      33.239  27.893  26.018  1.00  0.00    -0.480 OA
BRANCH   8   9
ATOM      9  C   UNL A   1      33.158  27.852  24.662  1.00  0.00     0.127 A 
ATOM     10  C   UNL A   1      32.100  27.059  24.162  1.00  0.00     0.018 A 
ATOM     11  C   UNL A   1      31.998  26.807  22.784  1.00  0.00     0.012 A 
ATOM     12  C   UNL A   1      32.916  27.356  21.896  1.00  0.00     0.001 A 
ATOM     13  C   UNL A   1      34.052  28.417  23.752  1.00  0.00     0.047 A 
ATOM     14  C   UNL A   1      33.935  28.167  22.380  1.00  0.00     0.004 A 
BRANCH  10  15
ATOM     15  C   UNL A   1      31.096  26.417  25.031  1.00  0.00     0.036 C 
ATOM     16  N   UNL A   1      30.434  23.319  26.766  1.00  0.00    -0.186 N 
ATOM     17  C   UNL A   1      30.108  24.612  26.402  1.00  0.00     0.348 C 
ATOM     18  C   UNL A   1      31.627  22.837  26.285  1.00  0.00     0.324 C 
ATOM     19  O   UNL A   1      29.173  25.273  26.835  1.00  0.00    -0.240 OA
ATOM     20  C   UNL A   1      31.117  25.144  25.449  1.00  0.00     0.110 C 
ATOM     21  S   UNL A   1      32.284  23.936  25.102  1.00  0.00     0.007 SA
ATOM     22  N   UNL A   1      32.174  21.752  26.730  1.00  0.00    -0.231 N 
ATOM     23  H   UNL A   1      31.717  21.232  27.431  1.00  0.00     0.313 HD
BRANCH  16  24
ATOM     24  C   UNL A   1      29.615  22.595  27.731  1.00  0.00     0.244 C 
ATOM     25  C   UNL A   1      28.301  22.097  27.141  1.00  0.00     0.055 C 
ENDBRANCH  16  24
BRANCH  22  26
ATOM     26  C   UNL A   1      33.412  21.297  26.228  1.00  0.00     0.167 A 
ATOM     27  C   UNL A   1      34.576  21.989  26.568  1.00  0.00     0.056 A 
ATOM     28  C   UNL A   1      33.522  20.223  25.329  1.00  0.00     0.162 A 
ATOM     29  C   UNL A   1      35.819  21.592  26.057  1.00  0.00     0.008 A 
ATOM     30  C   UNL A   1      34.756  19.799  24.843  1.00  0.00     0.054 A 
ATOM     31  C   UNL A   1      35.920  20.484  25.205  1.00  0.00    -0.047 A 
ATOM     32  C   UNL A   1      37.250  20.082  24.641  1.00  0.00     0.044 C 
BRANCH  28  33
ATOM     33  O   UNL A   1      32.413  19.556  24.878  1.00  0.00    -0.504 OA
ATOM     34  H   UNL A   1      31.837  19.966  24.263  1.00  0.00     0.293 HD
ENDBRANCH  28  33
ENDBRANCH  22  26
ENDBRANCH  10  15
ENDBRANCH   8   9
ENDBRANCH   6   8
ENDBRANCH   3   6
ENDBRANCH   1   2
BRANCH   1  35
ATOM     35  C   UNL A   1      34.313  32.542  28.504  1.00  0.00     0.023 C 
BRANCH  35  36
ATOM     36  C   UNL A   1      35.642  33.288  28.502  1.00  0.00     0.023 C 
BRANCH  36  37
ATOM     37  C   UNL A   1      36.492  33.091  29.752  1.00  0.00     0.116 C 
BRANCH  37  38
ATOM     38  N   UNL A   1      35.947  32.118  30.685  1.00  0.00    -0.352 N 
ATOM     39  C   UNL A   1      36.489  30.910  31.069  1.00  0.00     0.251 C 
ATOM     40  H   UNL A   1      35.082  32.350  31.094  1.00  0.00     0.163 HD
ATOM     41  O   UNL A   1      35.871  30.147  31.790  1.00  0.00    -0.269 OA
BRANCH  39  42
ATOM     42  C   UNL A   1      37.826  30.539  30.558  1.00  0.00     0.039 A 
ATOM     43  C   UNL A   1      38.905  30.518  31.443  1.00  0.00     0.014 A 
ATOM     44  C   UNL A   1      37.997  30.173  29.221  1.00  0.00     0.014 A 
ATOM     45  C   UNL A   1      40.150  30.074  30.996  1.00  0.00     0.010 A 
ATOM     46  C   UNL A   1      39.215  29.652  28.801  1.00  0.00     0.010 A 
ATOM     47  C   UNL A   1      40.306  29.611  29.679  1.00  0.00    -0.014 A 
BRANCH  47  48
ATOM     48  C   UNL A   1      41.618  29.127  29.182  1.00  0.00     0.031 A 
ATOM     49  C   UNL A   1      42.778  30.081  29.101  1.00  0.00     0.074 A 
ATOM     50  C   UNL A   1      41.751  27.859  28.752  1.00  0.00     0.049 A 
ATOM     51  N   UNL A   1      43.984  29.880  28.635  1.00  0.00    -0.248 NA
ATOM     52  C   UNL A   1      42.539  31.453  29.578  1.00  0.00     0.031 C 
ATOM     53  C   UNL A   1      40.688  26.851  28.733  1.00  0.00     0.029 A 
ATOM     54  N   UNL A   1      42.841  27.201  28.240  1.00  0.00    -0.354 N 
ATOM     55  C   UNL A   1      44.635  31.101  28.744  1.00  0.00     0.074 A 
ATOM     56  C   UNL A   1      43.676  32.052  29.260  1.00  0.00     0.031 C 
ATOM     57  C   UNL A   1      41.187  25.696  28.263  1.00  0.00     0.029 A 
ATOM     58  C   UNL A   1      42.592  25.887  27.921  1.00  0.00     0.049 A 
ATOM     59  H   UNL A   1      43.717  27.629  28.114  1.00  0.00     0.167 HD
ATOM     60  C   UNL A   1      45.928  31.401  28.468  1.00  0.00     0.037 A 
ATOM     61  C   UNL A   1      43.411  24.947  27.414  1.00  0.00     0.037 A 
ATOM     62  C   UNL A   1      46.890  30.446  27.990  1.00  0.00     0.049 A 
ATOM     63  C   UNL A   1      44.846  25.298  27.132  1.00  0.00     0.074 A 
ATOM     64  C   UNL A   1      48.235  30.634  27.724  1.00  0.00     0.029 A 
ATOM     65  N   UNL A   1      46.609  29.117  27.712  1.00  0.00    -0.354 N 
ATOM     66  N   UNL A   1      45.466  26.442  27.292  1.00  0.00    -0.248 NA
ATOM     67  C   UNL A   1      45.699  24.222  26.609  1.00  0.00     0.031 C 
ATOM     68  C   UNL A   1      48.761  29.425  27.258  1.00  0.00     0.029 A 
ATOM     69  C   UNL A   1      47.753  28.474  27.273  1.00  0.00     0.049 A 
ATOM     70  H   UNL A   1      45.726  28.694  27.813  1.00  0.00     0.167 HD
ATOM     71  C   UNL A   1      46.787  26.216  26.928  1.00  0.00     0.074 A 
ATOM     72  C   UNL A   1      46.880  24.823  26.543  1.00  0.00     0.031 C 
ATOM     73  C   UNL A   1      47.829  27.081  26.916  1.00  0.00     0.037 A 
BRANCH  60  74
ATOM     74  C   UNL A   1      46.366  32.818  28.694  1.00  0.00     0.057 A 
ATOM     75  C   UNL A   1      46.865  33.247  29.931  1.00  0.00     0.134 A 
ATOM     76  C   UNL A   1      46.293  33.764  27.664  1.00  0.00     0.134 A 
ATOM     77  F   UNL A   1      46.945  32.395  30.964  1.00  0.00    -0.206 F 
ATOM     78  C   UNL A   1      47.245  34.573  30.147  1.00  0.00     0.040 A 
ATOM     79  C   UNL A   1      46.697  35.086  27.859  1.00  0.00     0.040 A 
ATOM     80  F   UNL A   1      45.829  33.420  26.453  1.00  0.00    -0.206 F 
ATOM     81  C   UNL A   1      47.166  35.495  29.105  1.00  0.00     0.006 A 
ENDBRANCH  60  74
BRANCH  61  82
ATOM     82  C   UNL A   1      42.911  23.568  27.186  1.00  0.00     0.057 A 
ATOM     83  C   UNL A   1      42.751  22.679  28.256  1.00  0.00     0.134 A 
ATOM     84  C   UNL A   1      42.595  23.103  25.906  1.00  0.00     0.134 A 
ATOM     85  F   UNL A   1      43.056  23.062  29.504  1.00  0.00    -0.206 F 
ATOM     86  C   UNL A   1      42.313  21.369  28.058  1.00  0.00     0.040 A 
ATOM     87  C   UNL A   1      42.135  21.802  25.696  1.00  0.00     0.040 A 
ATOM     88  F   UNL A   1      42.720  23.910  24.842  1.00  0.00    -0.206 F 
ATOM     89  C   UNL A   1      41.999  20.928  26.773  1.00  0.00     0.006 A 
ENDBRANCH  61  82
BRANCH  73  90
ATOM     90  C   UNL A   1      49.171  26.534  26.528  1.00  0.00     0.057 A 
ATOM     91  C   UNL A   1      49.696  26.700  25.241  1.00  0.00     0.134 A 
ATOM     92  C   UNL A   1      49.963  25.864  27.471  1.00  0.00     0.134 A 
ATOM     93  F   UNL A   1      48.982  27.321  24.290  1.00  0.00    -0.206 F 
ATOM     94  C   UNL A   1      50.953  26.200  24.898  1.00  0.00     0.040 A 
ATOM     95  C   UNL A   1      51.230  25.383  27.147  1.00  0.00     0.040 A 
ATOM     96  F   UNL A   1      49.521  25.680  28.723  1.00  0.00    -0.206 F 
ATOM     97  C   UNL A   1      51.727  25.545  25.855  1.00  0.00     0.006 A 
ENDBRANCH  73  90
ENDBRANCH  47  48
ENDBRANCH  39  42
ENDBRANCH  37  38
ENDBRANCH  36  37
ENDBRANCH  35  36
ENDBRANCH   1  35
TORSDOF 17
ENDMDL
