MODEL 1
REMARK VINA RESULT:     -11.3      0.000      0.000
REMARK SMILES CC(C)(C)OC(=O)N[C@@H](C(=O)NCCCCNC(=O)c1ccc(-c2c3nc(c(-c4c(F)cccc4F)c4ccc([nH]4)c(-c4c(F)cccc4F)c4nc(c(-c5c(F)cccc5F)c5ccc2[nH]5)C=C4)C=C3)cc1)[C@H](O)c1ccccc1F
REMARK SMILES IDX 14 1 13 2 12 3 10 4 11 5 9 7 8 8 6 9 7 10 5 12 2 13 1 14
REMARK SMILES IDX 3 15 4 16 74 17 76 18 77 19 81 20 78 21 80 22 82 23 79 24
REMARK SMILES IDX 75 25 15 27 16 28 17 29 18 30 19 32 20 33 21 34 73 35 22 36
REMARK SMILES IDX 72 37 23 38 24 39 25 40 66 41 26 42 71 43 65 44 67 45 27 46
REMARK SMILES IDX 70 47 64 48 63 49 28 51 54 52 37 53 53 54 38 55 41 56 52 57
REMARK SMILES IDX 68 58 39 59 40 60 51 62 69 63 42 64 29 65 30 66 35 67 31 68
REMARK SMILES IDX 32 69 34 70 36 71 33 72 55 73 56 74 61 75 57 76 58 77 60 78
REMARK SMILES IDX 62 79 59 80 43 81 44 82 49 83 45 84 46 85 48 86 50 87 47 88
REMARK H PARENT 12 6 8 11 75 26 17 31 67 50 41 61
REMARK Flexibility Score: inf
ROOT
ATOM      1  C   UNL A   1      36.667  20.001  25.003  1.00  0.00     0.023 C 
ENDROOT
BRANCH   1   2
ATOM      2  C   UNL A   1      36.134  21.415  25.240  1.00  0.00     0.116 C 
BRANCH   2   3
ATOM      3  N   UNL A   1      35.387  21.472  26.480  1.00  0.00    -0.354 N 
ATOM      4  C   UNL A   1      34.036  21.366  26.662  1.00  0.00     0.245 C 
ATOM      5  O   UNL A   1      33.578  21.732  27.748  1.00  0.00    -0.273 OA
ATOM      6  H   UNL A   1      35.921  21.604  27.297  1.00  0.00     0.163 HD
BRANCH   4   7
ATOM      7  C   UNL A   1      33.139  20.853  25.520  1.00  0.00     0.208 C 
BRANCH   7   8
ATOM      8  N   UNL A   1      32.002  21.788  25.415  1.00  0.00    -0.307 N 
ATOM      9  C   UNL A   1      31.845  22.827  24.555  1.00  0.00     0.408 C 
ATOM     10  O   UNL A   1      30.843  23.529  24.608  1.00  0.00    -0.225 OA
ATOM     11  H   UNL A   1      31.263  21.639  26.050  1.00  0.00     0.168 HD
BRANCH   9  12
ATOM     12  O   UNL A   1      32.893  23.003  23.720  1.00  0.00    -0.444 OA
BRANCH  12  13
ATOM     13  C   UNL A   1      33.663  24.238  23.746  1.00  0.00     0.106 C 
ATOM     14  C   UNL A   1      35.016  23.880  23.112  1.00  0.00     0.056 C 
ATOM     15  C   UNL A   1      33.924  24.713  25.181  1.00  0.00     0.056 C 
ATOM     16  C   UNL A   1      32.994  25.324  22.898  1.00  0.00     0.056 C 
ENDBRANCH  12  13
ENDBRANCH   9  12
ENDBRANCH   7   8
BRANCH   7  17
ATOM     17  C   UNL A   1      32.607  19.407  25.778  1.00  0.00     0.179 C 
BRANCH  17  18
ATOM     18  C   UNL A   1      33.102  18.453  24.708  1.00  0.00     0.019 A 
ATOM     19  C   UNL A   1      33.954  17.390  25.050  1.00  0.00     0.009 A 
ATOM     20  C   UNL A   1      32.701  18.573  23.371  1.00  0.00     0.129 A 
ATOM     21  C   UNL A   1      34.409  16.500  24.073  1.00  0.00     0.001 A 
ATOM     22  C   UNL A   1      33.171  17.703  22.391  1.00  0.00     0.039 A 
ATOM     23  F   UNL A   1      31.827  19.520  23.002  1.00  0.00    -0.207 F 
ATOM     24  C   UNL A   1      34.028  16.664  22.742  1.00  0.00     0.003 A 
ENDBRANCH  17  18
BRANCH  17  25
ATOM     25  O   UNL A   1      32.903  18.844  27.056  1.00  0.00    -0.386 OA
ATOM     26  H   UNL A   1      33.173  17.918  26.947  1.00  0.00     0.211 HD
ENDBRANCH  17  25
ENDBRANCH   7  17
ENDBRANCH   4   7
ENDBRANCH   2   3
ENDBRANCH   1   2
BRANCH   1  27
ATOM     27  C   UNL A   1      38.149  19.956  24.624  1.00  0.00     0.023 C 
BRANCH  27  28
ATOM     28  C   UNL A   1      39.109  20.108  25.797  1.00  0.00     0.116 C 
BRANCH  28  29
ATOM     29  N   UNL A   1      40.122  19.064  25.839  1.00  0.00    -0.352 N 
ATOM     30  C   UNL A   1      41.474  19.191  26.047  1.00  0.00     0.251 C 
ATOM     31  H   UNL A   1      39.796  18.146  25.701  1.00  0.00     0.163 HD
ATOM     32  O   UNL A   1      42.217  18.225  25.911  1.00  0.00    -0.269 OA
BRANCH  30  33
ATOM     33  C   UNL A   1      42.029  20.513  26.401  1.00  0.00     0.039 A 
ATOM     34  C   UNL A   1      42.438  21.368  25.376  1.00  0.00     0.014 A 
ATOM     35  C   UNL A   1      42.108  20.921  27.736  1.00  0.00     0.014 A 
ATOM     36  C   UNL A   1      42.868  22.658  25.687  1.00  0.00     0.010 A 
ATOM     37  C   UNL A   1      42.459  22.233  28.036  1.00  0.00     0.010 A 
ATOM     38  C   UNL A   1      42.845  23.116  27.016  1.00  0.00    -0.014 A 
BRANCH  38  39
ATOM     39  C   UNL A   1      43.212  24.515  27.352  1.00  0.00     0.031 A 
ATOM     40  C   UNL A   1      44.649  24.953  27.302  1.00  0.00     0.074 A 
ATOM     41  C   UNL A   1      42.256  25.375  27.756  1.00  0.00     0.049 A 
ATOM     42  N   UNL A   1      45.170  26.114  27.608  1.00  0.00    -0.248 NA
ATOM     43  C   UNL A   1      45.637  23.948  26.877  1.00  0.00     0.031 C 
ATOM     44  C   UNL A   1      40.834  25.058  27.894  1.00  0.00     0.029 A 
ATOM     45  N   UNL A   1      42.339  26.692  28.134  1.00  0.00    -0.354 N 
ATOM     46  C   UNL A   1      46.540  25.977  27.422  1.00  0.00     0.074 A 
ATOM     47  C   UNL A   1      46.778  24.604  27.032  1.00  0.00     0.031 C 
ATOM     48  C   UNL A   1      40.175  26.156  28.299  1.00  0.00     0.029 A 
ATOM     49  C   UNL A   1      41.131  27.241  28.493  1.00  0.00     0.049 A 
ATOM     50  H   UNL A   1      43.185  27.197  28.146  1.00  0.00     0.167 HD
ATOM     51  C   UNL A   1      47.509  26.915  27.541  1.00  0.00     0.037 A 
ATOM     52  C   UNL A   1      40.830  28.475  28.939  1.00  0.00     0.037 A 
ATOM     53  C   UNL A   1      47.266  28.285  27.911  1.00  0.00     0.049 A 
ATOM     54  C   UNL A   1      41.930  29.492  29.082  1.00  0.00     0.074 A 
ATOM     55  C   UNL A   1      48.174  29.325  28.002  1.00  0.00     0.029 A 
ATOM     56  N   UNL A   1      46.028  28.804  28.259  1.00  0.00    -0.354 N 
ATOM     57  N   UNL A   1      43.211  29.368  28.828  1.00  0.00    -0.248 NA
ATOM     58  C   UNL A   1      41.542  30.824  29.567  1.00  0.00     0.031 C 
ATOM     59  C   UNL A   1      47.497  30.458  28.460  1.00  0.00     0.029 A 
ATOM     60  C   UNL A   1      46.155  30.142  28.592  1.00  0.00     0.049 A 
ATOM     61  H   UNL A   1      45.184  28.296  28.266  1.00  0.00     0.167 HD
ATOM     62  C   UNL A   1      43.773  30.610  29.089  1.00  0.00     0.074 A 
ATOM     63  C   UNL A   1      42.691  31.479  29.504  1.00  0.00     0.031 C 
ATOM     64  C   UNL A   1      45.067  30.998  28.994  1.00  0.00     0.037 A 
BRANCH  51  65
ATOM     65  C   UNL A   1      48.924  26.495  27.267  1.00  0.00     0.057 A 
ATOM     66  C   UNL A   1      49.761  26.004  28.279  1.00  0.00     0.134 A 
ATOM     67  C   UNL A   1      49.439  26.526  25.965  1.00  0.00     0.134 A 
ATOM     68  F   UNL A   1      49.334  25.957  29.551  1.00  0.00    -0.206 F 
ATOM     69  C   UNL A   1      51.064  25.582  28.011  1.00  0.00     0.040 A 
ATOM     70  C   UNL A   1      50.730  26.079  25.679  1.00  0.00     0.040 A 
ATOM     71  F   UNL A   1      48.691  26.977  24.946  1.00  0.00    -0.206 F 
ATOM     72  C   UNL A   1      51.548  25.610  26.704  1.00  0.00     0.006 A 
ENDBRANCH  51  65
BRANCH  52  73
ATOM     73  C   UNL A   1      39.426  28.827  29.280  1.00  0.00     0.057 A 
ATOM     74  C   UNL A   1      38.930  28.654  30.578  1.00  0.00     0.134 A 
ATOM     75  C   UNL A   1      38.539  29.315  28.313  1.00  0.00     0.134 A 
ATOM     76  F   UNL A   1      39.725  28.173  31.545  1.00  0.00    -0.206 F 
ATOM     77  C   UNL A   1      37.598  28.921  30.895  1.00  0.00     0.040 A 
ATOM     78  C   UNL A   1      37.212  29.616  28.623  1.00  0.00     0.040 A 
ATOM     79  F   UNL A   1      38.952  29.512  27.053  1.00  0.00    -0.206 F 
ATOM     80  C   UNL A   1      36.734  29.409  29.915  1.00  0.00     0.006 A 
ENDBRANCH  52  73
BRANCH  64  81
ATOM     81  C   UNL A   1      45.382  32.435  29.301  1.00  0.00     0.057 A 
ATOM     82  C   UNL A   1      45.767  32.856  30.581  1.00  0.00     0.134 A 
ATOM     83  C   UNL A   1      45.336  33.405  28.291  1.00  0.00     0.134 A 
ATOM     84  F   UNL A   1      45.821  31.981  31.597  1.00  0.00    -0.206 F 
ATOM     85  C   UNL A   1      46.065  34.193  30.851  1.00  0.00     0.040 A 
ATOM     86  C   UNL A   1      45.661  34.737  28.541  1.00  0.00     0.040 A 
ATOM     87  F   UNL A   1      44.986  33.069  27.040  1.00  0.00    -0.206 F 
ATOM     88  C   UNL A   1      46.020  35.137  29.827  1.00  0.00     0.006 A 
ENDBRANCH  64  81
ENDBRANCH  38  39
ENDBRANCH  30  33
ENDBRANCH  28  29
ENDBRANCH  27  28
ENDBRANCH   1  27
TORSDOF 17
ENDMDL
MODEL 2
REMARK VINA RESULT:     -11.3      5.305     10.399
REMARK SMILES CC(C)(C)OC(=O)N[C@@H](C(=O)NCCCCNC(=O)c1ccc(-c2c3nc(c(-c4c(F)cccc4F)c4ccc([nH]4)c(-c4c(F)cccc4F)c4nc(c(-c5c(F)cccc5F)c5ccc2[nH]5)C=C4)C=C3)cc1)[C@H](O)c1ccccc1F
REMARK SMILES IDX 14 1 13 2 12 3 10 4 11 5 9 7 8 8 6 9 7 10 5 12 2 13 1 14
REMARK SMILES IDX 3 15 4 16 74 17 76 18 77 19 81 20 78 21 80 22 82 23 79 24
REMARK SMILES IDX 75 25 15 27 16 28 17 29 18 30 19 32 20 33 21 34 73 35 22 36
REMARK SMILES IDX 72 37 23 38 24 39 25 40 66 41 26 42 71 43 65 44 67 45 27 46
REMARK SMILES IDX 70 47 64 48 63 49 28 51 54 52 37 53 53 54 38 55 41 56 52 57
REMARK SMILES IDX 68 58 39 59 40 60 51 62 69 63 42 64 29 65 30 66 35 67 31 68
REMARK SMILES IDX 32 69 34 70 36 71 33 72 55 73 56 74 61 75 57 76 58 77 60 78
REMARK SMILES IDX 62 79 59 80 43 81 44 82 49 83 45 84 46 85 48 86 50 87 47 88
REMARK H PARENT 12 6 8 11 75 26 17 31 67 50 41 61
REMARK Flexibility Score: inf
ROOT
ATOM      1  C   UNL A   1      31.485  30.413  25.596  1.00  0.00     0.023 C 
ENDROOT
BRANCH   1   2
ATOM      2  C   UNL A   1      32.879  29.790  25.493  1.00  0.00     0.116 C 
BRANCH   2   3
ATOM      3  N   UNL A   1      33.276  29.668  24.105  1.00  0.00    -0.354 N 
ATOM      4  C   UNL A   1      33.161  28.582  23.283  1.00  0.00     0.245 C 
ATOM      5  O   UNL A   1      33.819  28.587  22.239  1.00  0.00    -0.273 OA
ATOM      6  H   UNL A   1      33.681  30.470  23.702  1.00  0.00     0.163 HD
BRANCH   4   7
ATOM      7  C   UNL A   1      32.275  27.391  23.693  1.00  0.00     0.208 C 
BRANCH   7   8
ATOM      8  N   UNL A   1      33.168  26.225  23.844  1.00  0.00    -0.307 N 
ATOM      9  C   UNL A   1      33.118  25.245  24.784  1.00  0.00     0.408 C 
ATOM     10  O   UNL A   1      33.952  24.348  24.787  1.00  0.00    -0.225 OA
ATOM     11  H   UNL A   1      33.891  26.148  23.179  1.00  0.00     0.168 HD
BRANCH   9  12
ATOM     12  O   UNL A   1      32.124  25.408  25.685  1.00  0.00    -0.444 OA
BRANCH  12  13
ATOM     13  C   UNL A   1      31.022  24.461  25.751  1.00  0.00     0.106 C 
ATOM     14  C   UNL A   1      29.804  25.294  26.184  1.00  0.00     0.056 C 
ATOM     15  C   UNL A   1      31.262  23.385  26.818  1.00  0.00     0.056 C 
ATOM     16  C   UNL A   1      30.735  23.848  24.377  1.00  0.00     0.056 C 
ENDBRANCH  12  13
ENDBRANCH   9  12
ENDBRANCH   7   8
BRANCH   7  17
ATOM     17  C   UNL A   1      31.171  27.071  22.634  1.00  0.00     0.179 C 
BRANCH  17  18
ATOM     18  C   UNL A   1      30.061  28.103  22.687  1.00  0.00     0.019 A 
ATOM     19  C   UNL A   1      30.280  29.401  22.200  1.00  0.00     0.009 A 
ATOM     20  C   UNL A   1      28.787  27.789  23.180  1.00  0.00     0.129 A 
ATOM     21  C   UNL A   1      29.261  30.358  22.236  1.00  0.00     0.001 A 
ATOM     22  C   UNL A   1      27.777  28.746  23.240  1.00  0.00     0.039 A 
ATOM     23  F   UNL A   1      28.498  26.546  23.585  1.00  0.00    -0.207 F 
ATOM     24  C   UNL A   1      28.014  30.033  22.768  1.00  0.00     0.003 A 
ENDBRANCH  17  18
BRANCH  17  25
ATOM     25  O   UNL A   1      31.610  26.950  21.282  1.00  0.00    -0.386 OA
ATOM     26  H   UNL A   1      31.150  27.606  20.733  1.00  0.00     0.211 HD
ENDBRANCH  17  25
ENDBRANCH   7  17
ENDBRANCH   4   7
ENDBRANCH   2   3
ENDBRANCH   1   2
BRANCH   1  27
ATOM     27  C   UNL A   1      31.366  31.479  26.687  1.00  0.00     0.023 C 
BRANCH  27  28
ATOM     28  C   UNL A   1      32.671  32.189  27.026  1.00  0.00     0.116 C 
BRANCH  28  29
ATOM     29  N   UNL A   1      32.482  33.594  27.357  1.00  0.00    -0.352 N 
ATOM     30  C   UNL A   1      33.147  34.350  28.291  1.00  0.00     0.251 C 
ATOM     31  H   UNL A   1      31.788  34.064  26.842  1.00  0.00     0.163 HD
ATOM     32  O   UNL A   1      32.772  35.489  28.550  1.00  0.00    -0.269 OA
BRANCH  30  33
ATOM     33  C   UNL A   1      34.297  33.763  29.009  1.00  0.00     0.039 A 
ATOM     34  C   UNL A   1      34.066  32.729  29.917  1.00  0.00     0.014 A 
ATOM     35  C   UNL A   1      35.598  34.206  28.758  1.00  0.00     0.014 A 
ATOM     36  C   UNL A   1      35.150  32.094  30.527  1.00  0.00     0.010 A 
ATOM     37  C   UNL A   1      36.678  33.520  29.303  1.00  0.00     0.010 A 
ATOM     38  C   UNL A   1      36.466  32.458  30.195  1.00  0.00    -0.014 A 
BRANCH  38  39
ATOM     39  C   UNL A   1      37.629  31.732  30.765  1.00  0.00     0.031 A 
ATOM     40  C   UNL A   1      38.109  32.044  32.155  1.00  0.00     0.074 A 
ATOM     41  C   UNL A   1      38.287  30.831  30.009  1.00  0.00     0.049 A 
ATOM     42  N   UNL A   1      39.135  31.554  32.805  1.00  0.00    -0.248 NA
ATOM     43  C   UNL A   1      37.354  33.059  32.908  1.00  0.00     0.031 C 
ATOM     44  C   UNL A   1      37.951  30.475  28.629  1.00  0.00     0.029 A 
ATOM     45  N   UNL A   1      39.383  30.054  30.292  1.00  0.00    -0.354 N 
ATOM     46  C   UNL A   1      39.152  32.204  34.032  1.00  0.00     0.074 A 
ATOM     47  C   UNL A   1      38.071  33.166  34.017  1.00  0.00     0.031 C 
ATOM     48  C   UNL A   1      38.804  29.533  28.196  1.00  0.00     0.029 A 
ATOM     49  C   UNL A   1      39.774  29.250  29.249  1.00  0.00     0.049 A 
ATOM     50  H   UNL A   1      39.845  30.071  31.162  1.00  0.00     0.167 HD
ATOM     51  C   UNL A   1      39.978  32.002  35.085  1.00  0.00     0.037 A 
ATOM     52  C   UNL A   1      40.806  28.390  29.147  1.00  0.00     0.037 A 
ATOM     53  C   UNL A   1      41.041  31.031  35.104  1.00  0.00     0.049 A 
ATOM     54  C   UNL A   1      41.721  28.200  30.327  1.00  0.00     0.074 A 
ATOM     55  C   UNL A   1      41.895  30.711  36.145  1.00  0.00     0.029 A 
ATOM     56  N   UNL A   1      41.401  30.231  34.031  1.00  0.00    -0.354 N 
ATOM     57  N   UNL A   1      41.677  28.768  31.509  1.00  0.00    -0.248 NA
ATOM     58  C   UNL A   1      42.826  27.244  30.161  1.00  0.00     0.031 C 
ATOM     59  C   UNL A   1      42.808  29.759  35.684  1.00  0.00     0.029 A 
ATOM     60  C   UNL A   1      42.483  29.437  34.377  1.00  0.00     0.049 A 
ATOM     61  H   UNL A   1      40.953  30.225  33.154  1.00  0.00     0.167 HD
ATOM     62  C   UNL A   1      42.724  28.214  32.235  1.00  0.00     0.074 A 
ATOM     63  C   UNL A   1      43.373  27.254  31.368  1.00  0.00     0.031 C 
ATOM     64  C   UNL A   1      43.113  28.477  33.506  1.00  0.00     0.037 A 
BRANCH  51  65
ATOM     65  C   UNL A   1      39.767  32.846  36.310  1.00  0.00     0.057 A 
ATOM     66  C   UNL A   1      40.457  34.049  36.509  1.00  0.00     0.134 A 
ATOM     67  C   UNL A   1      38.819  32.480  37.274  1.00  0.00     0.134 A 
ATOM     68  F   UNL A   1      41.387  34.453  35.629  1.00  0.00    -0.206 F 
ATOM     69  C   UNL A   1      40.230  34.846  37.632  1.00  0.00     0.040 A 
ATOM     70  C   UNL A   1      38.561  33.283  38.386  1.00  0.00     0.040 A 
ATOM     71  F   UNL A   1      38.116  31.344  37.144  1.00  0.00    -0.206 F 
ATOM     72  C   UNL A   1      39.271  34.467  38.570  1.00  0.00     0.006 A 
ENDBRANCH  51  65
BRANCH  52  73
ATOM     73  C   UNL A   1      41.031  27.634  27.887  1.00  0.00     0.057 A 
ATOM     74  C   UNL A   1      41.793  28.176  26.844  1.00  0.00     0.134 A 
ATOM     75  C   UNL A   1      40.467  26.369  27.681  1.00  0.00     0.134 A 
ATOM     76  F   UNL A   1      42.345  29.390  26.972  1.00  0.00    -0.206 F 
ATOM     77  C   UNL A   1      41.959  27.502  25.633  1.00  0.00     0.040 A 
ATOM     78  C   UNL A   1      40.650  25.672  26.487  1.00  0.00     0.040 A 
ATOM     79  F   UNL A   1      39.734  25.791  28.643  1.00  0.00    -0.206 F 
ATOM     80  C   UNL A   1      41.389  26.243  25.453  1.00  0.00     0.006 A 
ENDBRANCH  52  73
BRANCH  64  81
ATOM     81  C   UNL A   1      44.266  27.685  34.054  1.00  0.00     0.057 A 
ATOM     82  C   UNL A   1      45.583  28.160  34.009  1.00  0.00     0.134 A 
ATOM     83  C   UNL A   1      44.049  26.444  34.667  1.00  0.00     0.134 A 
ATOM     84  F   UNL A   1      45.863  29.336  33.426  1.00  0.00    -0.206 F 
ATOM     85  C   UNL A   1      46.645  27.417  34.529  1.00  0.00     0.040 A 
ATOM     86  C   UNL A   1      45.097  25.707  35.218  1.00  0.00     0.040 A 
ATOM     87  F   UNL A   1      42.811  25.934  34.754  1.00  0.00    -0.206 F 
ATOM     88  C   UNL A   1      46.402  26.190  35.143  1.00  0.00     0.006 A 
ENDBRANCH  64  81
ENDBRANCH  38  39
ENDBRANCH  30  33
ENDBRANCH  28  29
ENDBRANCH  27  28
ENDBRANCH   1  27
TORSDOF 17
ENDMDL
MODEL 3
REMARK VINA RESULT:     -11.2      5.355      9.602
REMARK SMILES CC(C)(C)OC(=O)N[C@@H](C(=O)NCCCCNC(=O)c1ccc(-c2c3nc(c(-c4c(F)cccc4F)c4ccc([nH]4)c(-c4c(F)cccc4F)c4nc(c(-c5c(F)cccc5F)c5ccc2[nH]5)C=C4)C=C3)cc1)[C@H](O)c1ccccc1F
REMARK SMILES IDX 14 1 13 2 12 3 10 4 11 5 9 7 8 8 6 9 7 10 5 12 2 13 1 14
REMARK SMILES IDX 3 15 4 16 74 17 76 18 77 19 81 20 78 21 80 22 82 23 79 24
REMARK SMILES IDX 75 25 15 27 16 28 17 29 18 30 19 32 20 33 21 34 73 35 22 36
REMARK SMILES IDX 72 37 23 38 24 39 25 40 66 41 26 42 71 43 65 44 67 45 27 46
REMARK SMILES IDX 70 47 64 48 63 49 28 51 54 52 37 53 53 54 38 55 41 56 52 57
REMARK SMILES IDX 68 58 39 59 40 60 51 62 69 63 42 64 29 65 30 66 35 67 31 68
REMARK SMILES IDX 32 69 34 70 36 71 33 72 55 73 56 74 61 75 57 76 58 77 60 78
REMARK SMILES IDX 62 79 59 80 43 81 44 82 49 83 45 84 46 85 48 86 50 87 47 88
REMARK H PARENT 12 6 8 11 75 26 17 31 67 50 41 61
REMARK Flexibility Score: inf
ROOT
ATOM      1  C   UNL A   1      31.202  30.479  25.616  1.00  0.00     0.023 C 
ENDROOT
BRANCH   1   2
ATOM      2  C   UNL A   1      32.572  29.802  25.685  1.00  0.00     0.116 C 
BRANCH   2   3
ATOM      3  N   UNL A   1      33.155  29.706  24.361  1.00  0.00    -0.354 N 
ATOM      4  C   UNL A   1      33.212  28.618  23.537  1.00  0.00     0.245 C 
ATOM      5  O   UNL A   1      34.000  28.663  22.589  1.00  0.00    -0.273 OA
ATOM      6  H   UNL A   1      33.562  30.532  24.011  1.00  0.00     0.163 HD
BRANCH   4   7
ATOM      7  C   UNL A   1      32.350  27.376  23.833  1.00  0.00     0.208 C 
BRANCH   7   8
ATOM      8  N   UNL A   1      33.279  26.244  24.015  1.00  0.00    -0.307 N 
ATOM      9  C   UNL A   1      33.223  25.251  24.942  1.00  0.00     0.408 C 
ATOM     10  O   UNL A   1      34.089  24.387  24.976  1.00  0.00    -0.225 OA
ATOM     11  H   UNL A   1      34.035  26.201  23.385  1.00  0.00     0.168 HD
BRANCH   9  12
ATOM     12  O   UNL A   1      32.182  25.366  25.796  1.00  0.00    -0.444 OA
BRANCH  12  13
ATOM     13  C   UNL A   1      31.120  24.371  25.808  1.00  0.00     0.106 C 
ATOM     14  C   UNL A   1      29.852  25.143  26.203  1.00  0.00     0.056 C 
ATOM     15  C   UNL A   1      31.367  23.292  26.872  1.00  0.00     0.056 C 
ATOM     16  C   UNL A   1      30.914  23.764  24.417  1.00  0.00     0.056 C 
ENDBRANCH  12  13
ENDBRANCH   9  12
ENDBRANCH   7   8
BRANCH   7  17
ATOM     17  C   UNL A   1      31.348  27.052  22.680  1.00  0.00     0.179 C 
BRANCH  17  18
ATOM     18  C   UNL A   1      30.214  28.059  22.654  1.00  0.00     0.019 A 
ATOM     19  C   UNL A   1      30.415  29.334  22.100  1.00  0.00     0.009 A 
ATOM     20  C   UNL A   1      28.937  27.743  23.136  1.00  0.00     0.129 A 
ATOM     21  C   UNL A   1      29.374  30.266  22.064  1.00  0.00     0.001 A 
ATOM     22  C   UNL A   1      27.905  28.677  23.124  1.00  0.00     0.039 A 
ATOM     23  F   UNL A   1      28.667  26.516  23.603  1.00  0.00    -0.207 F 
ATOM     24  C   UNL A   1      28.123  29.942  22.587  1.00  0.00     0.003 A 
ENDBRANCH  17  18
BRANCH  17  25
ATOM     25  O   UNL A   1      31.903  26.964  21.368  1.00  0.00    -0.386 OA
ATOM     26  H   UNL A   1      31.287  26.488  20.787  1.00  0.00     0.211 HD
ENDBRANCH  17  25
ENDBRANCH   7  17
ENDBRANCH   4   7
ENDBRANCH   2   3
ENDBRANCH   1   2
BRANCH   1  27
ATOM     27  C   UNL A   1      31.119  31.786  26.409  1.00  0.00     0.023 C 
BRANCH  27  28
ATOM     28  C   UNL A   1      32.462  32.461  26.660  1.00  0.00     0.116 C 
BRANCH  28  29
ATOM     29  N   UNL A   1      32.329  33.780  27.261  1.00  0.00    -0.352 N 
ATOM     30  C   UNL A   1      33.069  34.336  28.276  1.00  0.00     0.251 C 
ATOM     31  H   UNL A   1      31.617  34.348  26.890  1.00  0.00     0.163 HD
ATOM     32  O   UNL A   1      32.739  35.410  28.768  1.00  0.00    -0.269 OA
BRANCH  30  33
ATOM     33  C   UNL A   1      34.246  33.609  28.794  1.00  0.00     0.039 A 
ATOM     34  C   UNL A   1      35.504  34.205  28.688  1.00  0.00     0.014 A 
ATOM     35  C   UNL A   1      34.102  32.365  29.414  1.00  0.00     0.014 A 
ATOM     36  C   UNL A   1      36.611  33.579  29.262  1.00  0.00     0.010 A 
ATOM     37  C   UNL A   1      35.190  31.785  30.056  1.00  0.00     0.010 A 
ATOM     38  C   UNL A   1      36.457  32.384  29.986  1.00  0.00    -0.014 A 
BRANCH  38  39
ATOM     39  C   UNL A   1      37.609  31.754  30.680  1.00  0.00     0.031 A 
ATOM     40  C   UNL A   1      38.416  30.687  29.994  1.00  0.00     0.074 A 
ATOM     41  C   UNL A   1      37.894  32.105  31.950  1.00  0.00     0.049 A 
ATOM     42  N   UNL A   1      39.421  29.986  30.454  1.00  0.00    -0.248 NA
ATOM     43  C   UNL A   1      38.027  30.340  28.617  1.00  0.00     0.031 C 
ATOM     44  C   UNL A   1      37.157  33.091  32.742  1.00  0.00     0.029 A 
ATOM     45  N   UNL A   1      38.876  31.665  32.802  1.00  0.00    -0.354 N 
ATOM     46  C   UNL A   1      39.777  29.116  29.433  1.00  0.00     0.074 A 
ATOM     47  C   UNL A   1      38.844  29.333  28.348  1.00  0.00     0.031 C 
ATOM     48  C   UNL A   1      37.728  33.201  33.952  1.00  0.00     0.029 A 
ATOM     49  C   UNL A   1      38.842  32.262  34.039  1.00  0.00     0.049 A 
ATOM     50  H   UNL A   1      39.543  30.986  32.550  1.00  0.00     0.167 HD
ATOM     51  C   UNL A   1      40.802  28.232  29.392  1.00  0.00     0.037 A 
ATOM     52  C   UNL A   1      39.614  32.067  35.125  1.00  0.00     0.037 A 
ATOM     53  C   UNL A   1      41.740  28.033  30.465  1.00  0.00     0.049 A 
ATOM     54  C   UNL A   1      40.734  31.064  35.059  1.00  0.00     0.074 A 
ATOM     55  C   UNL A   1      42.847  27.203  30.496  1.00  0.00     0.029 A 
ATOM     56  N   UNL A   1      41.677  28.662  31.699  1.00  0.00    -0.354 N 
ATOM     57  N   UNL A   1      41.105  30.302  34.057  1.00  0.00    -0.248 NA
ATOM     58  C   UNL A   1      41.547  30.897  36.271  1.00  0.00     0.031 C 
ATOM     59  C   UNL A   1      43.420  27.286  31.769  1.00  0.00     0.029 A 
ATOM     60  C   UNL A   1      42.710  28.217  32.508  1.00  0.00     0.049 A 
ATOM     61  H   UNL A   1      41.000  29.327  31.960  1.00  0.00     0.167 HD
ATOM     62  C   UNL A   1      42.211  29.594  34.507  1.00  0.00     0.074 A 
ATOM     63  C   UNL A   1      42.462  30.030  35.865  1.00  0.00     0.031 C 
ATOM     64  C   UNL A   1      42.954  28.667  33.856  1.00  0.00     0.037 A 
BRANCH  51  65
ATOM     65  C   UNL A   1      40.968  27.413  28.144  1.00  0.00     0.057 A 
ATOM     66  C   UNL A   1      40.311  26.187  27.970  1.00  0.00     0.134 A 
ATOM     67  C   UNL A   1      41.747  27.883  27.079  1.00  0.00     0.134 A 
ATOM     68  F   UNL A   1      39.557  25.674  28.954  1.00  0.00    -0.206 F 
ATOM     69  C   UNL A   1      40.442  25.448  26.793  1.00  0.00     0.040 A 
ATOM     70  C   UNL A   1      41.862  27.168  25.886  1.00  0.00     0.040 A 
ATOM     71  F   UNL A   1      42.398  29.053  27.174  1.00  0.00    -0.206 F 
ATOM     72  C   UNL A   1      41.212  25.944  25.743  1.00  0.00     0.006 A 
ENDBRANCH  51  65
BRANCH  52  73
ATOM     73  C   UNL A   1      39.365  32.839  36.371  1.00  0.00     0.057 A 
ATOM     74  C   UNL A   1      38.445  32.393  37.328  1.00  0.00     0.134 A 
ATOM     75  C   UNL A   1      40.014  34.054  36.621  1.00  0.00     0.134 A 
ATOM     76  F   UNL A   1      37.777  31.246  37.139  1.00  0.00    -0.206 F 
ATOM     77  C   UNL A   1      38.156  33.141  38.471  1.00  0.00     0.040 A 
ATOM     78  C   UNL A   1      39.758  34.797  37.775  1.00  0.00     0.040 A 
ATOM     79  F   UNL A   1      40.913  34.534  35.749  1.00  0.00    -0.206 F 
ATOM     80  C   UNL A   1      38.818  34.346  38.699  1.00  0.00     0.006 A 
ENDBRANCH  52  73
BRANCH  64  81
ATOM     81  C   UNL A   1      44.135  28.092  34.584  1.00  0.00     0.057 A 
ATOM     82  C   UNL A   1      45.396  28.702  34.555  1.00  0.00     0.134 A 
ATOM     83  C   UNL A   1      43.999  26.930  35.355  1.00  0.00     0.134 A 
ATOM     84  F   UNL A   1      45.599  29.811  33.828  1.00  0.00    -0.206 F 
ATOM     85  C   UNL A   1      46.484  28.161  35.244  1.00  0.00     0.040 A 
ATOM     86  C   UNL A   1      45.070  26.398  36.072  1.00  0.00     0.040 A 
ATOM     87  F   UNL A   1      42.817  26.300  35.435  1.00  0.00    -0.206 F 
ATOM     88  C   UNL A   1      46.320  27.010  36.011  1.00  0.00     0.006 A 
ENDBRANCH  64  81
ENDBRANCH  38  39
ENDBRANCH  30  33
ENDBRANCH  28  29
ENDBRANCH  27  28
ENDBRANCH   1  27
TORSDOF 17
ENDMDL
