MODEL 1
REMARK VINA RESULT:     -11.5      0.000      0.000
REMARK SMILES O=C(NCCCCNC(=O)c1ccc2ncccc2n1)c1ccc(-c2c3nc(c(-c4c(F)cccc4F)c4ccc([nH]4)c(-c4c(F)cccc4F)c4nc(c(-c5c(F)cccc5F)c5ccc2[nH]5)C=C4)C=C3)cc1
REMARK SMILES IDX 4 1 3 2 1 3 2 4 21 6 22 7 74 8 23 9 73 10 24 11 25 12 26 13
REMARK SMILES IDX 67 14 27 15 72 16 66 17 68 18 28 19 71 20 65 21 64 22 29 24
REMARK SMILES IDX 55 25 38 26 54 27 39 28 42 29 53 30 69 31 40 32 41 33 52 35
REMARK SMILES IDX 70 36 43 37 30 38 31 39 36 40 32 41 33 42 35 43 37 44 34 45
REMARK SMILES IDX 56 46 57 47 62 48 58 49 59 50 61 51 63 52 60 53 44 54 45 55
REMARK SMILES IDX 50 56 46 57 47 58 49 59 51 60 48 61 5 62 6 63 7 64 8 65 9 66
REMARK SMILES IDX 10 68 11 69 12 70 20 71 13 72 19 73 14 74 18 75 15 76 17 77
REMARK SMILES IDX 16 78
REMARK H PARENT 3 5 68 23 42 34 8 67
REMARK Flexibility Score: inf
ROOT
ATOM      1  C   UNL A   1      39.133  20.027  25.831  1.00  0.00     0.116 C 
ENDROOT
BRANCH   1   2
ATOM      2  N   UNL A   1      40.222  19.062  25.802  1.00  0.00    -0.352 N 
ATOM      3  O   UNL A   1      42.358  18.344  25.751  1.00  0.00    -0.269 OA
ATOM      4  C   UNL A   1      41.569  19.259  25.973  1.00  0.00     0.251 C 
ATOM      5  H   UNL A   1      39.953  18.130  25.635  1.00  0.00     0.163 HD
BRANCH   4   6
ATOM      6  C   UNL A   1      42.075  20.580  26.399  1.00  0.00     0.039 A 
ATOM      7  C   UNL A   1      42.246  20.881  27.753  1.00  0.00     0.014 A 
ATOM      8  C   UNL A   1      42.397  21.525  25.421  1.00  0.00     0.014 A 
ATOM      9  C   UNL A   1      42.610  22.169  28.136  1.00  0.00     0.010 A 
ATOM     10  C   UNL A   1      42.839  22.792  25.805  1.00  0.00     0.010 A 
ATOM     11  C   UNL A   1      42.922  23.132  27.166  1.00  0.00    -0.014 A 
BRANCH  11  12
ATOM     12  C   UNL A   1      43.386  24.481  27.570  1.00  0.00     0.031 A 
ATOM     13  C   UNL A   1      42.405  25.534  27.997  1.00  0.00     0.074 A 
ATOM     14  C   UNL A   1      44.698  24.768  27.504  1.00  0.00     0.049 A 
ATOM     15  N   UNL A   1      42.615  26.796  28.274  1.00  0.00    -0.248 NA
ATOM     16  C   UNL A   1      41.000  25.117  28.117  1.00  0.00     0.031 C 
ATOM     17  C   UNL A   1      45.746  23.827  27.104  1.00  0.00     0.029 A 
ATOM     18  N   UNL A   1      45.374  25.936  27.750  1.00  0.00    -0.354 N 
ATOM     19  C   UNL A   1      41.368  27.331  28.574  1.00  0.00     0.074 A 
ATOM     20  C   UNL A   1      40.405  26.261  28.421  1.00  0.00     0.031 C 
ATOM     21  C   UNL A   1      46.930  24.453  27.130  1.00  0.00     0.029 A 
ATOM     22  C   UNL A   1      46.718  25.853  27.482  1.00  0.00     0.049 A 
ATOM     23  H   UNL A   1      44.939  26.754  28.084  1.00  0.00     0.167 HD
ATOM     24  C   UNL A   1      41.060  28.597  28.944  1.00  0.00     0.037 A 
ATOM     25  C   UNL A   1      47.670  26.804  27.477  1.00  0.00     0.037 A 
ATOM     26  C   UNL A   1      42.030  29.654  29.089  1.00  0.00     0.049 A 
ATOM     27  C   UNL A   1      47.302  28.212  27.839  1.00  0.00     0.074 A 
ATOM     28  C   UNL A   1      41.828  30.959  29.501  1.00  0.00     0.029 A 
ATOM     29  N   UNL A   1      43.385  29.528  28.811  1.00  0.00    -0.354 N 
ATOM     30  N   UNL A   1      46.128  28.699  28.161  1.00  0.00    -0.248 NA
ATOM     31  C   UNL A   1      48.386  29.203  27.841  1.00  0.00     0.031 C 
ATOM     32  C   UNL A   1      43.046  31.641  29.407  1.00  0.00     0.029 A 
ATOM     33  C   UNL A   1      44.023  30.743  29.007  1.00  0.00     0.049 A 
ATOM     34  H   UNL A   1      43.827  28.699  28.516  1.00  0.00     0.167 HD
ATOM     35  C   UNL A   1      46.335  30.045  28.432  1.00  0.00     0.074 A 
ATOM     36  C   UNL A   1      47.748  30.297  28.235  1.00  0.00     0.031 C 
ATOM     37  C   UNL A   1      45.433  30.980  28.818  1.00  0.00     0.037 A 
BRANCH  24  38
ATOM     38  C   UNL A   1      39.609  28.918  29.172  1.00  0.00     0.057 A 
ATOM     39  C   UNL A   1      39.015  28.836  30.439  1.00  0.00     0.134 A 
ATOM     40  C   UNL A   1      38.795  29.324  28.107  1.00  0.00     0.134 A 
ATOM     41  F   UNL A   1      39.733  28.448  31.504  1.00  0.00    -0.206 F 
ATOM     42  C   UNL A   1      37.656  29.101  30.628  1.00  0.00     0.040 A 
ATOM     43  C   UNL A   1      37.444  29.622  28.289  1.00  0.00     0.040 A 
ATOM     44  F   UNL A   1      39.299  29.438  26.869  1.00  0.00    -0.206 F 
ATOM     45  C   UNL A   1      36.867  29.498  29.551  1.00  0.00     0.006 A 
ENDBRANCH  24  38
BRANCH  25  46
ATOM     46  C   UNL A   1      49.055  26.435  27.095  1.00  0.00     0.057 A 
ATOM     47  C   UNL A   1      49.984  26.018  28.052  1.00  0.00     0.134 A 
ATOM     48  C   UNL A   1      49.461  26.431  25.754  1.00  0.00     0.134 A 
ATOM     49  F   UNL A   1      49.657  26.010  29.352  1.00  0.00    -0.206 F 
ATOM     50  C   UNL A   1      51.269  25.610  27.691  1.00  0.00     0.040 A 
ATOM     51  C   UNL A   1      50.733  26.003  25.376  1.00  0.00     0.040 A 
ATOM     52  F   UNL A   1      48.609  26.807  24.788  1.00  0.00    -0.206 F 
ATOM     53  C   UNL A   1      51.643  25.592  26.348  1.00  0.00     0.006 A 
ENDBRANCH  25  46
BRANCH  37  54
ATOM     54  C   UNL A   1      45.946  32.361  29.109  1.00  0.00     0.057 A 
ATOM     55  C   UNL A   1      45.949  33.373  28.142  1.00  0.00     0.134 A 
ATOM     56  C   UNL A   1      46.364  32.700  30.403  1.00  0.00     0.134 A 
ATOM     57  F   UNL A   1      45.574  33.113  26.880  1.00  0.00    -0.206 F 
ATOM     58  C   UNL A   1      46.354  34.674  28.452  1.00  0.00     0.040 A 
ATOM     59  C   UNL A   1      46.747  34.000  30.731  1.00  0.00     0.040 A 
ATOM     60  F   UNL A   1      46.380  31.776  31.376  1.00  0.00    -0.206 F 
ATOM     61  C   UNL A   1      46.742  34.993  29.752  1.00  0.00     0.006 A 
ENDBRANCH  37  54
ENDBRANCH  11  12
ENDBRANCH   4   6
ENDBRANCH   1   2
BRANCH   1  62
ATOM     62  C   UNL A   1      37.934  19.586  25.001  1.00  0.00     0.023 C 
BRANCH  62  63
ATOM     63  C   UNL A   1      36.959  20.699  24.625  1.00  0.00     0.023 C 
BRANCH  63  64
ATOM     64  C   UNL A   1      36.707  21.740  25.712  1.00  0.00     0.116 C 
BRANCH  64  65
ATOM     65  N   UNL A   1      35.521  21.455  26.501  1.00  0.00    -0.351 N 
ATOM     66  C   UNL A   1      34.235  21.920  26.324  1.00  0.00     0.269 C 
ATOM     67  H   UNL A   1      35.654  20.848  27.265  1.00  0.00     0.163 HD
ATOM     68  O   UNL A   1      33.373  21.639  27.151  1.00  0.00    -0.268 OA
BRANCH  66  69
ATOM     69  C   UNL A   1      33.908  22.745  25.126  1.00  0.00     0.129 A 
ATOM     70  C   UNL A   1      33.652  22.132  23.908  1.00  0.00     0.036 A 
ATOM     71  N   UNL A   1      33.912  24.087  25.303  1.00  0.00    -0.241 NA
ATOM     72  C   UNL A   1      33.454  22.950  22.798  1.00  0.00     0.033 A 
ATOM     73  C   UNL A   1      33.684  24.850  24.217  1.00  0.00     0.090 A 
ATOM     74  C   UNL A   1      33.470  24.329  22.921  1.00  0.00     0.089 A 
ATOM     75  C   UNL A   1      33.656  26.229  24.340  1.00  0.00     0.032 A 
ATOM     76  N   UNL A   1      33.281  25.093  21.828  1.00  0.00    -0.255 NA
ATOM     77  C   UNL A   1      33.450  27.043  23.228  1.00  0.00     0.022 A 
ATOM     78  C   UNL A   1      33.278  26.431  22.001  1.00  0.00     0.112 A 
ENDBRANCH  66  69
ENDBRANCH  64  65
ENDBRANCH  63  64
ENDBRANCH  62  63
ENDBRANCH   1  62
TORSDOF 11
ENDMDL
MODEL 2
REMARK VINA RESULT:     -11.4      5.393     10.392
REMARK SMILES O=C(NCCCCNC(=O)c1ccc2ncccc2n1)c1ccc(-c2c3nc(c(-c4c(F)cccc4F)c4ccc([nH]4)c(-c4c(F)cccc4F)c4nc(c(-c5c(F)cccc5F)c5ccc2[nH]5)C=C4)C=C3)cc1
REMARK SMILES IDX 4 1 3 2 1 3 2 4 21 6 22 7 74 8 23 9 73 10 24 11 25 12 26 13
REMARK SMILES IDX 67 14 27 15 72 16 66 17 68 18 28 19 71 20 65 21 64 22 29 24
REMARK SMILES IDX 55 25 38 26 54 27 39 28 42 29 53 30 69 31 40 32 41 33 52 35
REMARK SMILES IDX 70 36 43 37 30 38 31 39 36 40 32 41 33 42 35 43 37 44 34 45
REMARK SMILES IDX 56 46 57 47 62 48 58 49 59 50 61 51 63 52 60 53 44 54 45 55
REMARK SMILES IDX 50 56 46 57 47 58 49 59 51 60 48 61 5 62 6 63 7 64 8 65 9 66
REMARK SMILES IDX 10 68 11 69 12 70 20 71 13 72 19 73 14 74 18 75 15 76 17 77
REMARK SMILES IDX 16 78
REMARK H PARENT 3 5 68 23 42 34 8 67
REMARK Flexibility Score: inf
ROOT
ATOM      1  C   UNL A   1      32.622  32.512  27.205  1.00  0.00     0.116 C 
ENDROOT
BRANCH   1   2
ATOM      2  N   UNL A   1      32.450  33.890  27.641  1.00  0.00    -0.352 N 
ATOM      3  O   UNL A   1      32.754  35.710  28.935  1.00  0.00    -0.269 OA
ATOM      4  C   UNL A   1      33.150  34.601  28.583  1.00  0.00     0.251 C 
ATOM      5  H   UNL A   1      31.726  34.384  27.195  1.00  0.00     0.163 HD
BRANCH   4   6
ATOM      6  C   UNL A   1      34.364  34.025  29.194  1.00  0.00     0.039 A 
ATOM      7  C   UNL A   1      35.637  34.437  28.790  1.00  0.00     0.014 A 
ATOM      8  C   UNL A   1      34.222  33.066  30.201  1.00  0.00     0.014 A 
ATOM      9  C   UNL A   1      36.766  33.797  29.293  1.00  0.00     0.010 A 
ATOM     10  C   UNL A   1      35.358  32.481  30.762  1.00  0.00     0.010 A 
ATOM     11  C   UNL A   1      36.637  32.822  30.293  1.00  0.00    -0.014 A 
BRANCH  11  12
ATOM     12  C   UNL A   1      37.842  32.194  30.888  1.00  0.00     0.031 A 
ATOM     13  C   UNL A   1      38.564  31.090  30.173  1.00  0.00     0.074 A 
ATOM     14  C   UNL A   1      38.255  32.595  32.103  1.00  0.00     0.049 A 
ATOM     15  N   UNL A   1      39.560  30.349  30.587  1.00  0.00    -0.248 NA
ATOM     16  C   UNL A   1      38.096  30.766  28.817  1.00  0.00     0.031 C 
ATOM     17  C   UNL A   1      37.634  33.659  32.894  1.00  0.00     0.029 A 
ATOM     18  N   UNL A   1      39.278  32.142  32.896  1.00  0.00    -0.354 N 
ATOM     19  C   UNL A   1      39.822  29.454  29.557  1.00  0.00     0.074 A 
ATOM     20  C   UNL A   1      38.862  29.730  28.509  1.00  0.00     0.031 C 
ATOM     21  C   UNL A   1      38.287  33.777  34.059  1.00  0.00     0.029 A 
ATOM     22  C   UNL A   1      39.326  32.756  34.124  1.00  0.00     0.049 A 
ATOM     23  H   UNL A   1      39.915  31.447  32.614  1.00  0.00     0.167 HD
ATOM     24  C   UNL A   1      40.776  28.495  29.495  1.00  0.00     0.037 A 
ATOM     25  C   UNL A   1      40.090  32.498  35.202  1.00  0.00     0.037 A 
ATOM     26  C   UNL A   1      41.723  28.230  30.549  1.00  0.00     0.049 A 
ATOM     27  C   UNL A   1      41.107  31.398  35.134  1.00  0.00     0.074 A 
ATOM     28  C   UNL A   1      42.756  27.310  30.569  1.00  0.00     0.029 A 
ATOM     29  N   UNL A   1      41.741  28.876  31.779  1.00  0.00    -0.354 N 
ATOM     30  N   UNL A   1      41.374  30.584  34.141  1.00  0.00    -0.248 NA
ATOM     31  C   UNL A   1      41.930  31.178  36.330  1.00  0.00     0.031 C 
ATOM     32  C   UNL A   1      43.356  27.352  31.832  1.00  0.00     0.029 A 
ATOM     33  C   UNL A   1      42.744  28.348  32.576  1.00  0.00     0.049 A 
ATOM     34  H   UNL A   1      41.129  29.600  32.045  1.00  0.00     0.167 HD
ATOM     35  C   UNL A   1      42.414  29.776  34.580  1.00  0.00     0.074 A 
ATOM     36  C   UNL A   1      42.728  30.197  35.931  1.00  0.00     0.031 C 
ATOM     37  C   UNL A   1      43.054  28.783  33.916  1.00  0.00     0.037 A 
BRANCH  24  38
ATOM     38  C   UNL A   1      40.811  27.631  28.265  1.00  0.00     0.057 A 
ATOM     39  C   UNL A   1      41.566  27.970  27.134  1.00  0.00     0.134 A 
ATOM     40  C   UNL A   1      40.081  26.437  28.214  1.00  0.00     0.134 A 
ATOM     41  F   UNL A   1      42.285  29.104  27.110  1.00  0.00    -0.206 F 
ATOM     42  C   UNL A   1      41.558  27.178  25.984  1.00  0.00     0.040 A 
ATOM     43  C   UNL A   1      40.090  25.619  27.083  1.00  0.00     0.040 A 
ATOM     44  F   UNL A   1      39.346  26.042  29.265  1.00  0.00    -0.206 F 
ATOM     45  C   UNL A   1      40.821  25.996  25.958  1.00  0.00     0.006 A 
ENDBRANCH  24  38
BRANCH  25  46
ATOM     46  C   UNL A   1      39.892  33.301  36.433  1.00  0.00     0.057 A 
ATOM     47  C   UNL A   1      40.601  34.486  36.648  1.00  0.00     0.134 A 
ATOM     48  C   UNL A   1      38.942  32.931  37.394  1.00  0.00     0.134 A 
ATOM     49  F   UNL A   1      41.531  34.886  35.769  1.00  0.00    -0.206 F 
ATOM     50  C   UNL A   1      40.374  35.277  37.776  1.00  0.00     0.040 A 
ATOM     51  C   UNL A   1      38.686  33.724  38.513  1.00  0.00     0.040 A 
ATOM     52  F   UNL A   1      38.220  31.811  37.237  1.00  0.00    -0.206 F 
ATOM     53  C   UNL A   1      39.406  34.901  38.706  1.00  0.00     0.006 A 
ENDBRANCH  25  46
BRANCH  37  54
ATOM     54  C   UNL A   1      44.199  28.106  34.613  1.00  0.00     0.057 A 
ATOM     55  C   UNL A   1      44.035  26.921  35.339  1.00  0.00     0.134 A 
ATOM     56  C   UNL A   1      45.500  28.610  34.482  1.00  0.00     0.134 A 
ATOM     57  F   UNL A   1      42.813  26.393  35.514  1.00  0.00    -0.206 F 
ATOM     58  C   UNL A   1      45.124  26.263  35.914  1.00  0.00     0.040 A 
ATOM     59  C   UNL A   1      46.599  27.948  35.030  1.00  0.00     0.040 A 
ATOM     60  F   UNL A   1      45.727  29.740  33.795  1.00  0.00    -0.206 F 
ATOM     61  C   UNL A   1      46.412  26.769  35.749  1.00  0.00     0.006 A 
ENDBRANCH  37  54
ENDBRANCH  11  12
ENDBRANCH   4   6
ENDBRANCH   1   2
BRANCH   1  62
ATOM     62  C   UNL A   1      31.404  31.974  26.463  1.00  0.00     0.023 C 
BRANCH  62  63
ATOM     63  C   UNL A   1      31.468  30.493  26.098  1.00  0.00     0.023 C 
BRANCH  63  64
ATOM     64  C   UNL A   1      32.863  29.957  25.786  1.00  0.00     0.116 C 
BRANCH  64  65
ATOM     65  N   UNL A   1      33.056  29.679  24.373  1.00  0.00    -0.351 N 
ATOM     66  C   UNL A   1      32.845  28.499  23.690  1.00  0.00     0.269 C 
ATOM     67  H   UNL A   1      33.380  30.434  23.831  1.00  0.00     0.163 HD
ATOM     68  O   UNL A   1      33.150  28.426  22.503  1.00  0.00    -0.268 OA
BRANCH  66  69
ATOM     69  C   UNL A   1      32.237  27.337  24.398  1.00  0.00     0.129 A 
ATOM     70  C   UNL A   1      30.862  27.263  24.564  1.00  0.00     0.036 A 
ATOM     71  N   UNL A   1      33.100  26.410  24.878  1.00  0.00    -0.241 NA
ATOM     72  C   UNL A   1      30.354  26.211  25.321  1.00  0.00     0.033 A 
ATOM     73  C   UNL A   1      32.575  25.385  25.577  1.00  0.00     0.090 A 
ATOM     74  C   UNL A   1      31.195  25.248  25.852  1.00  0.00     0.089 A 
ATOM     75  C   UNL A   1      33.406  24.396  26.076  1.00  0.00     0.032 A 
ATOM     76  N   UNL A   1      30.674  24.245  26.586  1.00  0.00    -0.255 NA
ATOM     77  C   UNL A   1      32.891  23.341  26.826  1.00  0.00     0.022 A 
ATOM     78  C   UNL A   1      31.530  23.315  27.060  1.00  0.00     0.112 A 
ENDBRANCH  66  69
ENDBRANCH  64  65
ENDBRANCH  63  64
ENDBRANCH  62  63
ENDBRANCH   1  62
TORSDOF 11
ENDMDL
MODEL 3
REMARK VINA RESULT:     -11.4      4.550      9.560
REMARK SMILES O=C(NCCCCNC(=O)c1ccc2ncccc2n1)c1ccc(-c2c3nc(c(-c4c(F)cccc4F)c4ccc([nH]4)c(-c4c(F)cccc4F)c4nc(c(-c5c(F)cccc5F)c5ccc2[nH]5)C=C4)C=C3)cc1
REMARK SMILES IDX 4 1 3 2 1 3 2 4 21 6 22 7 74 8 23 9 73 10 24 11 25 12 26 13
REMARK SMILES IDX 67 14 27 15 72 16 66 17 68 18 28 19 71 20 65 21 64 22 29 24
REMARK SMILES IDX 55 25 38 26 54 27 39 28 42 29 53 30 69 31 40 32 41 33 52 35
REMARK SMILES IDX 70 36 43 37 30 38 31 39 36 40 32 41 33 42 35 43 37 44 34 45
REMARK SMILES IDX 56 46 57 47 62 48 58 49 59 50 61 51 63 52 60 53 44 54 45 55
REMARK SMILES IDX 50 56 46 57 47 58 49 59 51 60 48 61 5 62 6 63 7 64 8 65 9 66
REMARK SMILES IDX 10 68 11 69 12 70 20 71 13 72 19 73 14 74 18 75 15 76 17 77
REMARK SMILES IDX 16 78
REMARK H PARENT 3 5 68 23 42 34 8 67
REMARK Flexibility Score: inf
ROOT
ATOM      1  C   UNL A   1      35.167  32.923  28.444  1.00  0.00     0.116 C 
ENDROOT
BRANCH   1   2
ATOM      2  N   UNL A   1      34.323  31.784  28.118  1.00  0.00    -0.352 N 
ATOM      3  O   UNL A   1      33.835  29.669  27.511  1.00  0.00    -0.269 OA
ATOM      4  C   UNL A   1      34.663  30.466  27.946  1.00  0.00     0.251 C 
ATOM      5  H   UNL A   1      33.367  31.988  28.005  1.00  0.00     0.163 HD
BRANCH   4   6
ATOM      6  C   UNL A   1      36.032  30.008  28.258  1.00  0.00     0.039 A 
ATOM      7  C   UNL A   1      36.338  29.453  29.503  1.00  0.00     0.014 A 
ATOM      8  C   UNL A   1      37.021  30.124  27.277  1.00  0.00     0.014 A 
ATOM      9  C   UNL A   1      37.657  29.138  29.817  1.00  0.00     0.010 A 
ATOM     10  C   UNL A   1      38.330  29.734  27.567  1.00  0.00     0.010 A 
ATOM     11  C   UNL A   1      38.662  29.265  28.848  1.00  0.00    -0.014 A 
BRANCH  11  12
ATOM     12  C   UNL A   1      40.055  28.857  29.154  1.00  0.00     0.031 A 
ATOM     13  C   UNL A   1      41.013  29.817  29.796  1.00  0.00     0.074 A 
ATOM     14  C   UNL A   1      40.466  27.624  28.805  1.00  0.00     0.049 A 
ATOM     15  N   UNL A   1      42.292  29.676  30.032  1.00  0.00    -0.248 NA
ATOM     16  C   UNL A   1      40.462  31.114  30.217  1.00  0.00     0.031 C 
ATOM     17  C   UNL A   1      39.627  26.604  28.176  1.00  0.00     0.029 A 
ATOM     18  N   UNL A   1      41.697  27.028  28.908  1.00  0.00    -0.354 N 
ATOM     19  C   UNL A   1      42.707  30.872  30.604  1.00  0.00     0.074 A 
ATOM     20  C   UNL A   1      41.547  31.736  30.655  1.00  0.00     0.031 C 
ATOM     21  C   UNL A   1      40.365  25.509  27.948  1.00  0.00     0.029 A 
ATOM     22  C   UNL A   1      41.741  25.773  28.351  1.00  0.00     0.049 A 
ATOM     23  H   UNL A   1      42.473  27.456  29.338  1.00  0.00     0.167 HD
ATOM     24  C   UNL A   1      43.942  31.213  31.044  1.00  0.00     0.037 A 
ATOM     25  C   UNL A   1      42.780  24.943  28.147  1.00  0.00     0.037 A 
ATOM     26  C   UNL A   1      45.089  30.342  30.984  1.00  0.00     0.049 A 
ATOM     27  C   UNL A   1      44.150  25.357  28.595  1.00  0.00     0.074 A 
ATOM     28  C   UNL A   1      46.374  30.574  31.442  1.00  0.00     0.029 A 
ATOM     29  N   UNL A   1      45.092  29.075  30.415  1.00  0.00    -0.354 N 
ATOM     30  N   UNL A   1      44.525  26.474  29.170  1.00  0.00    -0.248 NA
ATOM     31  C   UNL A   1      45.241  24.401  28.369  1.00  0.00     0.031 C 
ATOM     32  C   UNL A   1      47.169  29.478  31.091  1.00  0.00     0.029 A 
ATOM     33  C   UNL A   1      46.365  28.531  30.478  1.00  0.00     0.049 A 
ATOM     34  H   UNL A   1      44.306  28.630  30.022  1.00  0.00     0.167 HD
ATOM     35  C   UNL A   1      45.887  26.344  29.403  1.00  0.00     0.074 A 
ATOM     36  C   UNL A   1      46.273  25.040  28.904  1.00  0.00     0.031 C 
ATOM     37  C   UNL A   1      46.735  27.226  29.987  1.00  0.00     0.037 A 
BRANCH  24  38
ATOM     38  C   UNL A   1      44.124  32.602  31.588  1.00  0.00     0.057 A 
ATOM     39  C   UNL A   1      43.966  32.901  32.949  1.00  0.00     0.134 A 
ATOM     40  C   UNL A   1      44.470  33.659  30.736  1.00  0.00     0.134 A 
ATOM     41  F   UNL A   1      43.629  31.938  33.822  1.00  0.00    -0.206 F 
ATOM     42  C   UNL A   1      44.101  34.204  33.432  1.00  0.00     0.040 A 
ATOM     43  C   UNL A   1      44.639  34.960  31.213  1.00  0.00     0.040 A 
ATOM     44  F   UNL A   1      44.651  33.446  29.424  1.00  0.00    -0.206 F 
ATOM     45  C   UNL A   1      44.441  35.238  32.564  1.00  0.00     0.006 A 
ENDBRANCH  24  38
BRANCH  25  46
ATOM     46  C   UNL A   1      42.542  23.646  27.467  1.00  0.00     0.057 A 
ATOM     47  C   UNL A   1      42.646  23.525  26.079  1.00  0.00     0.134 A 
ATOM     48  C   UNL A   1      42.267  22.484  28.200  1.00  0.00     0.134 A 
ATOM     49  F   UNL A   1      42.897  24.604  25.324  1.00  0.00    -0.206 F 
ATOM     50  C   UNL A   1      42.484  22.294  25.441  1.00  0.00     0.040 A 
ATOM     51  C   UNL A   1      42.128  21.243  27.578  1.00  0.00     0.040 A 
ATOM     52  F   UNL A   1      42.170  22.533  29.538  1.00  0.00    -0.206 F 
ATOM     53  C   UNL A   1      42.234  21.147  26.193  1.00  0.00     0.006 A 
ENDBRANCH  25  46
BRANCH  37  54
ATOM     54  C   UNL A   1      48.163  26.798  30.171  1.00  0.00     0.057 A 
ATOM     55  C   UNL A   1      49.165  27.129  29.251  1.00  0.00     0.134 A 
ATOM     56  C   UNL A   1      48.550  26.117  31.333  1.00  0.00     0.134 A 
ATOM     57  F   UNL A   1      48.860  27.769  28.112  1.00  0.00    -0.206 F 
ATOM     58  C   UNL A   1      50.501  26.793  29.479  1.00  0.00     0.040 A 
ATOM     59  C   UNL A   1      49.884  25.798  31.584  1.00  0.00     0.040 A 
ATOM     60  F   UNL A   1      47.638  25.775  32.257  1.00  0.00    -0.206 F 
ATOM     61  C   UNL A   1      50.866  26.137  30.653  1.00  0.00     0.006 A 
ENDBRANCH  37  54
ENDBRANCH  11  12
ENDBRANCH   4   6
ENDBRANCH   1   2
BRANCH   1  62
ATOM     62  C   UNL A   1      34.594  34.243  27.941  1.00  0.00     0.023 C 
BRANCH  62  63
ATOM     63  C   UNL A   1      33.368  34.749  28.697  1.00  0.00     0.023 C 
BRANCH  63  64
ATOM     64  C   UNL A   1      33.532  36.110  29.368  1.00  0.00     0.116 C 
BRANCH  64  65
ATOM     65  N   UNL A   1      32.487  36.389  30.338  1.00  0.00    -0.351 N 
ATOM     66  C   UNL A   1      32.409  35.998  31.658  1.00  0.00     0.269 C 
ATOM     67  H   UNL A   1      31.734  36.931  30.008  1.00  0.00     0.163 HD
ATOM     68  O   UNL A   1      31.398  36.255  32.305  1.00  0.00    -0.268 OA
BRANCH  66  69
ATOM     69  C   UNL A   1      33.557  35.281  32.283  1.00  0.00     0.129 A 
ATOM     70  C   UNL A   1      34.349  35.922  33.224  1.00  0.00     0.036 A 
ATOM     71  N   UNL A   1      33.779  34.017  31.853  1.00  0.00    -0.241 NA
ATOM     72  C   UNL A   1      35.469  35.246  33.701  1.00  0.00     0.033 A 
ATOM     73  C   UNL A   1      34.852  33.376  32.359  1.00  0.00     0.090 A 
ATOM     74  C   UNL A   1      35.754  33.959  33.278  1.00  0.00     0.089 A 
ATOM     75  C   UNL A   1      35.119  32.074  31.972  1.00  0.00     0.032 A 
ATOM     76  N   UNL A   1      36.848  33.332  33.751  1.00  0.00    -0.255 NA
ATOM     77  C   UNL A   1      36.237  31.398  32.458  1.00  0.00     0.022 A 
ATOM     78  C   UNL A   1      37.070  32.069  33.332  1.00  0.00     0.112 A 
ENDBRANCH  66  69
ENDBRANCH  64  65
ENDBRANCH  63  64
ENDBRANCH  62  63
ENDBRANCH   1  62
TORSDOF 11
ENDMDL
