MODEL 1
REMARK VINA RESULT:     -11.9      0.000      0.000
REMARK SMILES C[C@H](Oc1ccccc1Cl)C(=O)N1CCCC[C@H]1C(=O)NCCCCNC(=O)c1ccc(-c2c3nc(c(-c4c(F)cccc4F)c4ccc([nH]4)c(-c4c(F)cccc4F)c4nc(c(-c5c(F)cccc5F)c5ccc2[nH]5)C=C4)C=C3)cc1
REMARK SMILES IDX 22 1 21 2 19 3 20 4 18 6 13 7 14 8 15 9 17 10 16 11 11 12
REMARK SMILES IDX 12 13 2 14 1 15 3 16 4 17 5 18 9 19 6 20 8 21 10 22 7 23
REMARK SMILES IDX 23 24 24 25 25 26 26 27 27 28 28 30 29 31 30 32 82 33 31 34
REMARK SMILES IDX 81 35 32 36 33 37 34 38 75 39 35 40 80 41 74 42 76 43 36 44
REMARK SMILES IDX 79 45 73 46 72 47 37 49 63 50 46 51 62 52 47 53 50 54 61 55
REMARK SMILES IDX 77 56 48 57 49 58 60 60 78 61 51 62 38 63 39 64 44 65 40 66
REMARK SMILES IDX 41 67 43 68 45 69 42 70 64 71 65 72 70 73 66 74 67 75 69 76
REMARK SMILES IDX 71 77 68 78 52 79 53 80 58 81 54 82 55 83 57 84 59 85 56 86
REMARK H PARENT 21 5 26 29 76 48 50 59
REMARK Flexibility Score: inf
ROOT
ATOM      1  C   UNL A   1      36.979  22.283  25.489  1.00  0.00     0.116 C 
ENDROOT
BRANCH   1   2
ATOM      2  N   UNL A   1      36.201  22.612  26.662  1.00  0.00    -0.354 N 
ATOM      3  C   UNL A   1      34.863  22.893  26.751  1.00  0.00     0.242 C 
ATOM      4  O   UNL A   1      34.380  22.932  27.887  1.00  0.00    -0.273 OA
ATOM      5  H   UNL A   1      36.700  22.638  27.510  1.00  0.00     0.163 HD
BRANCH   3   6
ATOM      6  C   UNL A   1      34.013  23.180  25.479  1.00  0.00     0.174 C 
ATOM      7  N   UNL A   1      32.555  23.018  25.672  1.00  0.00    -0.327 N 
ATOM      8  C   UNL A   1      31.877  24.077  26.423  1.00  0.00     0.120 C 
ATOM      9  C   UNL A   1      32.177  25.466  25.879  1.00  0.00     0.022 C 
ATOM     10  C   UNL A   1      34.344  24.592  24.953  1.00  0.00     0.035 C 
ATOM     11  C   UNL A   1      33.677  25.705  25.759  1.00  0.00     0.004 C 
BRANCH   7  12
ATOM     12  C   UNL A   1      31.791  21.936  25.229  1.00  0.00     0.264 C 
ATOM     13  O   UNL A   1      30.695  21.678  25.741  1.00  0.00    -0.271 OA
BRANCH  12  14
ATOM     14  C   UNL A   1      32.393  20.918  24.218  1.00  0.00     0.259 C 
ATOM     15  C   UNL A   1      32.382  21.619  22.850  1.00  0.00     0.064 C 
BRANCH  14  16
ATOM     16  O   UNL A   1      31.762  19.642  24.260  1.00  0.00    -0.479 OA
BRANCH  16  17
ATOM     17  C   UNL A   1      32.497  18.486  24.370  1.00  0.00     0.139 A 
ATOM     18  C   UNL A   1      32.953  17.942  25.574  1.00  0.00     0.048 A 
ATOM     19  C   UNL A   1      32.897  17.871  23.169  1.00  0.00     0.083 A 
ATOM     20  C   UNL A   1      33.892  16.904  25.575  1.00  0.00     0.004 A 
ATOM     21  C   UNL A   1      33.829  16.829  23.171  1.00  0.00     0.024 A 
ATOM     22  Cl  UNL A   1      32.285  18.393  21.635  1.00  0.00    -0.080 Cl
ATOM     23  C   UNL A   1      34.348  16.365  24.376  1.00  0.00     0.002 A 
ENDBRANCH  16  17
ENDBRANCH  14  16
ENDBRANCH  12  14
ENDBRANCH   7  12
ENDBRANCH   3   6
ENDBRANCH   1   2
BRANCH   1  24
ATOM     24  C   UNL A   1      36.797  20.860  24.981  1.00  0.00     0.023 C 
BRANCH  24  25
ATOM     25  C   UNL A   1      38.079  20.074  24.732  1.00  0.00     0.023 C 
BRANCH  25  26
ATOM     26  C   UNL A   1      39.193  20.252  25.759  1.00  0.00     0.116 C 
BRANCH  26  27
ATOM     27  N   UNL A   1      40.135  19.144  25.826  1.00  0.00    -0.352 N 
ATOM     28  C   UNL A   1      41.474  19.148  26.157  1.00  0.00     0.251 C 
ATOM     29  H   UNL A   1      39.761  18.262  25.601  1.00  0.00     0.163 HD
ATOM     30  O   UNL A   1      42.124  18.114  26.108  1.00  0.00    -0.269 OA
BRANCH  28  31
ATOM     31  C   UNL A   1      42.141  20.421  26.523  1.00  0.00     0.039 A 
ATOM     32  C   UNL A   1      42.666  21.217  25.500  1.00  0.00     0.014 A 
ATOM     33  C   UNL A   1      42.212  20.850  27.850  1.00  0.00     0.014 A 
ATOM     34  C   UNL A   1      43.162  22.488  25.798  1.00  0.00     0.010 A 
ATOM     35  C   UNL A   1      42.637  22.145  28.136  1.00  0.00     0.010 A 
ATOM     36  C   UNL A   1      43.096  22.984  27.110  1.00  0.00    -0.014 A 
BRANCH  36  37
ATOM     37  C   UNL A   1      43.442  24.396  27.412  1.00  0.00     0.031 A 
ATOM     38  C   UNL A   1      44.866  24.866  27.355  1.00  0.00     0.074 A 
ATOM     39  C   UNL A   1      42.471  25.234  27.825  1.00  0.00     0.049 A 
ATOM     40  N   UNL A   1      45.358  26.045  27.636  1.00  0.00    -0.248 NA
ATOM     41  C   UNL A   1      45.874  23.871  26.958  1.00  0.00     0.031 C 
ATOM     42  C   UNL A   1      41.061  24.875  27.998  1.00  0.00     0.029 A 
ATOM     43  N   UNL A   1      42.522  26.556  28.190  1.00  0.00    -0.354 N 
ATOM     44  C   UNL A   1      46.732  25.931  27.467  1.00  0.00     0.074 A 
ATOM     45  C   UNL A   1      47.000  24.555  27.105  1.00  0.00     0.031 C 
ATOM     46  C   UNL A   1      40.379  25.954  28.415  1.00  0.00     0.029 A 
ATOM     47  C   UNL A   1      41.306  27.072  28.566  1.00  0.00     0.049 A 
ATOM     48  H   UNL A   1      43.353  27.084  28.183  1.00  0.00     0.167 HD
ATOM     49  C   UNL A   1      47.681  26.891  27.584  1.00  0.00     0.037 A 
ATOM     50  C   UNL A   1      40.973  28.306  28.987  1.00  0.00     0.037 A 
ATOM     51  C   UNL A   1      47.409  28.262  27.922  1.00  0.00     0.049 A 
ATOM     52  C   UNL A   1      42.036  29.363  29.069  1.00  0.00     0.074 A 
ATOM     53  C   UNL A   1      48.291  29.327  27.993  1.00  0.00     0.029 A 
ATOM     54  N   UNL A   1      46.155  28.759  28.250  1.00  0.00    -0.354 N 
ATOM     55  N   UNL A   1      43.320  29.263  28.821  1.00  0.00    -0.248 NA
ATOM     56  C   UNL A   1      41.605  30.707  29.480  1.00  0.00     0.031 C 
ATOM     57  C   UNL A   1      47.577  30.461  28.397  1.00  0.00     0.029 A 
ATOM     58  C   UNL A   1      46.243  30.111  28.542  1.00  0.00     0.049 A 
ATOM     59  H   UNL A   1      45.325  28.229  28.272  1.00  0.00     0.167 HD
ATOM     60  C   UNL A   1      43.847  30.530  29.028  1.00  0.00     0.074 A 
ATOM     61  C   UNL A   1      42.741  31.387  29.405  1.00  0.00     0.031 C 
ATOM     62  C   UNL A   1      45.132  30.947  28.918  1.00  0.00     0.037 A 
BRANCH  49  63
ATOM     63  C   UNL A   1      49.104  26.481  27.340  1.00  0.00     0.057 A 
ATOM     64  C   UNL A   1      49.936  26.050  28.382  1.00  0.00     0.134 A 
ATOM     65  C   UNL A   1      49.646  26.506  26.049  1.00  0.00     0.134 A 
ATOM     66  F   UNL A   1      49.482  26.015  29.645  1.00  0.00    -0.206 F 
ATOM     67  C   UNL A   1      51.265  25.690  28.154  1.00  0.00     0.040 A 
ATOM     68  C   UNL A   1      50.966  26.125  25.805  1.00  0.00     0.040 A 
ATOM     69  F   UNL A   1      48.902  26.903  25.005  1.00  0.00    -0.206 F 
ATOM     70  C   UNL A   1      51.782  25.723  26.861  1.00  0.00     0.006 A 
ENDBRANCH  49  63
BRANCH  50  71
ATOM     71  C   UNL A   1      39.562  28.614  29.328  1.00  0.00     0.057 A 
ATOM     72  C   UNL A   1      39.076  28.416  30.625  1.00  0.00     0.134 A 
ATOM     73  C   UNL A   1      38.674  29.126  28.375  1.00  0.00     0.134 A 
ATOM     74  F   UNL A   1      39.875  27.913  31.577  1.00  0.00    -0.206 F 
ATOM     75  C   UNL A   1      37.751  28.704  30.961  1.00  0.00     0.040 A 
ATOM     76  C   UNL A   1      37.353  29.438  28.701  1.00  0.00     0.040 A 
ATOM     77  F   UNL A   1      39.085  29.346  27.117  1.00  0.00    -0.206 F 
ATOM     78  C   UNL A   1      36.888  29.222  29.996  1.00  0.00     0.006 A 
ENDBRANCH  50  71
BRANCH  62  79
ATOM     79  C   UNL A   1      45.403  32.394  29.195  1.00  0.00     0.057 A 
ATOM     80  C   UNL A   1      45.308  33.365  28.190  1.00  0.00     0.134 A 
ATOM     81  C   UNL A   1      45.736  32.825  30.484  1.00  0.00     0.134 A 
ATOM     82  F   UNL A   1      45.008  33.013  26.931  1.00  0.00    -0.206 F 
ATOM     83  C   UNL A   1      45.553  34.713  28.455  1.00  0.00     0.040 A 
ATOM     84  C   UNL A   1      45.961  34.173  30.766  1.00  0.00     0.040 A 
ATOM     85  F   UNL A   1      45.838  31.945  31.492  1.00  0.00    -0.206 F 
ATOM     86  C   UNL A   1      45.875  35.120  29.748  1.00  0.00     0.006 A 
ENDBRANCH  62  79
ENDBRANCH  36  37
ENDBRANCH  28  31
ENDBRANCH  26  27
ENDBRANCH  25  26
ENDBRANCH  24  25
ENDBRANCH   1  24
TORSDOF 15
ENDMDL
MODEL 2
REMARK VINA RESULT:     -11.9      5.451     10.238
REMARK SMILES C[C@H](Oc1ccccc1Cl)C(=O)N1CCCC[C@H]1C(=O)NCCCCNC(=O)c1ccc(-c2c3nc(c(-c4c(F)cccc4F)c4ccc([nH]4)c(-c4c(F)cccc4F)c4nc(c(-c5c(F)cccc5F)c5ccc2[nH]5)C=C4)C=C3)cc1
REMARK SMILES IDX 22 1 21 2 19 3 20 4 18 6 13 7 14 8 15 9 17 10 16 11 11 12
REMARK SMILES IDX 12 13 2 14 1 15 3 16 4 17 5 18 9 19 6 20 8 21 10 22 7 23
REMARK SMILES IDX 23 24 24 25 25 26 26 27 27 28 28 30 29 31 30 32 82 33 31 34
REMARK SMILES IDX 81 35 32 36 33 37 34 38 75 39 35 40 80 41 74 42 76 43 36 44
REMARK SMILES IDX 79 45 73 46 72 47 37 49 63 50 46 51 62 52 47 53 50 54 61 55
REMARK SMILES IDX 77 56 48 57 49 58 60 60 78 61 51 62 38 63 39 64 44 65 40 66
REMARK SMILES IDX 41 67 43 68 45 69 42 70 64 71 65 72 70 73 66 74 67 75 69 76
REMARK SMILES IDX 71 77 68 78 52 79 53 80 58 81 54 82 55 83 57 84 59 85 56 86
REMARK H PARENT 21 5 26 29 76 48 50 59
REMARK Flexibility Score: inf
ROOT
ATOM      1  C   UNL A   1      32.557  29.918  25.441  1.00  0.00     0.116 C 
ENDROOT
BRANCH   1   2
ATOM      2  N   UNL A   1      31.680  29.417  24.407  1.00  0.00    -0.354 N 
ATOM      3  C   UNL A   1      31.425  28.118  24.055  1.00  0.00     0.242 C 
ATOM      4  O   UNL A   1      30.477  27.928  23.287  1.00  0.00    -0.273 OA
ATOM      5  H   UNL A   1      31.203  30.102  23.884  1.00  0.00     0.163 HD
BRANCH   3   6
ATOM      6  C   UNL A   1      32.313  26.952  24.579  1.00  0.00     0.174 C 
ATOM      7  N   UNL A   1      31.607  25.656  24.702  1.00  0.00    -0.327 N 
ATOM      8  C   UNL A   1      31.327  24.947  23.452  1.00  0.00     0.120 C 
ATOM      9  C   UNL A   1      32.564  24.782  22.582  1.00  0.00     0.022 C 
ATOM     10  C   UNL A   1      33.557  26.815  23.678  1.00  0.00     0.035 C 
ATOM     11  C   UNL A   1      33.265  26.115  22.351  1.00  0.00     0.004 C 
BRANCH   7  12
ATOM     12  C   UNL A   1      31.164  25.082  25.896  1.00  0.00     0.264 C 
ATOM     13  O   UNL A   1      30.857  25.784  26.866  1.00  0.00    -0.271 OA
BRANCH  12  14
ATOM     14  C   UNL A   1      31.240  23.540  26.093  1.00  0.00     0.259 C 
ATOM     15  C   UNL A   1      29.975  23.149  26.876  1.00  0.00     0.064 C 
BRANCH  14  16
ATOM     16  O   UNL A   1      32.472  23.104  26.659  1.00  0.00    -0.479 OA
BRANCH  16  17
ATOM     17  C   UNL A   1      33.628  23.079  25.917  1.00  0.00     0.139 A 
ATOM     18  C   UNL A   1      34.628  24.055  25.964  1.00  0.00     0.048 A 
ATOM     19  C   UNL A   1      33.754  22.043  24.972  1.00  0.00     0.083 A 
ATOM     20  C   UNL A   1      35.648  24.076  25.006  1.00  0.00     0.004 A 
ATOM     21  C   UNL A   1      34.778  22.061  24.019  1.00  0.00     0.024 A 
ATOM     22  Cl  UNL A   1      32.636  20.723  24.918  1.00  0.00    -0.080 Cl
ATOM     23  C   UNL A   1      35.709  23.095  24.020  1.00  0.00     0.002 A 
ENDBRANCH  16  17
ENDBRANCH  14  16
ENDBRANCH  12  14
ENDBRANCH   7  12
ENDBRANCH   3   6
ENDBRANCH   1   2
BRANCH   1  24
ATOM     24  C   UNL A   1      31.849  30.411  26.694  1.00  0.00     0.023 C 
BRANCH  24  25
ATOM     25  C   UNL A   1      31.616  31.915  26.778  1.00  0.00     0.023 C 
BRANCH  25  26
ATOM     26  C   UNL A   1      32.760  32.747  27.349  1.00  0.00     0.116 C 
BRANCH  26  27
ATOM     27  N   UNL A   1      32.402  34.119  27.678  1.00  0.00    -0.352 N 
ATOM     28  C   UNL A   1      32.994  34.992  28.566  1.00  0.00     0.251 C 
ATOM     29  H   UNL A   1      31.623  34.476  27.195  1.00  0.00     0.163 HD
ATOM     30  O   UNL A   1      32.517  36.103  28.749  1.00  0.00    -0.269 OA
BRANCH  28  31
ATOM     31  C   UNL A   1      34.182  34.564  29.343  1.00  0.00     0.039 A 
ATOM     32  C   UNL A   1      33.992  34.087  30.643  1.00  0.00     0.014 A 
ATOM     33  C   UNL A   1      35.463  34.590  28.788  1.00  0.00     0.014 A 
ATOM     34  C   UNL A   1      35.068  33.535  31.343  1.00  0.00     0.010 A 
ATOM     35  C   UNL A   1      36.518  33.973  29.455  1.00  0.00     0.010 A 
ATOM     36  C   UNL A   1      36.326  33.420  30.729  1.00  0.00    -0.014 A 
BRANCH  36  37
ATOM     37  C   UNL A   1      37.429  32.670  31.381  1.00  0.00     0.031 A 
ATOM     38  C   UNL A   1      37.975  33.108  32.709  1.00  0.00     0.074 A 
ATOM     39  C   UNL A   1      37.998  31.640  30.725  1.00  0.00     0.049 A 
ATOM     40  N   UNL A   1      38.966  32.607  33.400  1.00  0.00    -0.248 NA
ATOM     41  C   UNL A   1      37.341  34.283  33.328  1.00  0.00     0.031 C 
ATOM     42  C   UNL A   1      37.610  31.168  29.394  1.00  0.00     0.029 A 
ATOM     43  N   UNL A   1      39.033  30.811  31.080  1.00  0.00    -0.354 N 
ATOM     44  C   UNL A   1      39.087  33.412  34.525  1.00  0.00     0.074 A 
ATOM     45  C   UNL A   1      38.098  34.462  34.401  1.00  0.00     0.031 C 
ATOM     46  C   UNL A   1      38.382  30.123  29.054  1.00  0.00     0.029 A 
ATOM     47  C   UNL A   1      39.336  29.869  30.129  1.00  0.00     0.049 A 
ATOM     48  H   UNL A   1      39.512  30.887  31.937  1.00  0.00     0.167 HD
ATOM     49  C   UNL A   1      39.932  33.277  35.576  1.00  0.00     0.037 A 
ATOM     50  C   UNL A   1      40.278  28.907  30.120  1.00  0.00     0.037 A 
ATOM     51  C   UNL A   1      40.898  32.218  35.707  1.00  0.00     0.049 A 
ATOM     52  C   UNL A   1      41.176  28.751  31.314  1.00  0.00     0.074 A 
ATOM     53  C   UNL A   1      41.749  31.950  36.766  1.00  0.00     0.029 A 
ATOM     54  N   UNL A   1      41.144  31.251  34.742  1.00  0.00    -0.354 N 
ATOM     55  N   UNL A   1      41.220  29.467  32.411  1.00  0.00    -0.248 NA
ATOM     56  C   UNL A   1      42.147  27.649  31.273  1.00  0.00     0.031 C 
ATOM     57  C   UNL A   1      42.533  30.841  36.427  1.00  0.00     0.029 A 
ATOM     58  C   UNL A   1      42.145  30.396  35.172  1.00  0.00     0.049 A 
ATOM     59  H   UNL A   1      40.675  31.183  33.878  1.00  0.00     0.167 HD
ATOM     60  C   UNL A   1      42.209  28.895  33.199  1.00  0.00     0.074 A 
ATOM     61  C   UNL A   1      42.727  27.761  32.461  1.00  0.00     0.031 C 
ATOM     62  C   UNL A   1      42.650  29.275  34.423  1.00  0.00     0.037 A 
BRANCH  49  63
ATOM     63  C   UNL A   1      39.841  34.303  36.666  1.00  0.00     0.057 A 
ATOM     64  C   UNL A   1      40.574  35.497  36.617  1.00  0.00     0.134 A 
ATOM     65  C   UNL A   1      39.004  34.104  37.771  1.00  0.00     0.134 A 
ATOM     66  F   UNL A   1      41.404  35.744  35.592  1.00  0.00    -0.206 F 
ATOM     67  C   UNL A   1      40.502  36.441  37.644  1.00  0.00     0.040 A 
ATOM     68  C   UNL A   1      38.905  35.051  38.791  1.00  0.00     0.040 A 
ATOM     69  F   UNL A   1      38.271  32.985  37.877  1.00  0.00    -0.206 F 
ATOM     70  C   UNL A   1      39.662  36.220  38.733  1.00  0.00     0.006 A 
ENDBRANCH  49  63
BRANCH  50  71
ATOM     71  C   UNL A   1      40.393  27.998  28.954  1.00  0.00     0.057 A 
ATOM     72  C   UNL A   1      39.688  26.790  28.909  1.00  0.00     0.134 A 
ATOM     73  C   UNL A   1      41.197  28.319  27.853  1.00  0.00     0.134 A 
ATOM     74  F   UNL A   1      38.915  26.421  29.941  1.00  0.00    -0.206 F 
ATOM     75  C   UNL A   1      39.786  25.926  27.817  1.00  0.00     0.040 A 
ATOM     76  C   UNL A   1      41.288  27.476  26.745  1.00  0.00     0.040 A 
ATOM     77  F   UNL A   1      41.889  29.468  27.834  1.00  0.00    -0.206 F 
ATOM     78  C   UNL A   1      40.585  26.273  26.728  1.00  0.00     0.006 A 
ENDBRANCH  50  71
BRANCH  62  79
ATOM     79  C   UNL A   1      43.735  28.447  35.041  1.00  0.00     0.057 A 
ATOM     80  C   UNL A   1      45.090  28.742  34.843  1.00  0.00     0.134 A 
ATOM     81  C   UNL A   1      43.422  27.360  35.867  1.00  0.00     0.134 A 
ATOM     82  F   UNL A   1      45.453  29.761  34.050  1.00  0.00    -0.206 F 
ATOM     83  C   UNL A   1      46.096  27.973  35.429  1.00  0.00     0.040 A 
ATOM     84  C   UNL A   1      44.419  26.598  36.476  1.00  0.00     0.040 A 
ATOM     85  F   UNL A   1      42.143  27.029  36.101  1.00  0.00    -0.206 F 
ATOM     86  C   UNL A   1      45.760  26.901  36.253  1.00  0.00     0.006 A 
ENDBRANCH  62  79
ENDBRANCH  36  37
ENDBRANCH  28  31
ENDBRANCH  26  27
ENDBRANCH  25  26
ENDBRANCH  24  25
ENDBRANCH   1  24
TORSDOF 15
ENDMDL
MODEL 3
REMARK VINA RESULT:     -11.7      5.404      9.568
REMARK SMILES C[C@H](Oc1ccccc1Cl)C(=O)N1CCCC[C@H]1C(=O)NCCCCNC(=O)c1ccc(-c2c3nc(c(-c4c(F)cccc4F)c4ccc([nH]4)c(-c4c(F)cccc4F)c4nc(c(-c5c(F)cccc5F)c5ccc2[nH]5)C=C4)C=C3)cc1
REMARK SMILES IDX 22 1 21 2 19 3 20 4 18 6 13 7 14 8 15 9 17 10 16 11 11 12
REMARK SMILES IDX 12 13 2 14 1 15 3 16 4 17 5 18 9 19 6 20 8 21 10 22 7 23
REMARK SMILES IDX 23 24 24 25 25 26 26 27 27 28 28 30 29 31 30 32 82 33 31 34
REMARK SMILES IDX 81 35 32 36 33 37 34 38 75 39 35 40 80 41 74 42 76 43 36 44
REMARK SMILES IDX 79 45 73 46 72 47 37 49 63 50 46 51 62 52 47 53 50 54 61 55
REMARK SMILES IDX 77 56 48 57 49 58 60 60 78 61 51 62 38 63 39 64 44 65 40 66
REMARK SMILES IDX 41 67 43 68 45 69 42 70 64 71 65 72 70 73 66 74 67 75 69 76
REMARK SMILES IDX 71 77 68 78 52 79 53 80 58 81 54 82 55 83 57 84 59 85 56 86
REMARK H PARENT 21 5 26 29 76 48 50 59
REMARK Flexibility Score: inf
ROOT
ATOM      1  C   UNL A   1      32.685  29.743  25.319  1.00  0.00     0.116 C 
ENDROOT
BRANCH   1   2
ATOM      2  N   UNL A   1      31.703  29.247  24.380  1.00  0.00    -0.354 N 
ATOM      3  C   UNL A   1      31.402  27.950  24.061  1.00  0.00     0.242 C 
ATOM      4  O   UNL A   1      30.379  27.767  23.394  1.00  0.00    -0.273 OA
ATOM      5  H   UNL A   1      31.182  29.935  23.907  1.00  0.00     0.163 HD
BRANCH   3   6
ATOM      6  C   UNL A   1      32.328  26.777  24.496  1.00  0.00     0.174 C 
ATOM      7  N   UNL A   1      31.635  25.479  24.654  1.00  0.00    -0.327 N 
ATOM      8  C   UNL A   1      31.258  24.789  23.418  1.00  0.00     0.120 C 
ATOM      9  C   UNL A   1      32.423  24.639  22.452  1.00  0.00     0.022 C 
ATOM     10  C   UNL A   1      33.499  26.656  23.498  1.00  0.00     0.035 C 
ATOM     11  C   UNL A   1      33.104  25.976  22.188  1.00  0.00     0.004 C 
BRANCH   7  12
ATOM     12  C   UNL A   1      31.287  24.885  25.869  1.00  0.00     0.264 C 
ATOM     13  O   UNL A   1      31.109  25.568  26.884  1.00  0.00    -0.271 OA
BRANCH  12  14
ATOM     14  C   UNL A   1      31.311  23.336  26.015  1.00  0.00     0.259 C 
ATOM     15  C   UNL A   1      30.074  22.968  26.850  1.00  0.00     0.064 C 
BRANCH  14  16
ATOM     16  O   UNL A   1      32.552  22.835  26.501  1.00  0.00    -0.479 OA
BRANCH  16  17
ATOM     17  C   UNL A   1      33.711  22.980  25.778  1.00  0.00     0.139 A 
ATOM     18  C   UNL A   1      34.669  23.975  25.995  1.00  0.00     0.048 A 
ATOM     19  C   UNL A   1      33.887  22.117  24.680  1.00  0.00     0.083 A 
ATOM     20  C   UNL A   1      35.691  24.194  25.065  1.00  0.00     0.004 A 
ATOM     21  C   UNL A   1      34.913  22.332  23.754  1.00  0.00     0.024 A 
ATOM     22  Cl  UNL A   1      32.827  20.777  24.400  1.00  0.00    -0.080 Cl
ATOM     23  C   UNL A   1      35.799  23.390  23.934  1.00  0.00     0.002 A 
ENDBRANCH  16  17
ENDBRANCH  14  16
ENDBRANCH  12  14
ENDBRANCH   7  12
ENDBRANCH   3   6
ENDBRANCH   1   2
BRANCH   1  24
ATOM     24  C   UNL A   1      32.122  30.172  26.665  1.00  0.00     0.023 C 
BRANCH  24  25
ATOM     25  C   UNL A   1      31.768  31.648  26.798  1.00  0.00     0.023 C 
BRANCH  25  26
ATOM     26  C   UNL A   1      32.866  32.562  27.332  1.00  0.00     0.116 C 
BRANCH  26  27
ATOM     27  N   UNL A   1      32.430  33.918  27.634  1.00  0.00    -0.352 N 
ATOM     28  C   UNL A   1      32.975  34.844  28.497  1.00  0.00     0.251 C 
ATOM     29  H   UNL A   1      31.626  34.216  27.151  1.00  0.00     0.163 HD
ATOM     30  O   UNL A   1      32.434  35.929  28.660  1.00  0.00    -0.269 OA
BRANCH  28  31
ATOM     31  C   UNL A   1      34.194  34.506  29.271  1.00  0.00     0.039 A 
ATOM     32  C   UNL A   1      34.044  34.045  30.582  1.00  0.00     0.014 A 
ATOM     33  C   UNL A   1      35.466  34.599  28.704  1.00  0.00     0.014 A 
ATOM     34  C   UNL A   1      35.157  33.575  31.283  1.00  0.00     0.010 A 
ATOM     35  C   UNL A   1      36.563  34.061  29.373  1.00  0.00     0.010 A 
ATOM     36  C   UNL A   1      36.415  33.524  30.660  1.00  0.00    -0.014 A 
BRANCH  36  37
ATOM     37  C   UNL A   1      37.567  32.856  31.317  1.00  0.00     0.031 A 
ATOM     38  C   UNL A   1      38.209  31.650  30.696  1.00  0.00     0.074 A 
ATOM     39  C   UNL A   1      37.975  33.292  32.524  1.00  0.00     0.049 A 
ATOM     40  N   UNL A   1      39.188  30.910  31.151  1.00  0.00    -0.248 NA
ATOM     41  C   UNL A   1      37.660  31.199  29.408  1.00  0.00     0.031 C 
ATOM     42  C   UNL A   1      37.380  34.404  33.268  1.00  0.00     0.029 A 
ATOM     43  N   UNL A   1      38.978  32.843  33.348  1.00  0.00    -0.354 N 
ATOM     44  C   UNL A   1      39.361  29.898  30.216  1.00  0.00     0.074 A 
ATOM     45  C   UNL A   1      38.356  30.092  29.192  1.00  0.00     0.031 C 
ATOM     46  C   UNL A   1      38.040  34.565  34.426  1.00  0.00     0.029 A 
ATOM     47  C   UNL A   1      39.086  33.550  34.520  1.00  0.00     0.049 A 
ATOM     48  H   UNL A   1      39.564  32.086  33.119  1.00  0.00     0.167 HD
ATOM     49  C   UNL A   1      40.286  28.908  30.202  1.00  0.00     0.037 A 
ATOM     50  C   UNL A   1      39.930  33.399  35.558  1.00  0.00     0.037 A 
ATOM     51  C   UNL A   1      41.298  28.732  31.210  1.00  0.00     0.049 A 
ATOM     52  C   UNL A   1      40.973  32.320  35.501  1.00  0.00     0.074 A 
ATOM     53  C   UNL A   1      42.327  27.806  31.249  1.00  0.00     0.029 A 
ATOM     54  N   UNL A   1      41.406  29.499  32.362  1.00  0.00    -0.354 N 
ATOM     55  N   UNL A   1      41.182  31.424  34.567  1.00  0.00    -0.248 NA
ATOM     56  C   UNL A   1      41.905  32.238  36.635  1.00  0.00     0.031 C 
ATOM     57  C   UNL A   1      43.037  27.992  32.442  1.00  0.00     0.029 A 
ATOM     58  C   UNL A   1      42.472  29.056  33.127  1.00  0.00     0.049 A 
ATOM     59  H   UNL A   1      40.811  30.247  32.600  1.00  0.00     0.167 HD
ATOM     60  C   UNL A   1      42.276  30.682  34.991  1.00  0.00     0.074 A 
ATOM     61  C   UNL A   1      42.699  31.245  36.257  1.00  0.00     0.031 C 
ATOM     62  C   UNL A   1      42.876  29.627  34.387  1.00  0.00     0.037 A 
BRANCH  49  63
ATOM     63  C   UNL A   1      40.241  27.943  29.054  1.00  0.00     0.057 A 
ATOM     64  C   UNL A   1      39.491  26.760  29.114  1.00  0.00     0.134 A 
ATOM     65  C   UNL A   1      40.945  28.202  27.872  1.00  0.00     0.134 A 
ATOM     66  F   UNL A   1      38.804  26.447  30.224  1.00  0.00    -0.206 F 
ATOM     67  C   UNL A   1      39.469  25.855  28.052  1.00  0.00     0.040 A 
ATOM     68  C   UNL A   1      40.911  27.316  26.794  1.00  0.00     0.040 A 
ATOM     69  F   UNL A   1      41.680  29.318  27.747  1.00  0.00    -0.206 F 
ATOM     70  C   UNL A   1      40.177  26.135  26.885  1.00  0.00     0.006 A 
ENDBRANCH  49  63
BRANCH  50  71
ATOM     71  C   UNL A   1      39.843  34.316  36.721  1.00  0.00     0.057 A 
ATOM     72  C   UNL A   1      40.507  35.547  36.720  1.00  0.00     0.134 A 
ATOM     73  C   UNL A   1      39.082  33.992  37.851  1.00  0.00     0.134 A 
ATOM     74  F   UNL A   1      41.264  35.905  35.672  1.00  0.00    -0.206 F 
ATOM     75  C   UNL A   1      40.431  36.420  37.807  1.00  0.00     0.040 A 
ATOM     76  C   UNL A   1      38.980  34.863  38.936  1.00  0.00     0.040 A 
ATOM     77  F   UNL A   1      38.414  32.830  37.907  1.00  0.00    -0.206 F 
ATOM     78  C   UNL A   1      39.660  36.079  38.917  1.00  0.00     0.006 A 
ENDBRANCH  50  71
BRANCH  62  79
ATOM     79  C   UNL A   1      44.060  29.029  35.082  1.00  0.00     0.057 A 
ATOM     80  C   UNL A   1      43.922  27.974  35.994  1.00  0.00     0.134 A 
ATOM     81  C   UNL A   1      45.354  29.493  34.818  1.00  0.00     0.134 A 
ATOM     82  F   UNL A   1      42.707  27.496  36.300  1.00  0.00    -0.206 F 
ATOM     83  C   UNL A   1      45.029  27.414  36.633  1.00  0.00     0.040 A 
ATOM     84  C   UNL A   1      46.471  28.926  35.433  1.00  0.00     0.040 A 
ATOM     85  F   UNL A   1      45.555  30.497  33.951  1.00  0.00    -0.206 F 
ATOM     86  C   UNL A   1      46.309  27.887  36.347  1.00  0.00     0.006 A 
ENDBRANCH  62  79
ENDBRANCH  36  37
ENDBRANCH  28  31
ENDBRANCH  26  27
ENDBRANCH  25  26
ENDBRANCH  24  25
ENDBRANCH   1  24
TORSDOF 15
ENDMDL
