MODEL 1
REMARK VINA RESULT:     -10.7      0.000      0.000
REMARK SMILES COc1cc(OC)cc(C(=O)C[C@H](C)CC(=O)NCCCCNC(=O)c2ccc(-c3c4nc(c(-c5c(F)cccc5F)c5ccc([nH]5)c(-c5c(F)cccc5F)c5nc(c(-c6c(F)cccc6F)c6ccc3[nH]6)C=C5)C=C4)cc2)c1
REMARK SMILES IDX 19 1 18 2 16 3 17 4 15 6 13 7 14 8 12 9 10 10 11 11 9 12
REMARK SMILES IDX 3 13 4 14 80 15 5 16 8 17 2 18 1 19 6 20 7 21 20 22 21 23
REMARK SMILES IDX 22 24 23 25 24 26 25 28 26 29 27 30 79 31 28 32 78 33 29 34
REMARK SMILES IDX 30 35 31 36 72 37 32 38 77 39 71 40 73 41 33 42 76 43 70 44
REMARK SMILES IDX 69 45 34 47 60 48 43 49 59 50 44 51 47 52 58 53 74 54 45 55
REMARK SMILES IDX 46 56 57 58 75 59 48 60 35 61 36 62 41 63 37 64 38 65 40 66
REMARK SMILES IDX 42 67 39 68 61 69 62 70 67 71 63 72 64 73 66 74 68 75 65 76
REMARK SMILES IDX 49 77 50 78 55 79 51 80 52 81 54 82 56 83 53 84
REMARK H PARENT 18 5 23 27 73 46 47 57
REMARK Flexibility Score: inf
ROOT
ATOM      1  C   UNL A   1      36.499  22.514  25.510  1.00  0.00     0.116 C 
ENDROOT
BRANCH   1   2
ATOM      2  N   UNL A   1      35.682  21.758  26.435  1.00  0.00    -0.356 N 
ATOM      3  C   UNL A   1      34.328  21.750  26.561  1.00  0.00     0.220 C 
ATOM      4  O   UNL A   1      33.820  21.130  27.496  1.00  0.00    -0.275 OA
ATOM      5  H   UNL A   1      36.171  21.171  27.054  1.00  0.00     0.163 HD
BRANCH   3   6
ATOM      6  C   UNL A   1      33.465  22.479  25.552  1.00  0.00     0.103 C 
BRANCH   6   7
ATOM      7  C   UNL A   1      33.361  21.735  24.211  1.00  0.00     0.003 C 
ATOM      8  C   UNL A   1      32.517  20.462  24.304  1.00  0.00     0.008 C 
BRANCH   7   9
ATOM      9  C   UNL A   1      32.774  22.661  23.132  1.00  0.00     0.085 C 
BRANCH   9  10
ATOM     10  C   UNL A   1      33.711  23.823  22.856  1.00  0.00     0.163 C 
ATOM     11  O   UNL A   1      34.863  23.624  22.475  1.00  0.00    -0.294 OA
BRANCH  10  12
ATOM     12  C   UNL A   1      33.233  25.222  23.089  1.00  0.00     0.025 A 
ATOM     13  C   UNL A   1      33.419  27.397  24.136  1.00  0.00     0.123 A 
ATOM     14  C   UNL A   1      32.308  27.835  23.421  1.00  0.00     0.092 A 
ATOM     15  C   UNL A   1      33.856  26.081  24.002  1.00  0.00     0.058 A 
ATOM     16  C   UNL A   1      31.653  26.976  22.536  1.00  0.00     0.123 A 
ATOM     17  C   UNL A   1      32.134  25.679  22.350  1.00  0.00     0.058 A 
BRANCH  13  18
ATOM     18  O   UNL A   1      33.993  28.287  25.003  1.00  0.00    -0.497 OA
ATOM     19  C   UNL A   1      33.845  27.913  26.375  1.00  0.00     0.278 C 
ENDBRANCH  13  18
BRANCH  16  20
ATOM     20  O   UNL A   1      30.572  27.516  21.898  1.00  0.00    -0.497 OA
ATOM     21  C   UNL A   1      29.843  28.496  22.631  1.00  0.00     0.278 C 
ENDBRANCH  16  20
ENDBRANCH  10  12
ENDBRANCH   9  10
ENDBRANCH   7   9
ENDBRANCH   6   7
ENDBRANCH   3   6
ENDBRANCH   1   2
BRANCH   1  22
ATOM     22  C   UNL A   1      37.099  21.602  24.445  1.00  0.00     0.023 C 
BRANCH  22  23
ATOM     23  C   UNL A   1      37.793  20.362  24.989  1.00  0.00     0.023 C 
BRANCH  23  24
ATOM     24  C   UNL A   1      39.056  20.642  25.782  1.00  0.00     0.116 C 
BRANCH  24  25
ATOM     25  N   UNL A   1      40.016  19.543  25.765  1.00  0.00    -0.352 N 
ATOM     26  C   UNL A   1      41.341  19.580  26.120  1.00  0.00     0.251 C 
ATOM     27  H   UNL A   1      39.672  18.671  25.463  1.00  0.00     0.163 HD
ATOM     28  O   UNL A   1      42.065  18.601  25.984  1.00  0.00    -0.269 OA
BRANCH  26  29
ATOM     29  C   UNL A   1      41.880  20.852  26.629  1.00  0.00     0.039 A 
ATOM     30  C   UNL A   1      42.334  21.806  25.719  1.00  0.00     0.014 A 
ATOM     31  C   UNL A   1      41.806  21.134  27.996  1.00  0.00     0.014 A 
ATOM     32  C   UNL A   1      42.648  23.084  26.175  1.00  0.00     0.010 A 
ATOM     33  C   UNL A   1      42.032  22.430  28.433  1.00  0.00     0.010 A 
ATOM     34  C   UNL A   1      42.460  23.413  27.529  1.00  0.00    -0.014 A 
BRANCH  34  35
ATOM     35  C   UNL A   1      42.729  24.779  28.033  1.00  0.00     0.031 A 
ATOM     36  C   UNL A   1      44.131  25.163  28.409  1.00  0.00     0.074 A 
ATOM     37  C   UNL A   1      41.710  25.637  28.228  1.00  0.00     0.049 A 
ATOM     38  N   UNL A   1      44.570  26.268  28.953  1.00  0.00    -0.248 NA
ATOM     39  C   UNL A   1      45.174  24.149  28.180  1.00  0.00     0.031 C 
ATOM     40  C   UNL A   1      40.298  25.355  27.959  1.00  0.00     0.029 A 
ATOM     41  N   UNL A   1      41.708  26.922  28.707  1.00  0.00    -0.354 N 
ATOM     42  C   UNL A   1      45.928  26.069  29.158  1.00  0.00     0.074 A 
ATOM     43  C   UNL A   1      46.231  24.720  28.736  1.00  0.00     0.031 C 
ATOM     44  C   UNL A   1      39.571  26.449  28.244  1.00  0.00     0.029 A 
ATOM     45  C   UNL A   1      40.460  27.493  28.744  1.00  0.00     0.049 A 
ATOM     46  H   UNL A   1      42.524  27.390  28.997  1.00  0.00     0.167 HD
ATOM     47  C   UNL A   1      46.848  26.943  29.627  1.00  0.00     0.037 A 
ATOM     48  C   UNL A   1      40.082  28.724  29.133  1.00  0.00     0.037 A 
ATOM     49  C   UNL A   1      46.550  28.301  29.997  1.00  0.00     0.049 A 
ATOM     50  C   UNL A   1      41.125  29.692  29.615  1.00  0.00     0.074 A 
ATOM     51  C   UNL A   1      47.419  29.294  30.412  1.00  0.00     0.029 A 
ATOM     52  N   UNL A   1      45.279  28.854  29.987  1.00  0.00    -0.354 N 
ATOM     53  N   UNL A   1      42.418  29.516  29.744  1.00  0.00    -0.248 NA
ATOM     54  C   UNL A   1      40.658  31.030  30.001  1.00  0.00     0.031 C 
ATOM     55  C   UNL A   1      46.668  30.444  30.677  1.00  0.00     0.029 A 
ATOM     56  C   UNL A   1      45.337  30.174  30.398  1.00  0.00     0.049 A 
ATOM     57  H   UNL A   1      44.457  28.379  29.726  1.00  0.00     0.167 HD
ATOM     58  C   UNL A   1      42.923  30.725  30.202  1.00  0.00     0.074 A 
ATOM     59  C   UNL A   1      41.797  31.630  30.319  1.00  0.00     0.031 C 
ATOM     60  C   UNL A   1      44.203  31.056  30.499  1.00  0.00     0.037 A 
BRANCH  47  61
ATOM     61  C   UNL A   1      48.258  26.449  29.748  1.00  0.00     0.057 A 
ATOM     62  C   UNL A   1      48.717  25.805  30.904  1.00  0.00     0.134 A 
ATOM     63  C   UNL A   1      49.173  26.634  28.704  1.00  0.00     0.134 A 
ATOM     64  F   UNL A   1      47.896  25.615  31.949  1.00  0.00    -0.206 F 
ATOM     65  C   UNL A   1      50.045  25.394  31.034  1.00  0.00     0.040 A 
ATOM     66  C   UNL A   1      50.497  26.204  28.811  1.00  0.00     0.040 A 
ATOM     67  F   UNL A   1      48.798  27.243  27.570  1.00  0.00    -0.206 F 
ATOM     68  C   UNL A   1      50.938  25.590  29.982  1.00  0.00     0.006 A 
ENDBRANCH  47  61
BRANCH  48  69
ATOM     69  C   UNL A   1      38.658  29.128  29.029  1.00  0.00     0.057 A 
ATOM     70  C   UNL A   1      38.125  29.559  27.808  1.00  0.00     0.134 A 
ATOM     71  C   UNL A   1      37.798  29.083  30.131  1.00  0.00     0.134 A 
ATOM     72  F   UNL A   1      38.907  29.637  26.721  1.00  0.00    -0.206 F 
ATOM     73  C   UNL A   1      36.788  29.942  27.689  1.00  0.00     0.040 A 
ATOM     74  C   UNL A   1      36.453  29.446  30.022  1.00  0.00     0.040 A 
ATOM     75  F   UNL A   1      38.247  28.670  31.325  1.00  0.00    -0.206 F 
ATOM     76  C   UNL A   1      35.948  29.882  28.799  1.00  0.00     0.006 A 
ENDBRANCH  48  69
BRANCH  60  77
ATOM     77  C   UNL A   1      44.454  32.463  30.950  1.00  0.00     0.057 A 
ATOM     78  C   UNL A   1      44.458  32.810  32.306  1.00  0.00     0.134 A 
ATOM     79  C   UNL A   1      44.740  33.469  30.019  1.00  0.00     0.134 A 
ATOM     80  F   UNL A   1      44.179  31.892  33.244  1.00  0.00    -0.206 F 
ATOM     81  C   UNL A   1      44.723  34.116  32.720  1.00  0.00     0.040 A 
ATOM     82  C   UNL A   1      45.027  34.773  30.423  1.00  0.00     0.040 A 
ATOM     83  F   UNL A   1      44.758  33.197  28.706  1.00  0.00    -0.206 F 
ATOM     84  C   UNL A   1      45.014  35.100  31.778  1.00  0.00     0.006 A 
ENDBRANCH  60  77
ENDBRANCH  34  35
ENDBRANCH  26  29
ENDBRANCH  24  25
ENDBRANCH  23  24
ENDBRANCH  22  23
ENDBRANCH   1  22
TORSDOF 17
ENDMDL
MODEL 2
REMARK VINA RESULT:     -10.7      4.257      9.356
REMARK SMILES COc1cc(OC)cc(C(=O)C[C@H](C)CC(=O)NCCCCNC(=O)c2ccc(-c3c4nc(c(-c5c(F)cccc5F)c5ccc([nH]5)c(-c5c(F)cccc5F)c5nc(c(-c6c(F)cccc6F)c6ccc3[nH]6)C=C5)C=C4)cc2)c1
REMARK SMILES IDX 19 1 18 2 16 3 17 4 15 6 13 7 14 8 12 9 10 10 11 11 9 12
REMARK SMILES IDX 3 13 4 14 80 15 5 16 8 17 2 18 1 19 6 20 7 21 20 22 21 23
REMARK SMILES IDX 22 24 23 25 24 26 25 28 26 29 27 30 79 31 28 32 78 33 29 34
REMARK SMILES IDX 30 35 31 36 72 37 32 38 77 39 71 40 73 41 33 42 76 43 70 44
REMARK SMILES IDX 69 45 34 47 60 48 43 49 59 50 44 51 47 52 58 53 74 54 45 55
REMARK SMILES IDX 46 56 57 58 75 59 48 60 35 61 36 62 41 63 37 64 38 65 40 66
REMARK SMILES IDX 42 67 39 68 61 69 62 70 67 71 63 72 64 73 66 74 68 75 65 76
REMARK SMILES IDX 49 77 50 78 55 79 51 80 52 81 54 82 56 83 53 84
REMARK H PARENT 18 5 23 27 73 46 47 57
REMARK Flexibility Score: inf
ROOT
ATOM      1  C   UNL A   1      33.071  29.619  25.676  1.00  0.00     0.116 C 
ENDROOT
BRANCH   1   2
ATOM      2  N   UNL A   1      33.614  29.534  24.337  1.00  0.00    -0.356 N 
ATOM      3  C   UNL A   1      33.506  28.519  23.439  1.00  0.00     0.220 C 
ATOM      4  O   UNL A   1      34.147  28.580  22.389  1.00  0.00    -0.275 OA
ATOM      5  H   UNL A   1      34.132  30.315  24.037  1.00  0.00     0.163 HD
BRANCH   3   6
ATOM      6  C   UNL A   1      32.593  27.344  23.724  1.00  0.00     0.103 C 
BRANCH   6   7
ATOM      7  C   UNL A   1      33.360  26.027  23.915  1.00  0.00     0.003 C 
ATOM      8  C   UNL A   1      33.911  25.861  25.332  1.00  0.00     0.008 C 
BRANCH   7   9
ATOM      9  C   UNL A   1      32.455  24.829  23.575  1.00  0.00     0.085 C 
BRANCH   9  10
ATOM     10  C   UNL A   1      33.241  23.756  22.841  1.00  0.00     0.163 C 
ATOM     11  O   UNL A   1      33.503  23.876  21.646  1.00  0.00    -0.294 OA
BRANCH  10  12
ATOM     12  C   UNL A   1      33.662  22.524  23.578  1.00  0.00     0.025 A 
ATOM     13  C   UNL A   1      35.333  21.154  24.671  1.00  0.00     0.123 A 
ATOM     14  C   UNL A   1      34.352  20.223  25.001  1.00  0.00     0.092 A 
ATOM     15  C   UNL A   1      34.997  22.281  23.925  1.00  0.00     0.058 A 
ATOM     16  C   UNL A   1      33.023  20.433  24.627  1.00  0.00     0.123 A 
ATOM     17  C   UNL A   1      32.675  21.598  23.941  1.00  0.00     0.058 A 
BRANCH  13  18
ATOM     18  O   UNL A   1      36.616  20.868  25.049  1.00  0.00    -0.497 OA
ATOM     19  C   UNL A   1      37.253  21.945  25.739  1.00  0.00     0.278 C 
ENDBRANCH  13  18
BRANCH  16  20
ATOM     20  O   UNL A   1      32.153  19.447  25.001  1.00  0.00    -0.497 OA
ATOM     21  C   UNL A   1      32.737  18.182  25.293  1.00  0.00     0.278 C 
ENDBRANCH  16  20
ENDBRANCH  10  12
ENDBRANCH   9  10
ENDBRANCH   7   9
ENDBRANCH   6   7
ENDBRANCH   3   6
ENDBRANCH   1   2
BRANCH   1  22
ATOM     22  C   UNL A   1      31.789  30.446  25.689  1.00  0.00     0.023 C 
BRANCH  22  23
ATOM     23  C   UNL A   1      31.648  31.376  26.886  1.00  0.00     0.023 C 
BRANCH  23  24
ATOM     24  C   UNL A   1      32.868  32.235  27.166  1.00  0.00     0.116 C 
BRANCH  24  25
ATOM     25  N   UNL A   1      32.551  33.629  27.458  1.00  0.00    -0.352 N 
ATOM     26  C   UNL A   1      33.149  34.451  28.380  1.00  0.00     0.251 C 
ATOM     27  H   UNL A   1      31.821  34.027  26.932  1.00  0.00     0.163 HD
ATOM     28  O   UNL A   1      32.735  35.585  28.587  1.00  0.00    -0.269 OA
BRANCH  26  29
ATOM     29  C   UNL A   1      34.282  33.909  29.149  1.00  0.00     0.039 A 
ATOM     30  C   UNL A   1      34.028  33.006  30.181  1.00  0.00     0.014 A 
ATOM     31  C   UNL A   1      35.589  34.203  28.751  1.00  0.00     0.014 A 
ATOM     32  C   UNL A   1      35.095  32.334  30.772  1.00  0.00     0.010 A 
ATOM     33  C   UNL A   1      36.639  33.467  29.277  1.00  0.00     0.010 A 
ATOM     34  C   UNL A   1      36.402  32.531  30.295  1.00  0.00    -0.014 A 
BRANCH  34  35
ATOM     35  C   UNL A   1      37.549  31.788  30.863  1.00  0.00     0.031 A 
ATOM     36  C   UNL A   1      38.024  32.113  32.250  1.00  0.00     0.074 A 
ATOM     37  C   UNL A   1      38.207  30.887  30.109  1.00  0.00     0.049 A 
ATOM     38  N   UNL A   1      39.060  31.650  32.900  1.00  0.00    -0.248 NA
ATOM     39  C   UNL A   1      37.254  33.127  32.988  1.00  0.00     0.031 C 
ATOM     40  C   UNL A   1      37.877  30.532  28.727  1.00  0.00     0.029 A 
ATOM     41  N   UNL A   1      39.298  30.110  30.400  1.00  0.00    -0.354 N 
ATOM     42  C   UNL A   1      39.082  32.338  34.106  1.00  0.00     0.074 A 
ATOM     43  C   UNL A   1      37.993  33.289  34.075  1.00  0.00     0.031 C 
ATOM     44  C   UNL A   1      38.727  29.582  28.303  1.00  0.00     0.029 A 
ATOM     45  C   UNL A   1      39.677  29.285  29.370  1.00  0.00     0.049 A 
ATOM     46  H   UNL A   1      39.767  30.142  31.266  1.00  0.00     0.167 HD
ATOM     47  C   UNL A   1      39.914  32.170  35.159  1.00  0.00     0.037 A 
ATOM     48  C   UNL A   1      40.677  28.387  29.302  1.00  0.00     0.037 A 
ATOM     49  C   UNL A   1      40.962  31.187  35.205  1.00  0.00     0.049 A 
ATOM     50  C   UNL A   1      41.567  28.190  30.496  1.00  0.00     0.074 A 
ATOM     51  C   UNL A   1      41.815  30.881  36.250  1.00  0.00     0.029 A 
ATOM     52  N   UNL A   1      41.293  30.344  34.154  1.00  0.00    -0.354 N 
ATOM     53  N   UNL A   1      41.538  28.800  31.657  1.00  0.00    -0.248 NA
ATOM     54  C   UNL A   1      42.624  27.178  30.374  1.00  0.00     0.031 C 
ATOM     55  C   UNL A   1      42.679  29.867  35.823  1.00  0.00     0.029 A 
ATOM     56  C   UNL A   1      42.344  29.523  34.522  1.00  0.00     0.049 A 
ATOM     57  H   UNL A   1      40.846  30.332  33.278  1.00  0.00     0.167 HD
ATOM     58  C   UNL A   1      42.554  28.231  32.411  1.00  0.00     0.074 A 
ATOM     59  C   UNL A   1      43.175  27.220  31.579  1.00  0.00     0.031 C 
ATOM     60  C   UNL A   1      42.939  28.519  33.678  1.00  0.00     0.037 A 
BRANCH  47  61
ATOM     61  C   UNL A   1      39.704  33.066  36.343  1.00  0.00     0.057 A 
ATOM     62  C   UNL A   1      38.796  32.745  37.359  1.00  0.00     0.134 A 
ATOM     63  C   UNL A   1      40.406  34.272  36.460  1.00  0.00     0.134 A 
ATOM     64  F   UNL A   1      38.077  31.613  37.296  1.00  0.00    -0.206 F 
ATOM     65  C   UNL A   1      38.564  33.607  38.432  1.00  0.00     0.040 A 
ATOM     66  C   UNL A   1      40.203  35.131  37.542  1.00  0.00     0.040 A 
ATOM     67  F   UNL A   1      41.291  34.640  35.521  1.00  0.00    -0.206 F 
ATOM     68  C   UNL A   1      39.273  34.803  38.527  1.00  0.00     0.006 A 
ENDBRANCH  47  61
BRANCH  48  69
ATOM     69  C   UNL A   1      40.853  27.568  28.077  1.00  0.00     0.057 A 
ATOM     70  C   UNL A   1      40.223  26.325  27.953  1.00  0.00     0.134 A 
ATOM     71  C   UNL A   1      41.637  28.006  27.005  1.00  0.00     0.134 A 
ATOM     72  F   UNL A   1      39.470  25.847  28.955  1.00  0.00    -0.206 F 
ATOM     73  C   UNL A   1      40.374  25.539  26.809  1.00  0.00     0.040 A 
ATOM     74  C   UNL A   1      41.784  27.240  25.847  1.00  0.00     0.040 A 
ATOM     75  F   UNL A   1      42.260  29.193  27.061  1.00  0.00    -0.206 F 
ATOM     76  C   UNL A   1      41.154  26.000  25.751  1.00  0.00     0.006 A 
ENDBRANCH  48  69
BRANCH  60  77
ATOM     77  C   UNL A   1      44.064  27.710  34.249  1.00  0.00     0.057 A 
ATOM     78  C   UNL A   1      45.391  28.152  34.190  1.00  0.00     0.134 A 
ATOM     79  C   UNL A   1      43.809  26.498  34.902  1.00  0.00     0.134 A 
ATOM     80  F   UNL A   1      45.699  29.300  33.566  1.00  0.00    -0.206 F 
ATOM     81  C   UNL A   1      46.430  27.407  34.749  1.00  0.00     0.040 A 
ATOM     82  C   UNL A   1      44.837  25.756  35.483  1.00  0.00     0.040 A 
ATOM     83  F   UNL A   1      42.558  26.025  34.997  1.00  0.00    -0.206 F 
ATOM     84  C   UNL A   1      46.153  26.209  35.404  1.00  0.00     0.006 A 
ENDBRANCH  60  77
ENDBRANCH  34  35
ENDBRANCH  26  29
ENDBRANCH  24  25
ENDBRANCH  23  24
ENDBRANCH  22  23
ENDBRANCH   1  22
TORSDOF 17
ENDMDL
MODEL 3
REMARK VINA RESULT:     -10.5      4.396      9.203
REMARK SMILES COc1cc(OC)cc(C(=O)C[C@H](C)CC(=O)NCCCCNC(=O)c2ccc(-c3c4nc(c(-c5c(F)cccc5F)c5ccc([nH]5)c(-c5c(F)cccc5F)c5nc(c(-c6c(F)cccc6F)c6ccc3[nH]6)C=C5)C=C4)cc2)c1
REMARK SMILES IDX 19 1 18 2 16 3 17 4 15 6 13 7 14 8 12 9 10 10 11 11 9 12
REMARK SMILES IDX 3 13 4 14 80 15 5 16 8 17 2 18 1 19 6 20 7 21 20 22 21 23
REMARK SMILES IDX 22 24 23 25 24 26 25 28 26 29 27 30 79 31 28 32 78 33 29 34
REMARK SMILES IDX 30 35 31 36 72 37 32 38 77 39 71 40 73 41 33 42 76 43 70 44
REMARK SMILES IDX 69 45 34 47 60 48 43 49 59 50 44 51 47 52 58 53 74 54 45 55
REMARK SMILES IDX 46 56 57 58 75 59 48 60 35 61 36 62 41 63 37 64 38 65 40 66
REMARK SMILES IDX 42 67 39 68 61 69 62 70 67 71 63 72 64 73 66 74 68 75 65 76
REMARK SMILES IDX 49 77 50 78 55 79 51 80 52 81 54 82 56 83 53 84
REMARK H PARENT 18 5 23 27 73 46 47 57
REMARK Flexibility Score: inf
ROOT
ATOM      1  C   UNL A   1      32.023  29.517  25.211  1.00  0.00     0.116 C 
ENDROOT
BRANCH   1   2
ATOM      2  N   UNL A   1      33.128  29.566  24.278  1.00  0.00    -0.356 N 
ATOM      3  C   UNL A   1      33.514  28.632  23.369  1.00  0.00     0.220 C 
ATOM      4  O   UNL A   1      34.562  28.803  22.745  1.00  0.00    -0.275 OA
ATOM      5  H   UNL A   1      33.673  30.384  24.306  1.00  0.00     0.163 HD
BRANCH   3   6
ATOM      6  C   UNL A   1      32.651  27.413  23.117  1.00  0.00     0.103 C 
BRANCH   6   7
ATOM      7  C   UNL A   1      33.345  26.101  23.516  1.00  0.00     0.003 C 
ATOM      8  C   UNL A   1      33.713  26.053  25.000  1.00  0.00     0.008 C 
BRANCH   7   9
ATOM      9  C   UNL A   1      32.448  24.898  23.172  1.00  0.00     0.085 C 
BRANCH   9  10
ATOM     10  C   UNL A   1      33.273  23.764  22.589  1.00  0.00     0.163 C 
ATOM     11  O   UNL A   1      33.643  23.795  21.417  1.00  0.00    -0.294 OA
BRANCH  10  12
ATOM     12  C   UNL A   1      33.602  22.582  23.444  1.00  0.00     0.025 A 
ATOM     13  C   UNL A   1      33.046  20.449  24.447  1.00  0.00     0.123 A 
ATOM     14  C   UNL A   1      34.319  20.382  25.007  1.00  0.00     0.092 A 
ATOM     15  C   UNL A   1      32.674  21.565  23.702  1.00  0.00     0.058 A 
ATOM     16  C   UNL A   1      35.241  21.408  24.791  1.00  0.00     0.123 A 
ATOM     17  C   UNL A   1      34.891  22.492  23.986  1.00  0.00     0.058 A 
BRANCH  13  18
ATOM     18  O   UNL A   1      32.189  19.418  24.723  1.00  0.00    -0.497 OA
ATOM     19  C   UNL A   1      32.530  18.206  24.047  1.00  0.00     0.278 C 
ENDBRANCH  13  18
BRANCH  16  20
ATOM     20  O   UNL A   1      36.454  21.234  25.398  1.00  0.00    -0.497 OA
ATOM     21  C   UNL A   1      37.373  22.314  25.270  1.00  0.00     0.278 C 
ENDBRANCH  16  20
ENDBRANCH  10  12
ENDBRANCH   9  10
ENDBRANCH   7   9
ENDBRANCH   6   7
ENDBRANCH   3   6
ENDBRANCH   1   2
BRANCH   1  22
ATOM     22  C   UNL A   1      32.443  30.047  26.578  1.00  0.00     0.023 C 
BRANCH  22  23
ATOM     23  C   UNL A   1      31.995  31.471  26.871  1.00  0.00     0.023 C 
BRANCH  23  24
ATOM     24  C   UNL A   1      33.088  32.382  27.398  1.00  0.00     0.116 C 
BRANCH  24  25
ATOM     25  N   UNL A   1      32.645  33.750  27.648  1.00  0.00    -0.352 N 
ATOM     26  C   UNL A   1      33.127  34.632  28.581  1.00  0.00     0.251 C 
ATOM     27  H   UNL A   1      31.912  34.079  27.078  1.00  0.00     0.163 HD
ATOM     28  O   UNL A   1      32.612  35.731  28.746  1.00  0.00    -0.269 OA
BRANCH  26  29
ATOM     29  C   UNL A   1      34.260  34.196  29.416  1.00  0.00     0.039 A 
ATOM     30  C   UNL A   1      34.018  33.339  30.489  1.00  0.00     0.014 A 
ATOM     31  C   UNL A   1      35.562  34.539  29.042  1.00  0.00     0.014 A 
ATOM     32  C   UNL A   1      35.098  32.760  31.151  1.00  0.00     0.010 A 
ATOM     33  C   UNL A   1      36.631  33.892  29.643  1.00  0.00     0.010 A 
ATOM     34  C   UNL A   1      36.409  33.002  30.705  1.00  0.00    -0.014 A 
BRANCH  34  35
ATOM     35  C   UNL A   1      37.574  32.355  31.350  1.00  0.00     0.031 A 
ATOM     36  C   UNL A   1      38.270  31.224  30.649  1.00  0.00     0.074 A 
ATOM     37  C   UNL A   1      37.950  32.727  32.587  1.00  0.00     0.049 A 
ATOM     38  N   UNL A   1      39.246  30.463  31.072  1.00  0.00    -0.248 NA
ATOM     39  C   UNL A   1      37.773  30.875  29.308  1.00  0.00     0.031 C 
ATOM     40  C   UNL A   1      37.310  33.770  33.393  1.00  0.00     0.029 A 
ATOM     41  N   UNL A   1      38.960  32.261  33.388  1.00  0.00    -0.354 N 
ATOM     42  C   UNL A   1      39.456  29.532  30.065  1.00  0.00     0.074 A 
ATOM     43  C   UNL A   1      38.471  29.783  29.038  1.00  0.00     0.031 C 
ATOM     44  C   UNL A   1      37.967  33.887  34.560  1.00  0.00     0.029 A 
ATOM     45  C   UNL A   1      39.050  32.910  34.596  1.00  0.00     0.049 A 
ATOM     46  H   UNL A   1      39.564  31.530  33.123  1.00  0.00     0.167 HD
ATOM     47  C   UNL A   1      40.406  28.571  29.988  1.00  0.00     0.037 A 
ATOM     48  C   UNL A   1      39.915  32.735  35.611  1.00  0.00     0.037 A 
ATOM     49  C   UNL A   1      41.416  28.359  30.989  1.00  0.00     0.049 A 
ATOM     50  C   UNL A   1      40.985  31.688  35.489  1.00  0.00     0.074 A 
ATOM     51  C   UNL A   1      42.471  27.465  30.976  1.00  0.00     0.029 A 
ATOM     52  N   UNL A   1      41.496  29.060  32.182  1.00  0.00    -0.354 N 
ATOM     53  N   UNL A   1      41.216  30.854  34.503  1.00  0.00    -0.248 NA
ATOM     54  C   UNL A   1      41.917  31.560  36.617  1.00  0.00     0.031 C 
ATOM     55  C   UNL A   1      43.177  27.609  32.175  1.00  0.00     0.029 A 
ATOM     56  C   UNL A   1      42.577  28.613  32.920  1.00  0.00     0.049 A 
ATOM     57  H   UNL A   1      40.875  29.771  32.463  1.00  0.00     0.167 HD
ATOM     58  C   UNL A   1      42.332  30.120  34.880  1.00  0.00     0.074 A 
ATOM     59  C   UNL A   1      42.737  30.613  36.180  1.00  0.00     0.031 C 
ATOM     60  C   UNL A   1      42.964  29.127  34.209  1.00  0.00     0.037 A 
BRANCH  47  61
ATOM     61  C   UNL A   1      40.392  27.696  28.771  1.00  0.00     0.057 A 
ATOM     62  C   UNL A   1      39.648  26.510  28.723  1.00  0.00     0.134 A 
ATOM     63  C   UNL A   1      41.145  28.032  27.639  1.00  0.00     0.134 A 
ATOM     64  F   UNL A   1      38.922  26.120  29.782  1.00  0.00    -0.206 F 
ATOM     65  C   UNL A   1      39.681  25.670  27.608  1.00  0.00     0.040 A 
ATOM     66  C   UNL A   1      41.165  27.215  26.508  1.00  0.00     0.040 A 
ATOM     67  F   UNL A   1      41.879  29.155  27.618  1.00  0.00    -0.206 F 
ATOM     68  C   UNL A   1      40.439  26.026  26.494  1.00  0.00     0.006 A 
ENDBRANCH  47  61
BRANCH  48  69
ATOM     69  C   UNL A   1      39.837  33.609  36.807  1.00  0.00     0.057 A 
ATOM     70  C   UNL A   1      39.023  33.265  37.893  1.00  0.00     0.134 A 
ATOM     71  C   UNL A   1      40.576  34.793  36.902  1.00  0.00     0.134 A 
ATOM     72  F   UNL A   1      38.281  32.149  37.851  1.00  0.00    -0.206 F 
ATOM     73  C   UNL A   1      38.937  34.073  39.027  1.00  0.00     0.040 A 
ATOM     74  C   UNL A   1      40.514  35.602  38.039  1.00  0.00     0.040 A 
ATOM     75  F   UNL A   1      41.381  35.173  35.899  1.00  0.00    -0.206 F 
ATOM     76  C   UNL A   1      39.689  35.244  39.103  1.00  0.00     0.006 A 
ENDBRANCH  48  69
BRANCH  60  77
ATOM     77  C   UNL A   1      44.177  28.531  34.859  1.00  0.00     0.057 A 
ATOM     78  C   UNL A   1      44.088  27.403  35.684  1.00  0.00     0.134 A 
ATOM     79  C   UNL A   1      45.448  29.066  34.619  1.00  0.00     0.134 A 
ATOM     80  F   UNL A   1      42.896  26.854  35.960  1.00  0.00    -0.206 F 
ATOM     81  C   UNL A   1      45.225  26.836  36.262  1.00  0.00     0.040 A 
ATOM     82  C   UNL A   1      46.593  28.495  35.174  1.00  0.00     0.040 A 
ATOM     83  F   UNL A   1      45.598  30.141  33.832  1.00  0.00    -0.206 F 
ATOM     84  C   UNL A   1      46.482  27.378  36.002  1.00  0.00     0.006 A 
ENDBRANCH  60  77
ENDBRANCH  34  35
ENDBRANCH  26  29
ENDBRANCH  24  25
ENDBRANCH  23  24
ENDBRANCH  22  23
ENDBRANCH   1  22
TORSDOF 17
ENDMDL
