MODEL 1
REMARK VINA RESULT:     -12.0      0.000      0.000
REMARK SMILES C[C@H](NC(=O)c1ccn(CC(=O)NCCCCNC(=O)c2ccc(-c3c4nc(c(-c5c(F)cccc5F)c5ccc([nH]5)c(-c5c(F)cccc5F)c5nc(c(-c6c(F)cccc6F)c6ccc3[nH]6)C=C5)C=C4)cc2)n1)c1ccccc1
REMARK SMILES IDX 14 1 13 2 11 3 12 4 10 6 9 7 6 8 7 9 75 10 8 11 4 12 3 13
REMARK SMILES IDX 5 15 2 16 1 17 76 18 77 19 81 20 78 21 80 22 79 23 15 24
REMARK SMILES IDX 16 25 17 26 18 27 19 28 20 30 21 31 22 32 74 33 23 34 73 35
REMARK SMILES IDX 24 36 25 37 26 38 67 39 27 40 72 41 66 42 68 43 28 44 71 45
REMARK SMILES IDX 65 46 64 47 29 49 55 50 38 51 54 52 39 53 42 54 53 55 69 56
REMARK SMILES IDX 40 57 41 58 52 60 70 61 43 62 30 63 31 64 36 65 32 66 33 67
REMARK SMILES IDX 35 68 37 69 34 70 56 71 57 72 62 73 58 74 59 75 61 76 63 77
REMARK SMILES IDX 60 78 44 79 45 80 50 81 46 82 47 83 49 84 51 85 48 86
REMARK H PARENT 13 5 3 14 18 29 68 48 42 59
REMARK Flexibility Score: inf
ROOT
ATOM      1  C   UNL A   1      33.935  33.148  28.114  1.00  0.00     0.116 C 
ENDROOT
BRANCH   1   2
ATOM      2  N   UNL A   1      34.659  31.970  27.672  1.00  0.00    -0.354 N 
ATOM      3  C   UNL A   1      34.166  30.723  27.405  1.00  0.00     0.241 C 
ATOM      4  O   UNL A   1      34.972  29.811  27.206  1.00  0.00    -0.273 OA
ATOM      5  H   UNL A   1      35.629  32.083  27.549  1.00  0.00     0.163 HD
BRANCH   3   6
ATOM      6  C   UNL A   1      32.678  30.492  27.296  1.00  0.00     0.243 C 
BRANCH   6   7
ATOM      7  N   UNL A   1      32.346  29.456  26.337  1.00  0.00    -0.263 N 
ATOM      8  C   UNL A   1      32.117  28.559  24.411  1.00  0.00     0.150 A 
ATOM      9  C   UNL A   1      31.937  27.536  25.383  1.00  0.00     0.056 A 
ATOM     10  N   UNL A   1      32.422  29.721  25.019  1.00  0.00    -0.167 NA
ATOM     11  C   UNL A   1      32.040  28.157  26.606  1.00  0.00     0.110 A 
BRANCH   8  12
ATOM     12  C   UNL A   1      32.158  28.433  22.951  1.00  0.00     0.272 C 
ATOM     13  N   UNL A   1      31.024  28.267  22.196  1.00  0.00    -0.344 N 
ATOM     14  H   UNL A   1      31.233  27.921  21.298  1.00  0.00     0.164 HD
ATOM     15  O   UNL A   1      33.229  28.427  22.339  1.00  0.00    -0.267 OA
BRANCH  13  16
ATOM     16  C   UNL A   1      29.584  28.469  22.381  1.00  0.00     0.109 C 
ATOM     17  C   UNL A   1      28.907  27.588  23.427  1.00  0.00     0.036 C 
BRANCH  16  18
ATOM     18  C   UNL A   1      29.226  29.953  22.444  1.00  0.00    -0.026 A 
ATOM     19  C   UNL A   1      28.774  30.622  21.293  1.00  0.00     0.006 A 
ATOM     20  C   UNL A   1      29.247  30.681  23.641  1.00  0.00     0.006 A 
ATOM     21  C   UNL A   1      28.424  31.977  21.329  1.00  0.00     0.000 A 
ATOM     22  C   UNL A   1      28.877  32.028  23.683  1.00  0.00     0.000 A 
ATOM     23  C   UNL A   1      28.498  32.687  22.521  1.00  0.00     0.000 A 
ENDBRANCH  16  18
ENDBRANCH  13  16
ENDBRANCH   8  12
ENDBRANCH   6   7
ENDBRANCH   3   6
ENDBRANCH   1   2
BRANCH   1  24
ATOM     24  C   UNL A   1      34.866  34.358  28.235  1.00  0.00     0.023 C 
BRANCH  24  25
ATOM     25  C   UNL A   1      34.220  35.615  28.831  1.00  0.00     0.023 C 
BRANCH  25  26
ATOM     26  C   UNL A   1      32.847  35.395  29.442  1.00  0.00     0.116 C 
BRANCH  26  27
ATOM     27  N   UNL A   1      32.595  36.180  30.655  1.00  0.00    -0.352 N 
ATOM     28  C   UNL A   1      32.889  35.846  31.968  1.00  0.00     0.251 C 
ATOM     29  H   UNL A   1      32.162  37.055  30.519  1.00  0.00     0.163 HD
ATOM     30  O   UNL A   1      32.267  36.308  32.906  1.00  0.00    -0.269 OA
BRANCH  28  31
ATOM     31  C   UNL A   1      34.020  34.928  32.188  1.00  0.00     0.039 A 
ATOM     32  C   UNL A   1      33.942  33.558  31.945  1.00  0.00     0.014 A 
ATOM     33  C   UNL A   1      35.213  35.514  32.592  1.00  0.00     0.014 A 
ATOM     34  C   UNL A   1      35.117  32.812  32.015  1.00  0.00     0.010 A 
ATOM     35  C   UNL A   1      36.384  34.842  32.413  1.00  0.00     0.010 A 
ATOM     36  C   UNL A   1      36.345  33.474  32.213  1.00  0.00    -0.014 A 
BRANCH  36  37
ATOM     37  C   UNL A   1      37.620  32.784  32.070  1.00  0.00     0.031 A 
ATOM     38  C   UNL A   1      38.348  32.644  33.353  1.00  0.00     0.074 A 
ATOM     39  C   UNL A   1      38.008  32.145  30.943  1.00  0.00     0.049 A 
ATOM     40  N   UNL A   1      39.380  33.321  33.729  1.00  0.00    -0.248 NA
ATOM     41  C   UNL A   1      37.759  31.815  34.418  1.00  0.00     0.031 C 
ATOM     42  C   UNL A   1      37.245  31.934  29.706  1.00  0.00     0.029 A 
ATOM     43  N   UNL A   1      39.156  31.453  30.696  1.00  0.00    -0.354 N 
ATOM     44  C   UNL A   1      39.737  32.794  34.963  1.00  0.00     0.074 A 
ATOM     45  C   UNL A   1      38.585  32.074  35.436  1.00  0.00     0.031 C 
ATOM     46  C   UNL A   1      37.844  30.986  28.951  1.00  0.00     0.029 A 
ATOM     47  C   UNL A   1      39.120  30.652  29.555  1.00  0.00     0.049 A 
ATOM     48  H   UNL A   1      39.948  31.514  31.276  1.00  0.00     0.167 HD
ATOM     49  C   UNL A   1      41.052  32.719  35.307  1.00  0.00     0.037 A 
ATOM     50  C   UNL A   1      40.068  29.774  29.141  1.00  0.00     0.037 A 
ATOM     51  C   UNL A   1      41.850  33.581  34.458  1.00  0.00     0.049 A 
ATOM     52  C   UNL A   1      41.332  30.142  29.821  1.00  0.00     0.074 A 
ATOM     53  C   UNL A   1      41.822  34.921  34.119  1.00  0.00     0.029 A 
ATOM     54  N   UNL A   1      42.619  32.974  33.494  1.00  0.00    -0.354 N 
ATOM     55  N   UNL A   1      42.006  31.224  29.557  1.00  0.00    -0.248 NA
ATOM     56  C   UNL A   1      41.600  29.540  31.117  1.00  0.00     0.031 C 
ATOM     57  C   UNL A   1      42.156  34.960  32.730  1.00  0.00     0.029 A 
ATOM     58  C   UNL A   1      42.457  33.661  32.321  1.00  0.00     0.049 A 
ATOM     59  H   UNL A   1      43.189  32.182  33.625  1.00  0.00     0.167 HD
ATOM     60  C   UNL A   1      42.398  31.697  30.799  1.00  0.00     0.074 A 
ATOM     61  C   UNL A   1      42.214  30.567  31.709  1.00  0.00     0.031 C 
ATOM     62  C   UNL A   1      42.538  33.038  31.020  1.00  0.00     0.037 A 
BRANCH  49  63
ATOM     63  C   UNL A   1      41.663  31.545  36.046  1.00  0.00     0.057 A 
ATOM     64  C   UNL A   1      42.607  31.812  37.055  1.00  0.00     0.134 A 
ATOM     65  C   UNL A   1      41.627  30.204  35.609  1.00  0.00     0.134 A 
ATOM     66  F   UNL A   1      42.741  33.047  37.562  1.00  0.00    -0.206 F 
ATOM     67  C   UNL A   1      43.523  30.853  37.501  1.00  0.00     0.040 A 
ATOM     68  C   UNL A   1      42.504  29.226  36.087  1.00  0.00     0.040 A 
ATOM     69  F   UNL A   1      40.822  29.775  34.632  1.00  0.00    -0.206 F 
ATOM     70  C   UNL A   1      43.483  29.558  37.005  1.00  0.00     0.006 A 
ENDBRANCH  49  63
BRANCH  50  71
ATOM     71  C   UNL A   1      39.935  28.501  28.395  1.00  0.00     0.057 A 
ATOM     72  C   UNL A   1      40.586  28.312  27.165  1.00  0.00     0.134 A 
ATOM     73  C   UNL A   1      39.424  27.341  29.002  1.00  0.00     0.134 A 
ATOM     74  F   UNL A   1      41.138  29.349  26.519  1.00  0.00    -0.206 F 
ATOM     75  C   UNL A   1      40.760  27.042  26.596  1.00  0.00     0.040 A 
ATOM     76  C   UNL A   1      39.585  26.068  28.442  1.00  0.00     0.040 A 
ATOM     77  F   UNL A   1      38.836  27.393  30.207  1.00  0.00    -0.206 F 
ATOM     78  C   UNL A   1      40.272  25.913  27.244  1.00  0.00     0.006 A 
ENDBRANCH  50  71
BRANCH  62  79
ATOM     79  C   UNL A   1      42.576  33.946  29.819  1.00  0.00     0.057 A 
ATOM     80  C   UNL A   1      41.478  34.663  29.315  1.00  0.00     0.134 A 
ATOM     81  C   UNL A   1      43.810  34.174  29.200  1.00  0.00     0.134 A 
ATOM     82  F   UNL A   1      40.275  34.597  29.899  1.00  0.00    -0.206 F 
ATOM     83  C   UNL A   1      41.595  35.514  28.211  1.00  0.00     0.040 A 
ATOM     84  C   UNL A   1      43.948  35.050  28.122  1.00  0.00     0.040 A 
ATOM     85  F   UNL A   1      44.917  33.568  29.658  1.00  0.00    -0.206 F 
ATOM     86  C   UNL A   1      42.835  35.710  27.612  1.00  0.00     0.006 A 
ENDBRANCH  62  79
ENDBRANCH  36  37
ENDBRANCH  28  31
ENDBRANCH  26  27
ENDBRANCH  25  26
ENDBRANCH  24  25
ENDBRANCH   1  24
TORSDOF 15
ENDMDL
MODEL 2
REMARK VINA RESULT:     -11.3      1.751      3.065
REMARK SMILES C[C@H](NC(=O)c1ccn(CC(=O)NCCCCNC(=O)c2ccc(-c3c4nc(c(-c5c(F)cccc5F)c5ccc([nH]5)c(-c5c(F)cccc5F)c5nc(c(-c6c(F)cccc6F)c6ccc3[nH]6)C=C5)C=C4)cc2)n1)c1ccccc1
REMARK SMILES IDX 14 1 13 2 11 3 12 4 10 6 9 7 6 8 7 9 75 10 8 11 4 12 3 13
REMARK SMILES IDX 5 15 2 16 1 17 76 18 77 19 81 20 78 21 80 22 79 23 15 24
REMARK SMILES IDX 16 25 17 26 18 27 19 28 20 30 21 31 22 32 74 33 23 34 73 35
REMARK SMILES IDX 24 36 25 37 26 38 67 39 27 40 72 41 66 42 68 43 28 44 71 45
REMARK SMILES IDX 65 46 64 47 29 49 55 50 38 51 54 52 39 53 42 54 53 55 69 56
REMARK SMILES IDX 40 57 41 58 52 60 70 61 43 62 30 63 31 64 36 65 32 66 33 67
REMARK SMILES IDX 35 68 37 69 34 70 56 71 57 72 62 73 58 74 59 75 61 76 63 77
REMARK SMILES IDX 60 78 44 79 45 80 50 81 46 82 47 83 49 84 51 85 48 86
REMARK H PARENT 13 5 3 14 18 29 68 48 42 59
REMARK Flexibility Score: inf
ROOT
ATOM      1  C   UNL A   1      33.880  32.948  27.904  1.00  0.00     0.116 C 
ENDROOT
BRANCH   1   2
ATOM      2  N   UNL A   1      34.477  31.624  27.886  1.00  0.00    -0.354 N 
ATOM      3  C   UNL A   1      33.951  30.464  27.389  1.00  0.00     0.241 C 
ATOM      4  O   UNL A   1      34.547  29.410  27.624  1.00  0.00    -0.273 OA
ATOM      5  H   UNL A   1      35.376  31.553  28.281  1.00  0.00     0.163 HD
BRANCH   3   6
ATOM      6  C   UNL A   1      32.712  30.488  26.527  1.00  0.00     0.243 C 
BRANCH   6   7
ATOM      7  N   UNL A   1      32.569  29.288  25.727  1.00  0.00    -0.263 N 
ATOM      8  C   UNL A   1      31.720  27.429  25.103  1.00  0.00     0.150 A 
ATOM      9  C   UNL A   1      32.659  27.823  24.111  1.00  0.00     0.056 A 
ATOM     10  N   UNL A   1      31.640  28.372  26.061  1.00  0.00    -0.167 NA
ATOM     11  C   UNL A   1      33.221  28.993  24.568  1.00  0.00     0.110 A 
BRANCH   8  12
ATOM     12  C   UNL A   1      30.805  26.283  25.090  1.00  0.00     0.272 C 
ATOM     13  N   UNL A   1      31.213  25.015  25.418  1.00  0.00    -0.344 N 
ATOM     14  H   UNL A   1      30.580  24.333  25.094  1.00  0.00     0.164 HD
ATOM     15  O   UNL A   1      29.630  26.405  24.735  1.00  0.00    -0.267 OA
BRANCH  13  16
ATOM     16  C   UNL A   1      32.346  24.411  26.126  1.00  0.00     0.109 C 
ATOM     17  C   UNL A   1      32.004  23.338  27.157  1.00  0.00     0.036 C 
BRANCH  16  18
ATOM     18  C   UNL A   1      33.485  24.060  25.171  1.00  0.00    -0.026 A 
ATOM     19  C   UNL A   1      34.817  24.067  25.625  1.00  0.00     0.006 A 
ATOM     20  C   UNL A   1      33.261  23.640  23.854  1.00  0.00     0.006 A 
ATOM     21  C   UNL A   1      35.877  23.733  24.774  1.00  0.00     0.000 A 
ATOM     22  C   UNL A   1      34.317  23.285  23.010  1.00  0.00     0.000 A 
ATOM     23  C   UNL A   1      35.629  23.365  23.458  1.00  0.00     0.000 A 
ENDBRANCH  16  18
ENDBRANCH  13  16
ENDBRANCH   8  12
ENDBRANCH   6   7
ENDBRANCH   3   6
ENDBRANCH   1   2
BRANCH   1  24
ATOM     24  C   UNL A   1      34.907  34.013  28.297  1.00  0.00     0.023 C 
BRANCH  24  25
ATOM     25  C   UNL A   1      34.312  35.299  28.885  1.00  0.00     0.023 C 
BRANCH  25  26
ATOM     26  C   UNL A   1      32.942  35.134  29.519  1.00  0.00     0.116 C 
BRANCH  26  27
ATOM     27  N   UNL A   1      32.726  35.957  30.714  1.00  0.00    -0.352 N 
ATOM     28  C   UNL A   1      33.063  35.664  32.027  1.00  0.00     0.251 C 
ATOM     29  H   UNL A   1      32.289  36.826  30.564  1.00  0.00     0.163 HD
ATOM     30  O   UNL A   1      32.469  36.155  32.969  1.00  0.00    -0.269 OA
BRANCH  28  31
ATOM     31  C   UNL A   1      34.201  34.754  32.240  1.00  0.00     0.039 A 
ATOM     32  C   UNL A   1      34.107  33.373  32.080  1.00  0.00     0.014 A 
ATOM     33  C   UNL A   1      35.415  35.355  32.547  1.00  0.00     0.014 A 
ATOM     34  C   UNL A   1      35.282  32.626  32.131  1.00  0.00     0.010 A 
ATOM     35  C   UNL A   1      36.573  34.668  32.346  1.00  0.00     0.010 A 
ATOM     36  C   UNL A   1      36.520  33.291  32.227  1.00  0.00    -0.014 A 
BRANCH  36  37
ATOM     37  C   UNL A   1      37.785  32.587  32.058  1.00  0.00     0.031 A 
ATOM     38  C   UNL A   1      38.516  32.398  33.333  1.00  0.00     0.074 A 
ATOM     39  C   UNL A   1      38.159  31.977  30.910  1.00  0.00     0.049 A 
ATOM     40  N   UNL A   1      39.559  33.048  33.724  1.00  0.00    -0.248 NA
ATOM     41  C   UNL A   1      37.919  31.546  34.375  1.00  0.00     0.031 C 
ATOM     42  C   UNL A   1      37.388  31.815  29.670  1.00  0.00     0.029 A 
ATOM     43  N   UNL A   1      39.295  31.276  30.637  1.00  0.00    -0.354 N 
ATOM     44  C   UNL A   1      39.913  32.479  34.940  1.00  0.00     0.074 A 
ATOM     45  C   UNL A   1      38.753  31.761  35.396  1.00  0.00     0.031 C 
ATOM     46  C   UNL A   1      37.970  30.882  28.885  1.00  0.00     0.029 A 
ATOM     47  C   UNL A   1      39.243  30.511  29.473  1.00  0.00     0.049 A 
ATOM     48  H   UNL A   1      40.090  31.308  31.216  1.00  0.00     0.167 HD
ATOM     49  C   UNL A   1      41.228  32.374  35.276  1.00  0.00     0.037 A 
ATOM     50  C   UNL A   1      40.176  29.632  29.028  1.00  0.00     0.037 A 
ATOM     51  C   UNL A   1      42.036  33.249  34.450  1.00  0.00     0.049 A 
ATOM     52  C   UNL A   1      41.448  29.961  29.713  1.00  0.00     0.074 A 
ATOM     53  C   UNL A   1      42.026  34.599  34.151  1.00  0.00     0.029 A 
ATOM     54  N   UNL A   1      42.791  32.661  33.464  1.00  0.00    -0.354 N 
ATOM     55  N   UNL A   1      42.138  31.040  29.479  1.00  0.00    -0.248 NA
ATOM     56  C   UNL A   1      41.712  29.315  30.989  1.00  0.00     0.031 C 
ATOM     57  C   UNL A   1      42.355  34.676  32.763  1.00  0.00     0.029 A 
ATOM     58  C   UNL A   1      42.635  33.385  32.314  1.00  0.00     0.049 A 
ATOM     59  H   UNL A   1      43.350  31.857  33.569  1.00  0.00     0.167 HD
ATOM     60  C   UNL A   1      42.541  31.470  30.733  1.00  0.00     0.074 A 
ATOM     61  C   UNL A   1      42.344  30.315  31.609  1.00  0.00     0.031 C 
ATOM     62  C   UNL A   1      42.702  32.801  30.994  1.00  0.00     0.037 A 
BRANCH  49  63
ATOM     63  C   UNL A   1      41.825  31.170  35.977  1.00  0.00     0.057 A 
ATOM     64  C   UNL A   1      42.787  31.392  36.980  1.00  0.00     0.134 A 
ATOM     65  C   UNL A   1      41.757  29.842  35.506  1.00  0.00     0.134 A 
ATOM     66  F   UNL A   1      42.952  32.610  37.516  1.00  0.00    -0.206 F 
ATOM     67  C   UNL A   1      43.689  30.403  37.389  1.00  0.00     0.040 A 
ATOM     68  C   UNL A   1      42.619  28.834  35.947  1.00  0.00     0.040 A 
ATOM     69  F   UNL A   1      40.931  29.453  34.529  1.00  0.00    -0.206 F 
ATOM     70  C   UNL A   1      43.617  29.122  36.860  1.00  0.00     0.006 A 
ENDBRANCH  49  63
BRANCH  50  71
ATOM     71  C   UNL A   1      40.021  28.384  28.244  1.00  0.00     0.057 A 
ATOM     72  C   UNL A   1      40.654  28.228  27.000  1.00  0.00     0.134 A 
ATOM     73  C   UNL A   1      39.509  27.210  28.822  1.00  0.00     0.134 A 
ATOM     74  F   UNL A   1      41.207  29.280  26.380  1.00  0.00    -0.206 F 
ATOM     75  C   UNL A   1      40.809  26.976  26.390  1.00  0.00     0.040 A 
ATOM     76  C   UNL A   1      39.650  25.954  28.221  1.00  0.00     0.040 A 
ATOM     77  F   UNL A   1      38.937  27.229  30.036  1.00  0.00    -0.206 F 
ATOM     78  C   UNL A   1      40.319  25.830  27.008  1.00  0.00     0.006 A 
ENDBRANCH  50  71
BRANCH  62  79
ATOM     79  C   UNL A   1      42.748  33.744  29.821  1.00  0.00     0.057 A 
ATOM     80  C   UNL A   1      41.666  34.512  29.360  1.00  0.00     0.134 A 
ATOM     81  C   UNL A   1      43.978  33.951  29.186  1.00  0.00     0.134 A 
ATOM     82  F   UNL A   1      40.472  34.467  29.964  1.00  0.00    -0.206 F 
ATOM     83  C   UNL A   1      41.791  35.393  28.280  1.00  0.00     0.040 A 
ATOM     84  C   UNL A   1      44.126  34.855  28.133  1.00  0.00     0.040 A 
ATOM     85  F   UNL A   1      45.072  33.295  29.604  1.00  0.00    -0.206 F 
ATOM     86  C   UNL A   1      43.026  35.567  27.664  1.00  0.00     0.006 A 
ENDBRANCH  62  79
ENDBRANCH  36  37
ENDBRANCH  28  31
ENDBRANCH  26  27
ENDBRANCH  25  26
ENDBRANCH  24  25
ENDBRANCH   1  24
TORSDOF 15
ENDMDL
MODEL 3
REMARK VINA RESULT:     -11.2      4.733      9.626
REMARK SMILES C[C@H](NC(=O)c1ccn(CC(=O)NCCCCNC(=O)c2ccc(-c3c4nc(c(-c5c(F)cccc5F)c5ccc([nH]5)c(-c5c(F)cccc5F)c5nc(c(-c6c(F)cccc6F)c6ccc3[nH]6)C=C5)C=C4)cc2)n1)c1ccccc1
REMARK SMILES IDX 14 1 13 2 11 3 12 4 10 6 9 7 6 8 7 9 75 10 8 11 4 12 3 13
REMARK SMILES IDX 5 15 2 16 1 17 76 18 77 19 81 20 78 21 80 22 79 23 15 24
REMARK SMILES IDX 16 25 17 26 18 27 19 28 20 30 21 31 22 32 74 33 23 34 73 35
REMARK SMILES IDX 24 36 25 37 26 38 67 39 27 40 72 41 66 42 68 43 28 44 71 45
REMARK SMILES IDX 65 46 64 47 29 49 55 50 38 51 54 52 39 53 42 54 53 55 69 56
REMARK SMILES IDX 40 57 41 58 52 60 70 61 43 62 30 63 31 64 36 65 32 66 33 67
REMARK SMILES IDX 35 68 37 69 34 70 56 71 57 72 62 73 58 74 59 75 61 76 63 77
REMARK SMILES IDX 60 78 44 79 45 80 50 81 46 82 47 83 49 84 51 85 48 86
REMARK H PARENT 13 5 3 14 18 29 68 48 42 59
REMARK Flexibility Score: inf
ROOT
ATOM      1  C   UNL A   1      36.319  21.259  25.547  1.00  0.00     0.116 C 
ENDROOT
BRANCH   1   2
ATOM      2  N   UNL A   1      35.142  20.414  25.454  1.00  0.00    -0.354 N 
ATOM      3  C   UNL A   1      33.837  20.752  25.681  1.00  0.00     0.241 C 
ATOM      4  O   UNL A   1      33.002  19.845  25.715  1.00  0.00    -0.273 OA
ATOM      5  H   UNL A   1      35.304  19.479  25.193  1.00  0.00     0.163 HD
BRANCH   3   6
ATOM      6  C   UNL A   1      33.430  22.198  25.824  1.00  0.00     0.243 C 
BRANCH   6   7
ATOM      7  N   UNL A   1      33.093  22.808  24.552  1.00  0.00    -0.263 N 
ATOM      8  C   UNL A   1      32.926  24.368  23.102  1.00  0.00     0.150 A 
ATOM      9  C   UNL A   1      32.627  23.142  22.446  1.00  0.00     0.056 A 
ATOM     10  N   UNL A   1      33.264  24.133  24.384  1.00  0.00    -0.167 NA
ATOM     11  C   UNL A   1      32.694  22.170  23.416  1.00  0.00     0.110 A 
BRANCH   8  12
ATOM     12  C   UNL A   1      33.047  25.708  22.520  1.00  0.00     0.272 C 
ATOM     13  N   UNL A   1      32.220  26.743  22.880  1.00  0.00    -0.344 N 
ATOM     14  H   UNL A   1      32.237  27.471  22.217  1.00  0.00     0.164 HD
ATOM     15  O   UNL A   1      33.876  25.953  21.640  1.00  0.00    -0.267 OA
BRANCH  13  16
ATOM     16  C   UNL A   1      31.317  27.044  23.995  1.00  0.00     0.109 C 
ATOM     17  C   UNL A   1      30.255  25.992  24.307  1.00  0.00     0.036 C 
BRANCH  16  18
ATOM     18  C   UNL A   1      32.075  27.585  25.205  1.00  0.00    -0.026 A 
ATOM     19  C   UNL A   1      33.399  28.042  25.065  1.00  0.00     0.006 A 
ATOM     20  C   UNL A   1      31.478  27.732  26.464  1.00  0.00     0.006 A 
ATOM     21  C   UNL A   1      34.110  28.558  26.155  1.00  0.00     0.000 A 
ATOM     22  C   UNL A   1      32.180  28.267  27.548  1.00  0.00     0.000 A 
ATOM     23  C   UNL A   1      33.507  28.649  27.404  1.00  0.00     0.000 A 
ENDBRANCH  16  18
ENDBRANCH  13  16
ENDBRANCH   8  12
ENDBRANCH   6   7
ENDBRANCH   3   6
ENDBRANCH   1   2
BRANCH   1  24
ATOM     24  C   UNL A   1      37.426  20.774  24.608  1.00  0.00     0.023 C 
BRANCH  24  25
ATOM     25  C   UNL A   1      38.304  19.647  25.169  1.00  0.00     0.023 C 
BRANCH  25  26
ATOM     26  C   UNL A   1      39.499  20.117  25.979  1.00  0.00     0.116 C 
BRANCH  26  27
ATOM     27  N   UNL A   1      40.700  19.290  25.817  1.00  0.00    -0.352 N 
ATOM     28  C   UNL A   1      42.018  19.707  25.703  1.00  0.00     0.251 C 
ATOM     29  H   UNL A   1      40.551  18.317  25.786  1.00  0.00     0.163 HD
ATOM     30  O   UNL A   1      42.859  19.035  25.136  1.00  0.00    -0.269 OA
BRANCH  28  31
ATOM     31  C   UNL A   1      42.371  20.991  26.332  1.00  0.00     0.039 A 
ATOM     32  C   UNL A   1      42.583  22.159  25.603  1.00  0.00     0.014 A 
ATOM     33  C   UNL A   1      42.417  20.999  27.720  1.00  0.00     0.014 A 
ATOM     34  C   UNL A   1      42.735  23.352  26.306  1.00  0.00     0.010 A 
ATOM     35  C   UNL A   1      42.312  22.182  28.388  1.00  0.00     0.010 A 
ATOM     36  C   UNL A   1      42.559  23.358  27.704  1.00  0.00    -0.014 A 
BRANCH  36  37
ATOM     37  C   UNL A   1      42.481  24.599  28.462  1.00  0.00     0.031 A 
ATOM     38  C   UNL A   1      41.216  25.337  28.237  1.00  0.00     0.074 A 
ATOM     39  C   UNL A   1      43.358  24.944  29.433  1.00  0.00     0.049 A 
ATOM     40  N   UNL A   1      41.063  26.402  27.526  1.00  0.00    -0.248 NA
ATOM     41  C   UNL A   1      39.949  24.724  28.672  1.00  0.00     0.031 C 
ATOM     42  C   UNL A   1      44.473  24.157  29.977  1.00  0.00     0.029 A 
ATOM     43  N   UNL A   1      43.379  26.056  30.220  1.00  0.00    -0.354 N 
ATOM     44  C   UNL A   1      39.727  26.751  27.666  1.00  0.00     0.074 A 
ATOM     45  C   UNL A   1      39.058  25.575  28.153  1.00  0.00     0.031 C 
ATOM     46  C   UNL A   1      44.899  24.703  31.137  1.00  0.00     0.029 A 
ATOM     47  C   UNL A   1      44.220  25.970  31.329  1.00  0.00     0.049 A 
ATOM     48  H   UNL A   1      42.844  26.858  30.021  1.00  0.00     0.167 HD
ATOM     49  C   UNL A   1      39.375  28.065  27.694  1.00  0.00     0.037 A 
ATOM     50  C   UNL A   1      44.344  26.872  32.335  1.00  0.00     0.037 A 
ATOM     51  C   UNL A   1      40.445  28.891  27.171  1.00  0.00     0.049 A 
ATOM     52  C   UNL A   1      43.808  28.160  31.835  1.00  0.00     0.074 A 
ATOM     53  C   UNL A   1      41.179  28.918  25.999  1.00  0.00     0.029 A 
ATOM     54  N   UNL A   1      41.176  29.619  28.078  1.00  0.00    -0.354 N 
ATOM     55  N   UNL A   1      44.389  28.879  30.919  1.00  0.00    -0.248 NA
ATOM     56  C   UNL A   1      42.389  28.417  32.024  1.00  0.00     0.031 C 
ATOM     57  C   UNL A   1      42.512  29.236  26.402  1.00  0.00     0.029 A 
ATOM     58  C   UNL A   1      42.503  29.473  27.777  1.00  0.00     0.049 A 
ATOM     59  H   UNL A   1      40.808  30.155  28.818  1.00  0.00     0.167 HD
ATOM     60  C   UNL A   1      43.351  29.307  30.107  1.00  0.00     0.074 A 
ATOM     61  C   UNL A   1      42.139  29.085  30.895  1.00  0.00     0.031 C 
ATOM     62  C   UNL A   1      43.551  29.510  28.770  1.00  0.00     0.037 A 
BRANCH  49  63
ATOM     63  C   UNL A   1      38.310  28.633  28.612  1.00  0.00     0.057 A 
ATOM     64  C   UNL A   1      37.435  29.607  28.096  1.00  0.00     0.134 A 
ATOM     65  C   UNL A   1      38.312  28.525  30.019  1.00  0.00     0.134 A 
ATOM     66  F   UNL A   1      37.335  29.809  26.774  1.00  0.00    -0.206 F 
ATOM     67  C   UNL A   1      36.717  30.484  28.917  1.00  0.00     0.040 A 
ATOM     68  C   UNL A   1      37.558  29.362  30.846  1.00  0.00     0.040 A 
ATOM     69  F   UNL A   1      39.106  27.683  30.687  1.00  0.00    -0.206 F 
ATOM     70  C   UNL A   1      36.789  30.373  30.298  1.00  0.00     0.006 A 
ENDBRANCH  49  63
BRANCH  50  71
ATOM     71  C   UNL A   1      44.665  26.673  33.768  1.00  0.00     0.057 A 
ATOM     72  C   UNL A   1      45.888  27.111  34.302  1.00  0.00     0.134 A 
ATOM     73  C   UNL A   1      43.675  26.331  34.703  1.00  0.00     0.134 A 
ATOM     74  F   UNL A   1      46.887  27.493  33.495  1.00  0.00    -0.206 F 
ATOM     75  C   UNL A   1      46.097  27.244  35.682  1.00  0.00     0.040 A 
ATOM     76  C   UNL A   1      43.872  26.453  36.084  1.00  0.00     0.040 A 
ATOM     77  F   UNL A   1      42.448  25.957  34.307  1.00  0.00    -0.206 F 
ATOM     78  C   UNL A   1      45.081  26.929  36.578  1.00  0.00     0.006 A 
ENDBRANCH  50  71
BRANCH  62  79
ATOM     79  C   UNL A   1      44.972  29.573  28.276  1.00  0.00     0.057 A 
ATOM     80  C   UNL A   1      45.735  28.465  27.872  1.00  0.00     0.134 A 
ATOM     81  C   UNL A   1      45.562  30.832  28.116  1.00  0.00     0.134 A 
ATOM     82  F   UNL A   1      45.228  27.226  27.887  1.00  0.00    -0.206 F 
ATOM     83  C   UNL A   1      47.043  28.603  27.394  1.00  0.00     0.040 A 
ATOM     84  C   UNL A   1      46.851  30.987  27.603  1.00  0.00     0.040 A 
ATOM     85  F   UNL A   1      44.877  31.943  28.428  1.00  0.00    -0.206 F 
ATOM     86  C   UNL A   1      47.604  29.869  27.257  1.00  0.00     0.006 A 
ENDBRANCH  62  79
ENDBRANCH  36  37
ENDBRANCH  28  31
ENDBRANCH  26  27
ENDBRANCH  25  26
ENDBRANCH  24  25
ENDBRANCH   1  24
TORSDOF 15
ENDMDL
