MODEL 1
REMARK VINA RESULT:     -11.0      0.000      0.000
REMARK SMILES CC(C)[C@@H](C)C(=O)N[C@@](C)(C(=O)NCCCCNC(=O)c1ccc(-c2c3nc(c(-c4c(F)cccc4F)c4ccc([nH]4)c(-c4c(F)cccc4F)c4nc(c(-c5c(F)cccc5F)c5ccc2[nH]5)C=C4)C=C3)cc1)C(F)(F)F
REMARK SMILES IDX 15 1 14 2 13 3 11 4 12 5 9 7 10 8 8 9 6 10 7 11 4 13 5 14
REMARK SMILES IDX 2 15 1 16 3 17 75 18 76 19 77 20 78 21 16 22 17 23 18 24
REMARK SMILES IDX 19 25 20 27 21 28 22 29 74 30 23 31 73 32 24 33 25 34 26 35
REMARK SMILES IDX 67 36 27 37 72 38 66 39 68 40 28 41 71 42 65 43 64 44 29 46
REMARK SMILES IDX 55 47 38 48 54 49 39 50 42 51 53 52 69 53 40 54 41 55 52 57
REMARK SMILES IDX 70 58 43 59 30 60 31 61 36 62 32 63 33 64 35 65 37 66 34 67
REMARK SMILES IDX 56 68 57 69 62 70 58 71 59 72 61 73 63 74 60 75 44 76 45 77
REMARK SMILES IDX 50 78 46 79 47 80 49 81 51 82 48 83
REMARK H PARENT 13 6 8 12 18 26 68 45 42 56
REMARK Flexibility Score: inf
ROOT
ATOM      1  C   UNL A   1      32.179  30.026  27.123  1.00  0.00     0.023 C 
ENDROOT
BRANCH   1   2
ATOM      2  C   UNL A   1      33.466  29.490  26.498  1.00  0.00     0.116 C 
BRANCH   2   3
ATOM      3  N   UNL A   1      33.439  29.579  25.045  1.00  0.00    -0.354 N 
ATOM      4  C   UNL A   1      33.037  28.748  24.040  1.00  0.00     0.254 C 
ATOM      5  O   UNL A   1      33.165  29.224  22.909  1.00  0.00    -0.272 OA
ATOM      6  H   UNL A   1      33.790  30.436  24.711  1.00  0.00     0.163 HD
BRANCH   4   7
ATOM      7  C   UNL A   1      32.499  27.315  24.287  1.00  0.00     0.212 C 
ATOM      8  C   UNL A   1      33.197  26.666  25.499  1.00  0.00     0.056 C 
BRANCH   7   9
ATOM      9  N   UNL A   1      32.886  26.593  23.018  1.00  0.00    -0.334 N 
ATOM     10  C   UNL A   1      33.307  25.404  22.546  1.00  0.00     0.224 C 
ATOM     11  O   UNL A   1      33.653  25.416  21.358  1.00  0.00    -0.275 OA
ATOM     12  H   UNL A   1      32.800  27.217  22.262  1.00  0.00     0.164 HD
BRANCH  10  13
ATOM     13  C   UNL A   1      33.308  24.090  23.304  1.00  0.00     0.078 C 
ATOM     14  C   UNL A   1      34.657  23.402  23.079  1.00  0.00     0.018 C 
BRANCH  13  15
ATOM     15  C   UNL A   1      31.990  23.314  23.105  1.00  0.00    -0.005 C 
ATOM     16  C   UNL A   1      32.166  21.806  22.936  1.00  0.00     0.008 C 
ATOM     17  C   UNL A   1      31.034  23.584  24.279  1.00  0.00     0.008 C 
ENDBRANCH  13  15
ENDBRANCH  10  13
ENDBRANCH   7   9
BRANCH   7  18
ATOM     18  C   UNL A   1      31.014  27.520  24.697  1.00  0.00     0.420 C 
ATOM     19  F   UNL A   1      30.753  27.252  25.989  1.00  0.00    -0.168 F 
ATOM     20  F   UNL A   1      30.603  28.789  24.466  1.00  0.00    -0.168 F 
ATOM     21  F   UNL A   1      30.183  26.754  23.943  1.00  0.00    -0.168 F 
ENDBRANCH   7  18
ENDBRANCH   4   7
ENDBRANCH   2   3
ENDBRANCH   1   2
BRANCH   1  22
ATOM     22  C   UNL A   1      31.907  31.511  26.881  1.00  0.00     0.023 C 
BRANCH  22  23
ATOM     23  C   UNL A   1      33.017  32.455  27.321  1.00  0.00     0.116 C 
BRANCH  23  24
ATOM     24  N   UNL A   1      32.552  33.810  27.572  1.00  0.00    -0.352 N 
ATOM     25  C   UNL A   1      33.028  34.716  28.490  1.00  0.00     0.251 C 
ATOM     26  H   UNL A   1      31.802  34.118  27.013  1.00  0.00     0.163 HD
ATOM     27  O   UNL A   1      32.467  35.792  28.663  1.00  0.00    -0.269 OA
BRANCH  25  28
ATOM     28  C   UNL A   1      34.210  34.353  29.296  1.00  0.00     0.039 A 
ATOM     29  C   UNL A   1      34.026  33.667  30.500  1.00  0.00     0.014 A 
ATOM     30  C   UNL A   1      35.494  34.628  28.821  1.00  0.00     0.014 A 
ATOM     31  C   UNL A   1      35.139  33.188  31.193  1.00  0.00     0.010 A 
ATOM     32  C   UNL A   1      36.595  34.092  29.477  1.00  0.00     0.010 A 
ATOM     33  C   UNL A   1      36.428  33.362  30.665  1.00  0.00    -0.014 A 
BRANCH  33  34
ATOM     34  C   UNL A   1      37.630  32.801  31.328  1.00  0.00     0.031 A 
ATOM     35  C   UNL A   1      38.321  31.613  30.722  1.00  0.00     0.074 A 
ATOM     36  C   UNL A   1      38.033  33.286  32.519  1.00  0.00     0.049 A 
ATOM     37  N   UNL A   1      39.264  30.857  31.223  1.00  0.00    -0.248 NA
ATOM     38  C   UNL A   1      37.863  31.199  29.386  1.00  0.00     0.031 C 
ATOM     39  C   UNL A   1      37.426  34.415  33.226  1.00  0.00     0.029 A 
ATOM     40  N   UNL A   1      39.035  32.867  33.359  1.00  0.00    -0.354 N 
ATOM     41  C   UNL A   1      39.488  29.863  30.280  1.00  0.00     0.074 A 
ATOM     42  C   UNL A   1      38.558  30.088  29.196  1.00  0.00     0.031 C 
ATOM     43  C   UNL A   1      38.073  34.602  34.388  1.00  0.00     0.029 A 
ATOM     44  C   UNL A   1      39.107  33.582  34.530  1.00  0.00     0.049 A 
ATOM     45  H   UNL A   1      39.644  32.124  33.143  1.00  0.00     0.167 HD
ATOM     46  C   UNL A   1      40.398  28.861  30.311  1.00  0.00     0.037 A 
ATOM     47  C   UNL A   1      39.902  33.419  35.604  1.00  0.00     0.037 A 
ATOM     48  C   UNL A   1      41.348  28.667  31.372  1.00  0.00     0.049 A 
ATOM     49  C   UNL A   1      40.906  32.300  35.613  1.00  0.00     0.074 A 
ATOM     50  C   UNL A   1      42.351  27.719  31.467  1.00  0.00     0.029 A 
ATOM     51  N   UNL A   1      41.415  29.439  32.521  1.00  0.00    -0.354 N 
ATOM     52  N   UNL A   1      41.139  31.392  34.696  1.00  0.00    -0.248 NA
ATOM     53  C   UNL A   1      41.758  32.180  36.806  1.00  0.00     0.031 C 
ATOM     54  C   UNL A   1      43.006  27.897  32.690  1.00  0.00     0.029 A 
ATOM     55  C   UNL A   1      42.435  28.981  33.337  1.00  0.00     0.049 A 
ATOM     56  H   UNL A   1      40.825  30.200  32.727  1.00  0.00     0.167 HD
ATOM     57  C   UNL A   1      42.184  30.616  35.185  1.00  0.00     0.074 A 
ATOM     58  C   UNL A   1      42.541  31.160  36.478  1.00  0.00     0.031 C 
ATOM     59  C   UNL A   1      42.792  29.552  34.610  1.00  0.00     0.037 A 
BRANCH  46  60
ATOM     60  C   UNL A   1      40.408  27.902  29.158  1.00  0.00     0.057 A 
ATOM     61  C   UNL A   1      39.608  26.753  29.148  1.00  0.00     0.134 A 
ATOM     62  C   UNL A   1      41.206  28.145  28.034  1.00  0.00     0.134 A 
ATOM     63  F   UNL A   1      38.831  26.456  30.201  1.00  0.00    -0.206 F 
ATOM     64  C   UNL A   1      39.621  25.865  28.071  1.00  0.00     0.040 A 
ATOM     65  C   UNL A   1      41.208  27.279  26.940  1.00  0.00     0.040 A 
ATOM     66  F   UNL A   1      41.991  29.232  27.977  1.00  0.00    -0.206 F 
ATOM     67  C   UNL A   1      40.418  26.131  26.960  1.00  0.00     0.006 A 
ENDBRANCH  46  60
BRANCH  47  68
ATOM     68  C   UNL A   1      39.791  34.345  36.758  1.00  0.00     0.057 A 
ATOM     69  C   UNL A   1      40.478  35.565  36.768  1.00  0.00     0.134 A 
ATOM     70  C   UNL A   1      39.007  34.037  37.876  1.00  0.00     0.134 A 
ATOM     71  F   UNL A   1      41.260  35.906  35.734  1.00  0.00    -0.206 F 
ATOM     72  C   UNL A   1      40.403  36.437  37.855  1.00  0.00     0.040 A 
ATOM     73  C   UNL A   1      38.905  34.910  38.960  1.00  0.00     0.040 A 
ATOM     74  F   UNL A   1      38.320  32.886  37.924  1.00  0.00    -0.206 F 
ATOM     75  C   UNL A   1      39.610  36.112  38.954  1.00  0.00     0.006 A 
ENDBRANCH  47  68
BRANCH  59  76
ATOM     76  C   UNL A   1      43.943  28.932  35.345  1.00  0.00     0.057 A 
ATOM     77  C   UNL A   1      45.258  29.376  35.166  1.00  0.00     0.134 A 
ATOM     78  C   UNL A   1      43.717  27.929  36.296  1.00  0.00     0.134 A 
ATOM     79  F   UNL A   1      45.539  30.325  34.262  1.00  0.00    -0.206 F 
ATOM     80  C   UNL A   1      46.312  28.838  35.907  1.00  0.00     0.040 A 
ATOM     81  C   UNL A   1      44.758  27.399  37.056  1.00  0.00     0.040 A 
ATOM     82  F   UNL A   1      42.476  27.468  36.518  1.00  0.00    -0.206 F 
ATOM     83  C   UNL A   1      46.061  27.854  36.862  1.00  0.00     0.006 A 
ENDBRANCH  59  76
ENDBRANCH  33  34
ENDBRANCH  25  28
ENDBRANCH  23  24
ENDBRANCH  22  23
ENDBRANCH   1  22
TORSDOF 15
ENDMDL
MODEL 2
REMARK VINA RESULT:     -10.9      1.389      2.169
REMARK SMILES CC(C)[C@@H](C)C(=O)N[C@@](C)(C(=O)NCCCCNC(=O)c1ccc(-c2c3nc(c(-c4c(F)cccc4F)c4ccc([nH]4)c(-c4c(F)cccc4F)c4nc(c(-c5c(F)cccc5F)c5ccc2[nH]5)C=C4)C=C3)cc1)C(F)(F)F
REMARK SMILES IDX 15 1 14 2 13 3 11 4 12 5 9 7 10 8 8 9 6 10 7 11 4 13 5 14
REMARK SMILES IDX 2 15 1 16 3 17 75 18 76 19 77 20 78 21 16 22 17 23 18 24
REMARK SMILES IDX 19 25 20 27 21 28 22 29 74 30 23 31 73 32 24 33 25 34 26 35
REMARK SMILES IDX 67 36 27 37 72 38 66 39 68 40 28 41 71 42 65 43 64 44 29 46
REMARK SMILES IDX 55 47 38 48 54 49 39 50 42 51 53 52 69 53 40 54 41 55 52 57
REMARK SMILES IDX 70 58 43 59 30 60 31 61 36 62 32 63 33 64 35 65 37 66 34 67
REMARK SMILES IDX 56 68 57 69 62 70 58 71 59 72 61 73 63 74 60 75 44 76 45 77
REMARK SMILES IDX 50 78 46 79 47 80 49 81 51 82 48 83
REMARK H PARENT 13 6 8 12 18 26 68 45 42 56
REMARK Flexibility Score: inf
ROOT
ATOM      1  C   UNL A   1      32.098  30.165  26.698  1.00  0.00     0.023 C 
ENDROOT
BRANCH   1   2
ATOM      2  C   UNL A   1      32.823  29.695  25.438  1.00  0.00     0.116 C 
BRANCH   2   3
ATOM      3  N   UNL A   1      31.951  29.713  24.273  1.00  0.00    -0.354 N 
ATOM      4  C   UNL A   1      31.528  28.776  23.375  1.00  0.00     0.254 C 
ATOM      5  O   UNL A   1      30.748  29.209  22.522  1.00  0.00    -0.272 OA
ATOM      6  H   UNL A   1      31.580  30.606  24.092  1.00  0.00     0.163 HD
BRANCH   4   7
ATOM      7  C   UNL A   1      32.008  27.302  23.397  1.00  0.00     0.212 C 
ATOM      8  C   UNL A   1      31.242  26.458  22.359  1.00  0.00     0.056 C 
BRANCH   7   9
ATOM      9  N   UNL A   1      31.646  26.857  24.795  1.00  0.00    -0.334 N 
ATOM     10  C   UNL A   1      31.633  25.785  25.609  1.00  0.00     0.224 C 
ATOM     11  O   UNL A   1      31.035  25.960  26.679  1.00  0.00    -0.275 OA
ATOM     12  H   UNL A   1      31.292  27.631  25.290  1.00  0.00     0.164 HD
BRANCH  10  13
ATOM     13  C   UNL A   1      32.337  24.465  25.363  1.00  0.00     0.078 C 
ATOM     14  C   UNL A   1      31.302  23.340  25.447  1.00  0.00     0.018 C 
BRANCH  13  15
ATOM     15  C   UNL A   1      33.663  24.369  26.144  1.00  0.00    -0.005 C 
ATOM     16  C   UNL A   1      33.854  23.055  26.902  1.00  0.00     0.008 C 
ATOM     17  C   UNL A   1      34.854  24.584  25.196  1.00  0.00     0.008 C 
ENDBRANCH  13  15
ENDBRANCH  10  13
ENDBRANCH   7   9
BRANCH   7  18
ATOM     18  C   UNL A   1      33.482  27.363  22.909  1.00  0.00     0.420 C 
ATOM     19  F   UNL A   1      34.384  27.556  23.887  1.00  0.00    -0.168 F 
ATOM     20  F   UNL A   1      33.840  26.230  22.259  1.00  0.00    -0.168 F 
ATOM     21  F   UNL A   1      33.657  28.348  21.989  1.00  0.00    -0.168 F 
ENDBRANCH   7  18
ENDBRANCH   4   7
ENDBRANCH   2   3
ENDBRANCH   1   2
BRANCH   1  22
ATOM     22  C   UNL A   1      31.788  31.662  26.750  1.00  0.00     0.023 C 
BRANCH  22  23
ATOM     23  C   UNL A   1      32.874  32.528  27.373  1.00  0.00     0.116 C 
BRANCH  23  24
ATOM     24  N   UNL A   1      32.441  33.892  27.632  1.00  0.00    -0.352 N 
ATOM     25  C   UNL A   1      32.981  34.803  28.509  1.00  0.00     0.251 C 
ATOM     26  H   UNL A   1      31.664  34.203  27.113  1.00  0.00     0.163 HD
ATOM     27  O   UNL A   1      32.444  35.889  28.699  1.00  0.00    -0.269 OA
BRANCH  25  28
ATOM     28  C   UNL A   1      34.203  34.435  29.250  1.00  0.00     0.039 A 
ATOM     29  C   UNL A   1      34.080  33.821  30.498  1.00  0.00     0.014 A 
ATOM     30  C   UNL A   1      35.459  34.634  28.672  1.00  0.00     0.014 A 
ATOM     31  C   UNL A   1      35.222  33.333  31.138  1.00  0.00     0.010 A 
ATOM     32  C   UNL A   1      36.583  34.089  29.278  1.00  0.00     0.010 A 
ATOM     33  C   UNL A   1      36.475  33.428  30.514  1.00  0.00    -0.014 A 
BRANCH  33  34
ATOM     34  C   UNL A   1      37.700  32.854  31.121  1.00  0.00     0.031 A 
ATOM     35  C   UNL A   1      38.344  31.653  30.491  1.00  0.00     0.074 A 
ATOM     36  C   UNL A   1      38.167  33.341  32.288  1.00  0.00     0.049 A 
ATOM     37  N   UNL A   1      39.300  30.887  30.951  1.00  0.00    -0.248 NA
ATOM     38  C   UNL A   1      37.815  31.236  29.182  1.00  0.00     0.031 C 
ATOM     39  C   UNL A   1      37.612  34.483  33.015  1.00  0.00     0.029 A 
ATOM     40  N   UNL A   1      39.203  32.913  33.081  1.00  0.00    -0.354 N 
ATOM     41  C   UNL A   1      39.463  29.883  30.006  1.00  0.00     0.074 A 
ATOM     42  C   UNL A   1      38.485  30.114  28.966  1.00  0.00     0.031 C 
ATOM     43  C   UNL A   1      38.317  34.669  34.143  1.00  0.00     0.029 A 
ATOM     44  C   UNL A   1      39.342  33.635  34.242  1.00  0.00     0.049 A 
ATOM     45  H   UNL A   1      39.791  32.161  32.841  1.00  0.00     0.167 HD
ATOM     46  C   UNL A   1      40.360  28.869  29.999  1.00  0.00     0.037 A 
ATOM     47  C   UNL A   1      40.187  33.468  35.277  1.00  0.00     0.037 A 
ATOM     48  C   UNL A   1      41.357  28.667  31.014  1.00  0.00     0.049 A 
ATOM     49  C   UNL A   1      41.174  32.334  35.245  1.00  0.00     0.074 A 
ATOM     50  C   UNL A   1      42.351  27.706  31.067  1.00  0.00     0.029 A 
ATOM     51  N   UNL A   1      41.492  29.446  32.153  1.00  0.00    -0.354 N 
ATOM     52  N   UNL A   1      41.349  31.417  34.325  1.00  0.00    -0.248 NA
ATOM     53  C   UNL A   1      42.082  32.210  36.397  1.00  0.00     0.031 C 
ATOM     54  C   UNL A   1      43.067  27.882  32.256  1.00  0.00     0.029 A 
ATOM     55  C   UNL A   1      42.543  28.979  32.922  1.00  0.00     0.049 A 
ATOM     56  H   UNL A   1      40.922  30.216  32.382  1.00  0.00     0.167 HD
ATOM     57  C   UNL A   1      42.406  30.630  34.767  1.00  0.00     0.074 A 
ATOM     58  C   UNL A   1      42.833  31.176  36.038  1.00  0.00     0.031 C 
ATOM     59  C   UNL A   1      42.970  29.553  34.172  1.00  0.00     0.037 A 
BRANCH  46  60
ATOM     60  C   UNL A   1      40.300  27.902  28.854  1.00  0.00     0.057 A 
ATOM     61  C   UNL A   1      41.008  28.121  27.666  1.00  0.00     0.134 A 
ATOM     62  C   UNL A   1      39.547  26.726  28.952  1.00  0.00     0.134 A 
ATOM     63  F   UNL A   1      41.738  29.235  27.504  1.00  0.00    -0.206 F 
ATOM     64  C   UNL A   1      40.949  27.216  26.605  1.00  0.00     0.040 A 
ATOM     65  C   UNL A   1      39.500  25.801  27.908  1.00  0.00     0.040 A 
ATOM     66  F   UNL A   1      38.849  26.453  30.065  1.00  0.00    -0.206 F 
ATOM     67  C   UNL A   1      40.198  26.048  26.727  1.00  0.00     0.006 A 
ENDBRANCH  46  60
BRANCH  47  68
ATOM     68  C   UNL A   1      40.145  34.403  36.429  1.00  0.00     0.057 A 
ATOM     69  C   UNL A   1      40.902  35.581  36.424  1.00  0.00     0.134 A 
ATOM     70  C   UNL A   1      39.360  34.144  37.558  1.00  0.00     0.134 A 
ATOM     71  F   UNL A   1      41.688  35.873  35.378  1.00  0.00    -0.206 F 
ATOM     72  C   UNL A   1      40.892  36.460  37.507  1.00  0.00     0.040 A 
ATOM     73  C   UNL A   1      39.324  35.025  38.640  1.00  0.00     0.040 A 
ATOM     74  F   UNL A   1      38.608  33.035  37.621  1.00  0.00    -0.206 F 
ATOM     75  C   UNL A   1      40.097  36.185  38.619  1.00  0.00     0.006 A 
ENDBRANCH  47  68
BRANCH  59  76
ATOM     76  C   UNL A   1      44.146  28.922  34.854  1.00  0.00     0.057 A 
ATOM     77  C   UNL A   1      43.995  27.873  35.767  1.00  0.00     0.134 A 
ATOM     78  C   UNL A   1      45.450  29.323  34.532  1.00  0.00     0.134 A 
ATOM     79  F   UNL A   1      42.772  27.452  36.124  1.00  0.00    -0.206 F 
ATOM     80  C   UNL A   1      45.102  27.246  36.344  1.00  0.00     0.040 A 
ATOM     81  C   UNL A   1      46.563  28.691  35.086  1.00  0.00     0.040 A 
ATOM     82  F   UNL A   1      45.659  30.318  33.657  1.00  0.00    -0.206 F 
ATOM     83  C   UNL A   1      46.390  27.649  35.995  1.00  0.00     0.006 A 
ENDBRANCH  59  76
ENDBRANCH  33  34
ENDBRANCH  25  28
ENDBRANCH  23  24
ENDBRANCH  22  23
ENDBRANCH   1  22
TORSDOF 15
ENDMDL
MODEL 3
REMARK VINA RESULT:     -10.9      1.353      2.142
REMARK SMILES CC(C)[C@@H](C)C(=O)N[C@@](C)(C(=O)NCCCCNC(=O)c1ccc(-c2c3nc(c(-c4c(F)cccc4F)c4ccc([nH]4)c(-c4c(F)cccc4F)c4nc(c(-c5c(F)cccc5F)c5ccc2[nH]5)C=C4)C=C3)cc1)C(F)(F)F
REMARK SMILES IDX 15 1 14 2 13 3 11 4 12 5 9 7 10 8 8 9 6 10 7 11 4 13 5 14
REMARK SMILES IDX 2 15 1 16 3 17 75 18 76 19 77 20 78 21 16 22 17 23 18 24
REMARK SMILES IDX 19 25 20 27 21 28 22 29 74 30 23 31 73 32 24 33 25 34 26 35
REMARK SMILES IDX 67 36 27 37 72 38 66 39 68 40 28 41 71 42 65 43 64 44 29 46
REMARK SMILES IDX 55 47 38 48 54 49 39 50 42 51 53 52 69 53 40 54 41 55 52 57
REMARK SMILES IDX 70 58 43 59 30 60 31 61 36 62 32 63 33 64 35 65 37 66 34 67
REMARK SMILES IDX 56 68 57 69 62 70 58 71 59 72 61 73 63 74 60 75 44 76 45 77
REMARK SMILES IDX 50 78 46 79 47 80 49 81 51 82 48 83
REMARK H PARENT 13 6 8 12 18 26 68 45 42 56
REMARK Flexibility Score: inf
ROOT
ATOM      1  C   UNL A   1      32.112  30.150  26.823  1.00  0.00     0.023 C 
ENDROOT
BRANCH   1   2
ATOM      2  C   UNL A   1      32.818  29.691  25.548  1.00  0.00     0.116 C 
BRANCH   2   3
ATOM      3  N   UNL A   1      31.932  29.731  24.395  1.00  0.00    -0.354 N 
ATOM      4  C   UNL A   1      31.518  28.816  23.470  1.00  0.00     0.254 C 
ATOM      5  O   UNL A   1      30.719  29.262  22.641  1.00  0.00    -0.272 OA
ATOM      6  H   UNL A   1      31.540  30.622  24.249  1.00  0.00     0.163 HD
BRANCH   4   7
ATOM      7  C   UNL A   1      32.028  27.353  23.436  1.00  0.00     0.212 C 
ATOM      8  C   UNL A   1      31.254  26.524  22.393  1.00  0.00     0.056 C 
BRANCH   7   9
ATOM      9  N   UNL A   1      31.712  26.860  24.829  1.00  0.00    -0.334 N 
ATOM     10  C   UNL A   1      31.735  25.763  25.609  1.00  0.00     0.224 C 
ATOM     11  O   UNL A   1      31.167  25.896  26.700  1.00  0.00    -0.275 OA
ATOM     12  H   UNL A   1      31.364  27.613  25.358  1.00  0.00     0.164 HD
BRANCH  10  13
ATOM     13  C   UNL A   1      32.447  24.460  25.301  1.00  0.00     0.078 C 
ATOM     14  C   UNL A   1      31.414  23.331  25.299  1.00  0.00     0.018 C 
BRANCH  13  15
ATOM     15  C   UNL A   1      33.758  24.321  26.102  1.00  0.00    -0.005 C 
ATOM     16  C   UNL A   1      33.861  23.037  26.923  1.00  0.00     0.008 C 
ATOM     17  C   UNL A   1      34.968  24.416  25.158  1.00  0.00     0.008 C 
ENDBRANCH  13  15
ENDBRANCH  10  13
ENDBRANCH   7   9
BRANCH   7  18
ATOM     18  C   UNL A   1      33.487  27.460  22.913  1.00  0.00     0.420 C 
ATOM     19  F   UNL A   1      33.743  28.572  22.202  1.00  0.00    -0.168 F 
ATOM     20  F   UNL A   1      34.385  27.423  23.926  1.00  0.00    -0.168 F 
ATOM     21  F   UNL A   1      33.814  26.393  22.136  1.00  0.00    -0.168 F 
ENDBRANCH   7  18
ENDBRANCH   4   7
ENDBRANCH   2   3
ENDBRANCH   1   2
BRANCH   1  22
ATOM     22  C   UNL A   1      31.766  31.639  26.876  1.00  0.00     0.023 C 
BRANCH  22  23
ATOM     23  C   UNL A   1      32.889  32.549  27.355  1.00  0.00     0.116 C 
BRANCH  23  24
ATOM     24  N   UNL A   1      32.453  33.915  27.603  1.00  0.00    -0.352 N 
ATOM     25  C   UNL A   1      32.976  34.825  28.491  1.00  0.00     0.251 C 
ATOM     26  H   UNL A   1      31.688  34.226  27.068  1.00  0.00     0.163 HD
ATOM     27  O   UNL A   1      32.437  35.912  28.669  1.00  0.00    -0.269 OA
BRANCH  25  28
ATOM     28  C   UNL A   1      34.181  34.456  29.258  1.00  0.00     0.039 A 
ATOM     29  C   UNL A   1      34.031  33.824  30.495  1.00  0.00     0.014 A 
ATOM     30  C   UNL A   1      35.450  34.670  28.715  1.00  0.00     0.014 A 
ATOM     31  C   UNL A   1      35.159  33.335  31.158  1.00  0.00     0.010 A 
ATOM     32  C   UNL A   1      36.563  34.125  29.343  1.00  0.00     0.010 A 
ATOM     33  C   UNL A   1      36.427  33.446  30.566  1.00  0.00    -0.014 A 
BRANCH  33  34
ATOM     34  C   UNL A   1      37.641  32.873  31.198  1.00  0.00     0.031 A 
ATOM     35  C   UNL A   1      38.303  31.678  30.574  1.00  0.00     0.074 A 
ATOM     36  C   UNL A   1      38.079  33.353  32.378  1.00  0.00     0.049 A 
ATOM     37  N   UNL A   1      39.251  30.912  31.050  1.00  0.00    -0.248 NA
ATOM     38  C   UNL A   1      37.806  31.270  29.250  1.00  0.00     0.031 C 
ATOM     39  C   UNL A   1      37.503  34.488  33.101  1.00  0.00     0.029 A 
ATOM     40  N   UNL A   1      39.098  32.923  33.191  1.00  0.00    -0.354 N 
ATOM     41  C   UNL A   1      39.440  29.916  30.101  1.00  0.00     0.074 A 
ATOM     42  C   UNL A   1      38.484  30.151  29.041  1.00  0.00     0.031 C 
ATOM     43  C   UNL A   1      38.182  34.668  34.246  1.00  0.00     0.029 A 
ATOM     44  C   UNL A   1      39.208  33.637  34.361  1.00  0.00     0.049 A 
ATOM     45  H   UNL A   1      39.694  32.175  32.959  1.00  0.00     0.167 HD
ATOM     46  C   UNL A   1      40.340  28.905  30.108  1.00  0.00     0.037 A 
ATOM     47  C   UNL A   1      40.030  33.465  35.413  1.00  0.00     0.037 A 
ATOM     48  C   UNL A   1      41.315  28.700  31.144  1.00  0.00     0.049 A 
ATOM     49  C   UNL A   1      41.021  32.336  35.396  1.00  0.00     0.074 A 
ATOM     50  C   UNL A   1      42.311  27.742  31.213  1.00  0.00     0.029 A 
ATOM     51  N   UNL A   1      41.420  29.471  32.291  1.00  0.00    -0.354 N 
ATOM     52  N   UNL A   1      41.221  31.426  34.473  1.00  0.00    -0.248 NA
ATOM     53  C   UNL A   1      41.903  32.206  36.567  1.00  0.00     0.031 C 
ATOM     54  C   UNL A   1      42.998  27.912  32.418  1.00  0.00     0.029 A 
ATOM     55  C   UNL A   1      42.456  29.002  33.080  1.00  0.00     0.049 A 
ATOM     56  H   UNL A   1      40.843  30.238  32.513  1.00  0.00     0.167 HD
ATOM     57  C   UNL A   1      42.270  30.639  34.934  1.00  0.00     0.074 A 
ATOM     58  C   UNL A   1      42.666  31.178  36.218  1.00  0.00     0.031 C 
ATOM     59  C   UNL A   1      42.852  29.569  34.344  1.00  0.00     0.037 A 
BRANCH  46  60
ATOM     60  C   UNL A   1      40.310  27.947  28.955  1.00  0.00     0.057 A 
ATOM     61  C   UNL A   1      39.549  26.772  28.993  1.00  0.00     0.134 A 
ATOM     62  C   UNL A   1      41.028  28.216  27.784  1.00  0.00     0.134 A 
ATOM     63  F   UNL A   1      38.849  26.449  30.091  1.00  0.00    -0.206 F 
ATOM     64  C   UNL A   1      39.525  25.884  27.915  1.00  0.00     0.040 A 
ATOM     65  C   UNL A   1      40.991  27.350  26.691  1.00  0.00     0.040 A 
ATOM     66  F   UNL A   1      41.773  29.327  27.681  1.00  0.00    -0.206 F 
ATOM     67  C   UNL A   1      40.242  26.176  26.757  1.00  0.00     0.006 A 
ENDBRANCH  46  60
BRANCH  47  68
ATOM     68  C   UNL A   1      39.958  34.392  36.570  1.00  0.00     0.057 A 
ATOM     69  C   UNL A   1      39.176  34.083  37.689  1.00  0.00     0.134 A 
ATOM     70  C   UNL A   1      40.659  35.603  36.587  1.00  0.00     0.134 A 
ATOM     71  F   UNL A   1      38.466  32.946  37.722  1.00  0.00    -0.206 F 
ATOM     72  C   UNL A   1      39.079  34.952  38.777  1.00  0.00     0.040 A 
ATOM     73  C   UNL A   1      40.590  36.472  37.677  1.00  0.00     0.040 A 
ATOM     74  F   UNL A   1      41.432  35.953  35.548  1.00  0.00    -0.206 F 
ATOM     75  C   UNL A   1      39.792  36.150  38.774  1.00  0.00     0.006 A 
ENDBRANCH  47  68
BRANCH  59  76
ATOM     76  C   UNL A   1      44.015  28.937  35.048  1.00  0.00     0.057 A 
ATOM     77  C   UNL A   1      43.847  27.873  35.941  1.00  0.00     0.134 A 
ATOM     78  C   UNL A   1      45.323  29.353  34.768  1.00  0.00     0.134 A 
ATOM     79  F   UNL A   1      42.619  27.437  36.259  1.00  0.00    -0.206 F 
ATOM     80  C   UNL A   1      44.944  27.247  36.538  1.00  0.00     0.040 A 
ATOM     81  C   UNL A   1      46.426  28.722  35.342  1.00  0.00     0.040 A 
ATOM     82  F   UNL A   1      45.548  30.363  33.914  1.00  0.00    -0.206 F 
ATOM     83  C   UNL A   1      46.238  27.665  36.230  1.00  0.00     0.006 A 
ENDBRANCH  59  76
ENDBRANCH  33  34
ENDBRANCH  25  28
ENDBRANCH  23  24
ENDBRANCH  22  23
ENDBRANCH   1  22
TORSDOF 15
ENDMDL
