MODEL 1
REMARK VINA RESULT:     -12.1      0.000      0.000
REMARK SMILES Nc1c(Cl)ccc2c1C=C(C(=O)NCCCCNC(=O)c1ccc(-c3c4nc(c(-c5c(F)cccc5F)c5ccc([nH]5)c(-c5c(F)cccc5F)c5nc(c(-c6c(F)cccc6F)c6ccc3[nH]6)C=C5)C=C4)cc1)[C@@H](C(F)(F)F)O2
REMARK SMILES IDX 16 1 15 2 14 3 13 4 11 5 12 6 10 8 2 9 3 10 8 11 4 12 5 13
REMARK SMILES IDX 7 14 9 15 6 16 80 17 75 18 1 19 76 22 77 23 78 24 79 25
REMARK SMILES IDX 17 26 18 27 19 28 20 30 21 31 22 32 74 33 23 34 73 35 24 36
REMARK SMILES IDX 25 37 26 38 67 39 27 40 72 41 66 42 68 43 28 44 71 45 65 46
REMARK SMILES IDX 64 47 29 49 55 50 38 51 54 52 39 53 42 54 53 55 69 56 40 57
REMARK SMILES IDX 41 58 52 60 70 61 43 62 30 63 31 64 36 65 32 66 33 67 35 68
REMARK SMILES IDX 37 69 34 70 56 71 57 72 62 73 58 74 59 75 61 76 63 77 60 78
REMARK SMILES IDX 44 79 45 80 50 81 46 82 47 83 49 84 51 85 48 86
REMARK H PARENT 13 7 1 20 1 21 18 29 68 48 42 59
REMARK Flexibility Score: inf
ROOT
ATOM      1  C   UNL A   1      33.416  28.669  25.549  1.00  0.00     0.023 C 
ENDROOT
BRANCH   1   2
ATOM      2  C   UNL A   1      34.029  27.690  24.548  1.00  0.00     0.023 C 
BRANCH   2   3
ATOM      3  C   UNL A   1      33.871  26.225  24.942  1.00  0.00     0.116 C 
BRANCH   3   4
ATOM      4  N   UNL A   1      33.454  25.410  23.817  1.00  0.00    -0.352 N 
ATOM      5  C   UNL A   1      32.343  25.271  23.056  1.00  0.00     0.251 C 
ATOM      6  O   UNL A   1      32.417  24.402  22.181  1.00  0.00    -0.270 OA
ATOM      7  H   UNL A   1      34.169  24.797  23.529  1.00  0.00     0.163 HD
BRANCH   5   8
ATOM      8  C   UNL A   1      31.088  26.069  23.203  1.00  0.00     0.067 C 
ATOM      9  C   UNL A   1      29.888  29.447  22.150  1.00  0.00     0.061 A 
ATOM     10  C   UNL A   1      28.708  30.208  22.316  1.00  0.00     0.064 A 
ATOM     11  C   UNL A   1      29.905  28.125  22.652  1.00  0.00     0.042 A 
ATOM     12  Cl  UNL A   1      28.628  31.848  21.759  1.00  0.00    -0.082 Cl
ATOM     13  C   UNL A   1      27.566  29.670  22.912  1.00  0.00     0.026 A 
ATOM     14  C   UNL A   1      28.752  27.605  23.257  1.00  0.00     0.130 A 
ATOM     15  C   UNL A   1      31.067  27.240  22.539  1.00  0.00     0.027 C 
ATOM     16  C   UNL A   1      27.587  28.360  23.375  1.00  0.00     0.049 A 
ATOM     17  O   UNL A   1      28.668  26.328  23.733  1.00  0.00    -0.475 OA
ATOM     18  C   UNL A   1      29.921  25.667  24.053  1.00  0.00     0.314 C 
BRANCH   9  19
ATOM     19  N   UNL A   1      31.027  30.046  21.601  1.00  0.00    -0.397 N 
ATOM     20  H   UNL A   1      31.097  31.027  21.563  1.00  0.00     0.156 HD
ATOM     21  H   UNL A   1      31.758  29.486  21.253  1.00  0.00     0.156 HD
ENDBRANCH   9  19
BRANCH  18  22
ATOM     22  C   UNL A   1      30.199  25.806  25.561  1.00  0.00     0.429 C 
ATOM     23  F   UNL A   1      29.061  25.601  26.272  1.00  0.00    -0.167 F 
ATOM     24  F   UNL A   1      31.096  24.897  26.011  1.00  0.00    -0.167 F 
ATOM     25  F   UNL A   1      30.671  27.027  25.894  1.00  0.00    -0.167 F 
ENDBRANCH  18  22
ENDBRANCH   5   8
ENDBRANCH   3   4
ENDBRANCH   2   3
ENDBRANCH   1   2
BRANCH   1  26
ATOM     26  C   UNL A   1      34.116  28.728  26.906  1.00  0.00     0.116 C 
BRANCH  26  27
ATOM     27  N   UNL A   1      33.911  29.991  27.603  1.00  0.00    -0.352 N 
ATOM     28  C   UNL A   1      34.797  30.664  28.404  1.00  0.00     0.251 C 
ATOM     29  H   UNL A   1      33.029  30.412  27.484  1.00  0.00     0.163 HD
ATOM     30  O   UNL A   1      34.467  31.678  29.009  1.00  0.00    -0.269 OA
BRANCH  28  31
ATOM     31  C   UNL A   1      36.157  30.120  28.542  1.00  0.00     0.039 A 
ATOM     32  C   UNL A   1      37.043  30.237  27.469  1.00  0.00     0.014 A 
ATOM     33  C   UNL A   1      36.560  29.568  29.761  1.00  0.00     0.014 A 
ATOM     34  C   UNL A   1      38.366  29.835  27.636  1.00  0.00     0.010 A 
ATOM     35  C   UNL A   1      37.890  29.215  29.940  1.00  0.00     0.010 A 
ATOM     36  C   UNL A   1      38.798  29.338  28.876  1.00  0.00    -0.014 A 
BRANCH  36  37
ATOM     37  C   UNL A   1      40.184  28.861  29.066  1.00  0.00     0.031 A 
ATOM     38  C   UNL A   1      41.190  29.790  29.677  1.00  0.00     0.074 A 
ATOM     39  C   UNL A   1      40.544  27.636  28.643  1.00  0.00     0.049 A 
ATOM     40  N   UNL A   1      42.471  29.615  29.867  1.00  0.00    -0.248 NA
ATOM     41  C   UNL A   1      40.687  31.105  30.111  1.00  0.00     0.031 C 
ATOM     42  C   UNL A   1      39.655  26.657  28.019  1.00  0.00     0.029 A 
ATOM     43  N   UNL A   1      41.764  27.013  28.670  1.00  0.00    -0.354 N 
ATOM     44  C   UNL A   1      42.929  30.799  30.428  1.00  0.00     0.074 A 
ATOM     45  C   UNL A   1      41.802  31.702  30.502  1.00  0.00     0.031 C 
ATOM     46  C   UNL A   1      40.359  25.548  27.733  1.00  0.00     0.029 A 
ATOM     47  C   UNL A   1      41.749  25.751  28.130  1.00  0.00     0.049 A 
ATOM     48  H   UNL A   1      42.575  27.431  29.041  1.00  0.00     0.167 HD
ATOM     49  C   UNL A   1      44.175  31.100  30.864  1.00  0.00     0.037 A 
ATOM     50  C   UNL A   1      42.750  24.866  27.975  1.00  0.00     0.037 A 
ATOM     51  C   UNL A   1      45.287  30.192  30.806  1.00  0.00     0.049 A 
ATOM     52  C   UNL A   1      44.134  25.236  28.437  1.00  0.00     0.074 A 
ATOM     53  C   UNL A   1      46.580  30.377  31.264  1.00  0.00     0.029 A 
ATOM     54  N   UNL A   1      45.234  28.922  30.250  1.00  0.00    -0.354 N 
ATOM     55  N   UNL A   1      44.546  26.337  29.017  1.00  0.00    -0.248 NA
ATOM     56  C   UNL A   1      45.190  24.236  28.223  1.00  0.00     0.031 C 
ATOM     57  C   UNL A   1      47.317  29.228  30.957  1.00  0.00     0.029 A 
ATOM     58  C   UNL A   1      46.476  28.317  30.338  1.00  0.00     0.049 A 
ATOM     59  H   UNL A   1      44.432  28.512  29.852  1.00  0.00     0.167 HD
ATOM     60  C   UNL A   1      45.899  26.152  29.268  1.00  0.00     0.074 A 
ATOM     61  C   UNL A   1      46.237  24.831  28.778  1.00  0.00     0.031 C 
ATOM     62  C   UNL A   1      46.783  26.996  29.855  1.00  0.00     0.037 A 
BRANCH  49  63
ATOM     63  C   UNL A   1      44.379  32.470  31.433  1.00  0.00     0.057 A 
ATOM     64  C   UNL A   1      44.191  32.714  32.799  1.00  0.00     0.134 A 
ATOM     65  C   UNL A   1      44.787  33.546  30.632  1.00  0.00     0.134 A 
ATOM     66  F   UNL A   1      43.801  31.726  33.619  1.00  0.00    -0.206 F 
ATOM     67  C   UNL A   1      44.411  33.976  33.350  1.00  0.00     0.040 A 
ATOM     68  C   UNL A   1      45.035  34.807  31.177  1.00  0.00     0.040 A 
ATOM     69  F   UNL A   1      45.007  33.370  29.320  1.00  0.00    -0.206 F 
ATOM     70  C   UNL A   1      44.845  35.025  32.539  1.00  0.00     0.006 A 
ENDBRANCH  49  63
BRANCH  50  71
ATOM     71  C   UNL A   1      42.486  23.532  27.385  1.00  0.00     0.057 A 
ATOM     72  C   UNL A   1      42.620  23.293  26.013  1.00  0.00     0.134 A 
ATOM     73  C   UNL A   1      42.112  22.454  28.196  1.00  0.00     0.134 A 
ATOM     74  F   UNL A   1      42.974  24.286  25.184  1.00  0.00    -0.206 F 
ATOM     75  C   UNL A   1      42.392  22.028  25.468  1.00  0.00     0.040 A 
ATOM     76  C   UNL A   1      41.899  21.181  27.667  1.00  0.00     0.040 A 
ATOM     77  F   UNL A   1      41.987  22.620  29.521  1.00  0.00    -0.206 F 
ATOM     78  C   UNL A   1      42.037  20.966  26.298  1.00  0.00     0.006 A 
ENDBRANCH  50  71
BRANCH  62  79
ATOM     79  C   UNL A   1      48.183  26.496  30.035  1.00  0.00     0.057 A 
ATOM     80  C   UNL A   1      48.552  25.826  31.209  1.00  0.00     0.134 A 
ATOM     81  C   UNL A   1      49.172  26.707  29.068  1.00  0.00     0.134 A 
ATOM     82  F   UNL A   1      47.651  25.598  32.175  1.00  0.00    -0.206 F 
ATOM     83  C   UNL A   1      49.860  25.388  31.415  1.00  0.00     0.040 A 
ATOM     84  C   UNL A   1      50.479  26.255  29.254  1.00  0.00     0.040 A 
ATOM     85  F   UNL A   1      48.875  27.329  27.916  1.00  0.00    -0.206 F 
ATOM     86  C   UNL A   1      50.827  25.598  30.433  1.00  0.00     0.006 A 
ENDBRANCH  62  79
ENDBRANCH  36  37
ENDBRANCH  28  31
ENDBRANCH  26  27
ENDBRANCH   1  26
TORSDOF 13
ENDMDL
MODEL 2
REMARK VINA RESULT:     -12.1      1.924      2.358
REMARK SMILES Nc1c(Cl)ccc2c1C=C(C(=O)NCCCCNC(=O)c1ccc(-c3c4nc(c(-c5c(F)cccc5F)c5ccc([nH]5)c(-c5c(F)cccc5F)c5nc(c(-c6c(F)cccc6F)c6ccc3[nH]6)C=C5)C=C4)cc1)[C@@H](C(F)(F)F)O2
REMARK SMILES IDX 16 1 15 2 14 3 13 4 11 5 12 6 10 8 2 9 3 10 8 11 4 12 5 13
REMARK SMILES IDX 7 14 9 15 6 16 80 17 75 18 1 19 76 22 77 23 78 24 79 25
REMARK SMILES IDX 17 26 18 27 19 28 20 30 21 31 22 32 74 33 23 34 73 35 24 36
REMARK SMILES IDX 25 37 26 38 67 39 27 40 72 41 66 42 68 43 28 44 71 45 65 46
REMARK SMILES IDX 64 47 29 49 55 50 38 51 54 52 39 53 42 54 53 55 69 56 40 57
REMARK SMILES IDX 41 58 52 60 70 61 43 62 30 63 31 64 36 65 32 66 33 67 35 68
REMARK SMILES IDX 37 69 34 70 56 71 57 72 62 73 58 74 59 75 61 76 63 77 60 78
REMARK SMILES IDX 44 79 45 80 50 81 46 82 47 83 49 84 51 85 48 86
REMARK H PARENT 13 7 1 20 1 21 18 29 68 48 42 59
REMARK Flexibility Score: inf
ROOT
ATOM      1  C   UNL A   1      33.601  27.875  26.644  1.00  0.00     0.023 C 
ENDROOT
BRANCH   1   2
ATOM      2  C   UNL A   1      33.778  26.583  25.845  1.00  0.00     0.023 C 
BRANCH   2   3
ATOM      3  C   UNL A   1      33.948  26.803  24.345  1.00  0.00     0.116 C 
BRANCH   3   4
ATOM      4  N   UNL A   1      33.393  25.704  23.577  1.00  0.00    -0.352 N 
ATOM      5  C   UNL A   1      32.181  25.353  23.090  1.00  0.00     0.251 C 
ATOM      6  O   UNL A   1      32.155  24.275  22.487  1.00  0.00    -0.270 OA
ATOM      7  H   UNL A   1      34.082  25.039  23.348  1.00  0.00     0.163 HD
BRANCH   5   8
ATOM      8  C   UNL A   1      30.927  26.154  23.229  1.00  0.00     0.067 C 
ATOM      9  C   UNL A   1      29.742  29.536  22.170  1.00  0.00     0.061 A 
ATOM     10  C   UNL A   1      28.562  30.299  22.329  1.00  0.00     0.064 A 
ATOM     11  C   UNL A   1      29.752  28.214  22.671  1.00  0.00     0.042 A 
ATOM     12  Cl  UNL A   1      28.490  31.939  21.772  1.00  0.00    -0.082 Cl
ATOM     13  C   UNL A   1      27.415  29.763  22.917  1.00  0.00     0.026 A 
ATOM     14  C   UNL A   1      28.594  27.696  23.269  1.00  0.00     0.130 A 
ATOM     15  C   UNL A   1      30.913  27.325  22.565  1.00  0.00     0.027 C 
ATOM     16  C   UNL A   1      27.430  28.454  23.380  1.00  0.00     0.049 A 
ATOM     17  O   UNL A   1      28.505  26.419  23.744  1.00  0.00    -0.475 OA
ATOM     18  C   UNL A   1      29.753  25.755  24.072  1.00  0.00     0.314 C 
BRANCH   9  19
ATOM     19  N   UNL A   1      30.885  30.132  21.628  1.00  0.00    -0.397 N 
ATOM     20  H   UNL A   1      31.495  30.643  22.208  1.00  0.00     0.156 HD
ATOM     21  H   UNL A   1      31.080  30.040  20.668  1.00  0.00     0.156 HD
ENDBRANCH   9  19
BRANCH  18  22
ATOM     22  C   UNL A   1      30.023  25.892  25.581  1.00  0.00     0.429 C 
ATOM     23  F   UNL A   1      28.885  25.667  26.286  1.00  0.00    -0.167 F 
ATOM     24  F   UNL A   1      30.932  24.997  26.032  1.00  0.00    -0.167 F 
ATOM     25  F   UNL A   1      30.474  27.119  25.921  1.00  0.00    -0.167 F 
ENDBRANCH  18  22
ENDBRANCH   5   8
ENDBRANCH   3   4
ENDBRANCH   2   3
ENDBRANCH   1   2
BRANCH   1  26
ATOM     26  C   UNL A   1      34.382  29.075  26.113  1.00  0.00     0.116 C 
BRANCH  26  27
ATOM     27  N   UNL A   1      33.942  30.343  26.680  1.00  0.00    -0.352 N 
ATOM     28  C   UNL A   1      34.510  31.047  27.710  1.00  0.00     0.251 C 
ATOM     29  H   UNL A   1      33.138  30.741  26.275  1.00  0.00     0.163 HD
ATOM     30  O   UNL A   1      33.985  32.062  28.155  1.00  0.00    -0.269 OA
BRANCH  28  31
ATOM     31  C   UNL A   1      35.762  30.537  28.290  1.00  0.00     0.039 A 
ATOM     32  C   UNL A   1      35.699  29.708  29.411  1.00  0.00     0.014 A 
ATOM     33  C   UNL A   1      36.979  30.829  27.669  1.00  0.00     0.014 A 
ATOM     34  C   UNL A   1      36.870  29.125  29.890  1.00  0.00     0.010 A 
ATOM     35  C   UNL A   1      38.136  30.206  28.117  1.00  0.00     0.010 A 
ATOM     36  C   UNL A   1      38.089  29.359  29.236  1.00  0.00    -0.014 A 
BRANCH  36  37
ATOM     37  C   UNL A   1      39.352  28.789  29.749  1.00  0.00     0.031 A 
ATOM     38  C   UNL A   1      39.989  29.412  30.955  1.00  0.00     0.074 A 
ATOM     39  C   UNL A   1      39.946  27.768  29.106  1.00  0.00     0.049 A 
ATOM     40  N   UNL A   1      41.128  29.129  31.529  1.00  0.00    -0.248 NA
ATOM     41  C   UNL A   1      39.251  30.520  31.585  1.00  0.00     0.031 C 
ATOM     42  C   UNL A   1      39.428  27.097  27.913  1.00  0.00     0.029 A 
ATOM     43  N   UNL A   1      41.127  27.123  29.367  1.00  0.00    -0.354 N 
ATOM     44  C   UNL A   1      41.250  30.031  32.577  1.00  0.00     0.074 A 
ATOM     45  C   UNL A   1      40.096  30.901  32.530  1.00  0.00     0.031 C 
ATOM     46  C   UNL A   1      40.282  26.124  27.554  1.00  0.00     0.029 A 
ATOM     47  C   UNL A   1      41.416  26.122  28.473  1.00  0.00     0.049 A 
ATOM     48  H   UNL A   1      41.712  27.355  30.124  1.00  0.00     0.167 HD
ATOM     49  C   UNL A   1      42.228  30.114  33.510  1.00  0.00     0.037 A 
ATOM     50  C   UNL A   1      42.481  25.302  28.410  1.00  0.00     0.037 A 
ATOM     51  C   UNL A   1      43.363  29.235  33.564  1.00  0.00     0.049 A 
ATOM     52  C   UNL A   1      43.571  25.435  29.439  1.00  0.00     0.074 A 
ATOM     53  C   UNL A   1      44.386  29.199  34.496  1.00  0.00     0.029 A 
ATOM     54  N   UNL A   1      43.624  28.234  32.640  1.00  0.00    -0.354 N 
ATOM     55  N   UNL A   1      43.650  26.254  30.459  1.00  0.00    -0.248 NA
ATOM     56  C   UNL A   1      44.717  24.525  29.305  1.00  0.00     0.031 C 
ATOM     57  C   UNL A   1      45.283  28.194  34.116  1.00  0.00     0.029 A 
ATOM     58  C   UNL A   1      44.801  27.584  32.968  1.00  0.00     0.049 A 
ATOM     59  H   UNL A   1      43.055  28.018  31.866  1.00  0.00     0.167 HD
ATOM     60  C   UNL A   1      44.836  25.939  31.109  1.00  0.00     0.074 A 
ATOM     61  C   UNL A   1      45.441  24.851  30.367  1.00  0.00     0.031 C 
ATOM     62  C   UNL A   1      45.375  26.495  32.221  1.00  0.00     0.037 A 
BRANCH  49  63
ATOM     63  C   UNL A   1      42.094  31.199  34.534  1.00  0.00     0.057 A 
ATOM     64  C   UNL A   1      41.384  30.980  35.721  1.00  0.00     0.134 A 
ATOM     65  C   UNL A   1      42.690  32.455  34.357  1.00  0.00     0.134 A 
ATOM     66  F   UNL A   1      40.791  29.799  35.951  1.00  0.00    -0.206 F 
ATOM     67  C   UNL A   1      41.281  31.968  36.700  1.00  0.00     0.040 A 
ATOM     68  C   UNL A   1      42.615  33.442  35.341  1.00  0.00     0.040 A 
ATOM     69  F   UNL A   1      43.403  32.718  33.252  1.00  0.00    -0.206 F 
ATOM     70  C   UNL A   1      41.906  33.201  36.515  1.00  0.00     0.006 A 
ENDBRANCH  49  63
BRANCH  50  71
ATOM     71  C   UNL A   1      42.563  24.261  27.358  1.00  0.00     0.057 A 
ATOM     72  C   UNL A   1      43.100  24.530  26.094  1.00  0.00     0.134 A 
ATOM     73  C   UNL A   1      42.120  22.957  27.608  1.00  0.00     0.134 A 
ATOM     74  F   UNL A   1      43.539  25.761  25.794  1.00  0.00    -0.206 F 
ATOM     75  C   UNL A   1      43.195  23.539  25.116  1.00  0.00     0.040 A 
ATOM     76  C   UNL A   1      42.225  21.952  26.646  1.00  0.00     0.040 A 
ATOM     77  F   UNL A   1      41.613  22.636  28.807  1.00  0.00    -0.206 F 
ATOM     78  C   UNL A   1      42.763  22.243  25.394  1.00  0.00     0.006 A 
ENDBRANCH  50  71
BRANCH  62  79
ATOM     79  C   UNL A   1      46.657  25.906  32.723  1.00  0.00     0.057 A 
ATOM     80  C   UNL A   1      46.644  24.905  33.703  1.00  0.00     0.134 A 
ATOM     81  C   UNL A   1      47.902  26.352  32.266  1.00  0.00     0.134 A 
ATOM     82  F   UNL A   1      45.482  24.439  34.185  1.00  0.00    -0.206 F 
ATOM     83  C   UNL A   1      47.827  24.371  34.213  1.00  0.00     0.040 A 
ATOM     84  C   UNL A   1      49.092  25.811  32.754  1.00  0.00     0.040 A 
ATOM     85  F   UNL A   1      47.979  27.298  31.317  1.00  0.00    -0.206 F 
ATOM     86  C   UNL A   1      49.056  24.821  33.734  1.00  0.00     0.006 A 
ENDBRANCH  62  79
ENDBRANCH  36  37
ENDBRANCH  28  31
ENDBRANCH  26  27
ENDBRANCH   1  26
TORSDOF 13
ENDMDL
MODEL 3
REMARK VINA RESULT:     -12.0      2.787      7.582
REMARK SMILES Nc1c(Cl)ccc2c1C=C(C(=O)NCCCCNC(=O)c1ccc(-c3c4nc(c(-c5c(F)cccc5F)c5ccc([nH]5)c(-c5c(F)cccc5F)c5nc(c(-c6c(F)cccc6F)c6ccc3[nH]6)C=C5)C=C4)cc1)[C@@H](C(F)(F)F)O2
REMARK SMILES IDX 16 1 15 2 14 3 13 4 11 5 12 6 10 8 2 9 3 10 8 11 4 12 5 13
REMARK SMILES IDX 7 14 9 15 6 16 80 17 75 18 1 19 76 22 77 23 78 24 79 25
REMARK SMILES IDX 17 26 18 27 19 28 20 30 21 31 22 32 74 33 23 34 73 35 24 36
REMARK SMILES IDX 25 37 26 38 67 39 27 40 72 41 66 42 68 43 28 44 71 45 65 46
REMARK SMILES IDX 64 47 29 49 55 50 38 51 54 52 39 53 42 54 53 55 69 56 40 57
REMARK SMILES IDX 41 58 52 60 70 61 43 62 30 63 31 64 36 65 32 66 33 67 35 68
REMARK SMILES IDX 37 69 34 70 56 71 57 72 62 73 58 74 59 75 61 76 63 77 60 78
REMARK SMILES IDX 44 79 45 80 50 81 46 82 47 83 49 84 51 85 48 86
REMARK H PARENT 13 7 1 20 1 21 18 29 68 48 42 59
REMARK Flexibility Score: inf
ROOT
ATOM      1  C   UNL A   1      38.131  19.646  24.999  1.00  0.00     0.023 C 
ENDROOT
BRANCH   1   2
ATOM      2  C   UNL A   1      37.179  20.787  24.641  1.00  0.00     0.023 C 
BRANCH   2   3
ATOM      3  C   UNL A   1      37.336  22.022  25.523  1.00  0.00     0.116 C 
BRANCH   3   4
ATOM      4  N   UNL A   1      36.207  22.187  26.419  1.00  0.00    -0.352 N 
ATOM      5  C   UNL A   1      35.038  22.869  26.420  1.00  0.00     0.251 C 
ATOM      6  O   UNL A   1      34.358  22.735  27.442  1.00  0.00    -0.270 OA
ATOM      7  H   UNL A   1      36.320  21.662  27.245  1.00  0.00     0.163 HD
BRANCH   5   8
ATOM      8  C   UNL A   1      34.540  23.735  25.308  1.00  0.00     0.067 C 
ATOM      9  C   UNL A   1      32.868  27.064  25.010  1.00  0.00     0.061 A 
ATOM     10  C   UNL A   1      32.374  27.866  23.956  1.00  0.00     0.064 A 
ATOM     11  C   UNL A   1      33.535  25.862  24.676  1.00  0.00     0.042 A 
ATOM     12  Cl  UNL A   1      31.515  29.334  24.291  1.00  0.00    -0.082 Cl
ATOM     13  C   UNL A   1      32.573  27.523  22.617  1.00  0.00     0.026 A 
ATOM     14  C   UNL A   1      33.716  25.528  23.326  1.00  0.00     0.130 A 
ATOM     15  C   UNL A   1      34.092  24.949  25.679  1.00  0.00     0.027 C 
ATOM     16  C   UNL A   1      33.254  26.354  22.304  1.00  0.00     0.049 A 
ATOM     17  O   UNL A   1      34.381  24.409  22.916  1.00  0.00    -0.475 OA
ATOM     18  C   UNL A   1      34.476  23.318  23.870  1.00  0.00     0.314 C 
BRANCH   9  19
ATOM     19  N   UNL A   1      32.595  27.416  26.336  1.00  0.00    -0.397 N 
ATOM     20  H   UNL A   1      32.318  28.335  26.553  1.00  0.00     0.156 HD
ATOM     21  H   UNL A   1      32.681  26.745  27.051  1.00  0.00     0.156 HD
ENDBRANCH   9  19
BRANCH  18  22
ATOM     22  C   UNL A   1      33.360  22.296  23.589  1.00  0.00     0.429 C 
ATOM     23  F   UNL A   1      32.262  22.579  24.334  1.00  0.00    -0.167 F 
ATOM     24  F   UNL A   1      32.955  22.309  22.297  1.00  0.00    -0.167 F 
ATOM     25  F   UNL A   1      33.729  21.029  23.875  1.00  0.00    -0.167 F 
ENDBRANCH  18  22
ENDBRANCH   5   8
ENDBRANCH   3   4
ENDBRANCH   2   3
ENDBRANCH   1   2
BRANCH   1  26
ATOM     26  C   UNL A   1      39.265  20.025  25.949  1.00  0.00     0.116 C 
BRANCH  26  27
ATOM     27  N   UNL A   1      40.397  19.110  25.884  1.00  0.00    -0.352 N 
ATOM     28  C   UNL A   1      41.717  19.384  26.134  1.00  0.00     0.251 C 
ATOM     29  H   UNL A   1      40.188  18.182  25.630  1.00  0.00     0.163 HD
ATOM     30  O   UNL A   1      42.589  18.541  25.955  1.00  0.00    -0.269 OA
BRANCH  28  31
ATOM     31  C   UNL A   1      42.067  20.734  26.603  1.00  0.00     0.039 A 
ATOM     32  C   UNL A   1      42.430  21.702  25.665  1.00  0.00     0.014 A 
ATOM     33  C   UNL A   1      41.960  21.042  27.962  1.00  0.00     0.014 A 
ATOM     34  C   UNL A   1      42.643  23.011  26.090  1.00  0.00     0.010 A 
ATOM     35  C   UNL A   1      42.124  22.357  28.374  1.00  0.00     0.010 A 
ATOM     36  C   UNL A   1      42.475  23.346  27.442  1.00  0.00    -0.014 A 
BRANCH  36  37
ATOM     37  C   UNL A   1      42.740  24.717  27.927  1.00  0.00     0.031 A 
ATOM     38  C   UNL A   1      44.146  25.104  28.272  1.00  0.00     0.074 A 
ATOM     39  C   UNL A   1      41.723  25.580  28.109  1.00  0.00     0.049 A 
ATOM     40  N   UNL A   1      44.597  26.218  28.785  1.00  0.00    -0.248 NA
ATOM     41  C   UNL A   1      45.183  24.086  28.028  1.00  0.00     0.031 C 
ATOM     42  C   UNL A   1      40.314  25.306  27.825  1.00  0.00     0.029 A 
ATOM     43  N   UNL A   1      41.726  26.863  28.589  1.00  0.00    -0.354 N 
ATOM     44  C   UNL A   1      45.964  26.031  28.938  1.00  0.00     0.074 A 
ATOM     45  C   UNL A   1      46.262  24.682  28.511  1.00  0.00     0.031 C 
ATOM     46  C   UNL A   1      39.589  26.397  28.124  1.00  0.00     0.029 A 
ATOM     47  C   UNL A   1      40.477  27.432  28.643  1.00  0.00     0.049 A 
ATOM     48  H   UNL A   1      42.545  27.333  28.867  1.00  0.00     0.167 HD
ATOM     49  C   UNL A   1      46.894  26.913  29.374  1.00  0.00     0.037 A 
ATOM     50  C   UNL A   1      40.103  28.652  29.068  1.00  0.00     0.037 A 
ATOM     51  C   UNL A   1      46.595  28.259  29.779  1.00  0.00     0.049 A 
ATOM     52  C   UNL A   1      41.150  29.604  29.581  1.00  0.00     0.074 A 
ATOM     53  C   UNL A   1      47.467  29.252  30.190  1.00  0.00     0.029 A 
ATOM     54  N   UNL A   1      45.319  28.800  29.822  1.00  0.00    -0.354 N 
ATOM     55  N   UNL A   1      42.447  29.437  29.669  1.00  0.00    -0.248 NA
ATOM     56  C   UNL A   1      40.677  30.914  30.050  1.00  0.00     0.031 C 
ATOM     57  C   UNL A   1      46.712  30.385  30.513  1.00  0.00     0.029 A 
ATOM     58  C   UNL A   1      45.376  30.108  30.271  1.00  0.00     0.049 A 
ATOM     59  H   UNL A   1      44.495  28.324  29.572  1.00  0.00     0.167 HD
ATOM     60  C   UNL A   1      42.950  30.630  30.171  1.00  0.00     0.074 A 
ATOM     61  C   UNL A   1      41.817  31.512  30.366  1.00  0.00     0.031 C 
ATOM     62  C   UNL A   1      44.234  30.969  30.443  1.00  0.00     0.037 A 
BRANCH  49  63
ATOM     63  C   UNL A   1      48.309  26.429  29.432  1.00  0.00     0.057 A 
ATOM     64  C   UNL A   1      49.180  26.630  28.354  1.00  0.00     0.134 A 
ATOM     65  C   UNL A   1      48.821  25.785  30.567  1.00  0.00     0.134 A 
ATOM     66  F   UNL A   1      48.753  27.242  27.239  1.00  0.00    -0.206 F 
ATOM     67  C   UNL A   1      50.512  26.218  28.407  1.00  0.00     0.040 A 
ATOM     68  C   UNL A   1      50.157  25.390  30.641  1.00  0.00     0.040 A 
ATOM     69  F   UNL A   1      48.043  25.583  31.642  1.00  0.00    -0.206 F 
ATOM     70  C   UNL A   1      51.006  25.604  29.558  1.00  0.00     0.006 A 
ENDBRANCH  49  63
BRANCH  50  71
ATOM     71  C   UNL A   1      38.680  29.064  29.003  1.00  0.00     0.057 A 
ATOM     72  C   UNL A   1      37.832  28.962  30.112  1.00  0.00     0.134 A 
ATOM     73  C   UNL A   1      38.143  29.592  27.824  1.00  0.00     0.134 A 
ATOM     74  F   UNL A   1      38.288  28.462  31.269  1.00  0.00    -0.206 F 
ATOM     75  C   UNL A   1      36.499  29.373  30.049  1.00  0.00     0.040 A 
ATOM     76  C   UNL A   1      36.818  30.024  27.753  1.00  0.00     0.040 A 
ATOM     77  F   UNL A   1      38.914  29.731  26.735  1.00  0.00    -0.206 F 
ATOM     78  C   UNL A   1      35.991  29.912  28.868  1.00  0.00     0.006 A 
ENDBRANCH  50  71
BRANCH  62  79
ATOM     79  C   UNL A   1      44.481  32.361  30.938  1.00  0.00     0.057 A 
ATOM     80  C   UNL A   1      44.722  33.403  30.033  1.00  0.00     0.134 A 
ATOM     81  C   UNL A   1      44.515  32.663  32.303  1.00  0.00     0.134 A 
ATOM     82  F   UNL A   1      44.707  33.176  28.712  1.00  0.00    -0.206 F 
ATOM     83  C   UNL A   1      44.993  34.699  30.473  1.00  0.00     0.040 A 
ATOM     84  C   UNL A   1      44.764  33.960  32.754  1.00  0.00     0.040 A 
ATOM     85  F   UNL A   1      44.276  31.710  33.217  1.00  0.00    -0.206 F 
ATOM     86  C   UNL A   1      45.010  34.981  31.838  1.00  0.00     0.006 A 
ENDBRANCH  62  79
ENDBRANCH  36  37
ENDBRANCH  28  31
ENDBRANCH  26  27
ENDBRANCH   1  26
TORSDOF 13
ENDMDL
