MODEL 1
REMARK VINA RESULT:     -10.6      0.000      0.000
REMARK SMILES C[C@H](NC1=[NH+]S(=O)(=O)c2ccccc21)C(=O)NCCCCNC(=O)c1ccc(-c2c3nc(c(-c4c(F)cccc4F)c4ccc([nH]4)c(-c4c(F)cccc4F)c4nc(c(-c5c(F)cccc5F)c5ccc2[nH]5)C=C4)C=C3)cc1
REMARK SMILES IDX 20 1 19 2 18 3 17 4 15 5 16 6 2 8 1 9 3 10 4 11 5 13 14 14
REMARK SMILES IDX 6 15 9 17 13 18 7 19 8 20 10 21 12 22 11 23 21 24 22 25
REMARK SMILES IDX 23 26 24 28 25 29 26 30 78 31 27 32 77 33 28 34 29 35 30 36
REMARK SMILES IDX 71 37 31 38 76 39 70 40 72 41 32 42 75 43 69 44 68 45 33 47
REMARK SMILES IDX 59 48 42 49 58 50 43 51 46 52 57 53 73 54 44 55 45 56 56 58
REMARK SMILES IDX 74 59 47 60 34 61 35 62 40 63 36 64 37 65 39 66 41 67 38 68
REMARK SMILES IDX 60 69 61 70 66 71 62 72 63 73 65 74 67 75 64 76 48 77 49 78
REMARK SMILES IDX 54 79 50 80 51 81 53 82 55 83 52 84
REMARK H PARENT 17 7 3 12 5 16 22 27 72 46 46 57
REMARK Flexibility Score: inf
ROOT
ATOM      1  C   UNL A   1      32.903  36.738  31.403  1.00  0.00     0.023 C 
ENDROOT
BRANCH   1   2
ATOM      2  C   UNL A   1      33.768  37.319  32.515  1.00  0.00     0.023 C 
BRANCH   2   3
ATOM      3  C   UNL A   1      34.152  36.356  33.635  1.00  0.00     0.116 C 
BRANCH   3   4
ATOM      4  N   UNL A   1      33.563  35.046  33.427  1.00  0.00    -0.352 N 
ATOM      5  C   UNL A   1      34.156  33.823  33.302  1.00  0.00     0.264 C 
ATOM      6  O   UNL A   1      33.421  32.874  33.007  1.00  0.00    -0.270 OA
ATOM      7  H   UNL A   1      32.580  35.038  33.365  1.00  0.00     0.163 HD
BRANCH   5   8
ATOM      8  C   UNL A   1      35.674  33.598  33.508  1.00  0.00     0.258 C 
ATOM      9  C   UNL A   1      36.506  34.589  32.711  1.00  0.00     0.069 C 
BRANCH   8  10
ATOM     10  N   UNL A   1      36.020  32.174  33.389  1.00  0.00    -0.262 N 
ATOM     11  C   UNL A   1      37.150  31.531  33.828  1.00  0.00     0.292 C 
ATOM     12  H   UNL A   1      35.355  31.608  32.936  1.00  0.00     0.306 HD
ATOM     13  N   UNL A   1      37.968  31.994  34.725  1.00  0.00    -0.162 N 
ATOM     14  C   UNL A   1      37.575  30.252  33.196  1.00  0.00     0.087 A 
ATOM     15  S   UNL A   1      39.289  31.041  34.886  1.00  0.00     0.329 S 
ATOM     16  H   UNL A   1      37.812  32.816  35.244  1.00  0.00     0.327 HD
ATOM     17  C   UNL A   1      38.830  29.903  33.657  1.00  0.00     0.124 A 
ATOM     18  C   UNL A   1      36.994  29.541  32.157  1.00  0.00     0.018 A 
ATOM     19  O   UNL A   1      39.268  30.343  36.148  1.00  0.00    -0.179 OA
ATOM     20  O   UNL A   1      40.457  31.745  34.390  1.00  0.00    -0.179 OA
ATOM     21  C   UNL A   1      39.597  28.903  33.092  1.00  0.00     0.025 A 
ATOM     22  C   UNL A   1      37.739  28.509  31.569  1.00  0.00     0.001 A 
ATOM     23  C   UNL A   1      39.034  28.202  32.025  1.00  0.00     0.002 A 
ENDBRANCH   8  10
ENDBRANCH   5   8
ENDBRANCH   3   4
ENDBRANCH   2   3
ENDBRANCH   1   2
BRANCH   1  24
ATOM     24  C   UNL A   1      33.670  36.091  30.258  1.00  0.00     0.116 C 
BRANCH  24  25
ATOM     25  N   UNL A   1      32.826  35.376  29.312  1.00  0.00    -0.352 N 
ATOM     26  C   UNL A   1      33.126  34.268  28.553  1.00  0.00     0.251 C 
ATOM     27  H   UNL A   1      31.916  35.734  29.199  1.00  0.00     0.163 HD
ATOM     28  O   UNL A   1      32.323  33.843  27.730  1.00  0.00    -0.269 OA
BRANCH  26  29
ATOM     29  C   UNL A   1      34.447  33.619  28.697  1.00  0.00     0.039 A 
ATOM     30  C   UNL A   1      35.492  34.029  27.863  1.00  0.00     0.014 A 
ATOM     31  C   UNL A   1      34.666  32.641  29.670  1.00  0.00     0.014 A 
ATOM     32  C   UNL A   1      36.778  33.528  28.069  1.00  0.00     0.010 A 
ATOM     33  C   UNL A   1      35.961  32.202  29.926  1.00  0.00     0.010 A 
ATOM     34  C   UNL A   1      37.030  32.648  29.135  1.00  0.00    -0.014 A 
BRANCH  34  35
ATOM     35  C   UNL A   1      38.403  32.188  29.452  1.00  0.00     0.031 A 
ATOM     36  C   UNL A   1      38.864  30.830  29.002  1.00  0.00     0.074 A 
ATOM     37  C   UNL A   1      39.199  32.949  30.228  1.00  0.00     0.049 A 
ATOM     38  N   UNL A   1      39.972  30.197  29.287  1.00  0.00    -0.248 NA
ATOM     39  C   UNL A   1      37.939  30.070  28.146  1.00  0.00     0.031 C 
ATOM     40  C   UNL A   1      38.847  34.260  30.778  1.00  0.00     0.029 A 
ATOM     41  N   UNL A   1      40.466  32.720  30.699  1.00  0.00    -0.354 N 
ATOM     42  C   UNL A   1      39.861  28.953  28.682  1.00  0.00     0.074 A 
ATOM     43  C   UNL A   1      38.566  28.908  28.039  1.00  0.00     0.031 C 
ATOM     44  C   UNL A   1      39.883  34.729  31.492  1.00  0.00     0.029 A 
ATOM     45  C   UNL A   1      40.957  33.740  31.477  1.00  0.00     0.049 A 
ATOM     46  H   UNL A   1      40.977  31.902  30.500  1.00  0.00     0.167 HD
ATOM     47  C   UNL A   1      40.761  27.943  28.654  1.00  0.00     0.037 A 
ATOM     48  C   UNL A   1      42.140  33.863  32.108  1.00  0.00     0.037 A 
ATOM     49  C   UNL A   1      42.072  28.009  29.241  1.00  0.00     0.049 A 
ATOM     50  C   UNL A   1      43.148  32.755  32.007  1.00  0.00     0.074 A 
ATOM     51  C   UNL A   1      43.088  27.070  29.195  1.00  0.00     0.029 A 
ATOM     52  N   UNL A   1      42.553  29.085  29.972  1.00  0.00    -0.354 N 
ATOM     53  N   UNL A   1      43.047  31.603  31.391  1.00  0.00    -0.248 NA
ATOM     54  C   UNL A   1      44.434  32.965  32.688  1.00  0.00     0.031 C 
ATOM     55  C   UNL A   1      44.179  27.572  29.912  1.00  0.00     0.029 A 
ATOM     56  C   UNL A   1      43.849  28.831  30.386  1.00  0.00     0.049 A 
ATOM     57  H   UNL A   1      42.047  29.906  30.167  1.00  0.00     0.167 HD
ATOM     58  C   UNL A   1      44.260  30.960  31.590  1.00  0.00     0.074 A 
ATOM     59  C   UNL A   1      45.086  31.853  32.378  1.00  0.00     0.031 C 
ATOM     60  C   UNL A   1      44.656  29.738  31.159  1.00  0.00     0.037 A 
BRANCH  47  61
ATOM     61  C   UNL A   1      40.357  26.684  27.952  1.00  0.00     0.057 A 
ATOM     62  C   UNL A   1      39.495  25.753  28.548  1.00  0.00     0.134 A 
ATOM     63  C   UNL A   1      40.822  26.404  26.662  1.00  0.00     0.134 A 
ATOM     64  F   UNL A   1      39.030  25.957  29.789  1.00  0.00    -0.206 F 
ATOM     65  C   UNL A   1      39.130  24.577  27.893  1.00  0.00     0.040 A 
ATOM     66  C   UNL A   1      40.447  25.241  25.989  1.00  0.00     0.040 A 
ATOM     67  F   UNL A   1      41.649  27.256  26.036  1.00  0.00    -0.206 F 
ATOM     68  C   UNL A   1      39.603  24.321  26.607  1.00  0.00     0.006 A 
ENDBRANCH  47  61
BRANCH  48  69
ATOM     69  C   UNL A   1      42.450  35.100  32.862  1.00  0.00     0.057 A 
ATOM     70  C   UNL A   1      41.966  35.284  34.162  1.00  0.00     0.134 A 
ATOM     71  C   UNL A   1      43.231  36.120  32.310  1.00  0.00     0.134 A 
ATOM     72  F   UNL A   1      41.198  34.346  34.734  1.00  0.00    -0.206 F 
ATOM     73  C   UNL A   1      42.237  36.446  34.883  1.00  0.00     0.040 A 
ATOM     74  C   UNL A   1      43.524  37.282  33.026  1.00  0.00     0.040 A 
ATOM     75  F   UNL A   1      43.729  35.997  31.071  1.00  0.00    -0.206 F 
ATOM     76  C   UNL A   1      43.022  37.449  34.316  1.00  0.00     0.006 A 
ENDBRANCH  48  69
BRANCH  60  77
ATOM     77  C   UNL A   1      46.048  29.313  31.506  1.00  0.00     0.057 A 
ATOM     78  C   UNL A   1      46.336  28.661  32.710  1.00  0.00     0.134 A 
ATOM     79  C   UNL A   1      47.102  29.524  30.609  1.00  0.00     0.134 A 
ATOM     80  F   UNL A   1      45.369  28.444  33.615  1.00  0.00    -0.206 F 
ATOM     81  C   UNL A   1      47.631  28.244  33.017  1.00  0.00     0.040 A 
ATOM     82  C   UNL A   1      48.398  29.097  30.898  1.00  0.00     0.040 A 
ATOM     83  F   UNL A   1      46.885  30.140  29.437  1.00  0.00    -0.206 F 
ATOM     84  C   UNL A   1      48.666  28.457  32.107  1.00  0.00     0.006 A 
ENDBRANCH  60  77
ENDBRANCH  34  35
ENDBRANCH  26  29
ENDBRANCH  24  25
ENDBRANCH   1  24
TORSDOF 12
ENDMDL
MODEL 2
REMARK VINA RESULT:     -10.6      5.096     10.495
REMARK SMILES C[C@H](NC1=[NH+]S(=O)(=O)c2ccccc21)C(=O)NCCCCNC(=O)c1ccc(-c2c3nc(c(-c4c(F)cccc4F)c4ccc([nH]4)c(-c4c(F)cccc4F)c4nc(c(-c5c(F)cccc5F)c5ccc2[nH]5)C=C4)C=C3)cc1
REMARK SMILES IDX 20 1 19 2 18 3 17 4 15 5 16 6 2 8 1 9 3 10 4 11 5 13 14 14
REMARK SMILES IDX 6 15 9 17 13 18 7 19 8 20 10 21 12 22 11 23 21 24 22 25
REMARK SMILES IDX 23 26 24 28 25 29 26 30 78 31 27 32 77 33 28 34 29 35 30 36
REMARK SMILES IDX 71 37 31 38 76 39 70 40 72 41 32 42 75 43 69 44 68 45 33 47
REMARK SMILES IDX 59 48 42 49 58 50 43 51 46 52 57 53 73 54 44 55 45 56 56 58
REMARK SMILES IDX 74 59 47 60 34 61 35 62 40 63 36 64 37 65 39 66 41 67 38 68
REMARK SMILES IDX 60 69 61 70 66 71 62 72 63 73 65 74 67 75 64 76 48 77 49 78
REMARK SMILES IDX 54 79 50 80 51 81 53 82 55 83 52 84
REMARK H PARENT 17 7 3 12 5 16 22 27 72 46 46 57
REMARK Flexibility Score: inf
ROOT
ATOM      1  C   UNL A   1      37.807  20.358  24.641  1.00  0.00     0.023 C 
ENDROOT
BRANCH   1   2
ATOM      2  C   UNL A   1      36.524  19.618  25.001  1.00  0.00     0.023 C 
BRANCH   2   3
ATOM      3  C   UNL A   1      35.228  20.403  24.823  1.00  0.00     0.116 C 
BRANCH   3   4
ATOM      4  N   UNL A   1      34.774  20.960  26.083  1.00  0.00    -0.352 N 
ATOM      5  C   UNL A   1      34.870  22.231  26.571  1.00  0.00     0.264 C 
ATOM      6  O   UNL A   1      34.504  22.410  27.738  1.00  0.00    -0.270 OA
ATOM      7  H   UNL A   1      34.324  20.319  26.682  1.00  0.00     0.163 HD
BRANCH   5   8
ATOM      8  C   UNL A   1      35.413  23.415  25.733  1.00  0.00     0.258 C 
ATOM      9  C   UNL A   1      36.904  23.619  25.942  1.00  0.00     0.069 C 
BRANCH   8  10
ATOM     10  N   UNL A   1      34.545  24.595  25.859  1.00  0.00    -0.262 N 
ATOM     11  C   UNL A   1      33.875  25.271  24.871  1.00  0.00     0.292 C 
ATOM     12  H   UNL A   1      34.428  24.946  26.772  1.00  0.00     0.306 HD
ATOM     13  N   UNL A   1      33.612  24.794  23.692  1.00  0.00    -0.162 N 
ATOM     14  C   UNL A   1      33.482  26.693  25.071  1.00  0.00     0.087 A 
ATOM     15  S   UNL A   1      32.944  25.928  22.717  1.00  0.00     0.329 S 
ATOM     16  H   UNL A   1      33.792  23.866  23.417  1.00  0.00     0.327 HD
ATOM     17  C   UNL A   1      33.009  27.214  23.882  1.00  0.00     0.124 A 
ATOM     18  C   UNL A   1      33.695  27.526  26.160  1.00  0.00     0.018 A 
ATOM     19  O   UNL A   1      31.552  25.638  22.473  1.00  0.00    -0.179 OA
ATOM     20  O   UNL A   1      33.878  26.270  21.662  1.00  0.00    -0.179 OA
ATOM     21  C   UNL A   1      32.787  28.562  23.677  1.00  0.00     0.025 A 
ATOM     22  C   UNL A   1      33.466  28.898  25.991  1.00  0.00     0.001 A 
ATOM     23  C   UNL A   1      33.028  29.413  24.756  1.00  0.00     0.002 A 
ENDBRANCH   8  10
ENDBRANCH   5   8
ENDBRANCH   3   4
ENDBRANCH   2   3
ENDBRANCH   1   2
BRANCH   1  24
ATOM     24  C   UNL A   1      38.820  20.483  25.770  1.00  0.00     0.116 C 
BRANCH  24  25
ATOM     25  N   UNL A   1      39.852  19.457  25.754  1.00  0.00    -0.352 N 
ATOM     26  C   UNL A   1      41.179  19.561  26.102  1.00  0.00     0.251 C 
ATOM     27  H   UNL A   1      39.562  18.567  25.451  1.00  0.00     0.163 HD
ATOM     28  O   UNL A   1      41.940  18.613  25.940  1.00  0.00    -0.269 OA
BRANCH  26  29
ATOM     29  C   UNL A   1      41.699  20.842  26.628  1.00  0.00     0.039 A 
ATOM     30  C   UNL A   1      42.228  21.772  25.728  1.00  0.00     0.014 A 
ATOM     31  C   UNL A   1      41.632  21.141  27.990  1.00  0.00     0.014 A 
ATOM     32  C   UNL A   1      42.600  23.039  26.182  1.00  0.00     0.010 A 
ATOM     33  C   UNL A   1      41.929  22.427  28.428  1.00  0.00     0.010 A 
ATOM     34  C   UNL A   1      42.406  23.391  27.528  1.00  0.00    -0.014 A 
BRANCH  34  35
ATOM     35  C   UNL A   1      42.683  24.762  28.018  1.00  0.00     0.031 A 
ATOM     36  C   UNL A   1      44.073  25.142  28.445  1.00  0.00     0.074 A 
ATOM     37  C   UNL A   1      41.667  25.633  28.171  1.00  0.00     0.049 A 
ATOM     38  N   UNL A   1      44.489  26.240  29.020  1.00  0.00    -0.248 NA
ATOM     39  C   UNL A   1      45.126  24.137  28.230  1.00  0.00     0.031 C 
ATOM     40  C   UNL A   1      40.263  25.367  27.850  1.00  0.00     0.029 A 
ATOM     41  N   UNL A   1      41.659  26.917  28.652  1.00  0.00    -0.354 N 
ATOM     42  C   UNL A   1      45.840  26.044  29.271  1.00  0.00     0.074 A 
ATOM     43  C   UNL A   1      46.168  24.711  28.814  1.00  0.00     0.031 C 
ATOM     44  C   UNL A   1      39.535  26.462  28.120  1.00  0.00     0.029 A 
ATOM     45  C   UNL A   1      40.412  27.494  28.663  1.00  0.00     0.049 A 
ATOM     46  H   UNL A   1      42.470  27.383  28.962  1.00  0.00     0.167 HD
ATOM     47  C   UNL A   1      46.731  26.902  29.820  1.00  0.00     0.037 A 
ATOM     48  C   UNL A   1      40.022  28.717  29.067  1.00  0.00     0.037 A 
ATOM     49  C   UNL A   1      46.421  28.248  30.219  1.00  0.00     0.049 A 
ATOM     50  C   UNL A   1      41.043  29.674  29.613  1.00  0.00     0.074 A 
ATOM     51  C   UNL A   1      47.273  29.222  30.710  1.00  0.00     0.029 A 
ATOM     52  N   UNL A   1      45.157  28.814  30.159  1.00  0.00    -0.354 N 
ATOM     53  N   UNL A   1      42.326  29.491  29.800  1.00  0.00    -0.248 NA
ATOM     54  C   UNL A   1      40.559  31.007  30.002  1.00  0.00     0.031 C 
ATOM     55  C   UNL A   1      46.520  30.374  30.961  1.00  0.00     0.029 A 
ATOM     56  C   UNL A   1      45.205  30.123  30.607  1.00  0.00     0.049 A 
ATOM     57  H   UNL A   1      44.346  28.353  29.844  1.00  0.00     0.167 HD
ATOM     58  C   UNL A   1      42.809  30.689  30.308  1.00  0.00     0.074 A 
ATOM     59  C   UNL A   1      41.681  31.595  30.392  1.00  0.00     0.031 C 
ATOM     60  C   UNL A   1      44.073  31.010  30.672  1.00  0.00     0.037 A 
BRANCH  47  61
ATOM     61  C   UNL A   1      48.131  26.406  30.011  1.00  0.00     0.057 A 
ATOM     62  C   UNL A   1      48.535  25.775  31.194  1.00  0.00     0.134 A 
ATOM     63  C   UNL A   1      49.083  26.549  28.994  1.00  0.00     0.134 A 
ATOM     64  F   UNL A   1      47.673  25.624  32.210  1.00  0.00    -0.206 F 
ATOM     65  C   UNL A   1      49.844  25.325  31.369  1.00  0.00     0.040 A 
ATOM     66  C   UNL A   1      50.390  26.085  29.150  1.00  0.00     0.040 A 
ATOM     67  F   UNL A   1      48.760  27.144  27.836  1.00  0.00    -0.206 F 
ATOM     68  C   UNL A   1      50.774  25.475  30.342  1.00  0.00     0.006 A 
ENDBRANCH  47  61
BRANCH  48  69
ATOM     69  C   UNL A   1      38.603  29.121  28.935  1.00  0.00     0.057 A 
ATOM     70  C   UNL A   1      37.733  29.037  30.027  1.00  0.00     0.134 A 
ATOM     71  C   UNL A   1      38.084  29.597  27.726  1.00  0.00     0.134 A 
ATOM     72  F   UNL A   1      38.172  28.572  31.205  1.00  0.00    -0.206 F 
ATOM     73  C   UNL A   1      36.390  29.401  29.920  1.00  0.00     0.040 A 
ATOM     74  C   UNL A   1      36.747  29.980  27.609  1.00  0.00     0.040 A 
ATOM     75  F   UNL A   1      38.872  29.707  26.647  1.00  0.00    -0.206 F 
ATOM     76  C   UNL A   1      35.895  29.878  28.707  1.00  0.00     0.006 A 
ENDBRANCH  48  69
BRANCH  60  77
ATOM     77  C   UNL A   1      44.306  32.403  31.166  1.00  0.00     0.057 A 
ATOM     78  C   UNL A   1      44.566  33.459  30.285  1.00  0.00     0.134 A 
ATOM     79  C   UNL A   1      44.230  32.697  32.532  1.00  0.00     0.134 A 
ATOM     80  F   UNL A   1      44.665  33.236  28.965  1.00  0.00    -0.206 F 
ATOM     81  C   UNL A   1      44.756  34.760  30.749  1.00  0.00     0.040 A 
ATOM     82  C   UNL A   1      44.402  33.997  33.006  1.00  0.00     0.040 A 
ATOM     83  F   UNL A   1      43.979  31.726  33.424  1.00  0.00    -0.206 F 
ATOM     84  C   UNL A   1      44.669  35.033  32.114  1.00  0.00     0.006 A 
ENDBRANCH  60  77
ENDBRANCH  34  35
ENDBRANCH  26  29
ENDBRANCH  24  25
ENDBRANCH   1  24
TORSDOF 12
ENDMDL
MODEL 3
REMARK VINA RESULT:     -10.4      5.080     10.401
REMARK SMILES C[C@H](NC1=[NH+]S(=O)(=O)c2ccccc21)C(=O)NCCCCNC(=O)c1ccc(-c2c3nc(c(-c4c(F)cccc4F)c4ccc([nH]4)c(-c4c(F)cccc4F)c4nc(c(-c5c(F)cccc5F)c5ccc2[nH]5)C=C4)C=C3)cc1
REMARK SMILES IDX 20 1 19 2 18 3 17 4 15 5 16 6 2 8 1 9 3 10 4 11 5 13 14 14
REMARK SMILES IDX 6 15 9 17 13 18 7 19 8 20 10 21 12 22 11 23 21 24 22 25
REMARK SMILES IDX 23 26 24 28 25 29 26 30 78 31 27 32 77 33 28 34 29 35 30 36
REMARK SMILES IDX 71 37 31 38 76 39 70 40 72 41 32 42 75 43 69 44 68 45 33 47
REMARK SMILES IDX 59 48 42 49 58 50 43 51 46 52 57 53 73 54 44 55 45 56 56 58
REMARK SMILES IDX 74 59 47 60 34 61 35 62 40 63 36 64 37 65 39 66 41 67 38 68
REMARK SMILES IDX 60 69 61 70 66 71 62 72 63 73 65 74 67 75 64 76 48 77 49 78
REMARK SMILES IDX 54 79 50 80 51 81 53 82 55 83 52 84
REMARK H PARENT 17 7 3 12 5 16 22 27 72 46 46 57
REMARK Flexibility Score: inf
ROOT
ATOM      1  C   UNL A   1      37.457  20.807  24.627  1.00  0.00     0.023 C 
ENDROOT
BRANCH   1   2
ATOM      2  C   UNL A   1      36.274  19.913  24.978  1.00  0.00     0.023 C 
BRANCH   2   3
ATOM      3  C   UNL A   1      34.900  20.575  24.932  1.00  0.00     0.116 C 
BRANCH   3   4
ATOM      4  N   UNL A   1      34.548  21.146  26.218  1.00  0.00    -0.352 N 
ATOM      5  C   UNL A   1      34.719  22.414  26.696  1.00  0.00     0.264 C 
ATOM      6  O   UNL A   1      34.437  22.605  27.883  1.00  0.00    -0.270 OA
ATOM      7  H   UNL A   1      34.118  20.521  26.846  1.00  0.00     0.163 HD
BRANCH   5   8
ATOM      8  C   UNL A   1      35.245  23.579  25.821  1.00  0.00     0.258 C 
ATOM      9  C   UNL A   1      36.732  23.812  26.023  1.00  0.00     0.069 C 
BRANCH   8  10
ATOM     10  N   UNL A   1      34.359  24.750  25.910  1.00  0.00    -0.262 N 
ATOM     11  C   UNL A   1      33.731  25.423  24.893  1.00  0.00     0.292 C 
ATOM     12  H   UNL A   1      34.195  25.094  26.817  1.00  0.00     0.306 HD
ATOM     13  N   UNL A   1      33.531  24.949  23.700  1.00  0.00    -0.162 N 
ATOM     14  C   UNL A   1      33.313  26.840  25.081  1.00  0.00     0.087 A 
ATOM     15  S   UNL A   1      32.899  26.081  22.700  1.00  0.00     0.329 S 
ATOM     16  H   UNL A   1      33.734  24.024  23.431  1.00  0.00     0.327 HD
ATOM     17  C   UNL A   1      32.894  27.362  23.872  1.00  0.00     0.124 A 
ATOM     18  C   UNL A   1      33.464  27.670  26.182  1.00  0.00     0.018 A 
ATOM     19  O   UNL A   1      31.524  25.778  22.387  1.00  0.00    -0.179 OA
ATOM     20  O   UNL A   1      33.880  26.439  21.693  1.00  0.00    -0.179 OA
ATOM     21  C   UNL A   1      32.668  28.708  23.663  1.00  0.00     0.025 A 
ATOM     22  C   UNL A   1      33.229  29.040  26.009  1.00  0.00     0.001 A 
ATOM     23  C   UNL A   1      32.846  29.556  24.756  1.00  0.00     0.002 A 
ENDBRANCH   8  10
ENDBRANCH   5   8
ENDBRANCH   3   4
ENDBRANCH   2   3
ENDBRANCH   1   2
BRANCH   1  24
ATOM     24  C   UNL A   1      38.553  20.874  25.682  1.00  0.00     0.116 C 
BRANCH  24  25
ATOM     25  N   UNL A   1      39.500  19.771  25.621  1.00  0.00    -0.352 N 
ATOM     26  C   UNL A   1      40.825  19.749  25.989  1.00  0.00     0.251 C 
ATOM     27  H   UNL A   1      39.143  18.924  25.268  1.00  0.00     0.163 HD
ATOM     28  O   UNL A   1      41.510  18.753  25.783  1.00  0.00    -0.269 OA
BRANCH  26  29
ATOM     29  C   UNL A   1      41.438  20.954  26.588  1.00  0.00     0.039 A 
ATOM     30  C   UNL A   1      41.955  21.937  25.740  1.00  0.00     0.014 A 
ATOM     31  C   UNL A   1      41.469  21.132  27.973  1.00  0.00     0.014 A 
ATOM     32  C   UNL A   1      42.416  23.141  26.277  1.00  0.00     0.010 A 
ATOM     33  C   UNL A   1      41.854  22.360  28.501  1.00  0.00     0.010 A 
ATOM     34  C   UNL A   1      42.322  23.378  27.658  1.00  0.00    -0.014 A 
BRANCH  34  35
ATOM     35  C   UNL A   1      42.695  24.687  28.247  1.00  0.00     0.031 A 
ATOM     36  C   UNL A   1      41.646  25.741  28.462  1.00  0.00     0.074 A 
ATOM     37  C   UNL A   1      43.991  24.961  28.494  1.00  0.00     0.049 A 
ATOM     38  N   UNL A   1      41.790  26.985  28.840  1.00  0.00    -0.248 NA
ATOM     39  C   UNL A   1      40.255  25.354  28.180  1.00  0.00     0.031 C 
ATOM     40  C   UNL A   1      45.111  24.045  28.272  1.00  0.00     0.029 A 
ATOM     41  N   UNL A   1      44.583  26.101  28.975  1.00  0.00    -0.354 N 
ATOM     42  C   UNL A   1      40.518  27.539  28.803  1.00  0.00     0.074 A 
ATOM     43  C   UNL A   1      39.619  26.506  28.337  1.00  0.00     0.031 C 
ATOM     44  C   UNL A   1      46.253  24.650  28.638  1.00  0.00     0.029 A 
ATOM     45  C   UNL A   1      45.949  26.005  29.089  1.00  0.00     0.049 A 
ATOM     46  H   UNL A   1      44.079  26.912  29.215  1.00  0.00     0.167 HD
ATOM     47  C   UNL A   1      40.131  28.792  29.139  1.00  0.00     0.037 A 
ATOM     48  C   UNL A   1      46.854  26.909  29.509  1.00  0.00     0.037 A 
ATOM     49  C   UNL A   1      41.014  29.801  29.659  1.00  0.00     0.049 A 
ATOM     50  C   UNL A   1      46.391  28.271  29.938  1.00  0.00     0.074 A 
ATOM     51  C   UNL A   1      40.703  31.073  30.105  1.00  0.00     0.029 A 
ATOM     52  N   UNL A   1      42.382  29.644  29.814  1.00  0.00    -0.354 N 
ATOM     53  N   UNL A   1      45.178  28.765  29.943  1.00  0.00    -0.248 NA
ATOM     54  C   UNL A   1      47.423  29.200  30.421  1.00  0.00     0.031 C 
ATOM     55  C   UNL A   1      41.888  31.692  30.517  1.00  0.00     0.029 A 
ATOM     56  C   UNL A   1      42.932  30.798  30.346  1.00  0.00     0.049 A 
ATOM     57  H   UNL A   1      42.888  28.832  29.580  1.00  0.00     0.167 HD
ATOM     58  C   UNL A   1      45.294  30.052  30.447  1.00  0.00     0.074 A 
ATOM     59  C   UNL A   1      46.697  30.261  30.746  1.00  0.00     0.031 C 
ATOM     60  C   UNL A   1      44.328  30.980  30.646  1.00  0.00     0.037 A 
BRANCH  47  61
ATOM     61  C   UNL A   1      38.684  29.132  28.961  1.00  0.00     0.057 A 
ATOM     62  C   UNL A   1      38.171  29.545  27.725  1.00  0.00     0.134 A 
ATOM     63  C   UNL A   1      37.791  29.033  30.034  1.00  0.00     0.134 A 
ATOM     64  F   UNL A   1      38.980  29.676  26.664  1.00  0.00    -0.206 F 
ATOM     65  C   UNL A   1      36.823  29.871  27.569  1.00  0.00     0.040 A 
ATOM     66  C   UNL A   1      36.437  29.337  29.886  1.00  0.00     0.040 A 
ATOM     67  F   UNL A   1      38.219  28.642  31.244  1.00  0.00    -0.206 F 
ATOM     68  C   UNL A   1      35.951  29.762  28.651  1.00  0.00     0.006 A 
ENDBRANCH  47  61
BRANCH  48  69
ATOM     69  C   UNL A   1      48.287  26.541  29.580  1.00  0.00     0.057 A 
ATOM     70  C   UNL A   1      48.801  25.885  30.705  1.00  0.00     0.134 A 
ATOM     71  C   UNL A   1      49.173  26.831  28.537  1.00  0.00     0.134 A 
ATOM     72  F   UNL A   1      48.000  25.598  31.741  1.00  0.00    -0.206 F 
ATOM     73  C   UNL A   1      50.149  25.542  30.796  1.00  0.00     0.040 A 
ATOM     74  C   UNL A   1      50.521  26.479  28.608  1.00  0.00     0.040 A 
ATOM     75  F   UNL A   1      48.737  27.452  27.431  1.00  0.00    -0.206 F 
ATOM     76  C   UNL A   1      51.014  25.836  29.743  1.00  0.00     0.006 A 
ENDBRANCH  48  69
BRANCH  60  77
ATOM     77  C   UNL A   1      44.750  32.287  31.237  1.00  0.00     0.057 A 
ATOM     78  C   UNL A   1      45.114  33.372  30.432  1.00  0.00     0.134 A 
ATOM     79  C   UNL A   1      44.756  32.473  32.624  1.00  0.00     0.134 A 
ATOM     80  F   UNL A   1      45.141  33.249  29.096  1.00  0.00    -0.206 F 
ATOM     81  C   UNL A   1      45.483  34.597  30.989  1.00  0.00     0.040 A 
ATOM     82  C   UNL A   1      45.108  33.697  33.192  1.00  0.00     0.040 A 
ATOM     83  F   UNL A   1      44.413  31.470  33.447  1.00  0.00    -0.206 F 
ATOM     84  C   UNL A   1      45.475  34.764  32.373  1.00  0.00     0.006 A 
ENDBRANCH  60  77
ENDBRANCH  34  35
ENDBRANCH  26  29
ENDBRANCH  24  25
ENDBRANCH   1  24
TORSDOF 12
ENDMDL
