MODEL 1
REMARK VINA RESULT:     -12.0      0.000      0.000
REMARK SMILES CCc1cc(N2CCC(O)(C(=O)NCCCCNC(=O)c3ccc(-c4c5nc(c(-c6c(F)cccc6F)c6ccc([nH]6)c(-c6c(F)cccc6F)c6nc(c(-c7c(F)cccc7F)c7ccc4[nH]7)C=C6)C=C5)cc3)CC2)nc(N2CCOCC2)n1
REMARK SMILES IDX 15 1 14 2 13 3 11 4 12 5 9 7 6 8 7 9 76 10 8 11 75 12 5 13
REMARK SMILES IDX 3 14 4 15 85 16 78 17 77 18 2 19 1 20 79 21 80 22 84 23
REMARK SMILES IDX 81 24 83 25 82 26 10 27 16 29 17 30 18 31 19 32 20 34 21 35
REMARK SMILES IDX 22 36 74 37 23 38 73 39 24 40 25 41 26 42 67 43 27 44 72 45
REMARK SMILES IDX 66 46 68 47 28 48 71 49 65 50 64 51 29 53 55 54 38 55 54 56
REMARK SMILES IDX 39 57 42 58 53 59 69 60 40 61 41 62 52 64 70 65 43 66 30 67
REMARK SMILES IDX 31 68 36 69 32 70 33 71 35 72 37 73 34 74 56 75 57 76 62 77
REMARK SMILES IDX 58 78 59 79 61 80 63 81 60 82 44 83 45 84 50 85 46 86 47 87
REMARK SMILES IDX 49 88 51 89 48 90
REMARK H PARENT 13 6 10 28 18 33 68 52 42 63
REMARK Flexibility Score: inf
ROOT
ATOM      1  C   UNL A   1      31.718  29.743  25.956  1.00  0.00     0.023 C 
ENDROOT
BRANCH   1   2
ATOM      2  C   UNL A   1      31.438  29.355  24.504  1.00  0.00     0.116 C 
BRANCH   2   3
ATOM      3  N   UNL A   1      32.650  29.367  23.710  1.00  0.00    -0.354 N 
ATOM      4  C   UNL A   1      33.148  28.429  22.853  1.00  0.00     0.252 C 
ATOM      5  O   UNL A   1      34.213  28.708  22.293  1.00  0.00    -0.272 OA
ATOM      6  H   UNL A   1      33.201  30.177  23.806  1.00  0.00     0.163 HD
BRANCH   4   7
ATOM      7  C   UNL A   1      32.400  27.087  22.591  1.00  0.00     0.146 C 
ATOM      8  N   UNL A   1      32.195  24.234  22.848  1.00  0.00    -0.356 N 
ATOM      9  C   UNL A   1      31.295  25.077  23.613  1.00  0.00     0.121 C 
ATOM     10  C   UNL A   1      32.766  24.758  21.618  1.00  0.00     0.121 C 
ATOM     11  C   UNL A   1      31.973  26.413  23.900  1.00  0.00     0.067 C 
ATOM     12  C   UNL A   1      33.359  26.143  21.831  1.00  0.00     0.067 C 
BRANCH   8  13
ATOM     13  C   UNL A   1      32.825  23.181  23.484  1.00  0.00     0.134 A 
ATOM     14  C   UNL A   1      32.909  20.902  24.054  1.00  0.00     0.048 A 
ATOM     15  C   UNL A   1      32.200  21.952  23.524  1.00  0.00     0.071 A 
ATOM     16  N   UNL A   1      34.161  21.059  24.522  1.00  0.00    -0.218 NA
ATOM     17  C   UNL A   1      34.691  22.293  24.496  1.00  0.00     0.227 A 
ATOM     18  N   UNL A   1      34.053  23.358  23.990  1.00  0.00    -0.196 NA
BRANCH  14  19
ATOM     19  C   UNL A   1      32.338  19.509  24.035  1.00  0.00     0.053 C 
ATOM     20  C   UNL A   1      32.972  18.604  25.079  1.00  0.00     0.011 C 
ENDBRANCH  14  19
BRANCH  17  21
ATOM     21  N   UNL A   1      35.978  22.472  24.954  1.00  0.00    -0.336 N 
ATOM     22  C   UNL A   1      36.219  23.670  25.756  1.00  0.00     0.148 C 
ATOM     23  C   UNL A   1      36.730  21.287  25.351  1.00  0.00     0.148 C 
ATOM     24  C   UNL A   1      37.732  23.916  25.883  1.00  0.00     0.181 C 
ATOM     25  C   UNL A   1      38.219  21.652  25.432  1.00  0.00     0.181 C 
ATOM     26  O   UNL A   1      38.437  22.746  26.339  1.00  0.00    -0.378 OA
ENDBRANCH  17  21
ENDBRANCH   8  13
BRANCH   7  27
ATOM     27  O   UNL A   1      31.215  27.317  21.811  1.00  0.00    -0.380 OA
ATOM     28  H   UNL A   1      31.464  27.514  20.895  1.00  0.00     0.212 HD
ENDBRANCH   7  27
ENDBRANCH   4   7
ENDBRANCH   2   3
ENDBRANCH   1   2
BRANCH   1  29
ATOM     29  C   UNL A   1      32.443  28.675  26.775  1.00  0.00     0.023 C 
BRANCH  29  30
ATOM     30  C   UNL A   1      33.832  29.066  27.269  1.00  0.00     0.116 C 
BRANCH  30  31
ATOM     31  N   UNL A   1      33.860  30.370  27.915  1.00  0.00    -0.352 N 
ATOM     32  C   UNL A   1      34.870  30.955  28.639  1.00  0.00     0.251 C 
ATOM     33  H   UNL A   1      33.040  30.907  27.821  1.00  0.00     0.163 HD
ATOM     34  O   UNL A   1      34.678  32.016  29.225  1.00  0.00    -0.269 OA
BRANCH  32  35
ATOM     35  C   UNL A   1      36.180  30.279  28.740  1.00  0.00     0.039 A 
ATOM     36  C   UNL A   1      37.040  30.312  27.639  1.00  0.00     0.014 A 
ATOM     37  C   UNL A   1      36.573  29.651  29.925  1.00  0.00     0.014 A 
ATOM     38  C   UNL A   1      38.328  29.790  27.756  1.00  0.00     0.010 A 
ATOM     39  C   UNL A   1      37.880  29.193  30.062  1.00  0.00     0.010 A 
ATOM     40  C   UNL A   1      38.774  29.271  28.983  1.00  0.00    -0.014 A 
BRANCH  40  41
ATOM     41  C   UNL A   1      40.185  28.847  29.169  1.00  0.00     0.031 A 
ATOM     42  C   UNL A   1      41.196  29.796  29.747  1.00  0.00     0.074 A 
ATOM     43  C   UNL A   1      40.569  27.627  28.744  1.00  0.00     0.049 A 
ATOM     44  N   UNL A   1      42.482  29.626  29.920  1.00  0.00    -0.248 NA
ATOM     45  C   UNL A   1      40.704  31.119  30.163  1.00  0.00     0.031 C 
ATOM     46  C   UNL A   1      39.692  26.633  28.120  1.00  0.00     0.029 A 
ATOM     47  N   UNL A   1      41.798  27.018  28.762  1.00  0.00    -0.354 N 
ATOM     48  C   UNL A   1      42.954  30.819  30.450  1.00  0.00     0.074 A 
ATOM     49  C   UNL A   1      41.826  31.722  30.532  1.00  0.00     0.031 C 
ATOM     50  C   UNL A   1      40.405  25.532  27.837  1.00  0.00     0.029 A 
ATOM     51  C   UNL A   1      41.795  25.755  28.219  1.00  0.00     0.049 A 
ATOM     52  H   UNL A   1      42.606  27.444  29.129  1.00  0.00     0.167 HD
ATOM     53  C   UNL A   1      44.211  31.127  30.849  1.00  0.00     0.037 A 
ATOM     54  C   UNL A   1      42.803  24.880  28.039  1.00  0.00     0.037 A 
ATOM     55  C   UNL A   1      45.325  30.217  30.795  1.00  0.00     0.049 A 
ATOM     56  C   UNL A   1      44.190  25.256  28.480  1.00  0.00     0.074 A 
ATOM     57  C   UNL A   1      46.617  30.410  31.254  1.00  0.00     0.029 A 
ATOM     58  N   UNL A   1      45.283  28.947  30.243  1.00  0.00    -0.354 N 
ATOM     59  N   UNL A   1      44.605  26.357  29.059  1.00  0.00    -0.248 NA
ATOM     60  C   UNL A   1      45.252  24.267  28.241  1.00  0.00     0.031 C 
ATOM     61  C   UNL A   1      47.369  29.275  30.935  1.00  0.00     0.029 A 
ATOM     62  C   UNL A   1      46.534  28.357  30.321  1.00  0.00     0.049 A 
ATOM     63  H   UNL A   1      44.483  28.525  29.855  1.00  0.00     0.167 HD
ATOM     64  C   UNL A   1      45.965  26.183  29.277  1.00  0.00     0.074 A 
ATOM     65  C   UNL A   1      46.303  24.864  28.784  1.00  0.00     0.031 C 
ATOM     66  C   UNL A   1      46.855  27.040  29.833  1.00  0.00     0.037 A 
BRANCH  53  67
ATOM     67  C   UNL A   1      44.456  32.505  31.389  1.00  0.00     0.057 A 
ATOM     68  C   UNL A   1      44.326  32.798  32.753  1.00  0.00     0.134 A 
ATOM     69  C   UNL A   1      44.890  33.535  30.545  1.00  0.00     0.134 A 
ATOM     70  F   UNL A   1      43.905  31.859  33.612  1.00  0.00    -0.206 F 
ATOM     71  C   UNL A   1      44.606  34.069  33.255  1.00  0.00     0.040 A 
ATOM     72  C   UNL A   1      45.197  34.804  31.039  1.00  0.00     0.040 A 
ATOM     73  F   UNL A   1      45.041  33.320  29.229  1.00  0.00    -0.206 F 
ATOM     74  C   UNL A   1      45.052  35.074  32.398  1.00  0.00     0.006 A 
ENDBRANCH  53  67
BRANCH  54  75
ATOM     75  C   UNL A   1      42.545  23.554  27.423  1.00  0.00     0.057 A 
ATOM     76  C   UNL A   1      42.644  23.371  26.038  1.00  0.00     0.134 A 
ATOM     77  C   UNL A   1      42.165  22.448  28.193  1.00  0.00     0.134 A 
ATOM     78  F   UNL A   1      42.983  24.399  25.245  1.00  0.00    -0.206 F 
ATOM     79  C   UNL A   1      42.347  22.146  25.438  1.00  0.00     0.040 A 
ATOM     80  C   UNL A   1      41.890  21.210  27.610  1.00  0.00     0.040 A 
ATOM     81  F   UNL A   1      42.058  22.555  29.526  1.00  0.00    -0.206 F 
ATOM     82  C   UNL A   1      41.972  21.060  26.226  1.00  0.00     0.006 A 
ENDBRANCH  54  75
BRANCH  66  83
ATOM     83  C   UNL A   1      48.272  26.567  29.963  1.00  0.00     0.057 A 
ATOM     84  C   UNL A   1      49.236  26.845  28.986  1.00  0.00     0.134 A 
ATOM     85  C   UNL A   1      48.685  25.853  31.097  1.00  0.00     0.134 A 
ATOM     86  F   UNL A   1      48.900  27.510  27.870  1.00  0.00    -0.206 F 
ATOM     87  C   UNL A   1      50.555  26.410  29.121  1.00  0.00     0.040 A 
ATOM     88  C   UNL A   1      50.008  25.439  31.255  1.00  0.00     0.040 A 
ATOM     89  F   UNL A   1      47.813  25.562  32.074  1.00  0.00    -0.206 F 
ATOM     90  C   UNL A   1      50.945  25.711  30.262  1.00  0.00     0.006 A 
ENDBRANCH  66  83
ENDBRANCH  40  41
ENDBRANCH  32  35
ENDBRANCH  30  31
ENDBRANCH  29  30
ENDBRANCH   1  29
TORSDOF 15
ENDMDL
MODEL 2
REMARK VINA RESULT:     -12.0      2.555      8.251
REMARK SMILES CCc1cc(N2CCC(O)(C(=O)NCCCCNC(=O)c3ccc(-c4c5nc(c(-c6c(F)cccc6F)c6ccc([nH]6)c(-c6c(F)cccc6F)c6nc(c(-c7c(F)cccc7F)c7ccc4[nH]7)C=C6)C=C5)cc3)CC2)nc(N2CCOCC2)n1
REMARK SMILES IDX 15 1 14 2 13 3 11 4 12 5 9 7 6 8 7 9 76 10 8 11 75 12 5 13
REMARK SMILES IDX 3 14 4 15 85 16 78 17 77 18 2 19 1 20 79 21 80 22 84 23
REMARK SMILES IDX 81 24 83 25 82 26 10 27 16 29 17 30 18 31 19 32 20 34 21 35
REMARK SMILES IDX 22 36 74 37 23 38 73 39 24 40 25 41 26 42 67 43 27 44 72 45
REMARK SMILES IDX 66 46 68 47 28 48 71 49 65 50 64 51 29 53 55 54 38 55 54 56
REMARK SMILES IDX 39 57 42 58 53 59 69 60 40 61 41 62 52 64 70 65 43 66 30 67
REMARK SMILES IDX 31 68 36 69 32 70 33 71 35 72 37 73 34 74 56 75 57 76 62 77
REMARK SMILES IDX 58 78 59 79 61 80 63 81 60 82 44 83 45 84 50 85 46 86 47 87
REMARK SMILES IDX 49 88 51 89 48 90
REMARK H PARENT 13 6 10 28 18 33 68 52 42 63
REMARK Flexibility Score: inf
ROOT
ATOM      1  C   UNL A   1      36.786  21.055  24.730  1.00  0.00     0.023 C 
ENDROOT
BRANCH   1   2
ATOM      2  C   UNL A   1      35.325  20.694  25.000  1.00  0.00     0.116 C 
BRANCH   2   3
ATOM      3  N   UNL A   1      34.939  21.029  26.356  1.00  0.00    -0.354 N 
ATOM      4  C   UNL A   1      33.876  21.752  26.813  1.00  0.00     0.252 C 
ATOM      5  O   UNL A   1      33.784  21.875  28.039  1.00  0.00    -0.272 OA
ATOM      6  H   UNL A   1      35.537  20.682  27.055  1.00  0.00     0.163 HD
BRANCH   4   7
ATOM      7  C   UNL A   1      32.835  22.377  25.836  1.00  0.00     0.146 C 
ATOM      8  N   UNL A   1      31.514  24.657  24.693  1.00  0.00    -0.356 N 
ATOM      9  C   UNL A   1      32.459  23.911  23.884  1.00  0.00     0.121 C 
ATOM     10  C   UNL A   1      30.850  23.978  25.795  1.00  0.00     0.121 C 
ATOM     11  C   UNL A   1      33.508  23.271  24.788  1.00  0.00     0.067 C 
ATOM     12  C   UNL A   1      31.850  23.231  26.665  1.00  0.00     0.067 C 
BRANCH   8  13
ATOM     13  C   UNL A   1      31.587  26.037  24.703  1.00  0.00     0.134 A 
ATOM     14  C   UNL A   1      32.762  28.011  25.199  1.00  0.00     0.048 A 
ATOM     15  C   UNL A   1      32.661  26.647  25.318  1.00  0.00     0.071 A 
ATOM     16  N   UNL A   1      31.853  28.731  24.516  1.00  0.00    -0.218 NA
ATOM     17  C   UNL A   1      30.808  28.079  23.983  1.00  0.00     0.227 A 
ATOM     18  N   UNL A   1      30.651  26.749  24.060  1.00  0.00    -0.196 NA
BRANCH  14  19
ATOM     19  C   UNL A   1      33.961  28.738  25.749  1.00  0.00     0.053 C 
ATOM     20  C   UNL A   1      33.868  28.962  27.250  1.00  0.00     0.011 C 
ENDBRANCH  14  19
BRANCH  17  21
ATOM     21  N   UNL A   1      29.875  28.794  23.264  1.00  0.00    -0.336 N 
ATOM     22  C   UNL A   1      30.373  29.519  22.097  1.00  0.00     0.148 C 
ATOM     23  C   UNL A   1      28.539  28.226  23.128  1.00  0.00     0.148 C 
ATOM     24  C   UNL A   1      29.318  30.534  21.624  1.00  0.00     0.181 C 
ATOM     25  C   UNL A   1      27.578  29.330  22.666  1.00  0.00     0.181 C 
ATOM     26  O   UNL A   1      28.026  29.927  21.437  1.00  0.00    -0.378 OA
ENDBRANCH  17  21
ENDBRANCH   8  13
BRANCH   7  27
ATOM     27  O   UNL A   1      32.123  21.344  25.136  1.00  0.00    -0.380 OA
ATOM     28  H   UNL A   1      32.505  20.480  25.357  1.00  0.00     0.212 HD
ENDBRANCH   7  27
ENDBRANCH   4   7
ENDBRANCH   2   3
ENDBRANCH   1   2
BRANCH   1  29
ATOM     29  C   UNL A   1      37.778  19.912  24.948  1.00  0.00     0.023 C 
BRANCH  29  30
ATOM     30  C   UNL A   1      39.014  20.272  25.765  1.00  0.00     0.116 C 
BRANCH  30  31
ATOM     31  N   UNL A   1      39.980  19.185  25.844  1.00  0.00    -0.352 N 
ATOM     32  C   UNL A   1      41.331  19.244  26.085  1.00  0.00     0.251 C 
ATOM     33  H   UNL A   1      39.613  18.282  25.706  1.00  0.00     0.163 HD
ATOM     34  O   UNL A   1      42.021  18.234  25.992  1.00  0.00    -0.269 OA
BRANCH  32  35
ATOM     35  C   UNL A   1      41.956  20.541  26.418  1.00  0.00     0.039 A 
ATOM     36  C   UNL A   1      42.361  21.378  25.376  1.00  0.00     0.014 A 
ATOM     37  C   UNL A   1      42.105  20.944  27.748  1.00  0.00     0.014 A 
ATOM     38  C   UNL A   1      42.837  22.657  25.666  1.00  0.00     0.010 A 
ATOM     39  C   UNL A   1      42.514  22.243  28.032  1.00  0.00     0.010 A 
ATOM     40  C   UNL A   1      42.871  23.117  26.994  1.00  0.00    -0.014 A 
BRANCH  40  41
ATOM     41  C   UNL A   1      43.233  24.522  27.310  1.00  0.00     0.031 A 
ATOM     42  C   UNL A   1      44.668  24.963  27.287  1.00  0.00     0.074 A 
ATOM     43  C   UNL A   1      42.267  25.381  27.692  1.00  0.00     0.049 A 
ATOM     44  N   UNL A   1      45.179  26.127  27.599  1.00  0.00    -0.248 NA
ATOM     45  C   UNL A   1      45.666  23.959  26.884  1.00  0.00     0.031 C 
ATOM     46  C   UNL A   1      40.842  25.060  27.803  1.00  0.00     0.029 A 
ATOM     47  N   UNL A   1      42.338  26.698  28.070  1.00  0.00    -0.354 N 
ATOM     48  C   UNL A   1      46.552  25.993  27.444  1.00  0.00     0.074 A 
ATOM     49  C   UNL A   1      46.802  24.623  27.051  1.00  0.00     0.031 C 
ATOM     50  C   UNL A   1      40.173  26.154  28.197  1.00  0.00     0.029 A 
ATOM     51  C   UNL A   1      41.122  27.242  28.407  1.00  0.00     0.049 A 
ATOM     52  H   UNL A   1      43.181  27.207  28.096  1.00  0.00     0.167 HD
ATOM     53  C   UNL A   1      47.514  26.933  27.598  1.00  0.00     0.037 A 
ATOM     54  C   UNL A   1      40.809  28.475  28.847  1.00  0.00     0.037 A 
ATOM     55  C   UNL A   1      47.260  28.303  27.960  1.00  0.00     0.049 A 
ATOM     56  C   UNL A   1      41.902  29.493  29.021  1.00  0.00     0.074 A 
ATOM     57  C   UNL A   1      48.163  29.348  28.058  1.00  0.00     0.029 A 
ATOM     58  N   UNL A   1      46.016  28.816  28.289  1.00  0.00    -0.354 N 
ATOM     59  N   UNL A   1      43.186  29.375  28.789  1.00  0.00    -0.248 NA
ATOM     60  C   UNL A   1      41.501  30.816  29.522  1.00  0.00     0.031 C 
ATOM     61  C   UNL A   1      47.472  30.483  28.495  1.00  0.00     0.029 A 
ATOM     62  C   UNL A   1      46.132  30.156  28.622  1.00  0.00     0.049 A 
ATOM     63  H   UNL A   1      45.175  28.306  28.286  1.00  0.00     0.167 HD
ATOM     64  C   UNL A   1      43.742  30.612  29.087  1.00  0.00     0.074 A 
ATOM     65  C   UNL A   1      42.652  31.471  29.502  1.00  0.00     0.031 C 
ATOM     66  C   UNL A   1      45.038  31.001  29.027  1.00  0.00     0.037 A 
BRANCH  53  67
ATOM     67  C   UNL A   1      48.939  26.519  27.371  1.00  0.00     0.057 A 
ATOM     68  C   UNL A   1      49.750  26.061  28.418  1.00  0.00     0.134 A 
ATOM     69  C   UNL A   1      49.483  26.515  26.081  1.00  0.00     0.134 A 
ATOM     70  F   UNL A   1      49.291  26.049  29.678  1.00  0.00    -0.206 F 
ATOM     71  C   UNL A   1      51.056  25.628  28.191  1.00  0.00     0.040 A 
ATOM     72  C   UNL A   1      50.780  26.061  25.838  1.00  0.00     0.040 A 
ATOM     73  F   UNL A   1      48.758  26.936  25.034  1.00  0.00    -0.206 F 
ATOM     74  C   UNL A   1      51.572  25.618  26.896  1.00  0.00     0.006 A 
ENDBRANCH  53  67
BRANCH  54  75
ATOM     75  C   UNL A   1      39.398  28.830  29.146  1.00  0.00     0.057 A 
ATOM     76  C   UNL A   1      38.576  29.404  28.169  1.00  0.00     0.134 A 
ATOM     77  C   UNL A   1      38.847  28.635  30.418  1.00  0.00     0.134 A 
ATOM     78  F   UNL A   1      39.054  29.635  26.937  1.00  0.00    -0.206 F 
ATOM     79  C   UNL A   1      37.267  29.796  28.452  1.00  0.00     0.040 A 
ATOM     80  C   UNL A   1      37.531  28.999  30.709  1.00  0.00     0.040 A 
ATOM     81  F   UNL A   1      39.579  28.084  31.398  1.00  0.00    -0.206 F 
ATOM     82  C   UNL A   1      36.740  29.590  29.726  1.00  0.00     0.006 A 
ENDBRANCH  54  75
BRANCH  66  83
ATOM     83  C   UNL A   1      45.344  32.424  29.390  1.00  0.00     0.057 A 
ATOM     84  C   UNL A   1      45.716  32.790  30.690  1.00  0.00     0.134 A 
ATOM     85  C   UNL A   1      45.300  33.434  28.419  1.00  0.00     0.134 A 
ATOM     86  F   UNL A   1      45.762  31.872  31.667  1.00  0.00    -0.206 F 
ATOM     87  C   UNL A   1      46.010  34.115  31.017  1.00  0.00     0.040 A 
ATOM     88  C   UNL A   1      45.619  34.756  28.729  1.00  0.00     0.040 A 
ATOM     89  F   UNL A   1      44.960  33.148  27.154  1.00  0.00    -0.206 F 
ATOM     90  C   UNL A   1      45.969  35.100  30.033  1.00  0.00     0.006 A 
ENDBRANCH  66  83
ENDBRANCH  40  41
ENDBRANCH  32  35
ENDBRANCH  30  31
ENDBRANCH  29  30
ENDBRANCH   1  29
TORSDOF 15
ENDMDL
MODEL 3
REMARK VINA RESULT:     -11.9      1.228      2.687
REMARK SMILES CCc1cc(N2CCC(O)(C(=O)NCCCCNC(=O)c3ccc(-c4c5nc(c(-c6c(F)cccc6F)c6ccc([nH]6)c(-c6c(F)cccc6F)c6nc(c(-c7c(F)cccc7F)c7ccc4[nH]7)C=C6)C=C5)cc3)CC2)nc(N2CCOCC2)n1
REMARK SMILES IDX 15 1 14 2 13 3 11 4 12 5 9 7 6 8 7 9 76 10 8 11 75 12 5 13
REMARK SMILES IDX 3 14 4 15 85 16 78 17 77 18 2 19 1 20 79 21 80 22 84 23
REMARK SMILES IDX 81 24 83 25 82 26 10 27 16 29 17 30 18 31 19 32 20 34 21 35
REMARK SMILES IDX 22 36 74 37 23 38 73 39 24 40 25 41 26 42 67 43 27 44 72 45
REMARK SMILES IDX 66 46 68 47 28 48 71 49 65 50 64 51 29 53 55 54 38 55 54 56
REMARK SMILES IDX 39 57 42 58 53 59 69 60 40 61 41 62 52 64 70 65 43 66 30 67
REMARK SMILES IDX 31 68 36 69 32 70 33 71 35 72 37 73 34 74 56 75 57 76 62 77
REMARK SMILES IDX 58 78 59 79 61 80 63 81 60 82 44 83 45 84 50 85 46 86 47 87
REMARK SMILES IDX 49 88 51 89 48 90
REMARK H PARENT 13 6 10 28 18 33 68 52 42 63
REMARK Flexibility Score: inf
ROOT
ATOM      1  C   UNL A   1      31.852  29.102  25.471  1.00  0.00     0.023 C 
ENDROOT
BRANCH   1   2
ATOM      2  C   UNL A   1      31.365  28.603  24.110  1.00  0.00     0.116 C 
BRANCH   2   3
ATOM      3  N   UNL A   1      32.471  28.395  23.197  1.00  0.00    -0.354 N 
ATOM      4  C   UNL A   1      32.992  27.238  22.696  1.00  0.00     0.252 C 
ATOM      5  O   UNL A   1      33.943  27.356  21.917  1.00  0.00    -0.272 OA
ATOM      6  H   UNL A   1      32.917  29.218  22.891  1.00  0.00     0.163 HD
BRANCH   4   7
ATOM      7  C   UNL A   1      32.405  25.847  23.082  1.00  0.00     0.146 C 
ATOM      8  N   UNL A   1      32.747  23.088  23.805  1.00  0.00    -0.356 N 
ATOM      9  C   UNL A   1      32.301  24.031  24.814  1.00  0.00     0.121 C 
ATOM     10  C   UNL A   1      32.490  23.389  22.406  1.00  0.00     0.121 C 
ATOM     11  C   UNL A   1      32.844  25.418  24.488  1.00  0.00     0.067 C 
ATOM     12  C   UNL A   1      32.916  24.808  22.059  1.00  0.00     0.067 C 
BRANCH   8  13
ATOM     13  C   UNL A   1      33.752  22.195  24.125  1.00  0.00     0.134 A 
ATOM     14  C   UNL A   1      35.963  21.773  24.801  1.00  0.00     0.048 A 
ATOM     15  C   UNL A   1      35.023  22.674  24.365  1.00  0.00     0.071 A 
ATOM     16  N   UNL A   1      35.666  20.473  24.982  1.00  0.00    -0.218 NA
ATOM     17  C   UNL A   1      34.423  20.066  24.683  1.00  0.00     0.227 A 
ATOM     18  N   UNL A   1      33.458  20.894  24.257  1.00  0.00    -0.196 NA
BRANCH  14  19
ATOM     19  C   UNL A   1      37.343  22.237  25.188  1.00  0.00     0.053 C 
ATOM     20  C   UNL A   1      37.342  23.637  25.781  1.00  0.00     0.011 C 
ENDBRANCH  14  19
BRANCH  17  21
ATOM     21  N   UNL A   1      34.092  18.742  24.878  1.00  0.00    -0.336 N 
ATOM     22  C   UNL A   1      32.666  18.425  24.885  1.00  0.00     0.148 C 
ATOM     23  C   UNL A   1      34.959  17.730  24.285  1.00  0.00     0.148 C 
ATOM     24  C   UNL A   1      32.448  17.015  25.460  1.00  0.00     0.181 C 
ATOM     25  C   UNL A   1      34.660  16.377  24.945  1.00  0.00     0.181 C 
ATOM     26  O   UNL A   1      33.271  16.029  24.810  1.00  0.00    -0.378 OA
ENDBRANCH  17  21
ENDBRANCH   8  13
BRANCH   7  27
ATOM     27  O   UNL A   1      30.969  25.887  23.067  1.00  0.00    -0.380 OA
ATOM     28  H   UNL A   1      30.671  26.810  23.079  1.00  0.00     0.212 HD
ENDBRANCH   7  27
ENDBRANCH   4   7
ENDBRANCH   2   3
ENDBRANCH   1   2
BRANCH   1  29
ATOM     29  C   UNL A   1      33.342  28.885  25.737  1.00  0.00     0.023 C 
BRANCH  29  30
ATOM     30  C   UNL A   1      33.747  28.884  27.207  1.00  0.00     0.116 C 
BRANCH  30  31
ATOM     31  N   UNL A   1      33.771  30.218  27.791  1.00  0.00    -0.352 N 
ATOM     32  C   UNL A   1      34.783  30.843  28.476  1.00  0.00     0.251 C 
ATOM     33  H   UNL A   1      32.947  30.744  27.679  1.00  0.00     0.163 HD
ATOM     34  O   UNL A   1      34.589  31.929  29.013  1.00  0.00    -0.269 OA
BRANCH  32  35
ATOM     35  C   UNL A   1      36.099  30.182  28.597  1.00  0.00     0.039 A 
ATOM     36  C   UNL A   1      36.986  30.250  27.521  1.00  0.00     0.014 A 
ATOM     37  C   UNL A   1      36.469  29.533  29.779  1.00  0.00     0.014 A 
ATOM     38  C   UNL A   1      38.278  29.741  27.660  1.00  0.00     0.010 A 
ATOM     39  C   UNL A   1      37.778  29.089  29.940  1.00  0.00     0.010 A 
ATOM     40  C   UNL A   1      38.699  29.201  28.887  1.00  0.00    -0.014 A 
BRANCH  40  41
ATOM     41  C   UNL A   1      40.110  28.791  29.101  1.00  0.00     0.031 A 
ATOM     42  C   UNL A   1      41.099  29.748  29.702  1.00  0.00     0.074 A 
ATOM     43  C   UNL A   1      40.514  27.576  28.680  1.00  0.00     0.049 A 
ATOM     44  N   UNL A   1      42.383  29.591  29.901  1.00  0.00    -0.248 NA
ATOM     45  C   UNL A   1      40.585  31.065  30.112  1.00  0.00     0.031 C 
ATOM     46  C   UNL A   1      39.661  26.575  28.035  1.00  0.00     0.029 A 
ATOM     47  N   UNL A   1      41.749  26.979  28.721  1.00  0.00    -0.354 N 
ATOM     48  C   UNL A   1      42.832  30.787  30.445  1.00  0.00     0.074 A 
ATOM     49  C   UNL A   1      41.693  31.678  30.506  1.00  0.00     0.031 C 
ATOM     50  C   UNL A   1      40.391  25.482  27.763  1.00  0.00     0.029 A 
ATOM     51  C   UNL A   1      41.771  25.718  28.175  1.00  0.00     0.049 A 
ATOM     52  H   UNL A   1      42.545  27.413  29.106  1.00  0.00     0.167 HD
ATOM     53  C   UNL A   1      44.077  31.105  30.871  1.00  0.00     0.037 A 
ATOM     54  C   UNL A   1      42.791  24.854  28.013  1.00  0.00     0.037 A 
ATOM     55  C   UNL A   1      45.201  30.207  30.837  1.00  0.00     0.049 A 
ATOM     56  C   UNL A   1      44.165  25.243  28.483  1.00  0.00     0.074 A 
ATOM     57  C   UNL A   1      46.481  30.412  31.323  1.00  0.00     0.029 A 
ATOM     58  N   UNL A   1      45.183  28.938  30.280  1.00  0.00    -0.354 N 
ATOM     59  N   UNL A   1      44.556  26.346  29.074  1.00  0.00    -0.248 NA
ATOM     60  C   UNL A   1      45.241  24.266  28.263  1.00  0.00     0.031 C 
ATOM     61  C   UNL A   1      47.251  29.285  31.016  1.00  0.00     0.029 A 
ATOM     62  C   UNL A   1      46.438  28.361  30.382  1.00  0.00     0.049 A 
ATOM     63  H   UNL A   1      44.396  28.510  29.874  1.00  0.00     0.167 HD
ATOM     64  C   UNL A   1      45.913  26.186  29.320  1.00  0.00     0.074 A 
ATOM     65  C   UNL A   1      46.274  24.871  28.830  1.00  0.00     0.031 C 
ATOM     66  C   UNL A   1      46.782  27.049  29.896  1.00  0.00     0.037 A 
BRANCH  53  67
ATOM     67  C   UNL A   1      44.296  32.485  31.420  1.00  0.00     0.057 A 
ATOM     68  C   UNL A   1      44.651  33.560  30.594  1.00  0.00     0.134 A 
ATOM     69  C   UNL A   1      44.085  32.754  32.778  1.00  0.00     0.134 A 
ATOM     70  F   UNL A   1      44.877  33.367  29.286  1.00  0.00    -0.206 F 
ATOM     71  C   UNL A   1      44.802  34.850  31.103  1.00  0.00     0.040 A 
ATOM     72  C   UNL A   1      44.209  34.045  33.294  1.00  0.00     0.040 A 
ATOM     73  F   UNL A   1      43.738  31.770  33.622  1.00  0.00    -0.206 F 
ATOM     74  C   UNL A   1      44.571  35.097  32.455  1.00  0.00     0.006 A 
ENDBRANCH  53  67
BRANCH  54  75
ATOM     75  C   UNL A   1      42.559  23.528  27.387  1.00  0.00     0.057 A 
ATOM     76  C   UNL A   1      42.264  22.404  28.167  1.00  0.00     0.134 A 
ATOM     77  C   UNL A   1      42.656  23.343  26.002  1.00  0.00     0.134 A 
ATOM     78  F   UNL A   1      42.178  22.513  29.501  1.00  0.00    -0.206 F 
ATOM     79  C   UNL A   1      42.102  21.140  27.599  1.00  0.00     0.040 A 
ATOM     80  C   UNL A   1      42.471  22.090  25.417  1.00  0.00     0.040 A 
ATOM     81  F   UNL A   1      42.930  24.381  25.197  1.00  0.00    -0.206 F 
ATOM     82  C   UNL A   1      42.202  20.981  26.218  1.00  0.00     0.006 A 
ENDBRANCH  54  75
BRANCH  66  83
ATOM     83  C   UNL A   1      48.201  26.590  30.055  1.00  0.00     0.057 A 
ATOM     84  C   UNL A   1      48.617  25.847  31.167  1.00  0.00     0.134 A 
ATOM     85  C   UNL A   1      49.155  26.865  29.066  1.00  0.00     0.134 A 
ATOM     86  F   UNL A   1      47.755  25.565  32.156  1.00  0.00    -0.206 F 
ATOM     87  C   UNL A   1      49.937  25.413  31.301  1.00  0.00     0.040 A 
ATOM     88  C   UNL A   1      50.471  26.412  29.176  1.00  0.00     0.040 A 
ATOM     89  F   UNL A   1      48.820  27.564  27.971  1.00  0.00    -0.206 F 
ATOM     90  C   UNL A   1      50.866  25.690  30.300  1.00  0.00     0.006 A 
ENDBRANCH  66  83
ENDBRANCH  40  41
ENDBRANCH  32  35
ENDBRANCH  30  31
ENDBRANCH  29  30
ENDBRANCH   1  29
TORSDOF 15
ENDMDL
