MODEL 1
REMARK VINA RESULT:     -11.4      0.000      0.000
REMARK SMILES Cc1nc(Nc2ccc(F)cc2)nc(OCC(=O)NCCCCNC(=O)c2ccc(-c3c4nc(c(-c5c(F)cccc5F)c5ccc([nH]5)c(-c5c(F)cccc5F)c5nc(c(-c6c(F)cccc6F)c6ccc3[nH]6)C=C5)C=C4)cc2)c1CCO
REMARK SMILES IDX 20 1 19 2 17 3 18 4 16 6 15 7 14 8 1 9 2 10 3 11 81 12 4 13
REMARK SMILES IDX 13 14 82 15 83 16 84 17 5 19 6 21 7 22 12 23 8 24 11 25 9 26
REMARK SMILES IDX 10 27 21 28 22 29 23 30 24 31 25 32 26 34 27 35 28 36 80 37
REMARK SMILES IDX 29 38 79 39 30 40 31 41 32 42 73 43 33 44 78 45 72 46 74 47
REMARK SMILES IDX 34 48 77 49 71 50 70 51 35 53 61 54 44 55 60 56 45 57 48 58
REMARK SMILES IDX 59 59 75 60 46 61 47 62 58 64 76 65 49 66 36 67 37 68 42 69
REMARK SMILES IDX 38 70 39 71 41 72 43 73 40 74 62 75 63 76 68 77 64 78 65 79
REMARK SMILES IDX 67 80 69 81 66 82 50 83 51 84 56 85 52 86 53 87 55 88 57 89
REMARK SMILES IDX 54 90
REMARK H PARENT 19 5 84 18 5 20 24 33 74 52 48 63
REMARK Flexibility Score: inf
ROOT
ATOM      1  C   UNL A   1      37.104  21.785  24.204  1.00  0.00     0.116 C 
ENDROOT
BRANCH   1   2
ATOM      2  N   UNL A   1      37.765  22.810  24.981  1.00  0.00    -0.353 N 
ATOM      3  C   UNL A   1      37.239  23.624  25.933  1.00  0.00     0.258 C 
ATOM      4  O   UNL A   1      38.003  24.407  26.501  1.00  0.00    -0.271 OA
ATOM      5  H   UNL A   1      38.724  22.934  24.795  1.00  0.00     0.163 HD
BRANCH   3   6
ATOM      6  C   UNL A   1      35.758  23.498  26.316  1.00  0.00     0.331 C 
BRANCH   6   7
ATOM      7  O   UNL A   1      34.773  24.358  25.785  1.00  0.00    -0.467 OA
BRANCH   7   8
ATOM      8  C   UNL A   1      33.643  23.898  25.187  1.00  0.00     0.222 A 
ATOM      9  C   UNL A   1      30.409  24.443  23.334  1.00  0.00     0.067 C 
ATOM     10  C   UNL A   1      31.603  23.876  24.046  1.00  0.00     0.050 A 
ATOM     11  N   UNL A   1      31.550  22.538  24.170  1.00  0.00    -0.218 NA
ATOM     12  C   UNL A   1      32.615  24.644  24.620  1.00  0.00     0.038 A 
ATOM     13  C   UNL A   1      32.486  21.920  24.886  1.00  0.00     0.230 A 
ATOM     14  N   UNL A   1      33.556  22.558  25.363  1.00  0.00    -0.177 NA
BRANCH  12  15
ATOM     15  C   UNL A   1      32.479  26.143  24.704  1.00  0.00     0.071 C 
BRANCH  15  16
ATOM     16  C   UNL A   1      32.076  26.664  26.088  1.00  0.00     0.161 C 
BRANCH  16  17
ATOM     17  O   UNL A   1      31.297  25.738  26.832  1.00  0.00    -0.396 OA
ATOM     18  H   UNL A   1      30.410  25.678  26.445  1.00  0.00     0.210 HD
ENDBRANCH  16  17
ENDBRANCH  15  16
ENDBRANCH  12  15
BRANCH  13  19
ATOM     19  N   UNL A   1      32.278  20.596  25.282  1.00  0.00    -0.324 N 
ATOM     20  H   UNL A   1      31.746  20.465  26.099  1.00  0.00     0.170 HD
BRANCH  19  21
ATOM     21  C   UNL A   1      32.741  19.434  24.649  1.00  0.00     0.041 A 
ATOM     22  C   UNL A   1      33.855  18.735  25.138  1.00  0.00     0.029 A 
ATOM     23  C   UNL A   1      32.185  19.026  23.426  1.00  0.00     0.029 A 
ATOM     24  C   UNL A   1      34.395  17.653  24.439  1.00  0.00     0.041 A 
ATOM     25  C   UNL A   1      32.737  17.956  22.713  1.00  0.00     0.041 A 
ATOM     26  C   UNL A   1      33.836  17.279  23.227  1.00  0.00     0.123 A 
ATOM     27  F   UNL A   1      34.373  16.264  22.537  1.00  0.00    -0.207 F 
ENDBRANCH  19  21
ENDBRANCH  13  19
ENDBRANCH   7   8
ENDBRANCH   6   7
ENDBRANCH   3   6
ENDBRANCH   1   2
BRANCH   1  28
ATOM     28  C   UNL A   1      37.001  20.471  24.971  1.00  0.00     0.023 C 
BRANCH  28  29
ATOM     29  C   UNL A   1      38.227  19.559  24.874  1.00  0.00     0.023 C 
BRANCH  29  30
ATOM     30  C   UNL A   1      39.397  19.913  25.785  1.00  0.00     0.116 C 
BRANCH  30  31
ATOM     31  N   UNL A   1      40.419  18.881  25.839  1.00  0.00    -0.352 N 
ATOM     32  C   UNL A   1      41.757  19.008  26.121  1.00  0.00     0.251 C 
ATOM     33  H   UNL A   1      40.111  17.966  25.648  1.00  0.00     0.163 HD
ATOM     34  O   UNL A   1      42.503  18.036  26.043  1.00  0.00    -0.269 OA
BRANCH  32  35
ATOM     35  C   UNL A   1      42.305  20.333  26.475  1.00  0.00     0.039 A 
ATOM     36  C   UNL A   1      42.825  21.134  25.457  1.00  0.00     0.014 A 
ATOM     37  C   UNL A   1      42.274  20.795  27.794  1.00  0.00     0.014 A 
ATOM     38  C   UNL A   1      43.251  22.430  25.750  1.00  0.00     0.010 A 
ATOM     39  C   UNL A   1      42.633  22.111  28.071  1.00  0.00     0.010 A 
ATOM     40  C   UNL A   1      43.123  22.942  27.052  1.00  0.00    -0.014 A 
BRANCH  40  41
ATOM     41  C   UNL A   1      43.491  24.345  27.360  1.00  0.00     0.031 A 
ATOM     42  C   UNL A   1      44.922  24.791  27.261  1.00  0.00     0.074 A 
ATOM     43  C   UNL A   1      42.542  25.206  27.775  1.00  0.00     0.049 A 
ATOM     44  N   UNL A   1      45.445  25.957  27.540  1.00  0.00    -0.248 NA
ATOM     45  C   UNL A   1      45.900  23.787  26.810  1.00  0.00     0.031 C 
ATOM     46  C   UNL A   1      41.124  24.884  27.947  1.00  0.00     0.029 A 
ATOM     47  N   UNL A   1      42.627  26.530  28.131  1.00  0.00    -0.354 N 
ATOM     48  C   UNL A   1      46.807  25.827  27.305  1.00  0.00     0.074 A 
ATOM     49  C   UNL A   1      47.040  24.453  26.916  1.00  0.00     0.031 C 
ATOM     50  C   UNL A   1      40.467  25.988  28.339  1.00  0.00     0.029 A 
ATOM     51  C   UNL A   1      41.421  27.084  28.486  1.00  0.00     0.049 A 
ATOM     52  H   UNL A   1      43.472  27.035  28.130  1.00  0.00     0.167 HD
ATOM     53  C   UNL A   1      47.771  26.774  27.378  1.00  0.00     0.037 A 
ATOM     54  C   UNL A   1      41.117  28.333  28.886  1.00  0.00     0.037 A 
ATOM     55  C   UNL A   1      47.532  28.145  27.743  1.00  0.00     0.049 A 
ATOM     56  C   UNL A   1      42.209  29.362  28.981  1.00  0.00     0.074 A 
ATOM     57  C   UNL A   1      48.438  29.188  27.805  1.00  0.00     0.029 A 
ATOM     58  N   UNL A   1      46.297  28.663  28.103  1.00  0.00    -0.354 N 
ATOM     59  N   UNL A   1      43.486  29.235  28.715  1.00  0.00    -0.248 NA
ATOM     60  C   UNL A   1      41.820  30.705  29.433  1.00  0.00     0.031 C 
ATOM     61  C   UNL A   1      47.761  30.329  28.245  1.00  0.00     0.029 A 
ATOM     62  C   UNL A   1      46.423  30.009  28.408  1.00  0.00     0.049 A 
ATOM     63  H   UNL A   1      45.457  28.152  28.139  1.00  0.00     0.167 HD
ATOM     64  C   UNL A   1      44.048  30.484  28.941  1.00  0.00     0.074 A 
ATOM     65  C   UNL A   1      42.971  31.358  29.357  1.00  0.00     0.031 C 
ATOM     66  C   UNL A   1      45.342  30.870  28.814  1.00  0.00     0.037 A 
BRANCH  53  67
ATOM     67  C   UNL A   1      49.175  26.365  27.040  1.00  0.00     0.057 A 
ATOM     68  C   UNL A   1      50.054  25.923  28.036  1.00  0.00     0.134 A 
ATOM     69  C   UNL A   1      49.674  26.467  25.735  1.00  0.00     0.134 A 
ATOM     70  F   UNL A   1      49.641  25.807  29.307  1.00  0.00    -0.206 F 
ATOM     71  C   UNL A   1      51.382  25.605  27.748  1.00  0.00     0.040 A 
ATOM     72  C   UNL A   1      50.993  26.127  25.429  1.00  0.00     0.040 A 
ATOM     73  F   UNL A   1      48.880  26.873  24.733  1.00  0.00    -0.206 F 
ATOM     74  C   UNL A   1      51.854  25.704  26.441  1.00  0.00     0.006 A 
ENDBRANCH  53  67
BRANCH  54  75
ATOM     75  C   UNL A   1      39.706  28.687  29.185  1.00  0.00     0.057 A 
ATOM     76  C   UNL A   1      39.153  28.490  30.456  1.00  0.00     0.134 A 
ATOM     77  C   UNL A   1      38.869  29.206  28.191  1.00  0.00     0.134 A 
ATOM     78  F   UNL A   1      39.901  27.989  31.451  1.00  0.00    -0.206 F 
ATOM     79  C   UNL A   1      37.813  28.781  30.723  1.00  0.00     0.040 A 
ATOM     80  C   UNL A   1      37.535  29.523  28.449  1.00  0.00     0.040 A 
ATOM     81  F   UNL A   1      39.347  29.433  26.959  1.00  0.00    -0.206 F 
ATOM     82  C   UNL A   1      37.002  29.302  29.718  1.00  0.00     0.006 A 
ENDBRANCH  54  75
BRANCH  66  83
ATOM     83  C   UNL A   1      45.672  32.304  29.104  1.00  0.00     0.057 A 
ATOM     84  C   UNL A   1      45.945  32.721  30.413  1.00  0.00     0.134 A 
ATOM     85  C   UNL A   1      45.634  33.284  28.105  1.00  0.00     0.134 A 
ATOM     86  F   UNL A   1      45.983  31.833  31.418  1.00  0.00    -0.206 F 
ATOM     87  C   UNL A   1      46.153  34.066  30.722  1.00  0.00     0.040 A 
ATOM     88  C   UNL A   1      45.867  34.629  28.398  1.00  0.00     0.040 A 
ATOM     89  F   UNL A   1      45.388  32.948  26.831  1.00  0.00    -0.206 F 
ATOM     90  C   UNL A   1      46.115  35.024  29.711  1.00  0.00     0.006 A 
ENDBRANCH  66  83
ENDBRANCH  40  41
ENDBRANCH  32  35
ENDBRANCH  30  31
ENDBRANCH  29  30
ENDBRANCH  28  29
ENDBRANCH   1  28
TORSDOF 18
ENDMDL
MODEL 2
REMARK VINA RESULT:     -11.3      4.226      8.667
REMARK SMILES Cc1nc(Nc2ccc(F)cc2)nc(OCC(=O)NCCCCNC(=O)c2ccc(-c3c4nc(c(-c5c(F)cccc5F)c5ccc([nH]5)c(-c5c(F)cccc5F)c5nc(c(-c6c(F)cccc6F)c6ccc3[nH]6)C=C5)C=C4)cc2)c1CCO
REMARK SMILES IDX 20 1 19 2 17 3 18 4 16 6 15 7 14 8 1 9 2 10 3 11 81 12 4 13
REMARK SMILES IDX 13 14 82 15 83 16 84 17 5 19 6 21 7 22 12 23 8 24 11 25 9 26
REMARK SMILES IDX 10 27 21 28 22 29 23 30 24 31 25 32 26 34 27 35 28 36 80 37
REMARK SMILES IDX 29 38 79 39 30 40 31 41 32 42 73 43 33 44 78 45 72 46 74 47
REMARK SMILES IDX 34 48 77 49 71 50 70 51 35 53 61 54 44 55 60 56 45 57 48 58
REMARK SMILES IDX 59 59 75 60 46 61 47 62 58 64 76 65 49 66 36 67 37 68 42 69
REMARK SMILES IDX 38 70 39 71 41 72 43 73 40 74 62 75 63 76 68 77 64 78 65 79
REMARK SMILES IDX 67 80 69 81 66 82 50 83 51 84 56 85 52 86 53 87 55 88 57 89
REMARK SMILES IDX 54 90
REMARK H PARENT 19 5 84 18 5 20 24 33 74 52 48 63
REMARK Flexibility Score: inf
ROOT
ATOM      1  C   UNL A   1      31.756  25.667  25.671  1.00  0.00     0.116 C 
ENDROOT
BRANCH   1   2
ATOM      2  N   UNL A   1      31.179  24.834  26.703  1.00  0.00    -0.353 N 
ATOM      3  C   UNL A   1      30.754  23.547  26.615  1.00  0.00     0.258 C 
ATOM      4  O   UNL A   1      30.328  23.015  27.641  1.00  0.00    -0.271 OA
ATOM      5  H   UNL A   1      31.082  25.256  27.587  1.00  0.00     0.163 HD
BRANCH   3   6
ATOM      6  C   UNL A   1      30.881  22.786  25.287  1.00  0.00     0.331 C 
BRANCH   6   7
ATOM      7  O   UNL A   1      32.003  21.985  24.989  1.00  0.00    -0.467 OA
BRANCH   7   8
ATOM      8  C   UNL A   1      33.047  22.432  24.244  1.00  0.00     0.222 A 
ATOM      9  C   UNL A   1      36.734  22.708  23.522  1.00  0.00     0.067 C 
ATOM     10  C   UNL A   1      35.236  22.804  23.511  1.00  0.00     0.050 A 
ATOM     11  N   UNL A   1      34.769  23.570  22.510  1.00  0.00    -0.218 NA
ATOM     12  C   UNL A   1      34.405  22.255  24.488  1.00  0.00     0.038 A 
ATOM     13  C   UNL A   1      33.465  23.835  22.456  1.00  0.00     0.230 A 
ATOM     14  N   UNL A   1      32.584  23.252  23.270  1.00  0.00    -0.177 NA
BRANCH  12  15
ATOM     15  C   UNL A   1      34.994  21.656  25.740  1.00  0.00     0.071 C 
BRANCH  15  16
ATOM     16  C   UNL A   1      34.301  22.093  27.035  1.00  0.00     0.161 C 
BRANCH  16  17
ATOM     17  O   UNL A   1      33.352  21.149  27.510  1.00  0.00    -0.396 OA
ATOM     18  H   UNL A   1      33.104  20.548  26.790  1.00  0.00     0.210 HD
ENDBRANCH  16  17
ENDBRANCH  15  16
ENDBRANCH  12  15
BRANCH  13  19
ATOM     19  N   UNL A   1      33.014  24.863  21.625  1.00  0.00    -0.324 N 
ATOM     20  H   UNL A   1      33.018  24.675  20.658  1.00  0.00     0.170 HD
BRANCH  19  21
ATOM     21  C   UNL A   1      32.557  26.132  22.008  1.00  0.00     0.041 A 
ATOM     22  C   UNL A   1      33.448  27.123  22.448  1.00  0.00     0.029 A 
ATOM     23  C   UNL A   1      31.180  26.390  22.097  1.00  0.00     0.029 A 
ATOM     24  C   UNL A   1      32.985  28.341  22.951  1.00  0.00     0.041 A 
ATOM     25  C   UNL A   1      30.712  27.601  22.619  1.00  0.00     0.041 A 
ATOM     26  C   UNL A   1      31.620  28.565  23.041  1.00  0.00     0.123 A 
ATOM     27  F   UNL A   1      31.172  29.718  23.555  1.00  0.00    -0.207 F 
ENDBRANCH  19  21
ENDBRANCH  13  19
ENDBRANCH   7   8
ENDBRANCH   6   7
ENDBRANCH   3   6
ENDBRANCH   1   2
BRANCH   1  28
ATOM     28  C   UNL A   1      33.119  26.213  26.081  1.00  0.00     0.023 C 
BRANCH  28  29
ATOM     29  C   UNL A   1      33.091  27.552  26.823  1.00  0.00     0.023 C 
BRANCH  29  30
ATOM     30  C   UNL A   1      34.211  28.529  26.482  1.00  0.00     0.116 C 
BRANCH  30  31
ATOM     31  N   UNL A   1      33.883  29.911  26.783  1.00  0.00    -0.352 N 
ATOM     32  C   UNL A   1      34.569  30.811  27.560  1.00  0.00     0.251 C 
ATOM     33  H   UNL A   1      33.055  30.251  26.373  1.00  0.00     0.163 HD
ATOM     34  O   UNL A   1      34.104  31.926  27.778  1.00  0.00    -0.269 OA
BRANCH  32  35
ATOM     35  C   UNL A   1      35.853  30.414  28.174  1.00  0.00     0.039 A 
ATOM     36  C   UNL A   1      35.828  29.745  29.399  1.00  0.00     0.014 A 
ATOM     37  C   UNL A   1      37.067  30.666  27.529  1.00  0.00     0.014 A 
ATOM     38  C   UNL A   1      37.019  29.267  29.947  1.00  0.00     0.010 A 
ATOM     39  C   UNL A   1      38.244  30.127  28.041  1.00  0.00     0.010 A 
ATOM     40  C   UNL A   1      38.231  29.421  29.254  1.00  0.00    -0.014 A 
BRANCH  40  41
ATOM     41  C   UNL A   1      39.491  28.842  29.781  1.00  0.00     0.031 A 
ATOM     42  C   UNL A   1      40.135  29.425  31.006  1.00  0.00     0.074 A 
ATOM     43  C   UNL A   1      40.079  27.821  29.127  1.00  0.00     0.049 A 
ATOM     44  N   UNL A   1      41.261  29.091  31.584  1.00  0.00    -0.248 NA
ATOM     45  C   UNL A   1      39.435  30.545  31.656  1.00  0.00     0.031 C 
ATOM     46  C   UNL A   1      39.571  27.193  27.907  1.00  0.00     0.029 A 
ATOM     47  N   UNL A   1      41.236  27.133  29.398  1.00  0.00    -0.354 N 
ATOM     48  C   UNL A   1      41.406  29.961  32.658  1.00  0.00     0.074 A 
ATOM     49  C   UNL A   1      40.284  30.873  32.618  1.00  0.00     0.031 C 
ATOM     50  C   UNL A   1      40.391  26.189  27.555  1.00  0.00     0.029 A 
ATOM     51  C   UNL A   1      41.503  26.128  28.499  1.00  0.00     0.049 A 
ATOM     52  H   UNL A   1      41.819  27.338  30.165  1.00  0.00     0.167 HD
ATOM     53  C   UNL A   1      42.370  29.977  33.607  1.00  0.00     0.037 A 
ATOM     54  C   UNL A   1      42.528  25.257  28.441  1.00  0.00     0.037 A 
ATOM     55  C   UNL A   1      43.472  29.053  33.657  1.00  0.00     0.049 A 
ATOM     56  C   UNL A   1      43.599  25.310  29.494  1.00  0.00     0.074 A 
ATOM     57  C   UNL A   1      44.477  28.964  34.602  1.00  0.00     0.029 A 
ATOM     58  N   UNL A   1      43.710  28.056  32.722  1.00  0.00    -0.354 N 
ATOM     59  N   UNL A   1      43.701  26.110  30.527  1.00  0.00    -0.248 NA
ATOM     60  C   UNL A   1      44.698  24.342  29.374  1.00  0.00     0.031 C 
ATOM     61  C   UNL A   1      45.349  27.941  34.219  1.00  0.00     0.029 A 
ATOM     62  C   UNL A   1      44.859  27.359  33.061  1.00  0.00     0.049 A 
ATOM     63  H   UNL A   1      43.148  27.871  31.936  1.00  0.00     0.167 HD
ATOM     64  C   UNL A   1      44.857  25.727  31.194  1.00  0.00     0.074 A 
ATOM     65  C   UNL A   1      45.418  24.616  30.453  1.00  0.00     0.031 C 
ATOM     66  C   UNL A   1      45.403  26.251  32.319  1.00  0.00     0.037 A 
BRANCH  53  67
ATOM     67  C   UNL A   1      42.270  31.018  34.683  1.00  0.00     0.057 A 
ATOM     68  C   UNL A   1      42.999  32.211  34.600  1.00  0.00     0.134 A 
ATOM     69  C   UNL A   1      41.496  30.812  35.832  1.00  0.00     0.134 A 
ATOM     70  F   UNL A   1      43.764  32.468  33.528  1.00  0.00    -0.206 F 
ATOM     71  C   UNL A   1      42.969  33.157  35.625  1.00  0.00     0.040 A 
ATOM     72  C   UNL A   1      41.436  31.762  36.852  1.00  0.00     0.040 A 
ATOM     73  F   UNL A   1      40.764  29.695  35.969  1.00  0.00    -0.206 F 
ATOM     74  C   UNL A   1      42.183  32.936  36.754  1.00  0.00     0.006 A 
ENDBRANCH  53  67
BRANCH  54  75
ATOM     75  C   UNL A   1      42.564  24.233  27.366  1.00  0.00     0.057 A 
ATOM     76  C   UNL A   1      42.044  22.947  27.558  1.00  0.00     0.134 A 
ATOM     77  C   UNL A   1      43.150  24.514  26.127  1.00  0.00     0.134 A 
ATOM     78  F   UNL A   1      41.476  22.613  28.725  1.00  0.00    -0.206 F 
ATOM     79  C   UNL A   1      42.121  21.973  26.560  1.00  0.00     0.040 A 
ATOM     80  C   UNL A   1      43.213  23.557  25.113  1.00  0.00     0.040 A 
ATOM     81  F   UNL A   1      43.649  25.734  25.878  1.00  0.00    -0.206 F 
ATOM     82  C   UNL A   1      42.704  22.278  25.333  1.00  0.00     0.006 A 
ENDBRANCH  54  75
BRANCH  66  83
ATOM     83  C   UNL A   1      46.660  25.620  32.841  1.00  0.00     0.057 A 
ATOM     84  C   UNL A   1      46.601  24.615  33.815  1.00  0.00     0.134 A 
ATOM     85  C   UNL A   1      47.926  26.065  32.445  1.00  0.00     0.134 A 
ATOM     86  F   UNL A   1      45.417  24.153  34.246  1.00  0.00    -0.206 F 
ATOM     87  C   UNL A   1      47.757  24.086  34.389  1.00  0.00     0.040 A 
ATOM     88  C   UNL A   1      49.091  25.526  32.993  1.00  0.00     0.040 A 
ATOM     89  F   UNL A   1      48.050  27.018  31.509  1.00  0.00    -0.206 F 
ATOM     90  C   UNL A   1      49.007  24.542  33.977  1.00  0.00     0.006 A 
ENDBRANCH  66  83
ENDBRANCH  40  41
ENDBRANCH  32  35
ENDBRANCH  30  31
ENDBRANCH  29  30
ENDBRANCH  28  29
ENDBRANCH   1  28
TORSDOF 18
ENDMDL
MODEL 3
REMARK VINA RESULT:     -11.3      3.103      7.737
REMARK SMILES Cc1nc(Nc2ccc(F)cc2)nc(OCC(=O)NCCCCNC(=O)c2ccc(-c3c4nc(c(-c5c(F)cccc5F)c5ccc([nH]5)c(-c5c(F)cccc5F)c5nc(c(-c6c(F)cccc6F)c6ccc3[nH]6)C=C5)C=C4)cc2)c1CCO
REMARK SMILES IDX 20 1 19 2 17 3 18 4 16 6 15 7 14 8 1 9 2 10 3 11 81 12 4 13
REMARK SMILES IDX 13 14 82 15 83 16 84 17 5 19 6 21 7 22 12 23 8 24 11 25 9 26
REMARK SMILES IDX 10 27 21 28 22 29 23 30 24 31 25 32 26 34 27 35 28 36 80 37
REMARK SMILES IDX 29 38 79 39 30 40 31 41 32 42 73 43 33 44 78 45 72 46 74 47
REMARK SMILES IDX 34 48 77 49 71 50 70 51 35 53 61 54 44 55 60 56 45 57 48 58
REMARK SMILES IDX 59 59 75 60 46 61 47 62 58 64 76 65 49 66 36 67 37 68 42 69
REMARK SMILES IDX 38 70 39 71 41 72 43 73 40 74 62 75 63 76 68 77 64 78 65 79
REMARK SMILES IDX 67 80 69 81 66 82 50 83 51 84 56 85 52 86 53 87 55 88 57 89
REMARK SMILES IDX 54 90
REMARK H PARENT 19 5 84 18 5 20 24 33 74 52 48 63
REMARK Flexibility Score: inf
ROOT
ATOM      1  C   UNL A   1      31.249  25.899  25.944  1.00  0.00     0.116 C 
ENDROOT
BRANCH   1   2
ATOM      2  N   UNL A   1      30.725  24.923  26.873  1.00  0.00    -0.353 N 
ATOM      3  C   UNL A   1      30.502  23.598  26.675  1.00  0.00     0.258 C 
ATOM      4  O   UNL A   1      30.083  22.940  27.630  1.00  0.00    -0.271 OA
ATOM      5  H   UNL A   1      30.502  25.264  27.770  1.00  0.00     0.163 HD
BRANCH   3   6
ATOM      6  C   UNL A   1      30.837  22.957  25.321  1.00  0.00     0.331 C 
BRANCH   6   7
ATOM      7  O   UNL A   1      32.019  22.213  25.118  1.00  0.00    -0.467 OA
BRANCH   7   8
ATOM      8  C   UNL A   1      33.042  22.657  24.342  1.00  0.00     0.222 A 
ATOM      9  C   UNL A   1      36.697  22.843  23.452  1.00  0.00     0.067 C 
ATOM     10  C   UNL A   1      35.205  22.988  23.518  1.00  0.00     0.050 A 
ATOM     11  N   UNL A   1      34.717  23.809  22.572  1.00  0.00    -0.218 NA
ATOM     12  C   UNL A   1      34.403  22.426  24.512  1.00  0.00     0.038 A 
ATOM     13  C   UNL A   1      33.423  24.119  22.593  1.00  0.00     0.230 A 
ATOM     14  N   UNL A   1      32.562  23.532  23.425  1.00  0.00    -0.177 NA
BRANCH  12  15
ATOM     15  C   UNL A   1      35.029  21.756  25.708  1.00  0.00     0.071 C 
BRANCH  15  16
ATOM     16  C   UNL A   1      34.213  21.879  27.000  1.00  0.00     0.161 C 
BRANCH  16  17
ATOM     17  O   UNL A   1      33.421  20.732  27.274  1.00  0.00    -0.396 OA
ATOM     18  H   UNL A   1      33.105  20.768  28.190  1.00  0.00     0.210 HD
ENDBRANCH  16  17
ENDBRANCH  15  16
ENDBRANCH  12  15
BRANCH  13  19
ATOM     19  N   UNL A   1      32.968  25.194  21.826  1.00  0.00    -0.324 N 
ATOM     20  H   UNL A   1      33.017  25.084  20.849  1.00  0.00     0.170 HD
BRANCH  19  21
ATOM     21  C   UNL A   1      32.450  26.412  22.288  1.00  0.00     0.041 A 
ATOM     22  C   UNL A   1      33.289  27.404  22.819  1.00  0.00     0.029 A 
ATOM     23  C   UNL A   1      31.062  26.608  22.362  1.00  0.00     0.029 A 
ATOM     24  C   UNL A   1      32.765  28.563  23.396  1.00  0.00     0.041 A 
ATOM     25  C   UNL A   1      30.533  27.758  22.958  1.00  0.00     0.041 A 
ATOM     26  C   UNL A   1      31.390  28.725  23.469  1.00  0.00     0.123 A 
ATOM     27  F   UNL A   1      30.884  29.819  24.053  1.00  0.00    -0.207 F 
ENDBRANCH  19  21
ENDBRANCH  13  19
ENDBRANCH   7   8
ENDBRANCH   6   7
ENDBRANCH   3   6
ENDBRANCH   1   2
BRANCH   1  28
ATOM     28  C   UNL A   1      32.593  26.454  26.403  1.00  0.00     0.023 C 
BRANCH  28  29
ATOM     29  C   UNL A   1      32.555  27.878  26.963  1.00  0.00     0.023 C 
BRANCH  29  30
ATOM     30  C   UNL A   1      33.906  28.561  27.145  1.00  0.00     0.116 C 
BRANCH  30  31
ATOM     31  N   UNL A   1      33.813  29.871  27.764  1.00  0.00    -0.352 N 
ATOM     32  C   UNL A   1      34.783  30.584  28.425  1.00  0.00     0.251 C 
ATOM     33  H   UNL A   1      32.933  30.310  27.701  1.00  0.00     0.163 HD
ATOM     34  O   UNL A   1      34.510  31.652  28.964  1.00  0.00    -0.269 OA
BRANCH  32  35
ATOM     35  C   UNL A   1      36.150  30.035  28.523  1.00  0.00     0.039 A 
ATOM     36  C   UNL A   1      37.013  30.193  27.438  1.00  0.00     0.014 A 
ATOM     37  C   UNL A   1      36.589  29.401  29.690  1.00  0.00     0.014 A 
ATOM     38  C   UNL A   1      38.341  29.777  27.546  1.00  0.00     0.010 A 
ATOM     39  C   UNL A   1      37.929  29.052  29.822  1.00  0.00     0.010 A 
ATOM     40  C   UNL A   1      38.819  29.239  28.752  1.00  0.00    -0.014 A 
BRANCH  40  41
ATOM     41  C   UNL A   1      40.248  28.872  28.912  1.00  0.00     0.031 A 
ATOM     42  C   UNL A   1      40.724  27.501  28.526  1.00  0.00     0.074 A 
ATOM     43  C   UNL A   1      41.107  29.760  29.449  1.00  0.00     0.049 A 
ATOM     44  N   UNL A   1      41.918  26.980  28.641  1.00  0.00    -0.248 NA
ATOM     45  C   UNL A   1      39.721  26.586  27.956  1.00  0.00     0.031 C 
ATOM     46  C   UNL A   1      40.758  31.110  29.897  1.00  0.00     0.029 A 
ATOM     47  N   UNL A   1      42.451  29.660  29.711  1.00  0.00    -0.354 N 
ATOM     48  C   UNL A   1      41.810  25.680  28.165  1.00  0.00     0.074 A 
ATOM     49  C   UNL A   1      40.422  25.471  27.814  1.00  0.00     0.031 C 
ATOM     50  C   UNL A   1      41.865  31.724  30.344  1.00  0.00     0.029 A 
ATOM     51  C   UNL A   1      42.993  30.801  30.253  1.00  0.00     0.049 A 
ATOM     52  H   UNL A   1      42.977  28.849  29.527  1.00  0.00     0.167 HD
ATOM     53  C   UNL A   1      42.784  24.754  28.007  1.00  0.00     0.037 A 
ATOM     54  C   UNL A   1      44.255  31.072  30.635  1.00  0.00     0.037 A 
ATOM     55  C   UNL A   1      44.168  24.972  28.336  1.00  0.00     0.049 A 
ATOM     56  C   UNL A   1      45.316  30.020  30.472  1.00  0.00     0.074 A 
ATOM     57  C   UNL A   1      45.237  24.109  28.174  1.00  0.00     0.029 A 
ATOM     58  N   UNL A   1      44.674  26.138  28.891  1.00  0.00    -0.354 N 
ATOM     59  N   UNL A   1      45.207  28.809  29.981  1.00  0.00    -0.248 NA
ATOM     60  C   UNL A   1      46.673  30.369  30.915  1.00  0.00     0.031 C 
ATOM     61  C   UNL A   1      46.383  24.736  28.670  1.00  0.00     0.029 A 
ATOM     62  C   UNL A   1      46.039  26.008  29.094  1.00  0.00     0.049 A 
ATOM     63  H   UNL A   1      44.144  26.938  29.108  1.00  0.00     0.167 HD
ATOM     64  C   UNL A   1      46.482  28.261  30.031  1.00  0.00     0.074 A 
ATOM     65  C   UNL A   1      47.351  29.275  30.593  1.00  0.00     0.031 C 
ATOM     66  C   UNL A   1      46.893  27.028  29.647  1.00  0.00     0.037 A 
BRANCH  53  67
ATOM     67  C   UNL A   1      42.394  23.422  27.438  1.00  0.00     0.057 A 
ATOM     68  C   UNL A   1      42.413  23.196  26.057  1.00  0.00     0.134 A 
ATOM     69  C   UNL A   1      41.939  22.380  28.258  1.00  0.00     0.134 A 
ATOM     70  F   UNL A   1      42.831  24.154  25.216  1.00  0.00    -0.206 F 
ATOM     71  C   UNL A   1      41.987  21.985  25.509  1.00  0.00     0.040 A 
ATOM     72  C   UNL A   1      41.536  21.155  27.725  1.00  0.00     0.040 A 
ATOM     73  F   UNL A   1      41.907  22.527  29.591  1.00  0.00    -0.206 F 
ATOM     74  C   UNL A   1      41.549  20.959  26.344  1.00  0.00     0.006 A 
ENDBRANCH  53  67
BRANCH  54  75
ATOM     75  C   UNL A   1      44.589  32.416  31.171  1.00  0.00     0.057 A 
ATOM     76  C   UNL A   1      44.498  32.705  32.538  1.00  0.00     0.134 A 
ATOM     77  C   UNL A   1      44.980  33.453  30.317  1.00  0.00     0.134 A 
ATOM     78  F   UNL A   1      44.122  31.757  33.408  1.00  0.00    -0.206 F 
ATOM     79  C   UNL A   1      44.769  33.983  33.033  1.00  0.00     0.040 A 
ATOM     80  C   UNL A   1      45.275  34.728  30.800  1.00  0.00     0.040 A 
ATOM     81  F   UNL A   1      45.102  33.231  28.999  1.00  0.00    -0.206 F 
ATOM     82  C   UNL A   1      45.162  34.997  32.164  1.00  0.00     0.006 A 
ENDBRANCH  54  75
BRANCH  66  83
ATOM     83  C   UNL A   1      48.351  26.704  29.794  1.00  0.00     0.057 A 
ATOM     84  C   UNL A   1      48.836  26.125  30.973  1.00  0.00     0.134 A 
ATOM     85  C   UNL A   1      49.282  27.042  28.806  1.00  0.00     0.134 A 
ATOM     86  F   UNL A   1      47.995  25.788  31.964  1.00  0.00    -0.206 F 
ATOM     87  C   UNL A   1      50.199  25.908  31.173  1.00  0.00     0.040 A 
ATOM     88  C   UNL A   1      50.647  26.807  28.984  1.00  0.00     0.040 A 
ATOM     89  F   UNL A   1      48.881  27.591  27.651  1.00  0.00    -0.206 F 
ATOM     90  C   UNL A   1      51.109  26.249  30.174  1.00  0.00     0.006 A 
ENDBRANCH  66  83
ENDBRANCH  40  41
ENDBRANCH  32  35
ENDBRANCH  30  31
ENDBRANCH  29  30
ENDBRANCH  28  29
ENDBRANCH   1  28
TORSDOF 18
ENDMDL
