MODEL 1
REMARK VINA RESULT:     -11.5      0.000      0.000
REMARK SMILES Cc1ncn(CC[C@@H]2CCC[C@@]2([NH3+])C(=O)NCCCCNC(=O)c2ccc(-c3c4nc(c(-c5c(F)cccc5F)c5ccc([nH]5)c(-c5c(F)cccc5F)c5nc(c(-c6c(F)cccc6F)c6ccc3[nH]6)C=C5)C=C4)cc2)c1C
REMARK SMILES IDX 18 1 17 2 16 3 14 4 15 5 12 7 8 8 9 9 10 10 11 11 7 12 6 13
REMARK SMILES IDX 5 14 1 15 2 16 3 17 78 18 4 19 79 20 13 21 19 25 20 26 21 27
REMARK SMILES IDX 22 28 23 30 24 31 25 32 77 33 26 34 76 35 27 36 28 37 29 38
REMARK SMILES IDX 70 39 30 40 75 41 69 42 71 43 31 44 74 45 68 46 67 47 32 49
REMARK SMILES IDX 58 50 41 51 57 52 42 53 45 54 56 55 72 56 43 57 44 58 55 60
REMARK SMILES IDX 73 61 46 62 33 63 34 64 39 65 35 66 36 67 38 68 40 69 37 70
REMARK SMILES IDX 59 71 60 72 65 73 61 74 62 75 64 76 66 77 63 78 47 79 48 80
REMARK SMILES IDX 53 81 49 82 50 83 52 84 54 85 51 86
REMARK H PARENT 16 6 13 22 13 23 13 24 21 29 71 48 45 59
REMARK Flexibility Score: inf
ROOT
ATOM      1  C   UNL A   1      36.712  20.764  24.658  1.00  0.00     0.023 C 
ENDROOT
BRANCH   1   2
ATOM      2  C   UNL A   1      36.594  21.872  25.704  1.00  0.00     0.116 C 
BRANCH   2   3
ATOM      3  N   UNL A   1      35.533  21.657  26.649  1.00  0.00    -0.351 N 
ATOM      4  C   UNL A   1      34.193  21.858  26.599  1.00  0.00     0.281 C 
ATOM      5  O   UNL A   1      33.588  21.374  27.569  1.00  0.00    -0.268 OA
ATOM      6  H   UNL A   1      35.842  21.288  27.508  1.00  0.00     0.163 HD
BRANCH   4   7
ATOM      7  C   UNL A   1      33.417  22.700  25.510  1.00  0.00     0.176 C 
ATOM      8  C   UNL A   1      34.094  23.860  24.723  1.00  0.00     0.062 C 
ATOM      9  C   UNL A   1      33.298  23.905  23.397  1.00  0.00     0.011 C 
ATOM     10  C   UNL A   1      32.921  22.477  23.069  1.00  0.00     0.008 C 
ATOM     11  C   UNL A   1      33.203  21.687  24.336  1.00  0.00     0.079 C 
BRANCH   8  12
ATOM     12  C   UNL A   1      34.139  25.296  25.300  1.00  0.00     0.032 C 
BRANCH  12  13
ATOM     13  C   UNL A   1      33.823  26.390  24.248  1.00  0.00     0.124 C 
BRANCH  13  14
ATOM     14  N   UNL A   1      32.858  27.374  24.691  1.00  0.00    -0.335 N 
ATOM     15  C   UNL A   1      31.673  30.550  25.953  1.00  0.00     0.069 C 
ATOM     16  C   UNL A   1      31.923  29.196  25.412  1.00  0.00     0.058 A 
ATOM     17  N   UNL A   1      31.032  28.611  24.548  1.00  0.00    -0.242 NA
ATOM     18  C   UNL A   1      33.014  28.372  25.626  1.00  0.00     0.037 A 
ATOM     19  C   UNL A   1      31.601  27.494  24.167  1.00  0.00     0.199 A 
ATOM     20  C   UNL A   1      34.161  28.540  26.554  1.00  0.00     0.066 C 
ENDBRANCH  13  14
ENDBRANCH  12  13
ENDBRANCH   8  12
BRANCH   7  21
ATOM     21  N   UNL A   1      32.102  23.078  26.063  1.00  0.00    -0.345 N 
ATOM     22  H   UNL A   1      32.172  23.161  27.077  1.00  0.00     0.345 HD
ATOM     23  H   UNL A   1      31.416  22.362  25.827  1.00  0.00     0.345 HD
ATOM     24  H   UNL A   1      31.812  23.971  25.667  1.00  0.00     0.345 HD
ENDBRANCH   7  21
ENDBRANCH   4   7
ENDBRANCH   2   3
ENDBRANCH   1   2
BRANCH   1  25
ATOM     25  C   UNL A   1      37.754  19.683  24.979  1.00  0.00     0.023 C 
BRANCH  25  26
ATOM     26  C   UNL A   1      39.034  20.206  25.624  1.00  0.00     0.116 C 
BRANCH  26  27
ATOM     27  N   UNL A   1      40.059  19.173  25.801  1.00  0.00    -0.352 N 
ATOM     28  C   UNL A   1      41.420  19.357  25.988  1.00  0.00     0.251 C 
ATOM     29  H   UNL A   1      39.745  18.240  25.784  1.00  0.00     0.163 HD
ATOM     30  O   UNL A   1      42.227  18.480  25.728  1.00  0.00    -0.269 OA
BRANCH  28  31
ATOM     31  C   UNL A   1      41.867  20.638  26.557  1.00  0.00     0.039 A 
ATOM     32  C   UNL A   1      42.473  21.633  25.783  1.00  0.00     0.014 A 
ATOM     33  C   UNL A   1      41.615  20.829  27.912  1.00  0.00     0.014 A 
ATOM     34  C   UNL A   1      42.757  22.862  26.375  1.00  0.00     0.010 A 
ATOM     35  C   UNL A   1      41.739  22.082  28.445  1.00  0.00     0.010 A 
ATOM     36  C   UNL A   1      42.376  23.076  27.708  1.00  0.00    -0.014 A 
BRANCH  36  37
ATOM     37  C   UNL A   1      42.530  24.367  28.363  1.00  0.00     0.031 A 
ATOM     38  C   UNL A   1      41.405  25.317  28.130  1.00  0.00     0.074 A 
ATOM     39  C   UNL A   1      43.445  24.527  29.346  1.00  0.00     0.049 A 
ATOM     40  N   UNL A   1      41.438  26.471  27.548  1.00  0.00    -0.248 NA
ATOM     41  C   UNL A   1      40.041  24.867  28.464  1.00  0.00     0.031 C 
ATOM     42  C   UNL A   1      44.362  23.520  29.901  1.00  0.00     0.029 A 
ATOM     43  N   UNL A   1      43.656  25.592  30.163  1.00  0.00    -0.354 N 
ATOM     44  C   UNL A   1      40.145  26.986  27.646  1.00  0.00     0.074 A 
ATOM     45  C   UNL A   1      39.301  25.881  28.011  1.00  0.00     0.031 C 
ATOM     46  C   UNL A   1      44.838  23.942  31.093  1.00  0.00     0.029 A 
ATOM     47  C   UNL A   1      44.404  25.308  31.303  1.00  0.00     0.049 A 
ATOM     48  H   UNL A   1      43.309  26.492  29.965  1.00  0.00     0.167 HD
ATOM     49  C   UNL A   1      39.920  28.330  27.687  1.00  0.00     0.037 A 
ATOM     50  C   UNL A   1      44.608  26.136  32.358  1.00  0.00     0.037 A 
ATOM     51  C   UNL A   1      41.089  29.055  27.253  1.00  0.00     0.049 A 
ATOM     52  C   UNL A   1      44.258  27.508  31.908  1.00  0.00     0.074 A 
ATOM     53  C   UNL A   1      41.834  29.094  26.092  1.00  0.00     0.029 A 
ATOM     54  N   UNL A   1      41.883  29.608  28.227  1.00  0.00    -0.354 N 
ATOM     55  N   UNL A   1      44.936  28.167  31.008  1.00  0.00    -0.248 NA
ATOM     56  C   UNL A   1      42.881  27.938  32.094  1.00  0.00     0.031 C 
ATOM     57  C   UNL A   1      43.187  29.195  26.531  1.00  0.00     0.029 A 
ATOM     58  C   UNL A   1      43.182  29.301  27.923  1.00  0.00     0.049 A 
ATOM     59  H   UNL A   1      41.575  30.130  29.004  1.00  0.00     0.167 HD
ATOM     60  C   UNL A   1      43.973  28.792  30.228  1.00  0.00     0.074 A 
ATOM     61  C   UNL A   1      42.729  28.669  30.987  1.00  0.00     0.031 C 
ATOM     62  C   UNL A   1      44.208  29.080  28.915  1.00  0.00     0.037 A 
BRANCH  49  63
ATOM     63  C   UNL A   1      38.825  29.007  28.486  1.00  0.00     0.057 A 
ATOM     64  C   UNL A   1      38.712  28.717  29.861  1.00  0.00     0.134 A 
ATOM     65  C   UNL A   1      37.713  29.672  27.931  1.00  0.00     0.134 A 
ATOM     66  F   UNL A   1      39.701  28.089  30.517  1.00  0.00    -0.206 F 
ATOM     67  C   UNL A   1      37.548  28.976  30.594  1.00  0.00     0.040 A 
ATOM     68  C   UNL A   1      36.567  29.983  28.668  1.00  0.00     0.040 A 
ATOM     69  F   UNL A   1      37.624  29.974  26.631  1.00  0.00    -0.206 F 
ATOM     70  C   UNL A   1      36.464  29.601  29.995  1.00  0.00     0.006 A 
ENDBRANCH  49  63
BRANCH  50  71
ATOM     71  C   UNL A   1      44.780  25.795  33.789  1.00  0.00     0.057 A 
ATOM     72  C   UNL A   1      43.678  25.541  34.618  1.00  0.00     0.134 A 
ATOM     73  C   UNL A   1      46.037  25.440  34.311  1.00  0.00     0.134 A 
ATOM     74  F   UNL A   1      42.434  25.805  34.191  1.00  0.00    -0.206 F 
ATOM     75  C   UNL A   1      43.813  24.952  35.883  1.00  0.00     0.040 A 
ATOM     76  C   UNL A   1      46.187  24.854  35.573  1.00  0.00     0.040 A 
ATOM     77  F   UNL A   1      47.151  25.570  33.575  1.00  0.00    -0.206 F 
ATOM     78  C   UNL A   1      45.072  24.596  36.359  1.00  0.00     0.006 A 
ENDBRANCH  50  71
BRANCH  62  79
ATOM     79  C   UNL A   1      45.610  28.929  28.390  1.00  0.00     0.057 A 
ATOM     80  C   UNL A   1      46.107  27.762  27.788  1.00  0.00     0.134 A 
ATOM     81  C   UNL A   1      46.412  30.072  28.309  1.00  0.00     0.134 A 
ATOM     82  F   UNL A   1      45.374  26.643  27.735  1.00  0.00    -0.206 F 
ATOM     83  C   UNL A   1      47.352  27.731  27.153  1.00  0.00     0.040 A 
ATOM     84  C   UNL A   1      47.643  30.063  27.650  1.00  0.00     0.040 A 
ATOM     85  F   UNL A   1      45.978  31.236  28.816  1.00  0.00    -0.206 F 
ATOM     86  C   UNL A   1      48.119  28.890  27.072  1.00  0.00     0.006 A 
ENDBRANCH  62  79
ENDBRANCH  36  37
ENDBRANCH  28  31
ENDBRANCH  26  27
ENDBRANCH  25  26
ENDBRANCH   1  25
TORSDOF 15
ENDMDL
MODEL 2
REMARK VINA RESULT:     -11.3      2.969      7.635
REMARK SMILES Cc1ncn(CC[C@@H]2CCC[C@@]2([NH3+])C(=O)NCCCCNC(=O)c2ccc(-c3c4nc(c(-c5c(F)cccc5F)c5ccc([nH]5)c(-c5c(F)cccc5F)c5nc(c(-c6c(F)cccc6F)c6ccc3[nH]6)C=C5)C=C4)cc2)c1C
REMARK SMILES IDX 18 1 17 2 16 3 14 4 15 5 12 7 8 8 9 9 10 10 11 11 7 12 6 13
REMARK SMILES IDX 5 14 1 15 2 16 3 17 78 18 4 19 79 20 13 21 19 25 20 26 21 27
REMARK SMILES IDX 22 28 23 30 24 31 25 32 77 33 26 34 76 35 27 36 28 37 29 38
REMARK SMILES IDX 70 39 30 40 75 41 69 42 71 43 31 44 74 45 68 46 67 47 32 49
REMARK SMILES IDX 58 50 41 51 57 52 42 53 45 54 56 55 72 56 43 57 44 58 55 60
REMARK SMILES IDX 73 61 46 62 33 63 34 64 39 65 35 66 36 67 38 68 40 69 37 70
REMARK SMILES IDX 59 71 60 72 65 73 61 74 62 75 64 76 66 77 63 78 47 79 48 80
REMARK SMILES IDX 53 81 49 82 50 83 52 84 54 85 51 86
REMARK H PARENT 16 6 13 22 13 23 13 24 21 29 71 48 45 59
REMARK Flexibility Score: inf
ROOT
ATOM      1  C   UNL A   1      32.735  29.864  26.875  1.00  0.00     0.023 C 
ENDROOT
BRANCH   1   2
ATOM      2  C   UNL A   1      32.113  30.064  25.494  1.00  0.00     0.116 C 
BRANCH   2   3
ATOM      3  N   UNL A   1      32.913  29.535  24.423  1.00  0.00    -0.351 N 
ATOM      4  C   UNL A   1      32.607  28.905  23.263  1.00  0.00     0.281 C 
ATOM      5  O   UNL A   1      33.584  28.761  22.510  1.00  0.00    -0.268 OA
ATOM      6  H   UNL A   1      33.880  29.657  24.560  1.00  0.00     0.163 HD
BRANCH   4   7
ATOM      7  C   UNL A   1      31.202  28.291  22.877  1.00  0.00     0.176 C 
ATOM      8  C   UNL A   1      30.193  27.794  23.953  1.00  0.00     0.062 C 
ATOM      9  C   UNL A   1      28.821  27.951  23.256  1.00  0.00     0.011 C 
ATOM     10  C   UNL A   1      28.919  29.180  22.378  1.00  0.00     0.008 C 
ATOM     11  C   UNL A   1      30.399  29.515  22.321  1.00  0.00     0.079 C 
BRANCH   8  12
ATOM     12  C   UNL A   1      30.276  26.356  24.521  1.00  0.00     0.032 C 
BRANCH  12  13
ATOM     13  C   UNL A   1      31.006  26.277  25.886  1.00  0.00     0.124 C 
BRANCH  13  14
ATOM     14  N   UNL A   1      31.830  25.097  26.047  1.00  0.00    -0.335 N 
ATOM     15  C   UNL A   1      34.869  23.187  26.500  1.00  0.00     0.069 C 
ATOM     16  C   UNL A   1      33.513  23.755  26.338  1.00  0.00     0.058 A 
ATOM     17  N   UNL A   1      32.429  23.164  26.936  1.00  0.00    -0.242 NA
ATOM     18  C   UNL A   1      33.134  24.898  25.653  1.00  0.00     0.037 A 
ATOM     19  C   UNL A   1      31.422  23.970  26.704  1.00  0.00     0.199 A 
ATOM     20  C   UNL A   1      33.939  25.791  24.781  1.00  0.00     0.066 C 
ENDBRANCH  13  14
ENDBRANCH  12  13
ENDBRANCH   8  12
BRANCH   7  21
ATOM     21  N   UNL A   1      31.403  27.315  21.789  1.00  0.00    -0.345 N 
ATOM     22  H   UNL A   1      31.232  26.374  22.142  1.00  0.00     0.345 HD
ATOM     23  H   UNL A   1      32.360  27.380  21.447  1.00  0.00     0.345 HD
ATOM     24  H   UNL A   1      30.754  27.517  21.029  1.00  0.00     0.345 HD
ENDBRANCH   7  21
ENDBRANCH   4   7
ENDBRANCH   2   3
ENDBRANCH   1   2
BRANCH   1  25
ATOM     25  C   UNL A   1      33.655  28.641  26.998  1.00  0.00     0.023 C 
BRANCH  25  26
ATOM     26  C   UNL A   1      35.098  28.967  27.373  1.00  0.00     0.116 C 
BRANCH  26  27
ATOM     27  N   UNL A   1      35.208  29.930  28.472  1.00  0.00    -0.352 N 
ATOM     28  C   UNL A   1      36.194  29.991  29.445  1.00  0.00     0.251 C 
ATOM     29  H   UNL A   1      34.501  30.612  28.526  1.00  0.00     0.163 HD
ATOM     30  O   UNL A   1      36.003  30.542  30.517  1.00  0.00    -0.269 OA
BRANCH  28  31
ATOM     31  C   UNL A   1      37.507  29.407  29.130  1.00  0.00     0.039 A 
ATOM     32  C   UNL A   1      38.227  29.755  27.982  1.00  0.00     0.014 A 
ATOM     33  C   UNL A   1      38.022  28.514  30.064  1.00  0.00     0.014 A 
ATOM     34  C   UNL A   1      39.514  29.247  27.820  1.00  0.00     0.010 A 
ATOM     35  C   UNL A   1      39.337  28.152  29.988  1.00  0.00     0.010 A 
ATOM     36  C   UNL A   1      40.061  28.451  28.837  1.00  0.00    -0.014 A 
BRANCH  36  37
ATOM     37  C   UNL A   1      41.438  27.979  28.799  1.00  0.00     0.031 A 
ATOM     38  C   UNL A   1      41.644  26.736  28.003  1.00  0.00     0.074 A 
ATOM     39  C   UNL A   1      42.448  28.795  29.176  1.00  0.00     0.049 A 
ATOM     40  N   UNL A   1      42.069  25.585  28.408  1.00  0.00    -0.248 NA
ATOM     41  C   UNL A   1      41.189  26.731  26.600  1.00  0.00     0.031 C 
ATOM     42  C   UNL A   1      42.361  30.189  29.637  1.00  0.00     0.029 A 
ATOM     43  N   UNL A   1      43.791  28.600  29.094  1.00  0.00    -0.354 N 
ATOM     44  C   UNL A   1      42.148  24.782  27.269  1.00  0.00     0.074 A 
ATOM     45  C   UNL A   1      41.396  25.461  26.249  1.00  0.00     0.031 C 
ATOM     46  C   UNL A   1      43.576  30.774  29.556  1.00  0.00     0.029 A 
ATOM     47  C   UNL A   1      44.552  29.762  29.209  1.00  0.00     0.049 A 
ATOM     48  H   UNL A   1      44.193  27.711  28.964  1.00  0.00     0.167 HD
ATOM     49  C   UNL A   1      43.052  23.765  27.182  1.00  0.00     0.037 A 
ATOM     50  C   UNL A   1      45.886  29.873  28.988  1.00  0.00     0.037 A 
ATOM     51  C   UNL A   1      43.579  23.440  28.484  1.00  0.00     0.049 A 
ATOM     52  C   UNL A   1      46.448  28.498  29.017  1.00  0.00     0.074 A 
ATOM     53  C   UNL A   1      43.032  23.011  29.677  1.00  0.00     0.029 A 
ATOM     54  N   UNL A   1      44.826  23.925  28.797  1.00  0.00    -0.354 N 
ATOM     55  N   UNL A   1      46.489  27.758  30.090  1.00  0.00    -0.248 NA
ATOM     56  C   UNL A   1      46.504  27.777  27.755  1.00  0.00     0.031 C 
ATOM     57  C   UNL A   1      43.756  23.715  30.683  1.00  0.00     0.029 A 
ATOM     58  C   UNL A   1      44.756  24.460  30.055  1.00  0.00     0.049 A 
ATOM     59  H   UNL A   1      45.624  23.895  28.221  1.00  0.00     0.167 HD
ATOM     60  C   UNL A   1      46.147  26.485  29.655  1.00  0.00     0.074 A 
ATOM     61  C   UNL A   1      46.235  26.546  28.196  1.00  0.00     0.031 C 
ATOM     62  C   UNL A   1      45.536  25.595  30.490  1.00  0.00     0.037 A 
BRANCH  49  63
ATOM     63  C   UNL A   1      43.763  23.337  25.915  1.00  0.00     0.057 A 
ATOM     64  C   UNL A   1      43.758  21.972  25.563  1.00  0.00     0.134 A 
ATOM     65  C   UNL A   1      44.688  24.126  25.202  1.00  0.00     0.134 A 
ATOM     66  F   UNL A   1      42.922  21.109  26.161  1.00  0.00    -0.206 F 
ATOM     67  C   UNL A   1      44.670  21.424  24.653  1.00  0.00     0.040 A 
ATOM     68  C   UNL A   1      45.568  23.596  24.253  1.00  0.00     0.040 A 
ATOM     69  F   UNL A   1      44.869  25.428  25.446  1.00  0.00    -0.206 F 
ATOM     70  C   UNL A   1      45.588  22.235  24.003  1.00  0.00     0.006 A 
ENDBRANCH  49  63
BRANCH  50  71
ATOM     71  C   UNL A   1      46.647  31.026  28.455  1.00  0.00     0.057 A 
ATOM     72  C   UNL A   1      47.669  31.634  29.198  1.00  0.00     0.134 A 
ATOM     73  C   UNL A   1      46.578  31.384  27.096  1.00  0.00     0.134 A 
ATOM     74  F   UNL A   1      47.843  31.324  30.491  1.00  0.00    -0.206 F 
ATOM     75  C   UNL A   1      48.580  32.531  28.622  1.00  0.00     0.040 A 
ATOM     76  C   UNL A   1      47.479  32.279  26.509  1.00  0.00     0.040 A 
ATOM     77  F   UNL A   1      45.687  30.807  26.276  1.00  0.00    -0.206 F 
ATOM     78  C   UNL A   1      48.493  32.846  27.269  1.00  0.00     0.006 A 
ENDBRANCH  50  71
BRANCH  62  79
ATOM     79  C   UNL A   1      45.455  25.928  31.954  1.00  0.00     0.057 A 
ATOM     80  C   UNL A   1      44.332  26.498  32.574  1.00  0.00     0.134 A 
ATOM     81  C   UNL A   1      46.473  25.465  32.794  1.00  0.00     0.134 A 
ATOM     82  F   UNL A   1      43.269  26.888  31.860  1.00  0.00    -0.206 F 
ATOM     83  C   UNL A   1      44.237  26.618  33.964  1.00  0.00     0.040 A 
ATOM     84  C   UNL A   1      46.377  25.549  34.184  1.00  0.00     0.040 A 
ATOM     85  F   UNL A   1      47.553  24.862  32.274  1.00  0.00    -0.206 F 
ATOM     86  C   UNL A   1      45.258  26.130  34.774  1.00  0.00     0.006 A 
ENDBRANCH  62  79
ENDBRANCH  36  37
ENDBRANCH  28  31
ENDBRANCH  26  27
ENDBRANCH  25  26
ENDBRANCH   1  25
TORSDOF 15
ENDMDL
MODEL 3
REMARK VINA RESULT:     -11.2      2.974      7.279
REMARK SMILES Cc1ncn(CC[C@@H]2CCC[C@@]2([NH3+])C(=O)NCCCCNC(=O)c2ccc(-c3c4nc(c(-c5c(F)cccc5F)c5ccc([nH]5)c(-c5c(F)cccc5F)c5nc(c(-c6c(F)cccc6F)c6ccc3[nH]6)C=C5)C=C4)cc2)c1C
REMARK SMILES IDX 18 1 17 2 16 3 14 4 15 5 12 7 8 8 9 9 10 10 11 11 7 12 6 13
REMARK SMILES IDX 5 14 1 15 2 16 3 17 78 18 4 19 79 20 13 21 19 25 20 26 21 27
REMARK SMILES IDX 22 28 23 30 24 31 25 32 77 33 26 34 76 35 27 36 28 37 29 38
REMARK SMILES IDX 70 39 30 40 75 41 69 42 71 43 31 44 74 45 68 46 67 47 32 49
REMARK SMILES IDX 58 50 41 51 57 52 42 53 45 54 56 55 72 56 43 57 44 58 55 60
REMARK SMILES IDX 73 61 46 62 33 63 34 64 39 65 35 66 36 67 38 68 40 69 37 70
REMARK SMILES IDX 59 71 60 72 65 73 61 74 62 75 64 76 66 77 63 78 47 79 48 80
REMARK SMILES IDX 53 81 49 82 50 83 52 84 54 85 51 86
REMARK H PARENT 16 6 13 22 13 23 13 24 21 29 71 48 45 59
REMARK Flexibility Score: inf
ROOT
ATOM      1  C   UNL A   1      32.741  28.275  27.279  1.00  0.00     0.023 C 
ENDROOT
BRANCH   1   2
ATOM      2  C   UNL A   1      31.452  27.926  26.536  1.00  0.00     0.116 C 
BRANCH   2   3
ATOM      3  N   UNL A   1      30.979  26.596  26.802  1.00  0.00    -0.351 N 
ATOM      4  C   UNL A   1      31.257  25.387  26.253  1.00  0.00     0.281 C 
ATOM      5  O   UNL A   1      30.770  24.437  26.888  1.00  0.00    -0.268 OA
ATOM      6  H   UNL A   1      30.320  26.553  27.532  1.00  0.00     0.163 HD
BRANCH   4   7
ATOM      7  C   UNL A   1      32.022  25.134  24.894  1.00  0.00     0.176 C 
ATOM      8  C   UNL A   1      32.212  26.254  23.830  1.00  0.00     0.062 C 
ATOM      9  C   UNL A   1      33.504  25.831  23.092  1.00  0.00     0.011 C 
ATOM     10  C   UNL A   1      34.401  25.183  24.124  1.00  0.00     0.008 C 
ATOM     11  C   UNL A   1      33.513  24.945  25.334  1.00  0.00     0.079 C 
BRANCH   8  12
ATOM     12  C   UNL A   1      31.125  26.534  22.764  1.00  0.00     0.032 C 
BRANCH  12  13
ATOM     13  C   UNL A   1      29.785  27.026  23.368  1.00  0.00     0.124 C 
BRANCH  13  14
ATOM     14  N   UNL A   1      29.418  28.370  22.975  1.00  0.00    -0.335 N 
ATOM     15  C   UNL A   1      27.650  31.523  23.123  1.00  0.00     0.069 C 
ATOM     16  C   UNL A   1      28.502  30.337  22.885  1.00  0.00     0.058 A 
ATOM     17  N   UNL A   1      29.784  30.477  22.418  1.00  0.00    -0.242 NA
ATOM     18  C   UNL A   1      28.203  29.004  23.109  1.00  0.00     0.037 A 
ATOM     19  C   UNL A   1      30.295  29.270  22.438  1.00  0.00     0.199 A 
ATOM     20  C   UNL A   1      26.918  28.375  23.508  1.00  0.00     0.066 C 
ENDBRANCH  13  14
ENDBRANCH  12  13
ENDBRANCH   8  12
BRANCH   7  21
ATOM     21  N   UNL A   1      31.530  23.871  24.311  1.00  0.00    -0.345 N 
ATOM     22  H   UNL A   1      31.873  23.783  23.354  1.00  0.00     0.345 HD
ATOM     23  H   UNL A   1      30.511  23.872  24.308  1.00  0.00     0.345 HD
ATOM     24  H   UNL A   1      31.869  23.086  24.867  1.00  0.00     0.345 HD
ENDBRANCH   7  21
ENDBRANCH   4   7
ENDBRANCH   2   3
ENDBRANCH   1   2
BRANCH   1  25
ATOM     25  C   UNL A   1      33.846  28.884  26.403  1.00  0.00     0.023 C 
BRANCH  25  26
ATOM     26  C   UNL A   1      35.222  28.932  27.060  1.00  0.00     0.116 C 
BRANCH  26  27
ATOM     27  N   UNL A   1      35.304  29.887  28.168  1.00  0.00    -0.352 N 
ATOM     28  C   UNL A   1      36.260  29.936  29.172  1.00  0.00     0.251 C 
ATOM     29  H   UNL A   1      34.599  30.572  28.206  1.00  0.00     0.163 HD
ATOM     30  O   UNL A   1      36.039  30.480  30.241  1.00  0.00    -0.269 OA
BRANCH  28  31
ATOM     31  C   UNL A   1      37.579  29.348  28.892  1.00  0.00     0.039 A 
ATOM     32  C   UNL A   1      38.337  29.704  27.771  1.00  0.00     0.014 A 
ATOM     33  C   UNL A   1      38.060  28.442  29.832  1.00  0.00     0.014 A 
ATOM     34  C   UNL A   1      39.626  29.191  27.645  1.00  0.00     0.010 A 
ATOM     35  C   UNL A   1      39.375  28.073  29.794  1.00  0.00     0.010 A 
ATOM     36  C   UNL A   1      40.136  28.381  28.670  1.00  0.00    -0.014 A 
BRANCH  36  37
ATOM     37  C   UNL A   1      41.512  27.901  28.671  1.00  0.00     0.031 A 
ATOM     38  C   UNL A   1      41.726  26.635  27.915  1.00  0.00     0.074 A 
ATOM     39  C   UNL A   1      42.519  28.723  29.043  1.00  0.00     0.049 A 
ATOM     40  N   UNL A   1      42.137  25.494  28.362  1.00  0.00    -0.248 NA
ATOM     41  C   UNL A   1      41.296  26.591  26.505  1.00  0.00     0.031 C 
ATOM     42  C   UNL A   1      42.431  30.131  29.461  1.00  0.00     0.029 A 
ATOM     43  N   UNL A   1      43.862  28.520  28.990  1.00  0.00    -0.354 N 
ATOM     44  C   UNL A   1      42.232  24.658  27.248  1.00  0.00     0.074 A 
ATOM     45  C   UNL A   1      41.502  25.310  26.196  1.00  0.00     0.031 C 
ATOM     46  C   UNL A   1      43.650  30.708  29.384  1.00  0.00     0.029 A 
ATOM     47  C   UNL A   1      44.627  29.681  29.085  1.00  0.00     0.049 A 
ATOM     48  H   UNL A   1      44.262  27.626  28.894  1.00  0.00     0.167 HD
ATOM     49  C   UNL A   1      43.132  23.634  27.207  1.00  0.00     0.037 A 
ATOM     50  C   UNL A   1      45.965  29.780  28.885  1.00  0.00     0.037 A 
ATOM     51  C   UNL A   1      43.634  23.345  28.528  1.00  0.00     0.049 A 
ATOM     52  C   UNL A   1      46.519  28.404  28.965  1.00  0.00     0.074 A 
ATOM     53  C   UNL A   1      43.063  22.955  29.722  1.00  0.00     0.029 A 
ATOM     54  N   UNL A   1      44.878  23.834  28.849  1.00  0.00    -0.354 N 
ATOM     55  N   UNL A   1      46.537  27.695  30.060  1.00  0.00    -0.248 NA
ATOM     56  C   UNL A   1      46.594  27.646  27.725  1.00  0.00     0.031 C 
ATOM     57  C   UNL A   1      43.773  23.685  30.721  1.00  0.00     0.029 A 
ATOM     58  C   UNL A   1      44.788  24.406  30.089  1.00  0.00     0.049 A 
ATOM     59  H   UNL A   1      45.686  23.783  28.289  1.00  0.00     0.167 HD
ATOM     60  C   UNL A   1      46.197  26.412  29.655  1.00  0.00     0.074 A 
ATOM     61  C   UNL A   1      46.311  26.429  28.197  1.00  0.00     0.031 C 
ATOM     62  C   UNL A   1      45.566  25.549  30.505  1.00  0.00     0.037 A 
BRANCH  49  63
ATOM     63  C   UNL A   1      43.864  23.167  25.966  1.00  0.00     0.057 A 
ATOM     64  C   UNL A   1      43.854  21.792  25.651  1.00  0.00     0.134 A 
ATOM     65  C   UNL A   1      44.810  23.928  25.251  1.00  0.00     0.134 A 
ATOM     66  F   UNL A   1      42.999  20.953  26.256  1.00  0.00    -0.206 F 
ATOM     67  C   UNL A   1      44.778  21.212  24.775  1.00  0.00     0.040 A 
ATOM     68  C   UNL A   1      45.703  23.365  24.334  1.00  0.00     0.040 A 
ATOM     69  F   UNL A   1      44.998  25.235  25.463  1.00  0.00    -0.206 F 
ATOM     70  C   UNL A   1      45.716  21.998  24.121  1.00  0.00     0.006 A 
ENDBRANCH  49  63
BRANCH  50  71
ATOM     71  C   UNL A   1      46.742  30.913  28.332  1.00  0.00     0.057 A 
ATOM     72  C   UNL A   1      46.639  31.281  26.984  1.00  0.00     0.134 A 
ATOM     73  C   UNL A   1      47.393  31.833  29.174  1.00  0.00     0.134 A 
ATOM     74  F   UNL A   1      45.996  30.490  26.113  1.00  0.00    -0.206 F 
ATOM     75  C   UNL A   1      47.136  32.500  26.501  1.00  0.00     0.040 A 
ATOM     76  C   UNL A   1      47.897  33.052  28.705  1.00  0.00     0.040 A 
ATOM     77  F   UNL A   1      47.482  31.617  30.494  1.00  0.00    -0.206 F 
ATOM     78  C   UNL A   1      47.758  33.396  27.367  1.00  0.00     0.006 A 
ENDBRANCH  50  71
BRANCH  62  79
ATOM     79  C   UNL A   1      45.461  25.926  31.957  1.00  0.00     0.057 A 
ATOM     80  C   UNL A   1      44.330  26.519  32.539  1.00  0.00     0.134 A 
ATOM     81  C   UNL A   1      46.461  25.483  32.829  1.00  0.00     0.134 A 
ATOM     82  F   UNL A   1      43.282  26.893  31.796  1.00  0.00    -0.206 F 
ATOM     83  C   UNL A   1      44.210  26.680  33.923  1.00  0.00     0.040 A 
ATOM     84  C   UNL A   1      46.340  25.608  34.214  1.00  0.00     0.040 A 
ATOM     85  F   UNL A   1      47.546  24.859  32.346  1.00  0.00    -0.206 F 
ATOM     86  C   UNL A   1      45.213  26.211  34.766  1.00  0.00     0.006 A 
ENDBRANCH  62  79
ENDBRANCH  36  37
ENDBRANCH  28  31
ENDBRANCH  26  27
ENDBRANCH  25  26
ENDBRANCH   1  25
TORSDOF 15
ENDMDL
