MODEL 1
REMARK VINA RESULT:     -12.6      0.000      0.000
REMARK SMILES O=C(NCCCCNC(=O)[C@H]1C=C[C@H](NS(=O)(=O)c2ccc3c(c2)CCO3)C1)c1ccc(-c2c3nc(c(-c4c(F)cccc4F)c4ccc([nH]4)c(-c4c(F)cccc4F)c4nc(c(-c5c(F)cccc5F)c5ccc2[nH]5)C=C4)C=C3)cc1
REMARK SMILES IDX 6 1 5 2 4 3 3 4 1 5 2 6 29 8 30 9 82 10 31 11 81 12 32 13
REMARK SMILES IDX 33 14 34 15 75 16 35 17 80 18 74 19 76 20 36 21 79 22 73 23
REMARK SMILES IDX 72 24 37 26 63 27 46 28 62 29 47 30 50 31 61 32 77 33 48 34
REMARK SMILES IDX 49 35 60 37 78 38 51 39 38 40 39 41 44 42 40 43 41 44 43 45
REMARK SMILES IDX 45 46 42 47 64 48 65 49 70 50 66 51 67 52 69 53 71 54 68 55
REMARK SMILES IDX 52 56 53 57 58 58 54 59 55 60 57 61 59 62 56 63 7 64 8 65
REMARK SMILES IDX 9 66 10 68 11 69 12 70 28 71 13 72 14 73 15 74 16 76 17 77
REMARK SMILES IDX 18 78 19 79 20 80 24 81 21 82 23 83 22 84 25 85 27 86 26 87
REMARK H PARENT 3 7 76 25 50 36 8 67 15 75
REMARK Flexibility Score: inf
ROOT
ATOM      1  C   UNL A   1      31.411  30.439  25.749  1.00  0.00     0.023 C 
ENDROOT
BRANCH   1   2
ATOM      2  C   UNL A   1      31.235  31.807  26.407  1.00  0.00     0.023 C 
BRANCH   2   3
ATOM      3  C   UNL A   1      32.519  32.414  26.955  1.00  0.00     0.116 C 
BRANCH   3   4
ATOM      4  N   UNL A   1      32.339  33.790  27.388  1.00  0.00    -0.352 N 
ATOM      5  O   UNL A   1      32.624  35.572  28.749  1.00  0.00    -0.269 OA
ATOM      6  C   UNL A   1      33.008  34.468  28.377  1.00  0.00     0.251 C 
ATOM      7  H   UNL A   1      31.647  34.303  26.911  1.00  0.00     0.163 HD
BRANCH   6   8
ATOM      8  C   UNL A   1      34.191  33.841  29.000  1.00  0.00     0.039 A 
ATOM      9  C   UNL A   1      34.029  32.822  29.943  1.00  0.00     0.014 A 
ATOM     10  C   UNL A   1      35.467  34.280  28.641  1.00  0.00     0.014 A 
ATOM     11  C   UNL A   1      35.136  32.324  30.615  1.00  0.00     0.010 A 
ATOM     12  C   UNL A   1      36.586  33.711  29.252  1.00  0.00     0.010 A 
ATOM     13  C   UNL A   1      36.427  32.735  30.249  1.00  0.00    -0.014 A 
BRANCH  13  14
ATOM     14  C   UNL A   1      37.600  32.034  30.825  1.00  0.00     0.031 A 
ATOM     15  C   UNL A   1      38.346  30.987  30.051  1.00  0.00     0.074 A 
ATOM     16  C   UNL A   1      37.968  32.352  32.082  1.00  0.00     0.049 A 
ATOM     17  N   UNL A   1      39.354  30.248  30.438  1.00  0.00    -0.248 NA
ATOM     18  C   UNL A   1      37.903  30.726  28.673  1.00  0.00     0.031 C 
ATOM     19  C   UNL A   1      37.301  33.346  32.928  1.00  0.00     0.029 A 
ATOM     20  N   UNL A   1      38.981  31.874  32.871  1.00  0.00    -0.354 N 
ATOM     21  C   UNL A   1      39.654  29.420  29.365  1.00  0.00     0.074 A 
ATOM     22  C   UNL A   1      38.713  29.738  28.312  1.00  0.00     0.031 C 
ATOM     23  C   UNL A   1      37.933  33.419  34.107  1.00  0.00     0.029 A 
ATOM     24  C   UNL A   1      38.997  32.425  34.130  1.00  0.00     0.049 A 
ATOM     25  H   UNL A   1      39.633  31.203  32.566  1.00  0.00     0.167 HD
ATOM     26  C   UNL A   1      40.627  28.481  29.277  1.00  0.00     0.037 A 
ATOM     27  C   UNL A   1      39.752  32.130  35.203  1.00  0.00     0.037 A 
ATOM     28  C   UNL A   1      41.566  28.190  30.330  1.00  0.00     0.049 A 
ATOM     29  C   UNL A   1      40.789  31.053  35.084  1.00  0.00     0.074 A 
ATOM     30  C   UNL A   1      42.636  27.312  30.308  1.00  0.00     0.029 A 
ATOM     31  N   UNL A   1      41.539  28.754  31.597  1.00  0.00    -0.354 N 
ATOM     32  N   UNL A   1      41.111  30.331  34.038  1.00  0.00    -0.248 NA
ATOM     33  C   UNL A   1      41.559  30.739  36.294  1.00  0.00     0.031 C 
ATOM     34  C   UNL A   1      43.211  27.290  31.581  1.00  0.00     0.029 A 
ATOM     35  C   UNL A   1      42.540  28.202  32.380  1.00  0.00     0.049 A 
ATOM     36  H   UNL A   1      40.902  29.442  31.896  1.00  0.00     0.167 HD
ATOM     37  C   UNL A   1      42.130  29.490  34.459  1.00  0.00     0.074 A 
ATOM     38  C   UNL A   1      42.392  29.809  35.848  1.00  0.00     0.031 C 
ATOM     39  C   UNL A   1      42.786  28.532  33.761  1.00  0.00     0.037 A 
BRANCH  26  40
ATOM     40  C   UNL A   1      40.722  27.670  28.017  1.00  0.00     0.057 A 
ATOM     41  C   UNL A   1      41.492  28.081  26.922  1.00  0.00     0.134 A 
ATOM     42  C   UNL A   1      40.113  26.410  27.941  1.00  0.00     0.134 A 
ATOM     43  F   UNL A   1      42.098  29.278  26.927  1.00  0.00    -0.206 F 
ATOM     44  C   UNL A   1      41.645  27.272  25.794  1.00  0.00     0.040 A 
ATOM     45  C   UNL A   1      40.278  25.582  26.830  1.00  0.00     0.040 A 
ATOM     46  F   UNL A   1      39.369  25.951  28.959  1.00  0.00    -0.206 F 
ATOM     47  C   UNL A   1      41.047  26.013  25.751  1.00  0.00     0.006 A 
ENDBRANCH  26  40
BRANCH  27  48
ATOM     48  C   UNL A   1      39.516  32.828  36.492  1.00  0.00     0.057 A 
ATOM     49  C   UNL A   1      38.545  32.383  37.395  1.00  0.00     0.134 A 
ATOM     50  C   UNL A   1      40.245  33.972  36.843  1.00  0.00     0.134 A 
ATOM     51  F   UNL A   1      37.803  31.302  37.109  1.00  0.00    -0.206 F 
ATOM     52  C   UNL A   1      38.288  33.064  38.585  1.00  0.00     0.040 A 
ATOM     53  C   UNL A   1      40.023  34.643  38.046  1.00  0.00     0.040 A 
ATOM     54  F   UNL A   1      41.198  34.445  36.027  1.00  0.00    -0.206 F 
ATOM     55  C   UNL A   1      39.032  34.195  38.916  1.00  0.00     0.006 A 
ENDBRANCH  27  48
BRANCH  39  56
ATOM     56  C   UNL A   1      43.860  27.773  34.482  1.00  0.00     0.057 A 
ATOM     57  C   UNL A   1      43.600  26.547  35.108  1.00  0.00     0.134 A 
ATOM     58  C   UNL A   1      45.177  28.249  34.511  1.00  0.00     0.134 A 
ATOM     59  F   UNL A   1      42.355  26.045  35.132  1.00  0.00    -0.206 F 
ATOM     60  C   UNL A   1      44.609  25.830  35.751  1.00  0.00     0.040 A 
ATOM     61  C   UNL A   1      46.199  27.527  35.125  1.00  0.00     0.040 A 
ATOM     62  F   UNL A   1      45.492  29.414  33.926  1.00  0.00    -0.206 F 
ATOM     63  C   UNL A   1      45.916  26.315  35.752  1.00  0.00     0.006 A 
ENDBRANCH  39  56
ENDBRANCH  13  14
ENDBRANCH   6   8
ENDBRANCH   3   4
ENDBRANCH   2   3
ENDBRANCH   1   2
BRANCH   1  64
ATOM     64  C   UNL A   1      32.812  29.851  25.886  1.00  0.00     0.116 C 
BRANCH  64  65
ATOM     65  N   UNL A   1      33.434  29.701  24.586  1.00  0.00    -0.356 N 
ATOM     66  C   UNL A   1      33.676  28.572  23.867  1.00  0.00     0.226 C 
ATOM     67  H   UNL A   1      33.724  30.540  24.160  1.00  0.00     0.163 HD
ATOM     68  O   UNL A   1      34.402  28.672  22.875  1.00  0.00    -0.274 OA
BRANCH  66  69
ATOM     69  C   UNL A   1      33.028  27.260  24.287  1.00  0.00     0.103 C 
ATOM     70  C   UNL A   1      32.996  26.354  23.099  1.00  0.00    -0.016 C 
ATOM     71  C   UNL A   1      33.904  26.485  25.282  1.00  0.00     0.042 C 
ATOM     72  C   UNL A   1      33.480  25.148  23.398  1.00  0.00    -0.011 C 
ATOM     73  C   UNL A   1      33.860  25.012  24.829  1.00  0.00     0.093 C 
BRANCH  73  74
ATOM     74  N   UNL A   1      32.871  24.302  25.634  1.00  0.00    -0.204 NA
ATOM     75  H   UNL A   1      32.126  24.049  24.985  1.00  0.00     0.142 HD
BRANCH  74  76
ATOM     76  S   UNL A   1      33.156  22.921  26.533  1.00  0.00     0.241 S 
ATOM     77  O   UNL A   1      34.566  22.976  26.870  1.00  0.00    -0.207 OA
ATOM     78  O   UNL A   1      32.153  22.811  27.564  1.00  0.00    -0.207 OA
BRANCH  76  79
ATOM     79  C   UNL A   1      32.936  21.581  25.384  1.00  0.00     0.083 A 
ATOM     80  C   UNL A   1      32.330  21.840  24.138  1.00  0.00     0.025 A 
ATOM     81  C   UNL A   1      33.276  20.274  25.759  1.00  0.00     0.029 A 
ATOM     82  C   UNL A   1      32.153  20.816  23.209  1.00  0.00     0.048 A 
ATOM     83  C   UNL A   1      33.058  19.266  24.834  1.00  0.00    -0.001 A 
ATOM     84  C   UNL A   1      32.530  19.545  23.580  1.00  0.00     0.122 A 
ATOM     85  C   UNL A   1      33.196  17.798  24.974  1.00  0.00     0.081 C 
ATOM     86  O   UNL A   1      32.374  18.438  22.787  1.00  0.00    -0.493 OA
ATOM     87  C   UNL A   1      33.094  17.405  23.500  1.00  0.00     0.234 C 
ENDBRANCH  76  79
ENDBRANCH  74  76
ENDBRANCH  73  74
ENDBRANCH  66  69
ENDBRANCH  64  65
ENDBRANCH   1  64
TORSDOF 14
ENDMDL
MODEL 2
REMARK VINA RESULT:     -12.5      5.027     10.442
REMARK SMILES O=C(NCCCCNC(=O)[C@H]1C=C[C@H](NS(=O)(=O)c2ccc3c(c2)CCO3)C1)c1ccc(-c2c3nc(c(-c4c(F)cccc4F)c4ccc([nH]4)c(-c4c(F)cccc4F)c4nc(c(-c5c(F)cccc5F)c5ccc2[nH]5)C=C4)C=C3)cc1
REMARK SMILES IDX 6 1 5 2 4 3 3 4 1 5 2 6 29 8 30 9 82 10 31 11 81 12 32 13
REMARK SMILES IDX 33 14 34 15 75 16 35 17 80 18 74 19 76 20 36 21 79 22 73 23
REMARK SMILES IDX 72 24 37 26 63 27 46 28 62 29 47 30 50 31 61 32 77 33 48 34
REMARK SMILES IDX 49 35 60 37 78 38 51 39 38 40 39 41 44 42 40 43 41 44 43 45
REMARK SMILES IDX 45 46 42 47 64 48 65 49 70 50 66 51 67 52 69 53 71 54 68 55
REMARK SMILES IDX 52 56 53 57 58 58 54 59 55 60 57 61 59 62 56 63 7 64 8 65
REMARK SMILES IDX 9 66 10 68 11 69 12 70 28 71 13 72 14 73 15 74 16 76 17 77
REMARK SMILES IDX 18 78 19 79 20 80 24 81 21 82 23 83 22 84 25 85 27 86 26 87
REMARK H PARENT 3 7 76 25 50 36 8 67 15 75
REMARK Flexibility Score: inf
ROOT
ATOM      1  C   UNL A   1      36.809  21.001  24.687  1.00  0.00     0.023 C 
ENDROOT
BRANCH   1   2
ATOM      2  C   UNL A   1      37.771  19.847  24.969  1.00  0.00     0.023 C 
BRANCH   2   3
ATOM      3  C   UNL A   1      38.937  20.205  25.879  1.00  0.00     0.116 C 
BRANCH   3   4
ATOM      4  N   UNL A   1      39.976  19.188  25.870  1.00  0.00    -0.352 N 
ATOM      5  O   UNL A   1      42.100  18.419  25.792  1.00  0.00    -0.269 OA
ATOM      6  C   UNL A   1      41.334  19.354  25.996  1.00  0.00     0.251 C 
ATOM      7  H   UNL A   1      39.667  18.260  25.759  1.00  0.00     0.163 HD
BRANCH   6   8
ATOM      8  C   UNL A   1      41.860  20.683  26.366  1.00  0.00     0.039 A 
ATOM      9  C   UNL A   1      42.120  21.635  25.375  1.00  0.00     0.014 A 
ATOM     10  C   UNL A   1      42.101  20.974  27.710  1.00  0.00     0.014 A 
ATOM     11  C   UNL A   1      42.730  22.834  25.716  1.00  0.00     0.010 A 
ATOM     12  C   UNL A   1      42.629  22.219  28.059  1.00  0.00     0.010 A 
ATOM     13  C   UNL A   1      42.955  23.153  27.064  1.00  0.00    -0.014 A 
BRANCH  13  14
ATOM     14  C   UNL A   1      43.404  24.520  27.418  1.00  0.00     0.031 A 
ATOM     15  C   UNL A   1      42.437  25.569  27.881  1.00  0.00     0.074 A 
ATOM     16  C   UNL A   1      44.716  24.804  27.291  1.00  0.00     0.049 A 
ATOM     17  N   UNL A   1      42.668  26.823  28.174  1.00  0.00    -0.248 NA
ATOM     18  C   UNL A   1      41.029  25.167  28.029  1.00  0.00     0.031 C 
ATOM     19  C   UNL A   1      45.741  23.861  26.833  1.00  0.00     0.029 A 
ATOM     20  N   UNL A   1      45.414  25.960  27.524  1.00  0.00    -0.354 N 
ATOM     21  C   UNL A   1      41.438  27.369  28.517  1.00  0.00     0.074 A 
ATOM     22  C   UNL A   1      40.458  26.311  28.386  1.00  0.00     0.031 C 
ATOM     23  C   UNL A   1      46.935  24.468  26.839  1.00  0.00     0.029 A 
ATOM     24  C   UNL A   1      46.751  25.860  27.224  1.00  0.00     0.049 A 
ATOM     25  H   UNL A   1      44.998  26.781  27.873  1.00  0.00     0.167 HD
ATOM     26  C   UNL A   1      41.163  28.637  28.903  1.00  0.00     0.037 A 
ATOM     27  C   UNL A   1      47.716  26.796  27.210  1.00  0.00     0.037 A 
ATOM     28  C   UNL A   1      42.155  29.673  29.044  1.00  0.00     0.049 A 
ATOM     29  C   UNL A   1      47.365  28.202  27.599  1.00  0.00     0.074 A 
ATOM     30  C   UNL A   1      41.986  30.967  29.504  1.00  0.00     0.029 A 
ATOM     31  N   UNL A   1      43.495  29.539  28.712  1.00  0.00    -0.354 N 
ATOM     32  N   UNL A   1      46.212  28.684  27.995  1.00  0.00    -0.248 NA
ATOM     33  C   UNL A   1      48.443  29.197  27.530  1.00  0.00     0.031 C 
ATOM     34  C   UNL A   1      43.205  31.638  29.383  1.00  0.00     0.029 A 
ATOM     35  C   UNL A   1      44.151  30.744  28.907  1.00  0.00     0.049 A 
ATOM     36  H   UNL A   1      43.917  28.712  28.385  1.00  0.00     0.167 HD
ATOM     37  C   UNL A   1      46.429  30.033  28.236  1.00  0.00     0.074 A 
ATOM     38  C   UNL A   1      47.830  30.287  27.969  1.00  0.00     0.031 C 
ATOM     39  C   UNL A   1      45.546  30.979  28.635  1.00  0.00     0.037 A 
BRANCH  26  40
ATOM     40  C   UNL A   1      39.733  29.003  29.176  1.00  0.00     0.057 A 
ATOM     41  C   UNL A   1      38.850  29.377  28.156  1.00  0.00     0.134 A 
ATOM     42  C   UNL A   1      39.208  28.882  30.471  1.00  0.00     0.134 A 
ATOM     43  F   UNL A   1      39.287  29.517  26.895  1.00  0.00    -0.206 F 
ATOM     44  C   UNL A   1      37.500  29.624  28.414  1.00  0.00     0.040 A 
ATOM     45  C   UNL A   1      37.856  29.102  30.737  1.00  0.00     0.040 A 
ATOM     46  F   UNL A   1      39.997  28.519  31.494  1.00  0.00    -0.206 F 
ATOM     47  C   UNL A   1      36.997  29.476  29.706  1.00  0.00     0.006 A 
ENDBRANCH  26  40
BRANCH  27  48
ATOM     48  C   UNL A   1      49.088  26.444  26.764  1.00  0.00     0.057 A 
ATOM     49  C   UNL A   1      50.032  25.923  27.655  1.00  0.00     0.134 A 
ATOM     50  C   UNL A   1      49.492  26.639  25.437  1.00  0.00     0.134 A 
ATOM     51  F   UNL A   1      49.710  25.728  28.942  1.00  0.00    -0.206 F 
ATOM     52  C   UNL A   1      51.336  25.636  27.249  1.00  0.00     0.040 A 
ATOM     53  C   UNL A   1      50.782  26.323  25.010  1.00  0.00     0.040 A 
ATOM     54  F   UNL A   1      48.632  27.125  24.530  1.00  0.00    -0.206 F 
ATOM     55  C   UNL A   1      51.712  25.831  25.922  1.00  0.00     0.006 A 
ENDBRANCH  27  48
BRANCH  39  56
ATOM     56  C   UNL A   1      46.071  32.371  28.822  1.00  0.00     0.057 A 
ATOM     57  C   UNL A   1      46.625  32.792  30.037  1.00  0.00     0.134 A 
ATOM     58  C   UNL A   1      46.066  33.286  27.761  1.00  0.00     0.134 A 
ATOM     59  F   UNL A   1      46.644  31.969  31.098  1.00  0.00    -0.206 F 
ATOM     60  C   UNL A   1      47.140  34.078  30.197  1.00  0.00     0.040 A 
ATOM     61  C   UNL A   1      46.605  34.565  27.899  1.00  0.00     0.040 A 
ATOM     62  F   UNL A   1      45.555  32.944  26.570  1.00  0.00    -0.206 F 
ATOM     63  C   UNL A   1      47.141  34.966  29.122  1.00  0.00     0.006 A 
ENDBRANCH  39  56
ENDBRANCH  13  14
ENDBRANCH   6   8
ENDBRANCH   3   4
ENDBRANCH   2   3
ENDBRANCH   1   2
BRANCH   1  64
ATOM     64  C   UNL A   1      35.348  20.695  25.007  1.00  0.00     0.116 C 
BRANCH  64  65
ATOM     65  N   UNL A   1      35.012  21.144  26.343  1.00  0.00    -0.356 N 
ATOM     66  C   UNL A   1      34.401  22.291  26.743  1.00  0.00     0.226 C 
ATOM     67  H   UNL A   1      35.260  20.526  27.069  1.00  0.00     0.163 HD
ATOM     68  O   UNL A   1      34.403  22.549  27.949  1.00  0.00    -0.274 OA
BRANCH  66  69
ATOM     69  C   UNL A   1      33.724  23.182  25.710  1.00  0.00     0.103 C 
ATOM     70  C   UNL A   1      32.642  23.952  26.394  1.00  0.00    -0.016 C 
ATOM     71  C   UNL A   1      34.664  24.287  25.207  1.00  0.00     0.042 C 
ATOM     72  C   UNL A   1      32.723  25.253  26.113  1.00  0.00    -0.011 C 
ATOM     73  C   UNL A   1      33.817  25.574  25.157  1.00  0.00     0.093 C 
BRANCH  73  74
ATOM     74  N   UNL A   1      33.357  25.782  23.787  1.00  0.00    -0.204 NA
ATOM     75  H   UNL A   1      32.409  25.404  23.761  1.00  0.00     0.142 HD
BRANCH  74  76
ATOM     76  S   UNL A   1      33.265  27.255  23.003  1.00  0.00     0.241 S 
ATOM     77  O   UNL A   1      33.970  28.185  23.865  1.00  0.00    -0.207 OA
ATOM     78  O   UNL A   1      33.652  27.084  21.624  1.00  0.00    -0.207 OA
BRANCH  76  79
ATOM     79  C   UNL A   1      31.540  27.688  23.056  1.00  0.00     0.083 A 
ATOM     80  C   UNL A   1      30.611  26.740  23.533  1.00  0.00     0.025 A 
ATOM     81  C   UNL A   1      31.110  28.917  22.540  1.00  0.00     0.029 A 
ATOM     82  C   UNL A   1      29.253  27.049  23.600  1.00  0.00     0.048 A 
ATOM     83  C   UNL A   1      29.752  29.190  22.583  1.00  0.00    -0.001 A 
ATOM     84  C   UNL A   1      28.854  28.279  23.125  1.00  0.00     0.122 A 
ATOM     85  C   UNL A   1      28.989  30.325  22.016  1.00  0.00     0.081 C 
ATOM     86  O   UNL A   1      27.550  28.699  23.088  1.00  0.00    -0.493 OA
ATOM     87  C   UNL A   1      27.653  30.095  22.722  1.00  0.00     0.234 C 
ENDBRANCH  76  79
ENDBRANCH  74  76
ENDBRANCH  73  74
ENDBRANCH  66  69
ENDBRANCH  64  65
ENDBRANCH   1  64
TORSDOF 14
ENDMDL
MODEL 3
REMARK VINA RESULT:     -12.2      3.876      7.501
REMARK SMILES O=C(NCCCCNC(=O)[C@H]1C=C[C@H](NS(=O)(=O)c2ccc3c(c2)CCO3)C1)c1ccc(-c2c3nc(c(-c4c(F)cccc4F)c4ccc([nH]4)c(-c4c(F)cccc4F)c4nc(c(-c5c(F)cccc5F)c5ccc2[nH]5)C=C4)C=C3)cc1
REMARK SMILES IDX 6 1 5 2 4 3 3 4 1 5 2 6 29 8 30 9 82 10 31 11 81 12 32 13
REMARK SMILES IDX 33 14 34 15 75 16 35 17 80 18 74 19 76 20 36 21 79 22 73 23
REMARK SMILES IDX 72 24 37 26 63 27 46 28 62 29 47 30 50 31 61 32 77 33 48 34
REMARK SMILES IDX 49 35 60 37 78 38 51 39 38 40 39 41 44 42 40 43 41 44 43 45
REMARK SMILES IDX 45 46 42 47 64 48 65 49 70 50 66 51 67 52 69 53 71 54 68 55
REMARK SMILES IDX 52 56 53 57 58 58 54 59 55 60 57 61 59 62 56 63 7 64 8 65
REMARK SMILES IDX 9 66 10 68 11 69 12 70 28 71 13 72 14 73 15 74 16 76 17 77
REMARK SMILES IDX 18 78 19 79 20 80 24 81 21 82 23 83 22 84 25 85 27 86 26 87
REMARK H PARENT 3 7 76 25 50 36 8 67 15 75
REMARK Flexibility Score: inf
ROOT
ATOM      1  C   UNL A   1      33.393  29.275  24.817  1.00  0.00     0.023 C 
ENDROOT
BRANCH   1   2
ATOM      2  C   UNL A   1      34.052  28.221  25.708  1.00  0.00     0.023 C 
BRANCH   2   3
ATOM      3  C   UNL A   1      33.851  28.441  27.200  1.00  0.00     0.116 C 
BRANCH   3   4
ATOM      4  N   UNL A   1      33.683  29.846  27.534  1.00  0.00    -0.352 N 
ATOM      5  O   UNL A   1      34.213  31.798  28.541  1.00  0.00    -0.269 OA
ATOM      6  C   UNL A   1      34.565  30.684  28.171  1.00  0.00     0.251 C 
ATOM      7  H   UNL A   1      32.826  30.250  27.268  1.00  0.00     0.163 HD
BRANCH   6   8
ATOM      8  C   UNL A   1      35.943  30.215  28.421  1.00  0.00     0.039 A 
ATOM      9  C   UNL A   1      36.905  30.299  27.411  1.00  0.00     0.014 A 
ATOM     10  C   UNL A   1      36.269  29.683  29.670  1.00  0.00     0.014 A 
ATOM     11  C   UNL A   1      38.162  29.744  27.610  1.00  0.00     0.010 A 
ATOM     12  C   UNL A   1      37.562  29.210  29.898  1.00  0.00     0.010 A 
ATOM     13  C   UNL A   1      38.514  29.229  28.867  1.00  0.00    -0.014 A 
BRANCH  13  14
ATOM     14  C   UNL A   1      39.923  28.842  29.121  1.00  0.00     0.031 A 
ATOM     15  C   UNL A   1      40.904  29.803  29.725  1.00  0.00     0.074 A 
ATOM     16  C   UNL A   1      40.307  27.598  28.772  1.00  0.00     0.049 A 
ATOM     17  N   UNL A   1      42.180  29.632  29.957  1.00  0.00    -0.248 NA
ATOM     18  C   UNL A   1      40.396  31.129  30.112  1.00  0.00     0.031 C 
ATOM     19  C   UNL A   1      39.435  26.588  28.162  1.00  0.00     0.029 A 
ATOM     20  N   UNL A   1      41.520  26.970  28.868  1.00  0.00    -0.354 N 
ATOM     21  C   UNL A   1      42.635  30.829  30.493  1.00  0.00     0.074 A 
ATOM     22  C   UNL A   1      41.500  31.726  30.544  1.00  0.00     0.031 C 
ATOM     23  C   UNL A   1      40.135  25.464  27.959  1.00  0.00     0.029 A 
ATOM     24  C   UNL A   1      41.519  25.698  28.349  1.00  0.00     0.049 A 
ATOM     25  H   UNL A   1      42.315  27.389  29.270  1.00  0.00     0.167 HD
ATOM     26  C   UNL A   1      43.889  31.141  30.902  1.00  0.00     0.037 A 
ATOM     27  C   UNL A   1      42.528  24.829  28.160  1.00  0.00     0.037 A 
ATOM     28  C   UNL A   1      45.003  30.228  30.860  1.00  0.00     0.049 A 
ATOM     29  C   UNL A   1      43.912  25.226  28.582  1.00  0.00     0.074 A 
ATOM     30  C   UNL A   1      46.293  30.426  31.323  1.00  0.00     0.029 A 
ATOM     31  N   UNL A   1      44.967  28.956  30.310  1.00  0.00    -0.354 N 
ATOM     32  N   UNL A   1      44.311  26.334  29.159  1.00  0.00    -0.248 NA
ATOM     33  C   UNL A   1      44.986  24.261  28.319  1.00  0.00     0.031 C 
ATOM     34  C   UNL A   1      47.055  29.303  30.989  1.00  0.00     0.029 A 
ATOM     35  C   UNL A   1      46.225  28.379  30.374  1.00  0.00     0.049 A 
ATOM     36  H   UNL A   1      44.167  28.527  29.928  1.00  0.00     0.167 HD
ATOM     37  C   UNL A   1      45.679  26.192  29.341  1.00  0.00     0.074 A 
ATOM     38  C   UNL A   1      46.036  24.881  28.838  1.00  0.00     0.031 C 
ATOM     39  C   UNL A   1      46.563  27.073  29.869  1.00  0.00     0.037 A 
BRANCH  26  40
ATOM     40  C   UNL A   1      44.147  32.531  31.406  1.00  0.00     0.057 A 
ATOM     41  C   UNL A   1      44.507  33.580  30.551  1.00  0.00     0.134 A 
ATOM     42  C   UNL A   1      43.935  32.844  32.756  1.00  0.00     0.134 A 
ATOM     43  F   UNL A   1      44.731  33.349  29.248  1.00  0.00    -0.206 F 
ATOM     44  C   UNL A   1      44.652  34.887  31.021  1.00  0.00     0.040 A 
ATOM     45  C   UNL A   1      44.054  34.149  33.234  1.00  0.00     0.040 A 
ATOM     46  F   UNL A   1      43.579  31.887  33.628  1.00  0.00    -0.206 F 
ATOM     47  C   UNL A   1      44.415  35.176  32.365  1.00  0.00     0.006 A 
ENDBRANCH  26  40
BRANCH  27  48
ATOM     48  C   UNL A   1      42.273  23.526  27.496  1.00  0.00     0.057 A 
ATOM     49  C   UNL A   1      41.963  22.380  28.234  1.00  0.00     0.134 A 
ATOM     50  C   UNL A   1      42.353  23.393  26.103  1.00  0.00     0.134 A 
ATOM     51  F   UNL A   1      41.887  22.439  29.572  1.00  0.00    -0.206 F 
ATOM     52  C   UNL A   1      41.771  21.144  27.616  1.00  0.00     0.040 A 
ATOM     53  C   UNL A   1      42.129  22.171  25.469  1.00  0.00     0.040 A 
ATOM     54  F   UNL A   1      42.636  24.457  25.335  1.00  0.00    -0.206 F 
ATOM     55  C   UNL A   1      41.848  21.039  26.229  1.00  0.00     0.006 A 
ENDBRANCH  27  48
BRANCH  39  56
ATOM     56  C   UNL A   1      47.998  26.641  29.945  1.00  0.00     0.057 A 
ATOM     57  C   UNL A   1      48.489  25.910  31.033  1.00  0.00     0.134 A 
ATOM     58  C   UNL A   1      48.884  26.919  28.897  1.00  0.00     0.134 A 
ATOM     59  F   UNL A   1      47.695  25.627  32.078  1.00  0.00    -0.206 F 
ATOM     60  C   UNL A   1      49.816  25.485  31.085  1.00  0.00     0.040 A 
ATOM     61  C   UNL A   1      50.206  26.474  28.923  1.00  0.00     0.040 A 
ATOM     62  F   UNL A   1      48.474  27.610  27.823  1.00  0.00    -0.206 F 
ATOM     63  C   UNL A   1      50.677  25.758  30.022  1.00  0.00     0.006 A 
ENDBRANCH  39  56
ENDBRANCH  13  14
ENDBRANCH   6   8
ENDBRANCH   3   4
ENDBRANCH   2   3
ENDBRANCH   1   2
BRANCH   1  64
ATOM     64  C   UNL A   1      33.548  29.018  23.321  1.00  0.00     0.116 C 
BRANCH  64  65
ATOM     65  N   UNL A   1      32.256  29.030  22.664  1.00  0.00    -0.356 N 
ATOM     66  C   UNL A   1      31.303  28.061  22.610  1.00  0.00     0.226 C 
ATOM     67  H   UNL A   1      32.036  29.863  22.186  1.00  0.00     0.163 HD
ATOM     68  O   UNL A   1      30.370  28.222  21.819  1.00  0.00    -0.274 OA
BRANCH  66  69
ATOM     69  C   UNL A   1      31.404  26.855  23.533  1.00  0.00     0.103 C 
ATOM     70  C   UNL A   1      30.074  26.650  24.182  1.00  0.00    -0.016 C 
ATOM     71  C   UNL A   1      31.604  25.551  22.746  1.00  0.00     0.042 C 
ATOM     72  C   UNL A   1      29.676  25.382  24.078  1.00  0.00    -0.011 C 
ATOM     73  C   UNL A   1      30.678  24.511  23.406  1.00  0.00     0.093 C 
BRANCH  73  74
ATOM     74  N   UNL A   1      31.464  23.700  24.331  1.00  0.00    -0.204 NA
ATOM     75  H   UNL A   1      30.796  23.351  25.019  1.00  0.00     0.142 HD
BRANCH  74  76
ATOM     76  S   UNL A   1      32.399  22.378  23.915  1.00  0.00     0.241 S 
ATOM     77  O   UNL A   1      31.882  21.285  24.715  1.00  0.00    -0.207 OA
ATOM     78  O   UNL A   1      32.464  22.276  22.477  1.00  0.00    -0.207 OA
BRANCH  76  79
ATOM     79  C   UNL A   1      34.024  22.763  24.528  1.00  0.00     0.083 A 
ATOM     80  C   UNL A   1      34.291  24.069  24.984  1.00  0.00     0.025 A 
ATOM     81  C   UNL A   1      35.042  21.802  24.465  1.00  0.00     0.029 A 
ATOM     82  C   UNL A   1      35.550  24.403  25.483  1.00  0.00     0.048 A 
ATOM     83  C   UNL A   1      36.295  22.165  24.933  1.00  0.00    -0.001 A 
ATOM     84  C   UNL A   1      36.527  23.433  25.451  1.00  0.00     0.122 A 
ATOM     85  C   UNL A   1      37.579  21.430  24.888  1.00  0.00     0.081 C 
ATOM     86  O   UNL A   1      37.818  23.633  25.866  1.00  0.00    -0.493 OA
ATOM     87  C   UNL A   1      38.391  22.304  25.843  1.00  0.00     0.234 C 
ENDBRANCH  76  79
ENDBRANCH  74  76
ENDBRANCH  73  74
ENDBRANCH  66  69
ENDBRANCH  64  65
ENDBRANCH   1  64
TORSDOF 14
ENDMDL
