MODEL 1
REMARK VINA RESULT:     -11.9      0.000      0.000
REMARK SMILES Cc1ccccc1[C@@H](CC(=O)NCCCCNC(=O)c1ccc(-c2c3nc(c(-c4c(F)cccc4F)c4ccc([nH]4)c(-c4c(F)cccc4F)c4nc(c(-c5c(F)cccc5F)c5ccc2[nH]5)C=C4)C=C3)cc1)NC(=O)C(F)(F)F
REMARK SMILES IDX 14 1 13 2 12 3 10 4 11 5 9 7 8 8 7 9 1 10 2 11 3 12 4 13
REMARK SMILES IDX 6 14 5 15 74 16 75 17 76 19 77 20 78 21 79 22 80 23 15 24
REMARK SMILES IDX 16 25 17 26 18 27 19 29 20 30 21 31 73 32 22 33 72 34 23 35
REMARK SMILES IDX 24 36 25 37 66 38 26 39 71 40 65 41 67 42 27 43 70 44 64 45
REMARK SMILES IDX 63 46 28 48 54 49 37 50 53 51 38 52 41 53 52 54 68 55 39 56
REMARK SMILES IDX 40 57 51 59 69 60 42 61 29 62 30 63 35 64 31 65 32 66 34 67
REMARK SMILES IDX 36 68 33 69 55 70 56 71 61 72 57 73 58 74 60 75 62 76 59 77
REMARK SMILES IDX 43 78 44 79 49 80 45 81 46 82 48 83 50 84 47 85
REMARK H PARENT 12 6 74 18 17 28 67 47 41 58
REMARK Flexibility Score: inf
ROOT
ATOM      1  C   UNL A   1      31.738  28.236  27.538  1.00  0.00     0.023 C 
ENDROOT
BRANCH   1   2
ATOM      2  C   UNL A   1      31.474  27.224  26.411  1.00  0.00     0.116 C 
BRANCH   2   3
ATOM      3  N   UNL A   1      31.330  25.878  26.949  1.00  0.00    -0.356 N 
ATOM      4  C   UNL A   1      31.501  24.652  26.385  1.00  0.00     0.222 C 
ATOM      5  O   UNL A   1      31.070  23.682  27.016  1.00  0.00    -0.275 OA
ATOM      6  H   UNL A   1      31.060  25.852  27.896  1.00  0.00     0.163 HD
BRANCH   4   7
ATOM      7  C   UNL A   1      32.217  24.441  25.065  1.00  0.00     0.129 C 
BRANCH   7   8
ATOM      8  C   UNL A   1      32.762  23.027  24.749  1.00  0.00     0.122 C 
BRANCH   8   9
ATOM      9  C   UNL A   1      34.289  23.005  24.848  1.00  0.00    -0.022 A 
ATOM     10  C   UNL A   1      34.359  22.430  27.362  1.00  0.00     0.045 C 
ATOM     11  C   UNL A   1      34.975  22.933  26.083  1.00  0.00    -0.046 A 
ATOM     12  C   UNL A   1      36.354  23.222  26.128  1.00  0.00     0.004 A 
ATOM     13  C   UNL A   1      37.068  23.522  24.973  1.00  0.00     0.000 A 
ATOM     14  C   UNL A   1      35.058  23.179  23.688  1.00  0.00     0.006 A 
ATOM     15  C   UNL A   1      36.428  23.451  23.748  1.00  0.00     0.000 A 
ENDBRANCH   8   9
BRANCH   8  16
ATOM     16  N   UNL A   1      32.268  22.457  23.500  1.00  0.00    -0.341 N 
ATOM     17  C   UNL A   1      32.211  21.125  23.151  1.00  0.00     0.326 C 
ATOM     18  H   UNL A   1      31.937  23.098  22.830  1.00  0.00     0.164 HD
ATOM     19  O   UNL A   1      31.855  20.862  21.996  1.00  0.00    -0.265 OA
BRANCH  17  20
ATOM     20  C   UNL A   1      32.570  20.039  24.193  1.00  0.00     0.471 C 
ATOM     21  F   UNL A   1      32.038  20.299  25.421  1.00  0.00    -0.162 F 
ATOM     22  F   UNL A   1      32.096  18.811  23.833  1.00  0.00    -0.162 F 
ATOM     23  F   UNL A   1      33.910  19.891  24.379  1.00  0.00    -0.162 F 
ENDBRANCH  17  20
ENDBRANCH   8  16
ENDBRANCH   7   8
ENDBRANCH   4   7
ENDBRANCH   2   3
ENDBRANCH   1   2
BRANCH   1  24
ATOM     24  C   UNL A   1      32.278  29.633  27.210  1.00  0.00     0.023 C 
BRANCH  24  25
ATOM     25  C   UNL A   1      33.791  29.835  27.274  1.00  0.00     0.116 C 
BRANCH  25  26
ATOM     26  N   UNL A   1      34.238  31.202  27.616  1.00  0.00    -0.352 N 
ATOM     27  C   UNL A   1      35.235  31.607  28.500  1.00  0.00     0.251 C 
ATOM     28  H   UNL A   1      33.763  31.930  27.153  1.00  0.00     0.163 HD
ATOM     29  O   UNL A   1      35.278  32.755  28.940  1.00  0.00    -0.269 OA
BRANCH  27  30
ATOM     30  C   UNL A   1      36.288  30.643  28.864  1.00  0.00     0.039 A 
ATOM     31  C   UNL A   1      36.319  29.845  30.015  1.00  0.00     0.014 A 
ATOM     32  C   UNL A   1      37.326  30.578  27.957  1.00  0.00     0.014 A 
ATOM     33  C   UNL A   1      37.406  28.979  30.203  1.00  0.00     0.010 A 
ATOM     34  C   UNL A   1      38.134  29.490  27.942  1.00  0.00     0.010 A 
ATOM     35  C   UNL A   1      38.312  28.824  29.152  1.00  0.00    -0.014 A 
BRANCH  35  36
ATOM     36  C   UNL A   1      39.678  28.328  29.222  1.00  0.00     0.031 A 
ATOM     37  C   UNL A   1      40.074  26.990  28.790  1.00  0.00     0.074 A 
ATOM     38  C   UNL A   1      40.593  29.332  29.225  1.00  0.00     0.049 A 
ATOM     39  N   UNL A   1      41.241  26.504  29.025  1.00  0.00    -0.248 NA
ATOM     40  C   UNL A   1      39.214  26.114  28.006  1.00  0.00     0.031 C 
ATOM     41  C   UNL A   1      41.949  29.362  28.702  1.00  0.00     0.029 A 
ATOM     42  N   UNL A   1      40.393  30.637  29.685  1.00  0.00    -0.354 N 
ATOM     43  C   UNL A   1      41.407  25.438  28.177  1.00  0.00     0.074 A 
ATOM     44  C   UNL A   1      40.087  25.162  27.650  1.00  0.00     0.031 C 
ATOM     45  C   UNL A   1      42.538  30.504  29.103  1.00  0.00     0.029 A 
ATOM     46  C   UNL A   1      41.637  31.163  30.038  1.00  0.00     0.049 A 
ATOM     47  H   UNL A   1      39.528  31.103  29.750  1.00  0.00     0.167 HD
ATOM     48  C   UNL A   1      42.668  25.008  27.879  1.00  0.00     0.037 A 
ATOM     49  C   UNL A   1      41.848  31.353  31.376  1.00  0.00     0.037 A 
ATOM     50  C   UNL A   1      43.689  25.891  28.459  1.00  0.00     0.049 A 
ATOM     51  C   UNL A   1      42.780  30.308  31.963  1.00  0.00     0.074 A 
ATOM     52  C   UNL A   1      44.511  26.888  27.958  1.00  0.00     0.029 A 
ATOM     53  N   UNL A   1      43.732  26.040  29.832  1.00  0.00    -0.354 N 
ATOM     54  N   UNL A   1      43.437  29.423  31.265  1.00  0.00    -0.248 NA
ATOM     55  C   UNL A   1      42.981  30.135  33.400  1.00  0.00     0.031 C 
ATOM     56  C   UNL A   1      45.033  27.639  29.058  1.00  0.00     0.029 A 
ATOM     57  C   UNL A   1      44.545  27.086  30.228  1.00  0.00     0.049 A 
ATOM     58  H   UNL A   1      43.239  25.465  30.460  1.00  0.00     0.167 HD
ATOM     59  C   UNL A   1      44.021  28.513  32.101  1.00  0.00     0.074 A 
ATOM     60  C   UNL A   1      43.738  29.024  33.432  1.00  0.00     0.031 C 
ATOM     61  C   UNL A   1      44.637  27.377  31.653  1.00  0.00     0.037 A 
BRANCH  48  62
ATOM     62  C   UNL A   1      42.955  23.926  26.871  1.00  0.00     0.057 A 
ATOM     63  C   UNL A   1      42.878  22.564  27.208  1.00  0.00     0.134 A 
ATOM     64  C   UNL A   1      43.286  24.179  25.525  1.00  0.00     0.134 A 
ATOM     65  F   UNL A   1      42.486  22.159  28.422  1.00  0.00    -0.206 F 
ATOM     66  C   UNL A   1      43.199  21.539  26.309  1.00  0.00     0.040 A 
ATOM     67  C   UNL A   1      43.657  23.167  24.629  1.00  0.00     0.040 A 
ATOM     68  F   UNL A   1      43.221  25.416  25.012  1.00  0.00    -0.206 F 
ATOM     69  C   UNL A   1      43.623  21.838  25.023  1.00  0.00     0.006 A 
ENDBRANCH  48  62
BRANCH  49  70
ATOM     70  C   UNL A   1      40.610  31.908  32.030  1.00  0.00     0.057 A 
ATOM     71  C   UNL A   1      40.279  33.253  31.770  1.00  0.00     0.134 A 
ATOM     72  C   UNL A   1      39.563  31.075  32.453  1.00  0.00     0.134 A 
ATOM     73  F   UNL A   1      41.222  34.107  31.341  1.00  0.00    -0.206 F 
ATOM     74  C   UNL A   1      38.957  33.716  31.804  1.00  0.00     0.040 A 
ATOM     75  C   UNL A   1      38.237  31.533  32.496  1.00  0.00     0.040 A 
ATOM     76  F   UNL A   1      39.780  29.774  32.692  1.00  0.00    -0.206 F 
ATOM     77  C   UNL A   1      37.927  32.843  32.132  1.00  0.00     0.006 A 
ENDBRANCH  49  70
BRANCH  61  78
ATOM     78  C   UNL A   1      45.342  26.409  32.569  1.00  0.00     0.057 A 
ATOM     79  C   UNL A   1      46.726  26.200  32.505  1.00  0.00     0.134 A 
ATOM     80  C   UNL A   1      44.648  25.564  33.461  1.00  0.00     0.134 A 
ATOM     81  F   UNL A   1      47.487  26.861  31.619  1.00  0.00    -0.206 F 
ATOM     82  C   UNL A   1      47.382  25.279  33.330  1.00  0.00     0.040 A 
ATOM     83  C   UNL A   1      45.284  24.603  34.247  1.00  0.00     0.040 A 
ATOM     84  F   UNL A   1      43.322  25.639  33.636  1.00  0.00    -0.206 F 
ATOM     85  C   UNL A   1      46.661  24.472  34.201  1.00  0.00     0.006 A 
ENDBRANCH  61  78
ENDBRANCH  35  36
ENDBRANCH  27  30
ENDBRANCH  25  26
ENDBRANCH  24  25
ENDBRANCH   1  24
TORSDOF 15
ENDMDL
MODEL 2
REMARK VINA RESULT:     -11.8      1.563      1.778
REMARK SMILES Cc1ccccc1[C@@H](CC(=O)NCCCCNC(=O)c1ccc(-c2c3nc(c(-c4c(F)cccc4F)c4ccc([nH]4)c(-c4c(F)cccc4F)c4nc(c(-c5c(F)cccc5F)c5ccc2[nH]5)C=C4)C=C3)cc1)NC(=O)C(F)(F)F
REMARK SMILES IDX 14 1 13 2 12 3 10 4 11 5 9 7 8 8 7 9 1 10 2 11 3 12 4 13
REMARK SMILES IDX 6 14 5 15 74 16 75 17 76 19 77 20 78 21 79 22 80 23 15 24
REMARK SMILES IDX 16 25 17 26 18 27 19 29 20 30 21 31 73 32 22 33 72 34 23 35
REMARK SMILES IDX 24 36 25 37 66 38 26 39 71 40 65 41 67 42 27 43 70 44 64 45
REMARK SMILES IDX 63 46 28 48 54 49 37 50 53 51 38 52 41 53 52 54 68 55 39 56
REMARK SMILES IDX 40 57 51 59 69 60 42 61 29 62 30 63 35 64 31 65 32 66 34 67
REMARK SMILES IDX 36 68 33 69 55 70 56 71 61 72 57 73 58 74 60 75 62 76 59 77
REMARK SMILES IDX 43 78 44 79 49 80 45 81 46 82 48 83 50 84 47 85
REMARK H PARENT 12 6 74 18 17 28 67 47 41 58
REMARK Flexibility Score: inf
ROOT
ATOM      1  C   UNL A   1      31.763  28.203  27.396  1.00  0.00     0.023 C 
ENDROOT
BRANCH   1   2
ATOM      2  C   UNL A   1      31.695  27.278  26.169  1.00  0.00     0.116 C 
BRANCH   2   3
ATOM      3  N   UNL A   1      31.241  25.948  26.551  1.00  0.00    -0.356 N 
ATOM      4  C   UNL A   1      31.819  24.722  26.431  1.00  0.00     0.222 C 
ATOM      5  O   UNL A   1      31.094  23.741  26.621  1.00  0.00    -0.275 OA
ATOM      6  H   UNL A   1      30.351  25.934  26.974  1.00  0.00     0.163 HD
BRANCH   4   7
ATOM      7  C   UNL A   1      33.291  24.529  26.120  1.00  0.00     0.129 C 
BRANCH   7   8
ATOM      8  C   UNL A   1      33.700  24.289  24.647  1.00  0.00     0.122 C 
BRANCH   8   9
ATOM      9  C   UNL A   1      34.827  23.258  24.562  1.00  0.00    -0.022 A 
ATOM     10  C   UNL A   1      33.273  21.229  24.207  1.00  0.00     0.045 C 
ATOM     11  C   UNL A   1      34.591  21.863  24.568  1.00  0.00    -0.046 A 
ATOM     12  C   UNL A   1      35.665  20.978  24.795  1.00  0.00     0.004 A 
ATOM     13  C   UNL A   1      36.964  21.445  24.960  1.00  0.00     0.000 A 
ATOM     14  C   UNL A   1      36.161  23.690  24.600  1.00  0.00     0.006 A 
ATOM     15  C   UNL A   1      37.217  22.798  24.812  1.00  0.00     0.000 A 
ENDBRANCH   8   9
BRANCH   8  16
ATOM     16  N   UNL A   1      33.990  25.506  23.897  1.00  0.00    -0.341 N 
ATOM     17  C   UNL A   1      33.540  25.843  22.638  1.00  0.00     0.326 C 
ATOM     18  H   UNL A   1      34.574  26.162  24.341  1.00  0.00     0.164 HD
ATOM     19  O   UNL A   1      33.993  26.879  22.139  1.00  0.00    -0.265 OA
BRANCH  17  20
ATOM     20  C   UNL A   1      32.501  24.945  21.925  1.00  0.00     0.471 C 
ATOM     21  F   UNL A   1      31.382  24.746  22.676  1.00  0.00    -0.162 F 
ATOM     22  F   UNL A   1      32.072  25.495  20.752  1.00  0.00    -0.162 F 
ATOM     23  F   UNL A   1      32.980  23.709  21.615  1.00  0.00    -0.162 F 
ENDBRANCH  17  20
ENDBRANCH   8  16
ENDBRANCH   7   8
ENDBRANCH   4   7
ENDBRANCH   2   3
ENDBRANCH   1   2
BRANCH   1  24
ATOM     24  C   UNL A   1      32.280  29.639  27.252  1.00  0.00     0.023 C 
BRANCH  24  25
ATOM     25  C   UNL A   1      33.783  29.827  27.048  1.00  0.00     0.116 C 
BRANCH  25  26
ATOM     26  N   UNL A   1      34.289  31.200  27.262  1.00  0.00    -0.352 N 
ATOM     27  C   UNL A   1      35.316  31.640  28.094  1.00  0.00     0.251 C 
ATOM     28  H   UNL A   1      33.835  31.903  26.743  1.00  0.00     0.163 HD
ATOM     29  O   UNL A   1      35.411  32.819  28.430  1.00  0.00    -0.269 OA
BRANCH  27  30
ATOM     30  C   UNL A   1      36.336  30.670  28.527  1.00  0.00     0.039 A 
ATOM     31  C   UNL A   1      36.307  29.906  29.701  1.00  0.00     0.014 A 
ATOM     32  C   UNL A   1      37.408  30.562  27.665  1.00  0.00     0.014 A 
ATOM     33  C   UNL A   1      37.370  29.028  29.957  1.00  0.00     0.010 A 
ATOM     34  C   UNL A   1      38.197  29.461  27.714  1.00  0.00     0.010 A 
ATOM     35  C   UNL A   1      38.315  28.827  28.948  1.00  0.00    -0.014 A 
BRANCH  35  36
ATOM     36  C   UNL A   1      39.669  28.311  29.088  1.00  0.00     0.031 A 
ATOM     37  C   UNL A   1      40.070  26.974  28.660  1.00  0.00     0.074 A 
ATOM     38  C   UNL A   1      40.595  29.302  29.155  1.00  0.00     0.049 A 
ATOM     39  N   UNL A   1      41.215  26.469  28.953  1.00  0.00    -0.248 NA
ATOM     40  C   UNL A   1      39.244  26.120  27.818  1.00  0.00     0.031 C 
ATOM     41  C   UNL A   1      41.978  29.320  28.710  1.00  0.00     0.029 A 
ATOM     42  N   UNL A   1      40.387  30.604  29.622  1.00  0.00    -0.354 N 
ATOM     43  C   UNL A   1      41.415  25.411  28.101  1.00  0.00     0.074 A 
ATOM     44  C   UNL A   1      40.122  25.161  27.497  1.00  0.00     0.031 C 
ATOM     45  C   UNL A   1      42.559  30.448  29.159  1.00  0.00     0.029 A 
ATOM     46  C   UNL A   1      41.616  31.108  30.051  1.00  0.00     0.049 A 
ATOM     47  H   UNL A   1      39.525  31.081  29.644  1.00  0.00     0.167 HD
ATOM     48  C   UNL A   1      42.684  24.968  27.869  1.00  0.00     0.037 A 
ATOM     49  C   UNL A   1      41.754  31.277  31.401  1.00  0.00     0.037 A 
ATOM     50  C   UNL A   1      43.682  25.829  28.516  1.00  0.00     0.049 A 
ATOM     51  C   UNL A   1      42.637  30.213  32.025  1.00  0.00     0.074 A 
ATOM     52  C   UNL A   1      44.545  26.820  28.075  1.00  0.00     0.029 A 
ATOM     53  N   UNL A   1      43.651  25.959  29.892  1.00  0.00    -0.354 N 
ATOM     54  N   UNL A   1      43.322  29.327  31.352  1.00  0.00    -0.248 NA
ATOM     55  C   UNL A   1      42.756  30.018  33.467  1.00  0.00     0.031 C 
ATOM     56  C   UNL A   1      45.014  27.549  29.213  1.00  0.00     0.029 A 
ATOM     57  C   UNL A   1      44.454  26.988  30.346  1.00  0.00     0.049 A 
ATOM     58  H   UNL A   1      43.116  25.384  30.483  1.00  0.00     0.167 HD
ATOM     59  C   UNL A   1      43.845  28.399  32.207  1.00  0.00     0.074 A 
ATOM     60  C   UNL A   1      43.496  28.896  33.527  1.00  0.00     0.031 C 
ATOM     61  C   UNL A   1      44.470  27.260  31.778  1.00  0.00     0.037 A 
BRANCH  48  62
ATOM     62  C   UNL A   1      43.013  23.895  26.863  1.00  0.00     0.057 A 
ATOM     63  C   UNL A   1      42.972  22.531  27.199  1.00  0.00     0.134 A 
ATOM     64  C   UNL A   1      43.350  24.158  25.521  1.00  0.00     0.134 A 
ATOM     65  F   UNL A   1      42.580  22.114  28.409  1.00  0.00    -0.206 F 
ATOM     66  C   UNL A   1      43.332  21.516  26.303  1.00  0.00     0.040 A 
ATOM     67  C   UNL A   1      43.760  23.157  24.628  1.00  0.00     0.040 A 
ATOM     68  F   UNL A   1      43.254  25.393  25.007  1.00  0.00    -0.206 F 
ATOM     69  C   UNL A   1      43.760  21.828  25.022  1.00  0.00     0.006 A 
ENDBRANCH  48  62
BRANCH  49  70
ATOM     70  C   UNL A   1      40.489  31.841  31.992  1.00  0.00     0.057 A 
ATOM     71  C   UNL A   1      40.186  33.192  31.725  1.00  0.00     0.134 A 
ATOM     72  C   UNL A   1      39.412  31.017  32.353  1.00  0.00     0.134 A 
ATOM     73  F   UNL A   1      41.159  34.039  31.353  1.00  0.00    -0.206 F 
ATOM     74  C   UNL A   1      38.869  33.669  31.692  1.00  0.00     0.040 A 
ATOM     75  C   UNL A   1      38.091  31.489  32.329  1.00  0.00     0.040 A 
ATOM     76  F   UNL A   1      39.602  29.712  32.593  1.00  0.00    -0.206 F 
ATOM     77  C   UNL A   1      37.814  32.805  31.959  1.00  0.00     0.006 A 
ENDBRANCH  49  70
BRANCH  61  78
ATOM     78  C   UNL A   1      45.110  26.270  32.719  1.00  0.00     0.057 A 
ATOM     79  C   UNL A   1      46.481  25.983  32.675  1.00  0.00     0.134 A 
ATOM     80  C   UNL A   1      44.360  25.481  33.617  1.00  0.00     0.134 A 
ATOM     81  F   UNL A   1      47.287  26.585  31.787  1.00  0.00    -0.206 F 
ATOM     82  C   UNL A   1      47.076  25.041  33.523  1.00  0.00     0.040 A 
ATOM     83  C   UNL A   1      44.933  24.500  34.426  1.00  0.00     0.040 A 
ATOM     84  F   UNL A   1      43.039  25.633  33.775  1.00  0.00    -0.206 F 
ATOM     85  C   UNL A   1      46.301  24.292  34.399  1.00  0.00     0.006 A 
ENDBRANCH  61  78
ENDBRANCH  35  36
ENDBRANCH  27  30
ENDBRANCH  25  26
ENDBRANCH  24  25
ENDBRANCH   1  24
TORSDOF 15
ENDMDL
MODEL 3
REMARK VINA RESULT:     -11.8      2.768      8.004
REMARK SMILES Cc1ccccc1[C@@H](CC(=O)NCCCCNC(=O)c1ccc(-c2c3nc(c(-c4c(F)cccc4F)c4ccc([nH]4)c(-c4c(F)cccc4F)c4nc(c(-c5c(F)cccc5F)c5ccc2[nH]5)C=C4)C=C3)cc1)NC(=O)C(F)(F)F
REMARK SMILES IDX 14 1 13 2 12 3 10 4 11 5 9 7 8 8 7 9 1 10 2 11 3 12 4 13
REMARK SMILES IDX 6 14 5 15 74 16 75 17 76 19 77 20 78 21 79 22 80 23 15 24
REMARK SMILES IDX 16 25 17 26 18 27 19 29 20 30 21 31 73 32 22 33 72 34 23 35
REMARK SMILES IDX 24 36 25 37 66 38 26 39 71 40 65 41 67 42 27 43 70 44 64 45
REMARK SMILES IDX 63 46 28 48 54 49 37 50 53 51 38 52 41 53 52 54 68 55 39 56
REMARK SMILES IDX 40 57 51 59 69 60 42 61 29 62 30 63 35 64 31 65 32 66 34 67
REMARK SMILES IDX 36 68 33 69 55 70 56 71 61 72 57 73 58 74 60 75 62 76 59 77
REMARK SMILES IDX 43 78 44 79 49 80 45 81 46 82 48 83 50 84 47 85
REMARK H PARENT 12 6 74 18 17 28 67 47 41 58
REMARK Flexibility Score: inf
ROOT
ATOM      1  C   UNL A   1      35.880  22.193  24.256  1.00  0.00     0.023 C 
ENDROOT
BRANCH   1   2
ATOM      2  C   UNL A   1      34.389  22.469  23.999  1.00  0.00     0.116 C 
BRANCH   2   3
ATOM      3  N   UNL A   1      34.223  23.452  22.936  1.00  0.00    -0.356 N 
ATOM      4  C   UNL A   1      33.928  24.780  22.966  1.00  0.00     0.222 C 
ATOM      5  O   UNL A   1      33.610  25.305  21.895  1.00  0.00    -0.275 OA
ATOM      6  H   UNL A   1      34.349  23.087  22.030  1.00  0.00     0.163 HD
BRANCH   4   7
ATOM      7  C   UNL A   1      34.013  25.618  24.227  1.00  0.00     0.129 C 
BRANCH   7   8
ATOM      8  C   UNL A   1      32.813  25.588  25.205  1.00  0.00     0.122 C 
BRANCH   8   9
ATOM      9  C   UNL A   1      32.476  27.001  25.686  1.00  0.00    -0.022 A 
ATOM     10  C   UNL A   1      30.420  27.292  24.155  1.00  0.00     0.045 C 
ATOM     11  C   UNL A   1      31.514  27.818  25.047  1.00  0.00    -0.046 A 
ATOM     12  C   UNL A   1      31.468  29.196  25.341  1.00  0.00     0.004 A 
ATOM     13  C   UNL A   1      32.314  29.760  26.289  1.00  0.00     0.000 A 
ATOM     14  C   UNL A   1      33.222  27.571  26.728  1.00  0.00     0.006 A 
ATOM     15  C   UNL A   1      33.155  28.937  27.017  1.00  0.00     0.000 A 
ENDBRANCH   8   9
BRANCH   8  16
ATOM     16  N   UNL A   1      32.956  24.636  26.301  1.00  0.00    -0.341 N 
ATOM     17  C   UNL A   1      32.013  23.743  26.764  1.00  0.00     0.326 C 
ATOM     18  H   UNL A   1      33.825  24.630  26.763  1.00  0.00     0.164 HD
ATOM     19  O   UNL A   1      32.302  23.098  27.779  1.00  0.00    -0.265 OA
BRANCH  17  20
ATOM     20  C   UNL A   1      30.674  23.575  26.008  1.00  0.00     0.471 C 
ATOM     21  F   UNL A   1      29.882  24.680  26.100  1.00  0.00    -0.162 F 
ATOM     22  F   UNL A   1      30.866  23.363  24.674  1.00  0.00    -0.162 F 
ATOM     23  F   UNL A   1      29.927  22.530  26.458  1.00  0.00    -0.162 F 
ENDBRANCH  17  20
ENDBRANCH   8  16
ENDBRANCH   7   8
ENDBRANCH   4   7
ENDBRANCH   2   3
ENDBRANCH   1   2
BRANCH   1  24
ATOM     24  C   UNL A   1      36.470  22.395  25.657  1.00  0.00     0.023 C 
BRANCH  24  25
ATOM     25  C   UNL A   1      37.697  23.299  25.779  1.00  0.00     0.116 C 
BRANCH  25  26
ATOM     26  N   UNL A   1      38.912  22.656  26.323  1.00  0.00    -0.352 N 
ATOM     27  C   UNL A   1      40.125  23.233  26.690  1.00  0.00     0.251 C 
ATOM     28  H   UNL A   1      38.855  21.680  26.443  1.00  0.00     0.163 HD
ATOM     29  O   UNL A   1      41.149  22.562  26.805  1.00  0.00    -0.269 OA
BRANCH  27  30
ATOM     30  C   UNL A   1      40.154  24.673  26.998  1.00  0.00     0.039 A 
ATOM     31  C   UNL A   1      40.620  25.691  26.155  1.00  0.00     0.014 A 
ATOM     32  C   UNL A   1      39.685  24.987  28.257  1.00  0.00     0.014 A 
ATOM     33  C   UNL A   1      40.575  27.016  26.614  1.00  0.00     0.010 A 
ATOM     34  C   UNL A   1      39.283  26.253  28.525  1.00  0.00     0.010 A 
ATOM     35  C   UNL A   1      39.907  27.274  27.813  1.00  0.00    -0.014 A 
BRANCH  35  36
ATOM     36  C   UNL A   1      40.053  28.435  28.679  1.00  0.00     0.031 A 
ATOM     37  C   UNL A   1      39.052  29.492  28.785  1.00  0.00     0.074 A 
ATOM     38  C   UNL A   1      40.897  28.202  29.717  1.00  0.00     0.049 A 
ATOM     39  N   UNL A   1      39.272  30.594  29.411  1.00  0.00    -0.248 NA
ATOM     40  C   UNL A   1      37.702  29.376  28.249  1.00  0.00     0.031 C 
ATOM     41  C   UNL A   1      40.896  28.749  31.063  1.00  0.00     0.029 A 
ATOM     42  N   UNL A   1      41.955  27.288  29.739  1.00  0.00    -0.354 N 
ATOM     43  C   UNL A   1      38.050  31.170  29.648  1.00  0.00     0.074 A 
ATOM     44  C   UNL A   1      37.118  30.442  28.811  1.00  0.00     0.031 C 
ATOM     45  C   UNL A   1      42.033  28.377  31.679  1.00  0.00     0.029 A 
ATOM     46  C   UNL A   1      42.879  27.723  30.691  1.00  0.00     0.049 A 
ATOM     47  H   UNL A   1      42.035  26.480  29.181  1.00  0.00     0.167 HD
ATOM     48  C   UNL A   1      37.924  32.088  30.650  1.00  0.00     0.037 A 
ATOM     49  C   UNL A   1      44.068  28.189  30.200  1.00  0.00     0.037 A 
ATOM     50  C   UNL A   1      39.167  32.215  31.422  1.00  0.00     0.049 A 
ATOM     51  C   UNL A   1      44.165  29.702  30.273  1.00  0.00     0.074 A 
ATOM     52  C   UNL A   1      39.598  31.752  32.656  1.00  0.00     0.029 A 
ATOM     53  N   UNL A   1      40.312  32.630  30.770  1.00  0.00    -0.354 N 
ATOM     54  N   UNL A   1      43.299  30.473  30.872  1.00  0.00    -0.248 NA
ATOM     55  C   UNL A   1      45.213  30.468  29.604  1.00  0.00     0.031 C 
ATOM     56  C   UNL A   1      41.020  31.889  32.718  1.00  0.00     0.029 A 
ATOM     57  C   UNL A   1      41.452  32.453  31.530  1.00  0.00     0.049 A 
ATOM     58  H   UNL A   1      40.316  33.010  29.862  1.00  0.00     0.167 HD
ATOM     59  C   UNL A   1      43.567  31.782  30.583  1.00  0.00     0.074 A 
ATOM     60  C   UNL A   1      44.801  31.730  29.816  1.00  0.00     0.031 C 
ATOM     61  C   UNL A   1      42.733  32.809  30.934  1.00  0.00     0.037 A 
BRANCH  48  62
ATOM     62  C   UNL A   1      36.603  32.684  31.062  1.00  0.00     0.057 A 
ATOM     63  C   UNL A   1      35.996  33.714  30.323  1.00  0.00     0.134 A 
ATOM     64  C   UNL A   1      35.864  32.251  32.180  1.00  0.00     0.134 A 
ATOM     65  F   UNL A   1      36.528  34.172  29.183  1.00  0.00    -0.206 F 
ATOM     66  C   UNL A   1      34.800  34.329  30.716  1.00  0.00     0.040 A 
ATOM     67  C   UNL A   1      34.693  32.890  32.613  1.00  0.00     0.040 A 
ATOM     68  F   UNL A   1      36.224  31.161  32.874  1.00  0.00    -0.206 F 
ATOM     69  C   UNL A   1      34.160  33.941  31.883  1.00  0.00     0.006 A 
ENDBRANCH  48  62
BRANCH  49  70
ATOM     70  C   UNL A   1      44.545  27.321  29.066  1.00  0.00     0.057 A 
ATOM     71  C   UNL A   1      45.035  26.038  29.383  1.00  0.00     0.134 A 
ATOM     72  C   UNL A   1      44.092  27.511  27.751  1.00  0.00     0.134 A 
ATOM     73  F   UNL A   1      45.467  25.772  30.626  1.00  0.00    -0.206 F 
ATOM     74  C   UNL A   1      44.962  24.967  28.483  1.00  0.00     0.040 A 
ATOM     75  C   UNL A   1      44.021  26.445  26.841  1.00  0.00     0.040 A 
ATOM     76  F   UNL A   1      43.579  28.689  27.370  1.00  0.00    -0.206 F 
ATOM     77  C   UNL A   1      44.417  25.162  27.219  1.00  0.00     0.006 A 
ENDBRANCH  49  70
BRANCH  61  78
ATOM     78  C   UNL A   1      43.062  34.257  30.679  1.00  0.00     0.057 A 
ATOM     79  C   UNL A   1      43.059  34.803  29.388  1.00  0.00     0.134 A 
ATOM     80  C   UNL A   1      43.510  35.126  31.696  1.00  0.00     0.134 A 
ATOM     81  F   UNL A   1      42.759  34.051  28.318  1.00  0.00    -0.206 F 
ATOM     82  C   UNL A   1      43.395  36.139  29.139  1.00  0.00     0.040 A 
ATOM     83  C   UNL A   1      43.902  36.443  31.452  1.00  0.00     0.040 A 
ATOM     84  F   UNL A   1      43.571  34.755  32.982  1.00  0.00    -0.206 F 
ATOM     85  C   UNL A   1      43.823  36.963  30.172  1.00  0.00     0.006 A 
ENDBRANCH  61  78
ENDBRANCH  35  36
ENDBRANCH  27  30
ENDBRANCH  25  26
ENDBRANCH  24  25
ENDBRANCH   1  24
TORSDOF 15
ENDMDL
