MODEL 1
REMARK VINA RESULT:     -12.7      0.000      0.000
REMARK SMILES O=C(NCCCCNC(=O)[C@@H](Cc1ccccc1)N1C(=O)/C(=C/c2ccncc2)SC1=S)c1ccc(-c2c3nc(c(-c4c(F)cccc4F)c4ccc([nH]4)c(-c4c(F)cccc4F)c4nc(c(-c5c(F)cccc5F)c5ccc2[nH]5)C=C4)C=C3)cc1
REMARK SMILES IDX 5 1 4 2 3 3 1 4 2 5 33 7 34 8 86 9 35 10 85 11 36 12 37 13
REMARK SMILES IDX 38 14 79 15 39 16 84 17 78 18 80 19 40 20 83 21 77 22 76 23
REMARK SMILES IDX 41 25 67 26 50 27 66 28 51 29 54 30 65 31 81 32 52 33 53 34
REMARK SMILES IDX 64 36 82 37 55 38 42 39 43 40 48 41 44 42 45 43 47 44 49 45
REMARK SMILES IDX 46 46 68 47 69 48 74 49 70 50 71 51 73 52 75 53 72 54 56 55
REMARK SMILES IDX 57 56 62 57 58 58 59 59 61 60 63 61 60 62 6 63 7 64 8 65
REMARK SMILES IDX 9 66 10 68 11 69 12 70 13 71 14 72 18 73 15 74 17 75 16 76
REMARK SMILES IDX 19 77 20 78 31 79 21 80 22 81 30 82 32 83 23 84 24 85 25 86
REMARK SMILES IDX 29 87 26 88 28 89 27 90
REMARK H PARENT 3 6 80 24 54 35 8 67
REMARK Flexibility Score: inf
ROOT
ATOM      1  C   UNL A   1      31.403  29.646  26.360  1.00  0.00     0.023 C 
ENDROOT
BRANCH   1   2
ATOM      2  C   UNL A   1      32.466  30.708  26.120  1.00  0.00     0.116 C 
BRANCH   2   3
ATOM      3  N   UNL A   1      32.196  31.991  26.759  1.00  0.00    -0.352 N 
ATOM      4  O   UNL A   1      32.663  33.791  28.056  1.00  0.00    -0.269 OA
ATOM      5  C   UNL A   1      33.037  32.749  27.555  1.00  0.00     0.251 C 
ATOM      6  H   UNL A   1      31.300  32.368  26.604  1.00  0.00     0.163 HD
BRANCH   5   7
ATOM      7  C   UNL A   1      34.392  32.215  27.840  1.00  0.00     0.039 A 
ATOM      8  C   UNL A   1      34.570  30.853  28.069  1.00  0.00     0.014 A 
ATOM      9  C   UNL A   1      35.447  33.111  28.034  1.00  0.00     0.014 A 
ATOM     10  C   UNL A   1      35.715  30.423  28.726  1.00  0.00     0.010 A 
ATOM     11  C   UNL A   1      36.647  32.650  28.587  1.00  0.00     0.010 A 
ATOM     12  C   UNL A   1      36.762  31.318  29.011  1.00  0.00    -0.014 A 
BRANCH  12  13
ATOM     13  C   UNL A   1      37.941  30.828  29.777  1.00  0.00     0.031 A 
ATOM     14  C   UNL A   1      38.106  31.130  31.246  1.00  0.00     0.074 A 
ATOM     15  C   UNL A   1      38.829  30.023  29.160  1.00  0.00     0.049 A 
ATOM     16  N   UNL A   1      39.052  30.740  32.067  1.00  0.00    -0.248 NA
ATOM     17  C   UNL A   1      37.091  31.988  31.878  1.00  0.00     0.031 C 
ATOM     18  C   UNL A   1      38.782  29.651  27.743  1.00  0.00     0.029 A 
ATOM     19  N   UNL A   1      39.910  29.338  29.647  1.00  0.00    -0.354 N 
ATOM     20  C   UNL A   1      38.774  31.342  33.288  1.00  0.00     0.074 A 
ATOM     21  C   UNL A   1      37.573  32.127  33.106  1.00  0.00     0.031 C 
ATOM     22  C   UNL A   1      39.729  28.735  27.499  1.00  0.00     0.029 A 
ATOM     23  C   UNL A   1      40.499  28.515  28.717  1.00  0.00     0.049 A 
ATOM     24  H   UNL A   1      40.235  29.426  30.572  1.00  0.00     0.167 HD
ATOM     25  C   UNL A   1      39.457  31.248  34.455  1.00  0.00     0.037 A 
ATOM     26  C   UNL A   1      41.544  27.676  28.827  1.00  0.00     0.037 A 
ATOM     27  C   UNL A   1      40.618  30.420  34.657  1.00  0.00     0.049 A 
ATOM     28  C   UNL A   1      42.264  27.569  30.137  1.00  0.00     0.074 A 
ATOM     29  C   UNL A   1      41.352  30.227  35.815  1.00  0.00     0.029 A 
ATOM     30  N   UNL A   1      41.208  29.636  33.677  1.00  0.00    -0.354 N 
ATOM     31  N   UNL A   1      41.992  28.153  31.277  1.00  0.00    -0.248 NA
ATOM     32  C   UNL A   1      43.447  26.699  30.169  1.00  0.00     0.031 C 
ATOM     33  C   UNL A   1      42.402  29.348  35.530  1.00  0.00     0.029 A 
ATOM     34  C   UNL A   1      42.304  28.970  34.202  1.00  0.00     0.049 A 
ATOM     35  H   UNL A   1      40.895  29.564  32.746  1.00  0.00     0.167 HD
ATOM     36  C   UNL A   1      42.969  27.725  32.163  1.00  0.00     0.074 A 
ATOM     37  C   UNL A   1      43.824  26.809  31.435  1.00  0.00     0.031 C 
ATOM     38  C   UNL A   1      43.147  28.067  33.461  1.00  0.00     0.037 A 
BRANCH  25  39
ATOM     39  C   UNL A   1      38.983  32.081  35.610  1.00  0.00     0.057 A 
ATOM     40  C   UNL A   1      38.190  31.551  36.637  1.00  0.00     0.134 A 
ATOM     41  C   UNL A   1      39.370  33.423  35.720  1.00  0.00     0.134 A 
ATOM     42  F   UNL A   1      37.775  30.276  36.585  1.00  0.00    -0.206 F 
ATOM     43  C   UNL A   1      37.787  32.331  37.723  1.00  0.00     0.040 A 
ATOM     44  C   UNL A   1      38.989  34.207  36.812  1.00  0.00     0.040 A 
ATOM     45  F   UNL A   1      40.134  33.990  34.775  1.00  0.00    -0.206 F 
ATOM     46  C   UNL A   1      38.192  33.661  37.815  1.00  0.00     0.006 A 
ENDBRANCH  25  39
BRANCH  26  47
ATOM     47  C   UNL A   1      41.963  26.872  27.655  1.00  0.00     0.057 A 
ATOM     48  C   UNL A   1      41.497  25.566  27.476  1.00  0.00     0.134 A 
ATOM     49  C   UNL A   1      42.806  27.400  26.671  1.00  0.00     0.134 A 
ATOM     50  F   UNL A   1      40.698  25.002  28.394  1.00  0.00    -0.206 F 
ATOM     51  C   UNL A   1      41.856  24.810  26.359  1.00  0.00     0.040 A 
ATOM     52  C   UNL A   1      43.155  26.666  25.538  1.00  0.00     0.040 A 
ATOM     53  F   UNL A   1      43.279  28.651  26.785  1.00  0.00    -0.206 F 
ATOM     54  C   UNL A   1      42.681  25.365  25.382  1.00  0.00     0.006 A 
ENDBRANCH  26  47
BRANCH  38  55
ATOM     55  C   UNL A   1      44.305  27.437  34.170  1.00  0.00     0.057 A 
ATOM     56  C   UNL A   1      45.557  28.062  34.225  1.00  0.00     0.134 A 
ATOM     57  C   UNL A   1      44.167  26.199  34.809  1.00  0.00     0.134 A 
ATOM     58  F   UNL A   1      45.755  29.242  33.619  1.00  0.00    -0.206 F 
ATOM     59  C   UNL A   1      46.640  27.465  34.872  1.00  0.00     0.040 A 
ATOM     60  C   UNL A   1      45.237  25.601  35.475  1.00  0.00     0.040 A 
ATOM     61  F   UNL A   1      42.991  25.552  34.794  1.00  0.00    -0.206 F 
ATOM     62  C   UNL A   1      46.480  26.232  35.501  1.00  0.00     0.006 A 
ENDBRANCH  38  55
ENDBRANCH  12  13
ENDBRANCH   5   7
ENDBRANCH   2   3
ENDBRANCH   1   2
BRANCH   1  63
ATOM     63  C   UNL A   1      31.678  28.747  27.554  1.00  0.00     0.023 C 
BRANCH  63  64
ATOM     64  C   UNL A   1      32.440  27.464  27.222  1.00  0.00     0.116 C 
BRANCH  64  65
ATOM     65  N   UNL A   1      31.542  26.332  27.165  1.00  0.00    -0.354 N 
ATOM     66  C   UNL A   1      31.176  25.523  26.142  1.00  0.00     0.243 C 
ATOM     67  H   UNL A   1      31.120  26.110  28.026  1.00  0.00     0.163 HD
ATOM     68  O   UNL A   1      30.376  24.619  26.419  1.00  0.00    -0.273 OA
BRANCH  66  69
ATOM     69  C   UNL A   1      31.624  25.712  24.672  1.00  0.00     0.185 C 
BRANCH  69  70
ATOM     70  C   UNL A   1      31.380  24.360  23.908  1.00  0.00     0.071 C 
BRANCH  70  71
ATOM     71  C   UNL A   1      32.247  23.120  24.070  1.00  0.00    -0.045 A 
ATOM     72  C   UNL A   1      31.777  21.798  24.055  1.00  0.00     0.004 A 
ATOM     73  C   UNL A   1      33.641  23.306  24.155  1.00  0.00     0.004 A 
ATOM     74  C   UNL A   1      32.653  20.712  24.181  1.00  0.00     0.000 A 
ATOM     75  C   UNL A   1      34.518  22.222  24.280  1.00  0.00     0.000 A 
ATOM     76  C   UNL A   1      34.022  20.924  24.301  1.00  0.00     0.000 A 
ENDBRANCH  70  71
ENDBRANCH  69  70
BRANCH  69  77
ATOM     77  N   UNL A   1      31.351  26.957  23.912  1.00  0.00    -0.280 N 
ATOM     78  C   UNL A   1      30.018  27.348  23.822  1.00  0.00     0.266 C 
ATOM     79  C   UNL A   1      32.165  27.583  22.986  1.00  0.00     0.149 C 
ATOM     80  O   UNL A   1      29.048  26.726  24.231  1.00  0.00    -0.268 OA
ATOM     81  C   UNL A   1      29.882  28.630  23.090  1.00  0.00     0.081 C 
ATOM     82  S   UNL A   1      31.378  29.049  22.388  1.00  0.00    -0.054 SA
ATOM     83  S   UNL A   1      33.669  27.171  22.399  1.00  0.00    -0.052 S 
ATOM     84  C   UNL A   1      28.724  29.303  23.079  1.00  0.00     0.029 C 
BRANCH  84  85
ATOM     85  C   UNL A   1      28.476  30.597  22.438  1.00  0.00    -0.021 A 
ATOM     86  C   UNL A   1      28.115  30.695  21.095  1.00  0.00     0.028 A 
ATOM     87  C   UNL A   1      28.559  31.762  23.202  1.00  0.00     0.028 A 
ATOM     88  C   UNL A   1      27.881  31.954  20.568  1.00  0.00     0.111 A 
ATOM     89  C   UNL A   1      28.304  32.975  22.584  1.00  0.00     0.111 A 
ATOM     90  N   UNL A   1      27.970  33.097  21.282  1.00  0.00    -0.265 NA
ENDBRANCH  84  85
ENDBRANCH  69  77
ENDBRANCH  66  69
ENDBRANCH  64  65
ENDBRANCH  63  64
ENDBRANCH   1  63
TORSDOF 15
ENDMDL
MODEL 2
REMARK VINA RESULT:     -12.6      4.332      8.834
REMARK SMILES O=C(NCCCCNC(=O)[C@@H](Cc1ccccc1)N1C(=O)/C(=C/c2ccncc2)SC1=S)c1ccc(-c2c3nc(c(-c4c(F)cccc4F)c4ccc([nH]4)c(-c4c(F)cccc4F)c4nc(c(-c5c(F)cccc5F)c5ccc2[nH]5)C=C4)C=C3)cc1
REMARK SMILES IDX 5 1 4 2 3 3 1 4 2 5 33 7 34 8 86 9 35 10 85 11 36 12 37 13
REMARK SMILES IDX 38 14 79 15 39 16 84 17 78 18 80 19 40 20 83 21 77 22 76 23
REMARK SMILES IDX 41 25 67 26 50 27 66 28 51 29 54 30 65 31 81 32 52 33 53 34
REMARK SMILES IDX 64 36 82 37 55 38 42 39 43 40 48 41 44 42 45 43 47 44 49 45
REMARK SMILES IDX 46 46 68 47 69 48 74 49 70 50 71 51 73 52 75 53 72 54 56 55
REMARK SMILES IDX 57 56 62 57 58 58 59 59 61 60 63 61 60 62 6 63 7 64 8 65
REMARK SMILES IDX 9 66 10 68 11 69 12 70 13 71 14 72 18 73 15 74 17 75 16 76
REMARK SMILES IDX 19 77 20 78 31 79 21 80 22 81 30 82 32 83 23 84 24 85 25 86
REMARK SMILES IDX 29 87 26 88 28 89 27 90
REMARK H PARENT 3 6 80 24 54 35 8 67
REMARK Flexibility Score: inf
ROOT
ATOM      1  C   UNL A   1      38.095  19.607  24.609  1.00  0.00     0.023 C 
ENDROOT
BRANCH   1   2
ATOM      2  C   UNL A   1      38.865  19.361  25.899  1.00  0.00     0.116 C 
BRANCH   2   3
ATOM      3  N   UNL A   1      40.219  18.855  25.710  1.00  0.00    -0.352 N 
ATOM      4  O   UNL A   1      42.484  18.944  25.765  1.00  0.00    -0.269 OA
ATOM      5  C   UNL A   1      41.420  19.474  26.013  1.00  0.00     0.251 C 
ATOM      6  H   UNL A   1      40.290  17.956  25.316  1.00  0.00     0.163 HD
BRANCH   5   7
ATOM      7  C   UNL A   1      41.370  20.841  26.588  1.00  0.00     0.039 A 
ATOM      8  C   UNL A   1      41.341  21.950  25.746  1.00  0.00     0.014 A 
ATOM      9  C   UNL A   1      41.516  21.002  27.969  1.00  0.00     0.014 A 
ATOM     10  C   UNL A   1      41.708  23.190  26.252  1.00  0.00     0.010 A 
ATOM     11  C   UNL A   1      41.766  22.276  28.489  1.00  0.00     0.010 A 
ATOM     12  C   UNL A   1      41.943  23.369  27.627  1.00  0.00    -0.014 A 
BRANCH  12  13
ATOM     13  C   UNL A   1      42.399  24.699  28.114  1.00  0.00     0.031 A 
ATOM     14  C   UNL A   1      43.863  25.065  28.149  1.00  0.00     0.074 A 
ATOM     15  C   UNL A   1      41.475  25.622  28.444  1.00  0.00     0.049 A 
ATOM     16  N   UNL A   1      44.420  26.198  28.504  1.00  0.00    -0.248 NA
ATOM     17  C   UNL A   1      44.828  24.029  27.749  1.00  0.00     0.031 C 
ATOM     18  C   UNL A   1      40.027  25.397  28.449  1.00  0.00     0.029 A 
ATOM     19  N   UNL A   1      41.606  26.941  28.791  1.00  0.00    -0.354 N 
ATOM     20  C   UNL A   1      45.793  25.994  28.418  1.00  0.00     0.074 A 
ATOM     21  C   UNL A   1      45.988  24.629  27.980  1.00  0.00     0.031 C 
ATOM     22  C   UNL A   1      39.403  26.558  28.691  1.00  0.00     0.029 A 
ATOM     23  C   UNL A   1      40.403  27.591  28.934  1.00  0.00     0.049 A 
ATOM     24  H   UNL A   1      42.476  27.381  28.925  1.00  0.00     0.167 HD
ATOM     25  C   UNL A   1      46.798  26.866  28.678  1.00  0.00     0.037 A 
ATOM     26  C   UNL A   1      40.130  28.873  29.232  1.00  0.00     0.037 A 
ATOM     27  C   UNL A   1      46.606  28.243  29.056  1.00  0.00     0.049 A 
ATOM     28  C   UNL A   1      41.260  29.823  29.487  1.00  0.00     0.074 A 
ATOM     29  C   UNL A   1      47.564  29.213  29.299  1.00  0.00     0.029 A 
ATOM     30  N   UNL A   1      45.372  28.849  29.233  1.00  0.00    -0.354 N 
ATOM     31  N   UNL A   1      42.550  29.609  29.410  1.00  0.00    -0.248 NA
ATOM     32  C   UNL A   1      40.895  31.188  29.888  1.00  0.00     0.031 C 
ATOM     33  C   UNL A   1      46.910  30.399  29.650  1.00  0.00     0.029 A 
ATOM     34  C   UNL A   1      45.544  30.175  29.596  1.00  0.00     0.049 A 
ATOM     35  H   UNL A   1      44.502  28.402  29.119  1.00  0.00     0.167 HD
ATOM     36  C   UNL A   1      43.153  30.810  29.754  1.00  0.00     0.074 A 
ATOM     37  C   UNL A   1      42.086  31.756  30.013  1.00  0.00     0.031 C 
ATOM     38  C   UNL A   1      44.472  31.100  29.855  1.00  0.00     0.037 A 
BRANCH  25  39
ATOM     39  C   UNL A   1      48.206  26.354  28.588  1.00  0.00     0.057 A 
ATOM     40  C   UNL A   1      48.987  26.518  27.438  1.00  0.00     0.134 A 
ATOM     41  C   UNL A   1      48.804  25.731  29.692  1.00  0.00     0.134 A 
ATOM     42  F   UNL A   1      48.471  27.095  26.342  1.00  0.00    -0.206 F 
ATOM     43  C   UNL A   1      50.308  26.068  27.383  1.00  0.00     0.040 A 
ATOM     44  C   UNL A   1      50.130  25.295  29.656  1.00  0.00     0.040 A 
ATOM     45  F   UNL A   1      48.113  25.550  30.827  1.00  0.00    -0.206 F 
ATOM     46  C   UNL A   1      50.885  25.460  28.497  1.00  0.00     0.006 A 
ENDBRANCH  25  39
BRANCH  26  47
ATOM     47  C   UNL A   1      38.720  29.324  29.299  1.00  0.00     0.057 A 
ATOM     48  C   UNL A   1      38.040  29.731  28.146  1.00  0.00     0.134 A 
ATOM     49  C   UNL A   1      38.011  29.325  30.505  1.00  0.00     0.134 A 
ATOM     50  F   UNL A   1      38.674  29.765  26.965  1.00  0.00    -0.206 F 
ATOM     51  C   UNL A   1      36.702  30.125  28.191  1.00  0.00     0.040 A 
ATOM     52  C   UNL A   1      36.667  29.694  30.560  1.00  0.00     0.040 A 
ATOM     53  F   UNL A   1      38.608  28.938  31.642  1.00  0.00    -0.206 F 
ATOM     54  C   UNL A   1      36.010  30.099  29.400  1.00  0.00     0.006 A 
ENDBRANCH  26  47
BRANCH  38  55
ATOM     55  C   UNL A   1      44.825  32.499  30.253  1.00  0.00     0.057 A 
ATOM     56  C   UNL A   1      44.976  33.515  29.301  1.00  0.00     0.134 A 
ATOM     57  C   UNL A   1      45.010  32.836  31.599  1.00  0.00     0.134 A 
ATOM     58  F   UNL A   1      44.827  33.250  27.994  1.00  0.00    -0.206 F 
ATOM     59  C   UNL A   1      45.322  34.815  29.674  1.00  0.00     0.040 A 
ATOM     60  C   UNL A   1      45.338  34.135  31.986  1.00  0.00     0.040 A 
ATOM     61  F   UNL A   1      44.876  31.906  32.558  1.00  0.00    -0.206 F 
ATOM     62  C   UNL A   1      45.501  35.127  31.020  1.00  0.00     0.006 A 
ENDBRANCH  38  55
ENDBRANCH  12  13
ENDBRANCH   5   7
ENDBRANCH   2   3
ENDBRANCH   1   2
BRANCH   1  63
ATOM     63  C   UNL A   1      36.593  19.743  24.796  1.00  0.00     0.023 C 
BRANCH  63  64
ATOM     64  C   UNL A   1      36.128  21.139  25.209  1.00  0.00     0.116 C 
BRANCH  64  65
ATOM     65  N   UNL A   1      35.339  21.081  26.418  1.00  0.00    -0.354 N 
ATOM     66  C   UNL A   1      34.056  21.436  26.674  1.00  0.00     0.243 C 
ATOM     67  H   UNL A   1      35.820  20.719  27.196  1.00  0.00     0.163 HD
ATOM     68  O   UNL A   1      33.661  21.256  27.834  1.00  0.00    -0.273 OA
BRANCH  66  69
ATOM     69  C   UNL A   1      33.112  22.111  25.651  1.00  0.00     0.185 C 
BRANCH  69  70
ATOM     70  C   UNL A   1      32.109  21.024  25.117  1.00  0.00     0.071 C 
BRANCH  70  71
ATOM     71  C   UNL A   1      32.525  19.639  24.643  1.00  0.00    -0.045 A 
ATOM     72  C   UNL A   1      32.871  18.569  25.482  1.00  0.00     0.004 A 
ATOM     73  C   UNL A   1      32.478  19.382  23.259  1.00  0.00     0.004 A 
ATOM     74  C   UNL A   1      33.213  17.315  24.959  1.00  0.00     0.000 A 
ATOM     75  C   UNL A   1      32.818  18.129  22.735  1.00  0.00     0.000 A 
ATOM     76  C   UNL A   1      33.194  17.098  23.586  1.00  0.00     0.000 A 
ENDBRANCH  70  71
ENDBRANCH  69  70
BRANCH  69  77
ATOM     77  N   UNL A   1      32.559  23.473  25.857  1.00  0.00    -0.280 N 
ATOM     78  C   UNL A   1      33.482  24.513  25.921  1.00  0.00     0.266 C 
ATOM     79  C   UNL A   1      31.315  23.819  26.351  1.00  0.00     0.149 C 
ATOM     80  O   UNL A   1      34.700  24.407  25.910  1.00  0.00    -0.268 OA
ATOM     81  C   UNL A   1      32.806  25.823  26.072  1.00  0.00     0.081 C 
ATOM     82  S   UNL A   1      31.146  25.579  26.375  1.00  0.00    -0.054 SA
ATOM     83  S   UNL A   1      30.053  22.875  26.891  1.00  0.00    -0.052 S 
ATOM     84  C   UNL A   1      33.479  26.972  25.929  1.00  0.00     0.029 C 
BRANCH  84  85
ATOM     85  C   UNL A   1      32.920  28.325  26.004  1.00  0.00    -0.021 A 
ATOM     86  C   UNL A   1      32.022  28.802  25.052  1.00  0.00     0.028 A 
ATOM     87  C   UNL A   1      33.262  29.143  27.082  1.00  0.00     0.028 A 
ATOM     88  C   UNL A   1      31.525  30.087  25.203  1.00  0.00     0.111 A 
ATOM     89  C   UNL A   1      32.711  30.412  27.145  1.00  0.00     0.111 A 
ATOM     90  N   UNL A   1      31.852  30.903  26.228  1.00  0.00    -0.265 NA
ENDBRANCH  84  85
ENDBRANCH  69  77
ENDBRANCH  66  69
ENDBRANCH  64  65
ENDBRANCH  63  64
ENDBRANCH   1  63
TORSDOF 15
ENDMDL
MODEL 3
REMARK VINA RESULT:     -12.6      3.954      8.298
REMARK SMILES O=C(NCCCCNC(=O)[C@@H](Cc1ccccc1)N1C(=O)/C(=C/c2ccncc2)SC1=S)c1ccc(-c2c3nc(c(-c4c(F)cccc4F)c4ccc([nH]4)c(-c4c(F)cccc4F)c4nc(c(-c5c(F)cccc5F)c5ccc2[nH]5)C=C4)C=C3)cc1
REMARK SMILES IDX 5 1 4 2 3 3 1 4 2 5 33 7 34 8 86 9 35 10 85 11 36 12 37 13
REMARK SMILES IDX 38 14 79 15 39 16 84 17 78 18 80 19 40 20 83 21 77 22 76 23
REMARK SMILES IDX 41 25 67 26 50 27 66 28 51 29 54 30 65 31 81 32 52 33 53 34
REMARK SMILES IDX 64 36 82 37 55 38 42 39 43 40 48 41 44 42 45 43 47 44 49 45
REMARK SMILES IDX 46 46 68 47 69 48 74 49 70 50 71 51 73 52 75 53 72 54 56 55
REMARK SMILES IDX 57 56 62 57 58 58 59 59 61 60 63 61 60 62 6 63 7 64 8 65
REMARK SMILES IDX 9 66 10 68 11 69 12 70 13 71 14 72 18 73 15 74 17 75 16 76
REMARK SMILES IDX 19 77 20 78 31 79 21 80 22 81 30 82 32 83 23 84 24 85 25 86
REMARK SMILES IDX 29 87 26 88 28 89 27 90
REMARK H PARENT 3 6 80 24 54 35 8 67
REMARK Flexibility Score: inf
ROOT
ATOM      1  C   UNL A   1      37.349  21.420  25.048  1.00  0.00     0.023 C 
ENDROOT
BRANCH   1   2
ATOM      2  C   UNL A   1      38.693  21.404  25.761  1.00  0.00     0.116 C 
BRANCH   2   3
ATOM      3  N   UNL A   1      39.460  20.176  25.583  1.00  0.00    -0.352 N 
ATOM      4  O   UNL A   1      41.306  18.862  25.673  1.00  0.00    -0.269 OA
ATOM      5  C   UNL A   1      40.781  19.931  25.915  1.00  0.00     0.251 C 
ATOM      6  H   UNL A   1      38.976  19.423  25.174  1.00  0.00     0.163 HD
BRANCH   5   7
ATOM      7  C   UNL A   1      41.564  21.040  26.514  1.00  0.00     0.039 A 
ATOM      8  C   UNL A   1      41.652  21.162  27.899  1.00  0.00     0.014 A 
ATOM      9  C   UNL A   1      42.070  22.041  25.680  1.00  0.00     0.014 A 
ATOM     10  C   UNL A   1      42.013  22.387  28.446  1.00  0.00     0.010 A 
ATOM     11  C   UNL A   1      42.547  23.230  26.244  1.00  0.00     0.010 A 
ATOM     12  C   UNL A   1      42.448  23.443  27.627  1.00  0.00    -0.014 A 
BRANCH  12  13
ATOM     13  C   UNL A   1      42.760  24.758  28.252  1.00  0.00     0.031 A 
ATOM     14  C   UNL A   1      44.182  25.171  28.547  1.00  0.00     0.074 A 
ATOM     15  C   UNL A   1      41.755  25.628  28.473  1.00  0.00     0.049 A 
ATOM     16  N   UNL A   1      44.624  26.300  29.047  1.00  0.00    -0.248 NA
ATOM     17  C   UNL A   1      45.244  24.195  28.258  1.00  0.00     0.031 C 
ATOM     18  C   UNL A   1      40.337  25.353  28.228  1.00  0.00     0.029 A 
ATOM     19  N   UNL A   1      41.770  26.928  28.905  1.00  0.00    -0.354 N 
ATOM     20  C   UNL A   1      46.000  26.150  29.178  1.00  0.00     0.074 A 
ATOM     21  C   UNL A   1      46.323  24.820  28.708  1.00  0.00     0.031 C 
ATOM     22  C   UNL A   1      39.632  26.476  28.423  1.00  0.00     0.029 A 
ATOM     23  C   UNL A   1      40.533  27.525  28.882  1.00  0.00     0.049 A 
ATOM     24  H   UNL A   1      42.587  27.389  29.203  1.00  0.00     0.167 HD
ATOM     25  C   UNL A   1      46.910  27.039  29.646  1.00  0.00     0.037 A 
ATOM     26  C   UNL A   1      40.159  28.778  29.197  1.00  0.00     0.037 A 
ATOM     27  C   UNL A   1      46.600  28.383  30.058  1.00  0.00     0.049 A 
ATOM     28  C   UNL A   1      41.191  29.750  29.684  1.00  0.00     0.074 A 
ATOM     29  C   UNL A   1      47.462  29.370  30.506  1.00  0.00     0.029 A 
ATOM     30  N   UNL A   1      45.328  28.935  30.061  1.00  0.00    -0.354 N 
ATOM     31  N   UNL A   1      42.484  29.586  29.810  1.00  0.00    -0.248 NA
ATOM     32  C   UNL A   1      40.706  31.076  30.090  1.00  0.00     0.031 C 
ATOM     33  C   UNL A   1      46.708  30.510  30.806  1.00  0.00     0.029 A 
ATOM     34  C   UNL A   1      45.380  30.243  30.515  1.00  0.00     0.049 A 
ATOM     35  H   UNL A   1      44.508  28.466  29.781  1.00  0.00     0.167 HD
ATOM     36  C   UNL A   1      42.969  30.785  30.310  1.00  0.00     0.074 A 
ATOM     37  C   UNL A   1      41.835  31.676  30.439  1.00  0.00     0.031 C 
ATOM     38  C   UNL A   1      44.241  31.113  30.642  1.00  0.00     0.037 A 
BRANCH  25  39
ATOM     39  C   UNL A   1      48.335  26.582  29.762  1.00  0.00     0.057 A 
ATOM     40  C   UNL A   1      49.285  26.841  28.767  1.00  0.00     0.134 A 
ATOM     41  C   UNL A   1      48.772  25.916  30.915  1.00  0.00     0.134 A 
ATOM     42  F   UNL A   1      48.929  27.464  27.633  1.00  0.00    -0.206 F 
ATOM     43  C   UNL A   1      50.616  26.440  28.907  1.00  0.00     0.040 A 
ATOM     44  C   UNL A   1      50.104  25.528  31.075  1.00  0.00     0.040 A 
ATOM     45  F   UNL A   1      47.914  25.643  31.909  1.00  0.00    -0.206 F 
ATOM     46  C   UNL A   1      51.029  25.788  30.067  1.00  0.00     0.006 A 
ENDBRANCH  25  39
BRANCH  26  47
ATOM     47  C   UNL A   1      38.739  29.175  29.054  1.00  0.00     0.057 A 
ATOM     48  C   UNL A   1      38.227  29.578  27.816  1.00  0.00     0.134 A 
ATOM     49  C   UNL A   1      37.856  29.128  30.138  1.00  0.00     0.134 A 
ATOM     50  F   UNL A   1      39.030  29.657  26.746  1.00  0.00    -0.206 F 
ATOM     51  C   UNL A   1      36.883  29.922  27.662  1.00  0.00     0.040 A 
ATOM     52  C   UNL A   1      36.506  29.446  29.993  1.00  0.00     0.040 A 
ATOM     53  F   UNL A   1      38.289  28.742  31.348  1.00  0.00    -0.206 F 
ATOM     54  C   UNL A   1      36.017  29.847  28.751  1.00  0.00     0.006 A 
ENDBRANCH  26  47
BRANCH  38  55
ATOM     55  C   UNL A   1      44.463  32.498  31.166  1.00  0.00     0.057 A 
ATOM     56  C   UNL A   1      44.415  32.778  32.538  1.00  0.00     0.134 A 
ATOM     57  C   UNL A   1      44.732  33.559  30.294  1.00  0.00     0.134 A 
ATOM     58  F   UNL A   1      44.146  31.805  33.421  1.00  0.00    -0.206 F 
ATOM     59  C   UNL A   1      44.605  34.073  33.022  1.00  0.00     0.040 A 
ATOM     60  C   UNL A   1      44.942  34.855  30.768  1.00  0.00     0.040 A 
ATOM     61  F   UNL A   1      44.793  33.354  28.969  1.00  0.00    -0.206 F 
ATOM     62  C   UNL A   1      44.872  35.114  32.136  1.00  0.00     0.006 A 
ENDBRANCH  38  55
ENDBRANCH  12  13
ENDBRANCH   5   7
ENDBRANCH   2   3
ENDBRANCH   1   2
BRANCH   1  63
ATOM     63  C   UNL A   1      36.979  22.765  24.446  1.00  0.00     0.023 C 
BRANCH  63  64
ATOM     64  C   UNL A   1      36.258  23.714  25.404  1.00  0.00     0.116 C 
BRANCH  64  65
ATOM     65  N   UNL A   1      35.461  22.975  26.356  1.00  0.00    -0.354 N 
ATOM     66  C   UNL A   1      34.307  22.278  26.216  1.00  0.00     0.243 C 
ATOM     67  H   UNL A   1      35.820  22.980  27.272  1.00  0.00     0.163 HD
ATOM     68  O   UNL A   1      33.866  21.741  27.241  1.00  0.00    -0.273 OA
BRANCH  66  69
ATOM     69  C   UNL A   1      33.491  22.189  24.905  1.00  0.00     0.185 C 
BRANCH  69  70
ATOM     70  C   UNL A   1      32.598  20.895  24.970  1.00  0.00     0.071 C 
BRANCH  70  71
ATOM     71  C   UNL A   1      32.946  19.585  24.279  1.00  0.00    -0.045 A 
ATOM     72  C   UNL A   1      32.270  19.052  23.171  1.00  0.00     0.004 A 
ATOM     73  C   UNL A   1      34.086  18.892  24.730  1.00  0.00     0.004 A 
ATOM     74  C   UNL A   1      32.678  17.850  22.577  1.00  0.00     0.000 A 
ATOM     75  C   UNL A   1      34.497  17.692  24.138  1.00  0.00     0.000 A 
ATOM     76  C   UNL A   1      33.786  17.167  23.065  1.00  0.00     0.000 A 
ENDBRANCH  70  71
ENDBRANCH  69  70
BRANCH  69  77
ATOM     77  N   UNL A   1      32.877  23.381  24.267  1.00  0.00    -0.280 N 
ATOM     78  C   UNL A   1      31.966  24.095  25.039  1.00  0.00     0.266 C 
ATOM     79  C   UNL A   1      32.800  23.677  22.919  1.00  0.00     0.149 C 
ATOM     80  O   UNL A   1      31.559  23.792  26.152  1.00  0.00    -0.268 OA
ATOM     81  C   UNL A   1      31.469  25.290  24.315  1.00  0.00     0.081 C 
ATOM     82  S   UNL A   1      31.988  25.232  22.692  1.00  0.00    -0.054 SA
ATOM     83  S   UNL A   1      33.322  22.831  21.582  1.00  0.00    -0.052 S 
ATOM     84  C   UNL A   1      30.762  26.238  24.944  1.00  0.00     0.029 C 
BRANCH  84  85
ATOM     85  C   UNL A   1      30.258  27.482  24.357  1.00  0.00    -0.021 A 
ATOM     86  C   UNL A   1      30.921  28.696  24.528  1.00  0.00     0.028 A 
ATOM     87  C   UNL A   1      29.107  27.446  23.568  1.00  0.00     0.028 A 
ATOM     88  C   UNL A   1      30.390  29.825  23.926  1.00  0.00     0.111 A 
ATOM     89  C   UNL A   1      28.656  28.629  23.008  1.00  0.00     0.111 A 
ATOM     90  N   UNL A   1      29.271  29.819  23.172  1.00  0.00    -0.265 NA
ENDBRANCH  84  85
ENDBRANCH  69  77
ENDBRANCH  66  69
ENDBRANCH  64  65
ENDBRANCH  63  64
ENDBRANCH   1  63
TORSDOF 15
ENDMDL
