MODEL 1
REMARK VINA RESULT:     -10.8      0.000      0.000
REMARK SMILES CSc1nc(C2CC2)nc(C)c1C(=O)NCCCCNC(=O)c1ccc(-c2c3nc(c(-c4c(F)cccc4F)c4ccc([nH]4)c(-c4c(F)cccc4F)c4nc(c(-c5c(F)cccc5F)c5ccc2[nH]5)C=C4)C=C3)cc1
REMARK SMILES IDX 18 1 17 2 16 3 15 4 13 5 14 6 12 8 3 9 4 10 5 11 10 12 9 13
REMARK SMILES IDX 11 14 2 15 1 16 6 17 7 18 8 19 19 20 20 21 21 22 22 24 23 25
REMARK SMILES IDX 24 26 76 27 25 28 75 29 26 30 27 31 28 32 69 33 29 34 74 35
REMARK SMILES IDX 68 36 70 37 30 38 73 39 67 40 66 41 31 43 57 44 40 45 56 46
REMARK SMILES IDX 41 47 44 48 55 49 71 50 42 51 43 52 54 54 72 55 45 56 32 57
REMARK SMILES IDX 33 58 38 59 34 60 35 61 37 62 39 63 36 64 58 65 59 66 64 67
REMARK SMILES IDX 60 68 61 69 63 70 65 71 62 72 46 73 47 74 52 75 48 76 49 77
REMARK SMILES IDX 51 78 53 79 50 80
REMARK H PARENT 15 7 20 23 70 42 44 53
REMARK Flexibility Score: inf
ROOT
ATOM      1  C   UNL A   1      37.335  21.683  24.718  1.00  0.00     0.023 C 
ENDROOT
BRANCH   1   2
ATOM      2  C   UNL A   1      37.262  23.130  24.241  1.00  0.00     0.023 C 
BRANCH   2   3
ATOM      3  C   UNL A   1      35.907  23.583  23.681  1.00  0.00     0.116 C 
BRANCH   3   4
ATOM      4  N   UNL A   1      35.107  24.107  24.765  1.00  0.00    -0.352 N 
ATOM      5  C   UNL A   1      33.884  23.755  25.277  1.00  0.00     0.255 C 
ATOM      6  O   UNL A   1      33.275  24.654  25.865  1.00  0.00    -0.269 OA
ATOM      7  H   UNL A   1      35.524  24.869  25.229  1.00  0.00     0.163 HD
BRANCH   5   8
ATOM      8  C   UNL A   1      33.247  22.415  25.223  1.00  0.00     0.093 A 
ATOM      9  C   UNL A   1      32.662  22.023  24.014  1.00  0.00     0.113 A 
ATOM     10  N   UNL A   1      32.347  20.739  23.705  1.00  0.00    -0.225 NA
ATOM     11  C   UNL A   1      32.627  19.792  24.604  1.00  0.00     0.133 A 
ATOM     12  C   UNL A   1      33.411  21.374  26.126  1.00  0.00     0.055 A 
ATOM     13  N   UNL A   1      33.087  20.090  25.823  1.00  0.00    -0.237 NA
ATOM     14  C   UNL A   1      33.988  21.459  27.495  1.00  0.00     0.068 C 
BRANCH   9  15
ATOM     15  S   UNL A   1      32.165  23.183  22.730  1.00  0.00    -0.109 SA
ATOM     16  C   UNL A   1      30.658  23.835  23.502  1.00  0.00     0.092 C 
ENDBRANCH   9  15
BRANCH  11  17
ATOM     17  C   UNL A   1      32.529  18.332  24.245  1.00  0.00     0.058 C 
ATOM     18  C   UNL A   1      32.751  17.818  22.844  1.00  0.00     0.012 C 
ATOM     19  C   UNL A   1      33.809  17.604  23.884  1.00  0.00     0.012 C 
ENDBRANCH  11  17
ENDBRANCH   5   8
ENDBRANCH   3   4
ENDBRANCH   2   3
ENDBRANCH   1   2
BRANCH   1  20
ATOM     20  C   UNL A   1      38.365  21.438  25.808  1.00  0.00     0.116 C 
BRANCH  20  21
ATOM     21  N   UNL A   1      39.110  20.195  25.639  1.00  0.00    -0.352 N 
ATOM     22  C   UNL A   1      40.422  19.950  25.968  1.00  0.00     0.251 C 
ATOM     23  H   UNL A   1      38.614  19.444  25.241  1.00  0.00     0.163 HD
ATOM     24  O   UNL A   1      40.950  18.872  25.721  1.00  0.00    -0.269 OA
BRANCH  22  25
ATOM     25  C   UNL A   1      41.199  21.046  26.572  1.00  0.00     0.039 A 
ATOM     26  C   UNL A   1      41.828  21.965  25.730  1.00  0.00     0.014 A 
ATOM     27  C   UNL A   1      41.177  21.234  27.956  1.00  0.00     0.014 A 
ATOM     28  C   UNL A   1      42.354  23.136  26.272  1.00  0.00     0.010 A 
ATOM     29  C   UNL A   1      41.640  22.431  28.485  1.00  0.00     0.010 A 
ATOM     30  C   UNL A   1      42.211  23.401  27.643  1.00  0.00    -0.014 A 
BRANCH  30  31
ATOM     31  C   UNL A   1      42.609  24.704  28.224  1.00  0.00     0.031 A 
ATOM     32  C   UNL A   1      41.579  25.774  28.434  1.00  0.00     0.074 A 
ATOM     33  C   UNL A   1      43.911  24.954  28.462  1.00  0.00     0.049 A 
ATOM     34  N   UNL A   1      41.745  27.017  28.803  1.00  0.00    -0.248 NA
ATOM     35  C   UNL A   1      40.181  25.404  28.161  1.00  0.00     0.031 C 
ATOM     36  C   UNL A   1      45.009  24.008  28.251  1.00  0.00     0.029 A 
ATOM     37  N   UNL A   1      44.534  26.090  28.914  1.00  0.00    -0.354 N 
ATOM     38  C   UNL A   1      40.478  27.582  28.790  1.00  0.00     0.074 A 
ATOM     39  C   UNL A   1      39.560  26.561  28.334  1.00  0.00     0.031 C 
ATOM     40  C   UNL A   1      46.168  24.599  28.586  1.00  0.00     0.029 A 
ATOM     41  C   UNL A   1      45.899  25.974  28.995  1.00  0.00     0.049 A 
ATOM     42  H   UNL A   1      44.047  26.910  29.157  1.00  0.00     0.167 HD
ATOM     43  C   UNL A   1      40.113  28.836  29.145  1.00  0.00     0.037 A 
ATOM     44  C   UNL A   1      46.832  26.880  29.344  1.00  0.00     0.037 A 
ATOM     45  C   UNL A   1      41.024  29.839  29.626  1.00  0.00     0.049 A 
ATOM     46  C   UNL A   1      46.401  28.269  29.718  1.00  0.00     0.074 A 
ATOM     47  C   UNL A   1      40.740  31.110  30.091  1.00  0.00     0.029 A 
ATOM     48  N   UNL A   1      42.399  29.681  29.702  1.00  0.00    -0.354 N 
ATOM     49  N   UNL A   1      45.192  28.772  29.767  1.00  0.00    -0.248 NA
ATOM     50  C   UNL A   1      47.464  29.220  30.077  1.00  0.00     0.031 C 
ATOM     51  C   UNL A   1      41.948  31.736  30.414  1.00  0.00     0.029 A 
ATOM     52  C   UNL A   1      42.981  30.842  30.180  1.00  0.00     0.049 A 
ATOM     53  H   UNL A   1      42.890  28.864  29.452  1.00  0.00     0.167 HD
ATOM     54  C   UNL A   1      45.345  30.090  30.176  1.00  0.00     0.074 A 
ATOM     55  C   UNL A   1      46.763  30.306  30.375  1.00  0.00     0.031 C 
ATOM     56  C   UNL A   1      44.395  31.037  30.368  1.00  0.00     0.037 A 
BRANCH  43  57
ATOM     57  C   UNL A   1      38.659  29.186  29.030  1.00  0.00     0.057 A 
ATOM     58  C   UNL A   1      37.795  29.108  30.128  1.00  0.00     0.134 A 
ATOM     59  C   UNL A   1      38.125  29.629  27.814  1.00  0.00     0.134 A 
ATOM     60  F   UNL A   1      38.243  28.675  31.316  1.00  0.00    -0.206 F 
ATOM     61  C   UNL A   1      36.443  29.434  30.016  1.00  0.00     0.040 A 
ATOM     62  C   UNL A   1      36.780  29.981  27.694  1.00  0.00     0.040 A 
ATOM     63  F   UNL A   1      38.902  29.729  26.723  1.00  0.00    -0.206 F 
ATOM     64  C   UNL A   1      35.934  29.879  28.797  1.00  0.00     0.006 A 
ENDBRANCH  43  57
BRANCH  44  65
ATOM     65  C   UNL A   1      48.265  26.501  29.362  1.00  0.00     0.057 A 
ATOM     66  C   UNL A   1      49.070  26.683  28.232  1.00  0.00     0.134 A 
ATOM     67  C   UNL A   1      48.864  25.946  30.500  1.00  0.00     0.134 A 
ATOM     68  F   UNL A   1      48.547  27.192  27.107  1.00  0.00    -0.206 F 
ATOM     69  C   UNL A   1      50.417  26.317  28.228  1.00  0.00     0.040 A 
ATOM     70  C   UNL A   1      50.214  25.594  30.516  1.00  0.00     0.040 A 
ATOM     71  F   UNL A   1      48.146  25.752  31.615  1.00  0.00    -0.206 F 
ATOM     72  C   UNL A   1      50.993  25.775  29.374  1.00  0.00     0.006 A 
ENDBRANCH  44  65
BRANCH  56  73
ATOM     73  C   UNL A   1      44.858  32.386  30.824  1.00  0.00     0.057 A 
ATOM     74  C   UNL A   1      45.036  32.678  32.182  1.00  0.00     0.134 A 
ATOM     75  C   UNL A   1      45.179  33.385  29.896  1.00  0.00     0.134 A 
ATOM     76  F   UNL A   1      44.733  31.767  33.118  1.00  0.00    -0.206 F 
ATOM     77  C   UNL A   1      45.511  33.921  32.602  1.00  0.00     0.040 A 
ATOM     78  C   UNL A   1      45.672  34.624  30.302  1.00  0.00     0.040 A 
ATOM     79  F   UNL A   1      45.034  33.164  28.581  1.00  0.00    -0.206 F 
ATOM     80  C   UNL A   1      45.837  34.896  31.660  1.00  0.00     0.006 A 
ENDBRANCH  56  73
ENDBRANCH  30  31
ENDBRANCH  22  25
ENDBRANCH  20  21
ENDBRANCH   1  20
TORSDOF 13
ENDMDL
MODEL 2
REMARK VINA RESULT:     -10.8      4.826      9.227
REMARK SMILES CSc1nc(C2CC2)nc(C)c1C(=O)NCCCCNC(=O)c1ccc(-c2c3nc(c(-c4c(F)cccc4F)c4ccc([nH]4)c(-c4c(F)cccc4F)c4nc(c(-c5c(F)cccc5F)c5ccc2[nH]5)C=C4)C=C3)cc1
REMARK SMILES IDX 18 1 17 2 16 3 15 4 13 5 14 6 12 8 3 9 4 10 5 11 10 12 9 13
REMARK SMILES IDX 11 14 2 15 1 16 6 17 7 18 8 19 19 20 20 21 21 22 22 24 23 25
REMARK SMILES IDX 24 26 76 27 25 28 75 29 26 30 27 31 28 32 69 33 29 34 74 35
REMARK SMILES IDX 68 36 70 37 30 38 73 39 67 40 66 41 31 43 57 44 40 45 56 46
REMARK SMILES IDX 41 47 44 48 55 49 71 50 42 51 43 52 54 54 72 55 45 56 32 57
REMARK SMILES IDX 33 58 38 59 34 60 35 61 37 62 39 63 36 64 58 65 59 66 64 67
REMARK SMILES IDX 60 68 61 69 63 70 65 71 62 72 46 73 47 74 52 75 48 76 49 77
REMARK SMILES IDX 51 78 53 79 50 80
REMARK H PARENT 15 7 20 23 70 42 44 53
REMARK Flexibility Score: inf
ROOT
ATOM      1  C   UNL A   1      30.977  31.624  26.385  1.00  0.00     0.023 C 
ENDROOT
BRANCH   1   2
ATOM      2  C   UNL A   1      30.336  31.708  25.004  1.00  0.00     0.023 C 
BRANCH   2   3
ATOM      3  C   UNL A   1      30.189  30.377  24.252  1.00  0.00     0.116 C 
BRANCH   3   4
ATOM      4  N   UNL A   1      31.505  29.818  24.036  1.00  0.00    -0.352 N 
ATOM      5  C   UNL A   1      32.153  28.730  24.563  1.00  0.00     0.255 C 
ATOM      6  O   UNL A   1      33.386  28.785  24.545  1.00  0.00    -0.269 OA
ATOM      7  H   UNL A   1      32.043  30.317  23.381  1.00  0.00     0.163 HD
BRANCH   5   8
ATOM      8  C   UNL A   1      31.529  27.500  25.114  1.00  0.00     0.093 A 
ATOM      9  C   UNL A   1      31.386  26.404  24.255  1.00  0.00     0.113 A 
ATOM     10  N   UNL A   1      31.154  25.135  24.677  1.00  0.00    -0.225 NA
ATOM     11  C   UNL A   1      31.073  24.917  25.992  1.00  0.00     0.133 A 
ATOM     12  C   UNL A   1      31.335  27.187  26.453  1.00  0.00     0.055 A 
ATOM     13  N   UNL A   1      31.092  25.920  26.876  1.00  0.00    -0.237 NA
ATOM     14  C   UNL A   1      31.404  28.121  27.608  1.00  0.00     0.068 C 
BRANCH   9  15
ATOM     15  S   UNL A   1      31.403  26.542  22.460  1.00  0.00    -0.109 SA
ATOM     16  C   UNL A   1      33.098  25.978  22.146  1.00  0.00     0.092 C 
ENDBRANCH   9  15
BRANCH  11  17
ATOM     17  C   UNL A   1      31.056  23.515  26.544  1.00  0.00     0.058 C 
ATOM     18  C   UNL A   1      31.418  22.307  25.717  1.00  0.00     0.012 C 
ATOM     19  C   UNL A   1      32.388  22.815  26.740  1.00  0.00     0.012 C 
ENDBRANCH  11  17
ENDBRANCH   5   8
ENDBRANCH   3   4
ENDBRANCH   2   3
ENDBRANCH   1   2
BRANCH   1  20
ATOM     20  C   UNL A   1      32.282  32.392  26.513  1.00  0.00     0.116 C 
BRANCH  20  21
ATOM     21  N   UNL A   1      32.153  33.645  27.249  1.00  0.00    -0.352 N 
ATOM     22  C   UNL A   1      33.019  34.167  28.180  1.00  0.00     0.251 C 
ATOM     23  H   UNL A   1      31.349  34.180  27.056  1.00  0.00     0.163 HD
ATOM     24  O   UNL A   1      32.766  35.210  28.772  1.00  0.00    -0.269 OA
BRANCH  22  25
ATOM     25  C   UNL A   1      34.239  33.402  28.493  1.00  0.00     0.039 A 
ATOM     26  C   UNL A   1      35.480  34.015  28.309  1.00  0.00     0.014 A 
ATOM     27  C   UNL A   1      34.137  32.147  29.097  1.00  0.00     0.014 A 
ATOM     28  C   UNL A   1      36.622  33.407  28.828  1.00  0.00     0.010 A 
ATOM     29  C   UNL A   1      35.265  31.578  29.672  1.00  0.00     0.010 A 
ATOM     30  C   UNL A   1      36.512  32.215  29.560  1.00  0.00    -0.014 A 
BRANCH  30  31
ATOM     31  C   UNL A   1      37.677  31.630  30.264  1.00  0.00     0.031 A 
ATOM     32  C   UNL A   1      38.523  30.600  29.577  1.00  0.00     0.074 A 
ATOM     33  C   UNL A   1      37.903  31.951  31.552  1.00  0.00     0.049 A 
ATOM     34  N   UNL A   1      39.498  29.877  30.063  1.00  0.00    -0.248 NA
ATOM     35  C   UNL A   1      38.210  30.324  28.166  1.00  0.00     0.031 C 
ATOM     36  C   UNL A   1      37.117  32.904  32.340  1.00  0.00     0.029 A 
ATOM     37  N   UNL A   1      38.850  31.493  32.433  1.00  0.00    -0.354 N 
ATOM     38  C   UNL A   1      39.903  29.050  29.025  1.00  0.00     0.074 A 
ATOM     39  C   UNL A   1      39.040  29.329  27.897  1.00  0.00     0.031 C 
ATOM     40  C   UNL A   1      37.623  32.969  33.583  1.00  0.00     0.029 A 
ATOM     41  C   UNL A   1      38.740  32.035  33.690  1.00  0.00     0.049 A 
ATOM     42  H   UNL A   1      39.542  30.839  32.187  1.00  0.00     0.167 HD
ATOM     43  C   UNL A   1      40.916  28.153  29.011  1.00  0.00     0.037 A 
ATOM     44  C   UNL A   1      39.450  31.793  34.809  1.00  0.00     0.037 A 
ATOM     45  C   UNL A   1      41.790  27.902  30.124  1.00  0.00     0.049 A 
ATOM     46  C   UNL A   1      40.558  30.780  34.769  1.00  0.00     0.074 A 
ATOM     47  C   UNL A   1      42.898  27.075  30.181  1.00  0.00     0.029 A 
ATOM     48  N   UNL A   1      41.652  28.476  31.378  1.00  0.00    -0.354 N 
ATOM     49  N   UNL A   1      40.975  30.053  33.762  1.00  0.00    -0.248 NA
ATOM     50  C   UNL A   1      41.289  30.548  36.024  1.00  0.00     0.031 C 
ATOM     51  C   UNL A   1      43.409  27.120  31.482  1.00  0.00     0.029 A 
ATOM     52  C   UNL A   1      42.638  28.000  32.225  1.00  0.00     0.049 A 
ATOM     53  H   UNL A   1      40.956  29.125  31.630  1.00  0.00     0.167 HD
ATOM     54  C   UNL A   1      42.025  29.290  34.253  1.00  0.00     0.074 A 
ATOM     55  C   UNL A   1      42.191  29.652  35.646  1.00  0.00     0.031 C 
ATOM     56  C   UNL A   1      42.784  28.370  33.609  1.00  0.00     0.037 A 
BRANCH  43  57
ATOM     57  C   UNL A   1      41.133  27.384  27.742  1.00  0.00     0.057 A 
ATOM     58  C   UNL A   1      41.938  27.880  26.710  1.00  0.00     0.134 A 
ATOM     59  C   UNL A   1      40.550  26.124  27.562  1.00  0.00     0.134 A 
ATOM     60  F   UNL A   1      42.511  29.088  26.815  1.00  0.00    -0.206 F 
ATOM     61  C   UNL A   1      42.137  27.160  25.531  1.00  0.00     0.040 A 
ATOM     62  C   UNL A   1      40.761  25.384  26.398  1.00  0.00     0.040 A 
ATOM     63  F   UNL A   1      39.770  25.591  28.515  1.00  0.00    -0.206 F 
ATOM     64  C   UNL A   1      41.552  25.905  25.376  1.00  0.00     0.006 A 
ENDBRANCH  43  57
BRANCH  44  65
ATOM     65  C   UNL A   1      39.137  32.526  36.059  1.00  0.00     0.057 A 
ATOM     66  C   UNL A   1      38.299  31.965  37.030  1.00  0.00     0.134 A 
ATOM     67  C   UNL A   1      39.660  33.800  36.314  1.00  0.00     0.134 A 
ATOM     68  F   UNL A   1      37.753  30.757  36.832  1.00  0.00    -0.206 F 
ATOM     69  C   UNL A   1      37.983  32.649  38.205  1.00  0.00     0.040 A 
ATOM     70  C   UNL A   1      39.369  34.486  37.493  1.00  0.00     0.040 A 
ATOM     71  F   UNL A   1      40.473  34.387  35.424  1.00  0.00    -0.206 F 
ATOM     72  C   UNL A   1      38.522  33.912  38.440  1.00  0.00     0.006 A 
ENDBRANCH  44  65
BRANCH  56  73
ATOM     73  C   UNL A   1      43.864  27.701  34.399  1.00  0.00     0.057 A 
ATOM     74  C   UNL A   1      43.655  26.465  35.025  1.00  0.00     0.134 A 
ATOM     75  C   UNL A   1      45.141  28.269  34.492  1.00  0.00     0.134 A 
ATOM     76  F   UNL A   1      42.450  25.878  34.983  1.00  0.00    -0.206 F 
ATOM     77  C   UNL A   1      44.677  25.822  35.723  1.00  0.00     0.040 A 
ATOM     78  C   UNL A   1      46.176  27.626  35.170  1.00  0.00     0.040 A 
ATOM     79  F   UNL A   1      45.406  29.448  33.910  1.00  0.00    -0.206 F 
ATOM     80  C   UNL A   1      45.945  26.399  35.790  1.00  0.00     0.006 A 
ENDBRANCH  56  73
ENDBRANCH  30  31
ENDBRANCH  22  25
ENDBRANCH  20  21
ENDBRANCH   1  20
TORSDOF 13
ENDMDL
MODEL 3
REMARK VINA RESULT:     -10.7      1.407      7.013
REMARK SMILES CSc1nc(C2CC2)nc(C)c1C(=O)NCCCCNC(=O)c1ccc(-c2c3nc(c(-c4c(F)cccc4F)c4ccc([nH]4)c(-c4c(F)cccc4F)c4nc(c(-c5c(F)cccc5F)c5ccc2[nH]5)C=C4)C=C3)cc1
REMARK SMILES IDX 18 1 17 2 16 3 15 4 13 5 14 6 12 8 3 9 4 10 5 11 10 12 9 13
REMARK SMILES IDX 11 14 2 15 1 16 6 17 7 18 8 19 19 20 20 21 21 22 22 24 23 25
REMARK SMILES IDX 24 26 76 27 25 28 75 29 26 30 27 31 28 32 69 33 29 34 74 35
REMARK SMILES IDX 68 36 70 37 30 38 73 39 67 40 66 41 31 43 57 44 40 45 56 46
REMARK SMILES IDX 41 47 44 48 55 49 71 50 42 51 43 52 54 54 72 55 45 56 32 57
REMARK SMILES IDX 33 58 38 59 34 60 35 61 37 62 39 63 36 64 58 65 59 66 64 67
REMARK SMILES IDX 60 68 61 69 63 70 65 71 62 72 46 73 47 74 52 75 48 76 49 77
REMARK SMILES IDX 51 78 53 79 50 80
REMARK H PARENT 15 7 20 23 70 42 44 53
REMARK Flexibility Score: inf
ROOT
ATOM      1  C   UNL A   1      37.726  21.063  24.806  1.00  0.00     0.023 C 
ENDROOT
BRANCH   1   2
ATOM      2  C   UNL A   1      36.670  19.988  25.041  1.00  0.00     0.023 C 
BRANCH   2   3
ATOM      3  C   UNL A   1      35.220  20.396  24.743  1.00  0.00     0.116 C 
BRANCH   3   4
ATOM      4  N   UNL A   1      34.538  20.634  25.995  1.00  0.00    -0.352 N 
ATOM      5  C   UNL A   1      34.165  21.779  26.652  1.00  0.00     0.255 C 
ATOM      6  O   UNL A   1      34.035  21.673  27.875  1.00  0.00    -0.269 OA
ATOM      7  H   UNL A   1      34.292  19.809  26.473  1.00  0.00     0.163 HD
BRANCH   5   8
ATOM      8  C   UNL A   1      33.877  23.103  26.043  1.00  0.00     0.093 A 
ATOM      9  C   UNL A   1      32.536  23.493  25.943  1.00  0.00     0.113 A 
ATOM     10  N   UNL A   1      32.132  24.771  25.731  1.00  0.00    -0.225 NA
ATOM     11  C   UNL A   1      33.071  25.715  25.626  1.00  0.00     0.133 A 
ATOM     12  C   UNL A   1      34.776  24.138  25.827  1.00  0.00     0.055 A 
ATOM     13  N   UNL A   1      34.374  25.416  25.604  1.00  0.00    -0.237 NA
ATOM     14  C   UNL A   1      36.261  24.053  25.851  1.00  0.00     0.068 C 
BRANCH   9  15
ATOM     15  S   UNL A   1      31.160  22.334  25.997  1.00  0.00    -0.109 SA
ATOM     16  C   UNL A   1      29.957  23.360  26.886  1.00  0.00     0.092 C 
ENDBRANCH   9  15
BRANCH  11  17
ATOM     17  C   UNL A   1      32.702  27.176  25.628  1.00  0.00     0.058 C 
ATOM     18  C   UNL A   1      31.632  27.747  26.525  1.00  0.00     0.012 C 
ATOM     19  C   UNL A   1      33.074  27.999  26.846  1.00  0.00     0.012 C 
ENDBRANCH  11  17
ENDBRANCH   5   8
ENDBRANCH   3   4
ENDBRANCH   2   3
ENDBRANCH   1   2
BRANCH   1  20
ATOM     20  C   UNL A   1      38.860  21.052  25.816  1.00  0.00     0.116 C 
BRANCH  20  21
ATOM     21  N   UNL A   1      39.717  19.875  25.720  1.00  0.00    -0.352 N 
ATOM     22  C   UNL A   1      41.047  19.772  26.054  1.00  0.00     0.251 C 
ATOM     23  H   UNL A   1      39.291  19.057  25.375  1.00  0.00     0.163 HD
ATOM     24  O   UNL A   1      41.670  18.733  25.872  1.00  0.00    -0.269 OA
BRANCH  22  25
ATOM     25  C   UNL A   1      41.720  20.971  26.582  1.00  0.00     0.039 A 
ATOM     26  C   UNL A   1      42.261  21.888  25.678  1.00  0.00     0.014 A 
ATOM     27  C   UNL A   1      41.683  21.244  27.951  1.00  0.00     0.014 A 
ATOM     28  C   UNL A   1      42.677  23.135  26.142  1.00  0.00     0.010 A 
ATOM     29  C   UNL A   1      42.035  22.510  28.400  1.00  0.00     0.010 A 
ATOM     30  C   UNL A   1      42.513  23.472  27.494  1.00  0.00    -0.014 A 
BRANCH  30  31
ATOM     31  C   UNL A   1      42.790  24.840  27.989  1.00  0.00     0.031 A 
ATOM     32  C   UNL A   1      44.173  25.206  28.438  1.00  0.00     0.074 A 
ATOM     33  C   UNL A   1      41.773  25.713  28.130  1.00  0.00     0.049 A 
ATOM     34  N   UNL A   1      44.589  26.300  29.022  1.00  0.00    -0.248 NA
ATOM     35  C   UNL A   1      45.221  24.195  28.232  1.00  0.00     0.031 C 
ATOM     36  C   UNL A   1      40.376  25.454  27.773  1.00  0.00     0.029 A 
ATOM     37  N   UNL A   1      41.756  26.990  28.632  1.00  0.00    -0.354 N 
ATOM     38  C   UNL A   1      45.939  26.103  29.267  1.00  0.00     0.074 A 
ATOM     39  C   UNL A   1      46.265  24.769  28.812  1.00  0.00     0.031 C 
ATOM     40  C   UNL A   1      39.642  26.541  28.055  1.00  0.00     0.029 A 
ATOM     41  C   UNL A   1      40.506  27.557  28.649  1.00  0.00     0.049 A 
ATOM     42  H   UNL A   1      42.563  27.454  28.950  1.00  0.00     0.167 HD
ATOM     43  C   UNL A   1      46.831  26.965  29.809  1.00  0.00     0.037 A 
ATOM     44  C   UNL A   1      40.099  28.756  29.107  1.00  0.00     0.037 A 
ATOM     45  C   UNL A   1      46.510  28.301  30.232  1.00  0.00     0.049 A 
ATOM     46  C   UNL A   1      41.106  29.688  29.718  1.00  0.00     0.074 A 
ATOM     47  C   UNL A   1      47.359  29.281  30.713  1.00  0.00     0.029 A 
ATOM     48  N   UNL A   1      45.233  28.843  30.226  1.00  0.00    -0.354 N 
ATOM     49  N   UNL A   1      42.395  29.516  29.883  1.00  0.00    -0.248 NA
ATOM     50  C   UNL A   1      40.602  30.977  30.213  1.00  0.00     0.031 C 
ATOM     51  C   UNL A   1      46.591  30.405  31.034  1.00  0.00     0.029 A 
ATOM     52  C   UNL A   1      45.268  30.135  30.721  1.00  0.00     0.049 A 
ATOM     53  H   UNL A   1      44.422  28.378  29.916  1.00  0.00     0.167 HD
ATOM     54  C   UNL A   1      42.859  30.677  30.486  1.00  0.00     0.074 A 
ATOM     55  C   UNL A   1      41.716  31.553  30.645  1.00  0.00     0.031 C 
ATOM     56  C   UNL A   1      44.119  30.989  30.874  1.00  0.00     0.037 A 
BRANCH  43  57
ATOM     57  C   UNL A   1      48.243  26.485  29.964  1.00  0.00     0.057 A 
ATOM     58  C   UNL A   1      49.203  26.693  28.967  1.00  0.00     0.134 A 
ATOM     59  C   UNL A   1      48.650  25.830  31.132  1.00  0.00     0.134 A 
ATOM     60  F   UNL A   1      48.871  27.300  27.818  1.00  0.00    -0.206 F 
ATOM     61  C   UNL A   1      50.517  26.244  29.117  1.00  0.00     0.040 A 
ATOM     62  C   UNL A   1      49.966  25.398  31.303  1.00  0.00     0.040 A 
ATOM     63  F   UNL A   1      47.777  25.603  32.126  1.00  0.00    -0.206 F 
ATOM     64  C   UNL A   1      50.901  25.600  30.291  1.00  0.00     0.006 A 
ENDBRANCH  43  57
BRANCH  44  65
ATOM     65  C   UNL A   1      38.672  29.146  29.001  1.00  0.00     0.057 A 
ATOM     66  C   UNL A   1      37.821  29.065  30.109  1.00  0.00     0.134 A 
ATOM     67  C   UNL A   1      38.124  29.604  27.797  1.00  0.00     0.134 A 
ATOM     68  F   UNL A   1      38.286  28.615  31.284  1.00  0.00    -0.206 F 
ATOM     69  C   UNL A   1      36.473  29.414  30.022  1.00  0.00     0.040 A 
ATOM     70  C   UNL A   1      36.782  29.975  27.700  1.00  0.00     0.040 A 
ATOM     71  F   UNL A   1      38.890  29.709  26.701  1.00  0.00    -0.206 F 
ATOM     72  C   UNL A   1      35.951  29.875  28.815  1.00  0.00     0.006 A 
ENDBRANCH  44  65
BRANCH  56  73
ATOM     73  C   UNL A   1      44.328  32.334  31.498  1.00  0.00     0.057 A 
ATOM     74  C   UNL A   1      44.601  33.467  30.722  1.00  0.00     0.134 A 
ATOM     75  C   UNL A   1      44.203  32.508  32.882  1.00  0.00     0.134 A 
ATOM     76  F   UNL A   1      44.746  33.360  29.393  1.00  0.00    -0.206 F 
ATOM     77  C   UNL A   1      44.751  34.727  31.302  1.00  0.00     0.040 A 
ATOM     78  C   UNL A   1      44.332  33.766  33.472  1.00  0.00     0.040 A 
ATOM     79  F   UNL A   1      43.937  31.463  33.679  1.00  0.00    -0.206 F 
ATOM     80  C   UNL A   1      44.608  34.879  32.681  1.00  0.00     0.006 A 
ENDBRANCH  56  73
ENDBRANCH  30  31
ENDBRANCH  22  25
ENDBRANCH  20  21
ENDBRANCH   1  20
TORSDOF 13
ENDMDL
