MODEL 1
REMARK VINA RESULT:     -13.0      0.000      0.000
REMARK SMILES O=C(NCCCCNC(=O)[C@@H](Cc1ccc(O)cc1)Nc1c2ccccc2nc2ccccc12)c1ccc(-c2c3nc(c(-c4c(F)cccc4F)c4ccc([nH]4)c(-c4c(F)cccc4F)c4nc(c(-c5c(F)cccc5F)c5ccc2[nH]5)C=C4)C=C3)cc1
REMARK SMILES IDX 6 1 5 2 4 3 3 4 1 5 2 6 35 8 36 9 88 10 37 11 87 12 38 13
REMARK SMILES IDX 39 14 40 15 81 16 41 17 86 18 80 19 82 20 42 21 85 22 79 23
REMARK SMILES IDX 78 24 43 26 69 27 52 28 68 29 53 30 56 31 67 32 83 33 54 34
REMARK SMILES IDX 55 35 66 37 84 38 57 39 44 40 45 41 50 42 46 43 47 44 49 45
REMARK SMILES IDX 51 46 48 47 70 48 71 49 76 50 72 51 73 52 75 53 77 54 74 55
REMARK SMILES IDX 58 56 59 57 64 58 60 59 61 60 63 61 65 62 62 63 7 64 8 65
REMARK SMILES IDX 9 66 10 68 11 69 12 70 13 71 14 72 19 73 15 74 18 75 16 76
REMARK SMILES IDX 17 77 20 79 21 81 22 82 34 83 23 84 27 85 29 86 33 87 24 88
REMARK SMILES IDX 26 89 28 90 30 91 32 92 25 93 31 94
REMARK H PARENT 3 7 82 25 56 36 8 67 17 78 20 80
REMARK Flexibility Score: inf
ROOT
ATOM      1  C   UNL A   1      32.034  27.660  26.010  1.00  0.00     0.023 C 
ENDROOT
BRANCH   1   2
ATOM      2  C   UNL A   1      32.306  28.566  27.200  1.00  0.00     0.023 C 
BRANCH   2   3
ATOM      3  C   UNL A   1      33.726  29.110  27.266  1.00  0.00     0.116 C 
BRANCH   3   4
ATOM      4  N   UNL A   1      33.875  30.364  27.998  1.00  0.00    -0.352 N 
ATOM      5  O   UNL A   1      34.990  31.932  29.193  1.00  0.00    -0.269 OA
ATOM      6  C   UNL A   1      35.011  30.869  28.604  1.00  0.00     0.251 C 
ATOM      7  H   UNL A   1      33.065  30.919  28.071  1.00  0.00     0.163 HD
BRANCH   6   8
ATOM      8  C   UNL A   1      36.235  30.033  28.559  1.00  0.00     0.039 A 
ATOM      9  C   UNL A   1      36.646  29.353  29.703  1.00  0.00     0.014 A 
ATOM     10  C   UNL A   1      37.060  30.095  27.434  1.00  0.00     0.014 A 
ATOM     11  C   UNL A   1      37.968  28.942  29.805  1.00  0.00     0.010 A 
ATOM     12  C   UNL A   1      38.359  29.577  27.505  1.00  0.00     0.010 A 
ATOM     13  C   UNL A   1      38.851  29.069  28.718  1.00  0.00    -0.014 A 
BRANCH  13  14
ATOM     14  C   UNL A   1      40.281  28.700  28.909  1.00  0.00     0.031 A 
ATOM     15  C   UNL A   1      40.820  27.372  28.436  1.00  0.00     0.074 A 
ATOM     16  C   UNL A   1      41.126  29.616  29.423  1.00  0.00     0.049 A 
ATOM     17  N   UNL A   1      42.053  26.928  28.465  1.00  0.00    -0.248 NA
ATOM     18  C   UNL A   1      39.859  26.415  27.867  1.00  0.00     0.031 C 
ATOM     19  C   UNL A   1      40.735  30.938  29.916  1.00  0.00     0.029 A 
ATOM     20  N   UNL A   1      42.490  29.596  29.569  1.00  0.00    -0.354 N 
ATOM     21  C   UNL A   1      42.007  25.631  27.967  1.00  0.00     0.074 A 
ATOM     22  C   UNL A   1      40.624  25.356  27.644  1.00  0.00     0.031 C 
ATOM     23  C   UNL A   1      41.838  31.634  30.225  1.00  0.00     0.029 A 
ATOM     24  C   UNL A   1      43.007  30.787  30.020  1.00  0.00     0.049 A 
ATOM     25  H   UNL A   1      43.044  28.807  29.372  1.00  0.00     0.167 HD
ATOM     26  C   UNL A   1      43.022  24.751  27.790  1.00  0.00     0.037 A 
ATOM     27  C   UNL A   1      44.279  31.161  30.242  1.00  0.00     0.037 A 
ATOM     28  C   UNL A   1      44.409  25.038  28.056  1.00  0.00     0.049 A 
ATOM     29  C   UNL A   1      45.388  30.181  30.002  1.00  0.00     0.074 A 
ATOM     30  C   UNL A   1      45.510  24.217  27.878  1.00  0.00     0.029 A 
ATOM     31  N   UNL A   1      44.886  26.245  28.541  1.00  0.00    -0.354 N 
ATOM     32  N   UNL A   1      45.321  28.957  29.538  1.00  0.00    -0.248 NA
ATOM     33  C   UNL A   1      46.748  30.632  30.328  1.00  0.00     0.031 C 
ATOM     34  C   UNL A   1      46.652  24.920  28.280  1.00  0.00     0.029 A 
ATOM     35  C   UNL A   1      46.264  26.189  28.676  1.00  0.00     0.049 A 
ATOM     36  H   UNL A   1      44.329  27.028  28.757  1.00  0.00     0.167 HD
ATOM     37  C   UNL A   1      46.628  28.492  29.514  1.00  0.00     0.074 A 
ATOM     38  C   UNL A   1      47.469  29.574  29.983  1.00  0.00     0.031 C 
ATOM     39  C   UNL A   1      47.088  27.273  29.143  1.00  0.00     0.037 A 
BRANCH  26  40
ATOM     40  C   UNL A   1      42.675  23.373  27.305  1.00  0.00     0.057 A 
ATOM     41  C   UNL A   1      42.765  23.015  25.954  1.00  0.00     0.134 A 
ATOM     42  C   UNL A   1      42.299  22.376  28.215  1.00  0.00     0.134 A 
ATOM     43  F   UNL A   1      43.108  23.926  25.031  1.00  0.00    -0.206 F 
ATOM     44  C   UNL A   1      42.477  21.718  25.523  1.00  0.00     0.040 A 
ATOM     45  C   UNL A   1      42.027  21.072  27.799  1.00  0.00     0.040 A 
ATOM     46  F   UNL A   1      42.200  22.651  29.525  1.00  0.00    -0.206 F 
ATOM     47  C   UNL A   1      42.114  20.741  26.448  1.00  0.00     0.006 A 
ENDBRANCH  26  40
BRANCH  27  48
ATOM     48  C   UNL A   1      44.566  32.537  30.712  1.00  0.00     0.057 A 
ATOM     49  C   UNL A   1      44.611  32.837  32.077  1.00  0.00     0.134 A 
ATOM     50  C   UNL A   1      44.828  33.575  29.811  1.00  0.00     0.134 A 
ATOM     51  F   UNL A   1      44.352  31.886  32.987  1.00  0.00    -0.206 F 
ATOM     52  C   UNL A   1      44.901  34.124  32.532  1.00  0.00     0.040 A 
ATOM     53  C   UNL A   1      45.144  34.860  30.251  1.00  0.00     0.040 A 
ATOM     54  F   UNL A   1      44.809  33.345  28.490  1.00  0.00    -0.206 F 
ATOM     55  C   UNL A   1      45.177  35.138  31.616  1.00  0.00     0.006 A 
ENDBRANCH  27  48
BRANCH  39  56
ATOM     56  C   UNL A   1      48.568  27.058  29.217  1.00  0.00     0.057 A 
ATOM     57  C   UNL A   1      49.415  27.415  28.161  1.00  0.00     0.134 A 
ATOM     58  C   UNL A   1      49.152  26.498  30.360  1.00  0.00     0.134 A 
ATOM     59  F   UNL A   1      48.912  27.941  27.034  1.00  0.00    -0.206 F 
ATOM     60  C   UNL A   1      50.792  27.199  28.229  1.00  0.00     0.040 A 
ATOM     61  C   UNL A   1      50.529  26.295  30.446  1.00  0.00     0.040 A 
ATOM     62  F   UNL A   1      48.393  26.139  31.407  1.00  0.00    -0.206 F 
ATOM     63  C   UNL A   1      51.353  26.641  29.376  1.00  0.00     0.006 A 
ENDBRANCH  39  56
ENDBRANCH  13  14
ENDBRANCH   6   8
ENDBRANCH   3   4
ENDBRANCH   2   3
ENDBRANCH   1   2
BRANCH   1  64
ATOM     64  C   UNL A   1      32.800  26.340  25.988  1.00  0.00     0.116 C 
BRANCH  64  65
ATOM     65  N   UNL A   1      32.115  25.342  26.773  1.00  0.00    -0.354 N 
ATOM     66  C   UNL A   1      31.570  24.144  26.437  1.00  0.00     0.242 C 
ATOM     67  H   UNL A   1      32.026  25.571  27.727  1.00  0.00     0.163 HD
ATOM     68  O   UNL A   1      30.844  23.634  27.301  1.00  0.00    -0.273 OA
BRANCH  66  69
ATOM     69  C   UNL A   1      31.811  23.399  25.092  1.00  0.00     0.173 C 
BRANCH  69  70
ATOM     70  C   UNL A   1      30.875  23.803  23.923  1.00  0.00     0.070 C 
BRANCH  70  71
ATOM     71  C   UNL A   1      30.651  25.221  23.433  1.00  0.00    -0.045 A 
ATOM     72  C   UNL A   1      29.628  26.065  23.888  1.00  0.00     0.007 A 
ATOM     73  C   UNL A   1      31.587  25.759  22.525  1.00  0.00     0.007 A 
ATOM     74  C   UNL A   1      29.447  27.343  23.335  1.00  0.00     0.046 A 
ATOM     75  C   UNL A   1      31.428  27.042  21.998  1.00  0.00     0.046 A 
ATOM     76  C   UNL A   1      30.335  27.808  22.373  1.00  0.00     0.115 A 
BRANCH  76  77
ATOM     77  O   UNL A   1      30.163  29.010  21.755  1.00  0.00    -0.508 OA
ATOM     78  H   UNL A   1      29.354  29.204  21.325  1.00  0.00     0.293 HD
ENDBRANCH  76  77
ENDBRANCH  70  71
ENDBRANCH  69  70
BRANCH  69  79
ATOM     79  N   UNL A   1      33.234  23.331  24.740  1.00  0.00    -0.372 N 
ATOM     80  H   UNL A   1      33.618  24.163  24.382  1.00  0.00     0.161 HD
BRANCH  79  81
ATOM     81  C   UNL A   1      34.129  22.252  24.840  1.00  0.00     0.054 A 
ATOM     82  C   UNL A   1      33.800  20.872  24.560  1.00  0.00     0.024 A 
ATOM     83  C   UNL A   1      35.482  22.560  25.248  1.00  0.00     0.024 A 
ATOM     84  C   UNL A   1      32.564  20.340  24.088  1.00  0.00     0.012 A 
ATOM     85  C   UNL A   1      34.827  19.919  24.741  1.00  0.00     0.073 A 
ATOM     86  C   UNL A   1      36.395  21.491  25.343  1.00  0.00     0.073 A 
ATOM     87  C   UNL A   1      35.986  23.854  25.577  1.00  0.00     0.012 A 
ATOM     88  C   UNL A   1      32.337  18.976  23.881  1.00  0.00     0.001 A 
ATOM     89  C   UNL A   1      34.594  18.567  24.525  1.00  0.00     0.029 A 
ATOM     90  N   UNL A   1      36.070  20.224  25.109  1.00  0.00    -0.248 NA
ATOM     91  C   UNL A   1      37.716  21.724  25.702  1.00  0.00     0.029 A 
ATOM     92  C   UNL A   1      37.317  24.070  25.944  1.00  0.00     0.001 A 
ATOM     93  C   UNL A   1      33.359  18.080  24.110  1.00  0.00     0.002 A 
ATOM     94  C   UNL A   1      38.190  22.999  25.999  1.00  0.00     0.002 A 
ENDBRANCH  79  81
ENDBRANCH  69  79
ENDBRANCH  66  69
ENDBRANCH  64  65
ENDBRANCH   1  64
TORSDOF 16
ENDMDL
MODEL 2
REMARK VINA RESULT:     -13.0      3.366      6.625
REMARK SMILES O=C(NCCCCNC(=O)[C@@H](Cc1ccc(O)cc1)Nc1c2ccccc2nc2ccccc12)c1ccc(-c2c3nc(c(-c4c(F)cccc4F)c4ccc([nH]4)c(-c4c(F)cccc4F)c4nc(c(-c5c(F)cccc5F)c5ccc2[nH]5)C=C4)C=C3)cc1
REMARK SMILES IDX 6 1 5 2 4 3 3 4 1 5 2 6 35 8 36 9 88 10 37 11 87 12 38 13
REMARK SMILES IDX 39 14 40 15 81 16 41 17 86 18 80 19 82 20 42 21 85 22 79 23
REMARK SMILES IDX 78 24 43 26 69 27 52 28 68 29 53 30 56 31 67 32 83 33 54 34
REMARK SMILES IDX 55 35 66 37 84 38 57 39 44 40 45 41 50 42 46 43 47 44 49 45
REMARK SMILES IDX 51 46 48 47 70 48 71 49 76 50 72 51 73 52 75 53 77 54 74 55
REMARK SMILES IDX 58 56 59 57 64 58 60 59 61 60 63 61 65 62 62 63 7 64 8 65
REMARK SMILES IDX 9 66 10 68 11 69 12 70 13 71 14 72 19 73 15 74 18 75 16 76
REMARK SMILES IDX 17 77 20 79 21 81 22 82 34 83 23 84 27 85 29 86 33 87 24 88
REMARK SMILES IDX 26 89 28 90 30 91 32 92 25 93 31 94
REMARK H PARENT 3 7 82 25 56 36 8 67 17 78 20 80
REMARK Flexibility Score: inf
ROOT
ATOM      1  C   UNL A   1      31.817  27.548  26.842  1.00  0.00     0.023 C 
ENDROOT
BRANCH   1   2
ATOM      2  C   UNL A   1      31.658  28.676  25.836  1.00  0.00     0.023 C 
BRANCH   2   3
ATOM      3  C   UNL A   1      32.749  29.736  25.899  1.00  0.00     0.116 C 
BRANCH   3   4
ATOM      4  N   UNL A   1      32.363  30.982  26.553  1.00  0.00    -0.352 N 
ATOM      5  O   UNL A   1      32.685  32.822  27.836  1.00  0.00    -0.269 OA
ATOM      6  C   UNL A   1      33.142  31.809  27.342  1.00  0.00     0.251 C 
ATOM      7  H   UNL A   1      31.432  31.271  26.415  1.00  0.00     0.163 HD
BRANCH   6   8
ATOM      8  C   UNL A   1      34.535  31.377  27.613  1.00  0.00     0.039 A 
ATOM      9  C   UNL A   1      34.797  30.037  27.891  1.00  0.00     0.014 A 
ATOM     10  C   UNL A   1      35.528  32.345  27.776  1.00  0.00     0.014 A 
ATOM     11  C   UNL A   1      35.970  29.704  28.554  1.00  0.00     0.010 A 
ATOM     12  C   UNL A   1      36.755  31.981  28.343  1.00  0.00     0.010 A 
ATOM     13  C   UNL A   1      36.956  30.673  28.812  1.00  0.00    -0.014 A 
BRANCH  13  14
ATOM     14  C   UNL A   1      38.153  30.284  29.609  1.00  0.00     0.031 A 
ATOM     15  C   UNL A   1      38.289  30.669  31.062  1.00  0.00     0.074 A 
ATOM     16  C   UNL A   1      39.080  29.486  29.043  1.00  0.00     0.049 A 
ATOM     17  N   UNL A   1      39.234  30.350  31.912  1.00  0.00    -0.248 NA
ATOM     18  C   UNL A   1      37.240  31.526  31.636  1.00  0.00     0.031 C 
ATOM     19  C   UNL A   1      39.067  29.039  27.648  1.00  0.00     0.029 A 
ATOM     20  N   UNL A   1      40.182  28.870  29.579  1.00  0.00    -0.354 N 
ATOM     21  C   UNL A   1      38.921  31.003  33.099  1.00  0.00     0.074 A 
ATOM     22  C   UNL A   1      37.699  31.739  32.861  1.00  0.00     0.031 C 
ATOM     23  C   UNL A   1      40.055  28.153  27.463  1.00  0.00     0.029 A 
ATOM     24  C   UNL A   1      40.813  28.022  28.702  1.00  0.00     0.049 A 
ATOM     25  H   UNL A   1      40.491  29.022  30.502  1.00  0.00     0.167 HD
ATOM     26  C   UNL A   1      39.588  30.988  34.279  1.00  0.00     0.037 A 
ATOM     27  C   UNL A   1      41.882  27.223  28.871  1.00  0.00     0.037 A 
ATOM     28  C   UNL A   1      40.773  30.212  34.539  1.00  0.00     0.049 A 
ATOM     29  C   UNL A   1      42.578  27.195  30.199  1.00  0.00     0.074 A 
ATOM     30  C   UNL A   1      41.498  30.112  35.714  1.00  0.00     0.029 A 
ATOM     31  N   UNL A   1      41.397  29.391  33.614  1.00  0.00    -0.354 N 
ATOM     32  N   UNL A   1      42.270  27.827  31.304  1.00  0.00    -0.248 NA
ATOM     33  C   UNL A   1      43.777  26.353  30.296  1.00  0.00     0.031 C 
ATOM     34  C   UNL A   1      42.578  29.249  35.493  1.00  0.00     0.029 A 
ATOM     35  C   UNL A   1      42.504  28.787  34.189  1.00  0.00     0.049 A 
ATOM     36  H   UNL A   1      41.100  29.256  32.686  1.00  0.00     0.167 HD
ATOM     37  C   UNL A   1      43.234  27.457  32.230  1.00  0.00     0.074 A 
ATOM     38  C   UNL A   1      44.122  26.526  31.565  1.00  0.00     0.031 C 
ATOM     39  C   UNL A   1      43.376  27.861  33.516  1.00  0.00     0.037 A 
BRANCH  26  40
ATOM     40  C   UNL A   1      39.066  31.859  35.385  1.00  0.00     0.057 A 
ATOM     41  C   UNL A   1      38.242  31.358  36.400  1.00  0.00     0.134 A 
ATOM     42  C   UNL A   1      39.442  33.206  35.463  1.00  0.00     0.134 A 
ATOM     43  F   UNL A   1      37.836  30.079  36.378  1.00  0.00    -0.206 F 
ATOM     44  C   UNL A   1      37.797  32.171  37.446  1.00  0.00     0.040 A 
ATOM     45  C   UNL A   1      39.020  34.024  36.512  1.00  0.00     0.040 A 
ATOM     46  F   UNL A   1      40.236  33.747  34.525  1.00  0.00    -0.206 F 
ATOM     47  C   UNL A   1      38.192  33.506  37.507  1.00  0.00     0.006 A 
ENDBRANCH  26  40
BRANCH  27  48
ATOM     48  C   UNL A   1      42.349  26.377  27.747  1.00  0.00     0.057 A 
ATOM     49  C   UNL A   1      41.868  25.075  27.579  1.00  0.00     0.134 A 
ATOM     50  C   UNL A   1      43.263  26.859  26.803  1.00  0.00     0.134 A 
ATOM     51  F   UNL A   1      41.003  24.554  28.462  1.00  0.00    -0.206 F 
ATOM     52  C   UNL A   1      42.284  24.276  26.513  1.00  0.00     0.040 A 
ATOM     53  C   UNL A   1      43.668  26.081  25.719  1.00  0.00     0.040 A 
ATOM     54  F   UNL A   1      43.751  28.103  26.908  1.00  0.00    -0.206 F 
ATOM     55  C   UNL A   1      43.181  24.784  25.574  1.00  0.00     0.006 A 
ENDBRANCH  27  48
BRANCH  39  56
ATOM     56  C   UNL A   1      44.524  27.281  34.284  1.00  0.00     0.057 A 
ATOM     57  C   UNL A   1      44.401  26.077  34.988  1.00  0.00     0.134 A 
ATOM     58  C   UNL A   1      45.765  27.928  34.310  1.00  0.00     0.134 A 
ATOM     59  F   UNL A   1      43.233  25.420  35.012  1.00  0.00    -0.206 F 
ATOM     60  C   UNL A   1      45.469  25.548  35.714  1.00  0.00     0.040 A 
ATOM     61  C   UNL A   1      46.845  27.399  35.017  1.00  0.00     0.040 A 
ATOM     62  F   UNL A   1      45.946  29.083  33.652  1.00  0.00    -0.206 F 
ATOM     63  C   UNL A   1      46.697  26.208  35.726  1.00  0.00     0.006 A 
ENDBRANCH  39  56
ENDBRANCH  13  14
ENDBRANCH   6   8
ENDBRANCH   3   4
ENDBRANCH   2   3
ENDBRANCH   1   2
BRANCH   1  64
ATOM     64  C   UNL A   1      32.287  26.211  26.275  1.00  0.00     0.116 C 
BRANCH  64  65
ATOM     65  N   UNL A   1      31.620  25.116  26.939  1.00  0.00    -0.354 N 
ATOM     66  C   UNL A   1      31.179  23.915  26.481  1.00  0.00     0.242 C 
ATOM     67  H   UNL A   1      31.454  25.266  27.897  1.00  0.00     0.163 HD
ATOM     68  O   UNL A   1      30.434  23.298  27.254  1.00  0.00    -0.273 OA
BRANCH  66  69
ATOM     69  C   UNL A   1      31.556  23.290  25.107  1.00  0.00     0.173 C 
BRANCH  69  70
ATOM     70  C   UNL A   1      30.698  23.753  23.900  1.00  0.00     0.070 C 
BRANCH  70  71
ATOM     71  C   UNL A   1      30.569  25.186  23.419  1.00  0.00    -0.045 A 
ATOM     72  C   UNL A   1      29.586  26.085  23.856  1.00  0.00     0.007 A 
ATOM     73  C   UNL A   1      31.557  25.676  22.540  1.00  0.00     0.007 A 
ATOM     74  C   UNL A   1      29.494  27.376  23.312  1.00  0.00     0.046 A 
ATOM     75  C   UNL A   1      31.487  26.971  22.021  1.00  0.00     0.046 A 
ATOM     76  C   UNL A   1      30.432  27.796  22.377  1.00  0.00     0.115 A 
BRANCH  76  77
ATOM     77  O   UNL A   1      30.346  29.011  21.767  1.00  0.00    -0.508 OA
ATOM     78  H   UNL A   1      29.702  29.632  22.048  1.00  0.00     0.293 HD
ENDBRANCH  76  77
ENDBRANCH  70  71
ENDBRANCH  69  70
BRANCH  69  79
ATOM     79  N   UNL A   1      33.003  23.300  24.868  1.00  0.00    -0.372 N 
ATOM     80  H   UNL A   1      33.388  24.182  24.662  1.00  0.00     0.161 HD
BRANCH  79  81
ATOM     81  C   UNL A   1      33.920  22.237  24.889  1.00  0.00     0.054 A 
ATOM     82  C   UNL A   1      33.606  20.863  24.565  1.00  0.00     0.024 A 
ATOM     83  C   UNL A   1      35.283  22.553  25.259  1.00  0.00     0.024 A 
ATOM     84  C   UNL A   1      32.363  20.326  24.117  1.00  0.00     0.012 A 
ATOM     85  C   UNL A   1      34.656  19.924  24.668  1.00  0.00     0.073 A 
ATOM     86  C   UNL A   1      36.218  21.500  25.275  1.00  0.00     0.073 A 
ATOM     87  C   UNL A   1      35.775  23.843  25.622  1.00  0.00     0.012 A 
ATOM     88  C   UNL A   1      32.153  18.967  23.863  1.00  0.00     0.001 A 
ATOM     89  C   UNL A   1      34.439  18.576  24.405  1.00  0.00     0.029 A 
ATOM     90  N   UNL A   1      35.907  20.237  25.002  1.00  0.00    -0.248 NA
ATOM     91  C   UNL A   1      37.547  21.744  25.595  1.00  0.00     0.029 A 
ATOM     92  C   UNL A   1      37.115  24.070  25.947  1.00  0.00     0.001 A 
ATOM     93  C   UNL A   1      33.199  18.083  24.016  1.00  0.00     0.002 A 
ATOM     94  C   UNL A   1      38.009  23.014  25.926  1.00  0.00     0.002 A 
ENDBRANCH  79  81
ENDBRANCH  69  79
ENDBRANCH  66  69
ENDBRANCH  64  65
ENDBRANCH   1  64
TORSDOF 16
ENDMDL
MODEL 3
REMARK VINA RESULT:     -12.7      1.741      3.367
REMARK SMILES O=C(NCCCCNC(=O)[C@@H](Cc1ccc(O)cc1)Nc1c2ccccc2nc2ccccc12)c1ccc(-c2c3nc(c(-c4c(F)cccc4F)c4ccc([nH]4)c(-c4c(F)cccc4F)c4nc(c(-c5c(F)cccc5F)c5ccc2[nH]5)C=C4)C=C3)cc1
REMARK SMILES IDX 6 1 5 2 4 3 3 4 1 5 2 6 35 8 36 9 88 10 37 11 87 12 38 13
REMARK SMILES IDX 39 14 40 15 81 16 41 17 86 18 80 19 82 20 42 21 85 22 79 23
REMARK SMILES IDX 78 24 43 26 69 27 52 28 68 29 53 30 56 31 67 32 83 33 54 34
REMARK SMILES IDX 55 35 66 37 84 38 57 39 44 40 45 41 50 42 46 43 47 44 49 45
REMARK SMILES IDX 51 46 48 47 70 48 71 49 76 50 72 51 73 52 75 53 77 54 74 55
REMARK SMILES IDX 58 56 59 57 64 58 60 59 61 60 63 61 65 62 62 63 7 64 8 65
REMARK SMILES IDX 9 66 10 68 11 69 12 70 13 71 14 72 19 73 15 74 18 75 16 76
REMARK SMILES IDX 17 77 20 79 21 81 22 82 34 83 23 84 27 85 29 86 33 87 24 88
REMARK SMILES IDX 26 89 28 90 30 91 32 92 25 93 31 94
REMARK H PARENT 3 7 82 25 56 36 8 67 17 78 20 80
REMARK Flexibility Score: inf
ROOT
ATOM      1  C   UNL A   1      32.861  28.886  25.779  1.00  0.00     0.023 C 
ENDROOT
BRANCH   1   2
ATOM      2  C   UNL A   1      33.270  30.001  26.727  1.00  0.00     0.023 C 
BRANCH   2   3
ATOM      3  C   UNL A   1      34.522  29.708  27.542  1.00  0.00     0.116 C 
BRANCH   3   4
ATOM      4  N   UNL A   1      34.762  30.619  28.657  1.00  0.00    -0.352 N 
ATOM      5  O   UNL A   1      35.977  31.570  30.315  1.00  0.00    -0.269 OA
ATOM      6  C   UNL A   1      35.919  30.772  29.400  1.00  0.00     0.251 C 
ATOM      7  H   UNL A   1      34.007  31.197  28.912  1.00  0.00     0.163 HD
BRANCH   6   8
ATOM      8  C   UNL A   1      37.059  29.881  29.077  1.00  0.00     0.039 A 
ATOM      9  C   UNL A   1      37.667  29.147  30.093  1.00  0.00     0.014 A 
ATOM     10  C   UNL A   1      37.626  29.936  27.802  1.00  0.00     0.014 A 
ATOM     11  C   UNL A   1      38.957  28.671  29.901  1.00  0.00     0.010 A 
ATOM     12  C   UNL A   1      38.880  29.355  27.582  1.00  0.00     0.010 A 
ATOM     13  C   UNL A   1      39.593  28.788  28.651  1.00  0.00    -0.014 A 
BRANCH  13  14
ATOM     14  C   UNL A   1      41.009  28.346  28.523  1.00  0.00     0.031 A 
ATOM     15  C   UNL A   1      41.358  26.941  28.097  1.00  0.00     0.074 A 
ATOM     16  C   UNL A   1      41.992  29.252  28.694  1.00  0.00     0.049 A 
ATOM     17  N   UNL A   1      42.540  26.419  27.871  1.00  0.00    -0.248 NA
ATOM     18  C   UNL A   1      40.247  25.995  27.906  1.00  0.00     0.031 C 
ATOM     19  C   UNL A   1      41.791  30.644  29.104  1.00  0.00     0.029 A 
ATOM     20  N   UNL A   1      43.346  29.156  28.497  1.00  0.00    -0.354 N 
ATOM     21  C   UNL A   1      42.318  25.082  27.562  1.00  0.00     0.074 A 
ATOM     22  C   UNL A   1      40.889  24.868  27.630  1.00  0.00     0.031 C 
ATOM     23  C   UNL A   1      42.961  31.292  29.041  1.00  0.00     0.029 A 
ATOM     24  C   UNL A   1      44.006  30.351  28.656  1.00  0.00     0.049 A 
ATOM     25  H   UNL A   1      43.800  28.314  28.266  1.00  0.00     0.167 HD
ATOM     26  C   UNL A   1      43.220  24.121  27.247  1.00  0.00     0.037 A 
ATOM     27  C   UNL A   1      45.306  30.659  28.507  1.00  0.00     0.037 A 
ATOM     28  C   UNL A   1      44.638  24.341  27.121  1.00  0.00     0.049 A 
ATOM     29  C   UNL A   1      46.279  29.586  28.119  1.00  0.00     0.074 A 
ATOM     30  C   UNL A   1      45.625  23.432  26.776  1.00  0.00     0.029 A 
ATOM     31  N   UNL A   1      45.269  25.558  27.321  1.00  0.00    -0.354 N 
ATOM     32  N   UNL A   1      46.048  28.327  27.840  1.00  0.00    -0.248 NA
ATOM     33  C   UNL A   1      47.692  29.976  28.038  1.00  0.00     0.031 C 
ATOM     34  C   UNL A   1      46.858  24.095  26.791  1.00  0.00     0.029 A 
ATOM     35  C   UNL A   1      46.633  25.423  27.114  1.00  0.00     0.049 A 
ATOM     36  H   UNL A   1      44.817  26.395  27.572  1.00  0.00     0.167 HD
ATOM     37  C   UNL A   1      47.287  27.774  27.547  1.00  0.00     0.074 A 
ATOM     38  C   UNL A   1      48.260  28.840  27.657  1.00  0.00     0.031 C 
ATOM     39  C   UNL A   1      47.590  26.493  27.225  1.00  0.00     0.037 A 
BRANCH  26  40
ATOM     40  C   UNL A   1      42.708  22.726  27.036  1.00  0.00     0.057 A 
ATOM     41  C   UNL A   1      42.652  22.139  25.766  1.00  0.00     0.134 A 
ATOM     42  C   UNL A   1      42.318  21.942  28.129  1.00  0.00     0.134 A 
ATOM     43  F   UNL A   1      43.000  22.840  24.676  1.00  0.00    -0.206 F 
ATOM     44  C   UNL A   1      42.210  20.825  25.589  1.00  0.00     0.040 A 
ATOM     45  C   UNL A   1      41.893  20.622  27.968  1.00  0.00     0.040 A 
ATOM     46  F   UNL A   1      42.354  22.442  29.374  1.00  0.00    -0.206 F 
ATOM     47  C   UNL A   1      41.837  20.061  26.694  1.00  0.00     0.006 A 
ENDBRANCH  26  40
BRANCH  27  48
ATOM     48  C   UNL A   1      45.756  32.056  28.719  1.00  0.00     0.057 A 
ATOM     49  C   UNL A   1      45.795  32.968  27.659  1.00  0.00     0.134 A 
ATOM     50  C   UNL A   1      46.130  32.516  29.986  1.00  0.00     0.134 A 
ATOM     51  F   UNL A   1      45.465  32.578  26.419  1.00  0.00    -0.206 F 
ATOM     52  C   UNL A   1      46.197  34.290  27.851  1.00  0.00     0.040 A 
ATOM     53  C   UNL A   1      46.509  33.841  30.197  1.00  0.00     0.040 A 
ATOM     54  F   UNL A   1      46.103  31.689  31.041  1.00  0.00    -0.206 F 
ATOM     55  C   UNL A   1      46.547  34.732  29.126  1.00  0.00     0.006 A 
ENDBRANCH  27  48
BRANCH  39  56
ATOM     56  C   UNL A   1      49.030  26.187  26.953  1.00  0.00     0.057 A 
ATOM     57  C   UNL A   1      49.910  25.831  27.982  1.00  0.00     0.134 A 
ATOM     58  C   UNL A   1      49.538  26.239  25.650  1.00  0.00     0.134 A 
ATOM     59  F   UNL A   1      49.486  25.779  29.253  1.00  0.00    -0.206 F 
ATOM     60  C   UNL A   1      51.256  25.561  27.726  1.00  0.00     0.040 A 
ATOM     61  C   UNL A   1      50.877  25.953  25.380  1.00  0.00     0.040 A 
ATOM     62  F   UNL A   1      48.743  26.570  24.621  1.00  0.00    -0.206 F 
ATOM     63  C   UNL A   1      51.741  25.619  26.421  1.00  0.00     0.006 A 
ENDBRANCH  39  56
ENDBRANCH  13  14
ENDBRANCH   6   8
ENDBRANCH   3   4
ENDBRANCH   2   3
ENDBRANCH   1   2
BRANCH   1  64
ATOM     64  C   UNL A   1      33.798  28.638  24.599  1.00  0.00     0.116 C 
BRANCH  64  65
ATOM     65  N   UNL A   1      33.210  27.701  23.672  1.00  0.00    -0.354 N 
ATOM     66  C   UNL A   1      33.469  26.390  23.426  1.00  0.00     0.242 C 
ATOM     67  H   UNL A   1      32.490  28.079  23.118  1.00  0.00     0.163 HD
ATOM     68  O   UNL A   1      32.947  25.934  22.400  1.00  0.00    -0.273 OA
BRANCH  66  69
ATOM     69  C   UNL A   1      34.332  25.465  24.331  1.00  0.00     0.173 C 
BRANCH  69  70
ATOM     70  C   UNL A   1      33.811  25.266  25.779  1.00  0.00     0.070 C 
BRANCH  70  71
ATOM     71  C   UNL A   1      32.609  24.426  26.167  1.00  0.00    -0.045 A 
ATOM     72  C   UNL A   1      32.667  23.280  26.973  1.00  0.00     0.007 A 
ATOM     73  C   UNL A   1      31.334  24.877  25.766  1.00  0.00     0.007 A 
ATOM     74  C   UNL A   1      31.517  22.519  27.232  1.00  0.00     0.046 A 
ATOM     75  C   UNL A   1      30.182  24.140  26.049  1.00  0.00     0.046 A 
ATOM     76  C   UNL A   1      30.287  22.943  26.742  1.00  0.00     0.115 A 
BRANCH  76  77
ATOM     77  O   UNL A   1      29.154  22.206  26.904  1.00  0.00    -0.508 OA
ATOM     78  H   UNL A   1      28.406  22.582  27.325  1.00  0.00     0.293 HD
ENDBRANCH  76  77
ENDBRANCH  70  71
ENDBRANCH  69  70
BRANCH  69  79
ATOM     79  N   UNL A   1      34.727  24.228  23.649  1.00  0.00    -0.372 N 
ATOM     80  H   UNL A   1      34.692  24.261  22.666  1.00  0.00     0.161 HD
BRANCH  79  81
ATOM     81  C   UNL A   1      35.150  23.003  24.191  1.00  0.00     0.054 A 
ATOM     82  C   UNL A   1      36.420  22.779  24.845  1.00  0.00     0.024 A 
ATOM     83  C   UNL A   1      34.232  21.889  24.088  1.00  0.00     0.024 A 
ATOM     84  C   UNL A   1      37.449  23.727  25.118  1.00  0.00     0.012 A 
ATOM     85  C   UNL A   1      36.681  21.469  25.307  1.00  0.00     0.073 A 
ATOM     86  C   UNL A   1      34.636  20.657  24.637  1.00  0.00     0.073 A 
ATOM     87  C   UNL A   1      32.946  21.917  23.469  1.00  0.00     0.012 A 
ATOM     88  C   UNL A   1      38.663  23.398  25.729  1.00  0.00     0.001 A 
ATOM     89  C   UNL A   1      37.887  21.154  25.920  1.00  0.00     0.029 A 
ATOM     90  N   UNL A   1      35.818  20.459  25.210  1.00  0.00    -0.248 NA
ATOM     91  C   UNL A   1      33.789  19.556  24.595  1.00  0.00     0.029 A 
ATOM     92  C   UNL A   1      32.109  20.798  23.431  1.00  0.00     0.001 A 
ATOM     93  C   UNL A   1      38.888  22.098  26.126  1.00  0.00     0.002 A 
ATOM     94  C   UNL A   1      32.530  19.612  24.004  1.00  0.00     0.002 A 
ENDBRANCH  79  81
ENDBRANCH  69  79
ENDBRANCH  66  69
ENDBRANCH  64  65
ENDBRANCH   1  64
TORSDOF 16
ENDMDL
