MODEL 1
REMARK VINA RESULT:     -11.2      0.000      0.000
REMARK SMILES COc1ccc2cc([C@@H](C)C(=O)NCCCCNC(=O)c3ccc(-c4c5nc(c(-c6c(F)cccc6F)c6ccc([nH]6)c(-c6c(F)cccc6F)c6nc(c(-c7c(F)cccc7F)c7ccc4[nH]7)C=C6)C=C5)cc3)ccc2c1
REMARK SMILES IDX 15 1 14 2 13 3 11 4 12 5 9 7 10 8 8 9 3 10 4 11 78 12 5 13
REMARK SMILES IDX 77 14 6 15 76 16 7 17 75 18 2 19 1 20 16 21 17 22 18 23
REMARK SMILES IDX 19 24 20 26 21 27 22 28 74 29 23 30 73 31 24 32 25 33 26 34
REMARK SMILES IDX 67 35 27 36 72 37 66 38 68 39 28 40 71 41 65 42 64 43 29 45
REMARK SMILES IDX 55 46 38 47 54 48 39 49 42 50 53 51 69 52 40 53 41 54 52 56
REMARK SMILES IDX 70 57 43 58 30 59 31 60 36 61 32 62 33 63 35 64 37 65 34 66
REMARK SMILES IDX 56 67 57 68 62 69 58 70 59 71 61 72 63 73 60 74 44 75 45 76
REMARK SMILES IDX 50 77 46 78 47 79 49 80 51 81 48 82
REMARK H PARENT 13 6 18 25 68 44 42 55
REMARK Flexibility Score: inf
ROOT
ATOM      1  C   UNL A   1      33.000  29.528  25.049  1.00  0.00     0.023 C 
ENDROOT
BRANCH   1   2
ATOM      2  C   UNL A   1      31.481  29.357  24.996  1.00  0.00     0.116 C 
BRANCH   2   3
ATOM      3  N   UNL A   1      30.942  29.692  23.695  1.00  0.00    -0.356 N 
ATOM      4  C   UNL A   1      30.368  28.926  22.725  1.00  0.00     0.227 C 
ATOM      5  O   UNL A   1      30.084  29.508  21.671  1.00  0.00    -0.274 OA
ATOM      6  H   UNL A   1      31.003  30.648  23.469  1.00  0.00     0.163 HD
BRANCH   4   7
ATOM      7  C   UNL A   1      30.054  27.428  22.881  1.00  0.00     0.105 C 
ATOM      8  C   UNL A   1      28.776  27.133  23.666  1.00  0.00     0.023 C 
BRANCH   7   9
ATOM      9  C   UNL A   1      31.270  26.589  23.246  1.00  0.00    -0.035 A 
ATOM     10  C   UNL A   1      34.896  23.967  25.675  1.00  0.00     0.119 A 
ATOM     11  C   UNL A   1      33.762  23.918  26.484  1.00  0.00     0.047 A 
ATOM     12  C   UNL A   1      34.843  24.649  24.456  1.00  0.00     0.055 A 
ATOM     13  C   UNL A   1      32.568  24.495  26.046  1.00  0.00     0.012 A 
ATOM     14  C   UNL A   1      33.659  25.267  24.020  1.00  0.00    -0.015 A 
ATOM     15  C   UNL A   1      32.501  25.165  24.815  1.00  0.00    -0.018 A 
ATOM     16  C   UNL A   1      33.599  26.000  22.827  1.00  0.00     0.009 A 
ATOM     17  C   UNL A   1      31.310  25.772  24.383  1.00  0.00     0.013 A 
ATOM     18  C   UNL A   1      32.429  26.675  22.461  1.00  0.00     0.005 A 
BRANCH  10  19
ATOM     19  O   UNL A   1      36.109  23.416  25.984  1.00  0.00    -0.497 OA
ATOM     20  C   UNL A   1      37.125  23.564  24.998  1.00  0.00     0.278 C 
ENDBRANCH  10  19
ENDBRANCH   7   9
ENDBRANCH   4   7
ENDBRANCH   2   3
ENDBRANCH   1   2
BRANCH   1  21
ATOM     21  C   UNL A   1      33.747  28.468  25.850  1.00  0.00     0.023 C 
BRANCH  21  22
ATOM     22  C   UNL A   1      33.689  28.640  27.362  1.00  0.00     0.116 C 
BRANCH  22  23
ATOM     23  N   UNL A   1      33.700  30.027  27.806  1.00  0.00    -0.352 N 
ATOM     24  C   UNL A   1      34.753  30.749  28.327  1.00  0.00     0.251 C 
ATOM     25  H   UNL A   1      32.847  30.511  27.725  1.00  0.00     0.163 HD
ATOM     26  O   UNL A   1      34.592  31.893  28.723  1.00  0.00    -0.269 OA
BRANCH  24  27
ATOM     27  C   UNL A   1      36.073  30.093  28.447  1.00  0.00     0.039 A 
ATOM     28  C   UNL A   1      36.964  30.174  27.376  1.00  0.00     0.014 A 
ATOM     29  C   UNL A   1      36.450  29.469  29.639  1.00  0.00     0.014 A 
ATOM     30  C   UNL A   1      38.272  29.707  27.533  1.00  0.00     0.010 A 
ATOM     31  C   UNL A   1      37.772  29.079  29.820  1.00  0.00     0.010 A 
ATOM     32  C   UNL A   1      38.696  29.201  28.772  1.00  0.00    -0.014 A 
BRANCH  32  33
ATOM     33  C   UNL A   1      40.104  28.792  29.000  1.00  0.00     0.031 A 
ATOM     34  C   UNL A   1      41.072  29.758  29.624  1.00  0.00     0.074 A 
ATOM     35  C   UNL A   1      40.527  27.583  28.580  1.00  0.00     0.049 A 
ATOM     36  N   UNL A   1      42.361  29.632  29.811  1.00  0.00    -0.248 NA
ATOM     37  C   UNL A   1      40.523  31.049  30.067  1.00  0.00     0.031 C 
ATOM     38  C   UNL A   1      39.697  26.574  27.919  1.00  0.00     0.029 A 
ATOM     39  N   UNL A   1      41.769  27.003  28.638  1.00  0.00    -0.354 N 
ATOM     40  C   UNL A   1      42.775  30.830  30.377  1.00  0.00     0.074 A 
ATOM     41  C   UNL A   1      41.616  31.690  30.452  1.00  0.00     0.031 C 
ATOM     42  C   UNL A   1      40.445  25.489  27.658  1.00  0.00     0.029 A 
ATOM     43  C   UNL A   1      41.814  25.740  28.098  1.00  0.00     0.049 A 
ATOM     44  H   UNL A   1      42.554  27.449  29.029  1.00  0.00     0.167 HD
ATOM     45  C   UNL A   1      44.008  31.173  30.823  1.00  0.00     0.037 A 
ATOM     46  C   UNL A   1      42.844  24.883  27.972  1.00  0.00     0.037 A 
ATOM     47  C   UNL A   1      45.154  30.307  30.778  1.00  0.00     0.049 A 
ATOM     48  C   UNL A   1      44.202  25.290  28.476  1.00  0.00     0.074 A 
ATOM     49  C   UNL A   1      46.438  30.548  31.235  1.00  0.00     0.029 A 
ATOM     50  N   UNL A   1      45.151  29.025  30.251  1.00  0.00    -0.354 N 
ATOM     51  N   UNL A   1      44.569  26.410  29.049  1.00  0.00    -0.248 NA
ATOM     52  C   UNL A   1      45.287  24.310  28.318  1.00  0.00     0.031 C 
ATOM     53  C   UNL A   1      47.217  29.419  30.965  1.00  0.00     0.029 A 
ATOM     54  C   UNL A   1      46.410  28.463  30.370  1.00  0.00     0.049 A 
ATOM     55  H   UNL A   1      44.368  28.579  29.852  1.00  0.00     0.167 HD
ATOM     56  C   UNL A   1      45.917  26.258  29.349  1.00  0.00     0.074 A 
ATOM     57  C   UNL A   1      46.299  24.934  28.903  1.00  0.00     0.031 C 
ATOM     58  C   UNL A   1      46.763  27.135  29.939  1.00  0.00     0.037 A 
BRANCH  45  59
ATOM     59  C   UNL A   1      44.166  32.541  31.417  1.00  0.00     0.057 A 
ATOM     60  C   UNL A   1      43.979  32.769  32.787  1.00  0.00     0.134 A 
ATOM     61  C   UNL A   1      44.534  33.633  30.623  1.00  0.00     0.134 A 
ATOM     62  F   UNL A   1      43.610  31.767  33.598  1.00  0.00    -0.206 F 
ATOM     63  C   UNL A   1      44.128  34.041  33.342  1.00  0.00     0.040 A 
ATOM     64  C   UNL A   1      44.711  34.905  31.170  1.00  0.00     0.040 A 
ATOM     65  F   UNL A   1      44.732  33.482  29.305  1.00  0.00    -0.206 F 
ATOM     66  C   UNL A   1      44.502  35.112  32.533  1.00  0.00     0.006 A 
ENDBRANCH  45  59
BRANCH  46  67
ATOM     67  C   UNL A   1      42.637  23.542  27.371  1.00  0.00     0.057 A 
ATOM     68  C   UNL A   1      42.831  23.333  26.000  1.00  0.00     0.134 A 
ATOM     69  C   UNL A   1      42.213  22.451  28.137  1.00  0.00     0.134 A 
ATOM     70  F   UNL A   1      43.217  24.346  25.212  1.00  0.00    -0.206 F 
ATOM     71  C   UNL A   1      42.588  22.092  25.408  1.00  0.00     0.040 A 
ATOM     72  C   UNL A   1      41.989  21.199  27.562  1.00  0.00     0.040 A 
ATOM     73  F   UNL A   1      42.016  22.585  29.457  1.00  0.00    -0.206 F 
ATOM     74  C   UNL A   1      42.167  21.020  26.191  1.00  0.00     0.006 A 
ENDBRANCH  46  67
BRANCH  58  75
ATOM     75  C   UNL A   1      48.169  26.674  30.179  1.00  0.00     0.057 A 
ATOM     76  C   UNL A   1      48.530  25.983  31.342  1.00  0.00     0.134 A 
ATOM     77  C   UNL A   1      49.162  26.892  29.217  1.00  0.00     0.134 A 
ATOM     78  F   UNL A   1      47.625  25.756  32.306  1.00  0.00    -0.206 F 
ATOM     79  C   UNL A   1      49.837  25.541  31.548  1.00  0.00     0.040 A 
ATOM     80  C   UNL A   1      50.468  26.436  29.401  1.00  0.00     0.040 A 
ATOM     81  F   UNL A   1      48.878  27.542  28.078  1.00  0.00    -0.206 F 
ATOM     82  C   UNL A   1      50.809  25.762  30.573  1.00  0.00     0.006 A 
ENDBRANCH  58  75
ENDBRANCH  32  33
ENDBRANCH  24  27
ENDBRANCH  22  23
ENDBRANCH  21  22
ENDBRANCH   1  21
TORSDOF 13
ENDMDL
MODEL 2
REMARK VINA RESULT:     -11.0      2.283      7.764
REMARK SMILES COc1ccc2cc([C@@H](C)C(=O)NCCCCNC(=O)c3ccc(-c4c5nc(c(-c6c(F)cccc6F)c6ccc([nH]6)c(-c6c(F)cccc6F)c6nc(c(-c7c(F)cccc7F)c7ccc4[nH]7)C=C6)C=C5)cc3)ccc2c1
REMARK SMILES IDX 15 1 14 2 13 3 11 4 12 5 9 7 10 8 8 9 3 10 4 11 78 12 5 13
REMARK SMILES IDX 77 14 6 15 76 16 7 17 75 18 2 19 1 20 16 21 17 22 18 23
REMARK SMILES IDX 19 24 20 26 21 27 22 28 74 29 23 30 73 31 24 32 25 33 26 34
REMARK SMILES IDX 67 35 27 36 72 37 66 38 68 39 28 40 71 41 65 42 64 43 29 45
REMARK SMILES IDX 55 46 38 47 54 48 39 49 42 50 53 51 69 52 40 53 41 54 52 56
REMARK SMILES IDX 70 57 43 58 30 59 31 60 36 61 32 62 33 63 35 64 37 65 34 66
REMARK SMILES IDX 56 67 57 68 62 69 58 70 59 71 61 72 63 73 60 74 44 75 45 76
REMARK SMILES IDX 50 77 46 78 47 79 49 80 51 81 48 82
REMARK H PARENT 13 6 18 25 68 44 42 55
REMARK Flexibility Score: inf
ROOT
ATOM      1  C   UNL A   1      36.574  19.580  25.058  1.00  0.00     0.023 C 
ENDROOT
BRANCH   1   2
ATOM      2  C   UNL A   1      35.206  20.233  24.856  1.00  0.00     0.116 C 
BRANCH   2   3
ATOM      3  N   UNL A   1      34.818  21.042  25.992  1.00  0.00    -0.356 N 
ATOM      4  C   UNL A   1      35.073  22.341  26.312  1.00  0.00     0.227 C 
ATOM      5  O   UNL A   1      34.666  22.719  27.417  1.00  0.00    -0.274 OA
ATOM      6  H   UNL A   1      34.269  20.565  26.656  1.00  0.00     0.163 HD
BRANCH   4   7
ATOM      7  C   UNL A   1      35.809  23.328  25.388  1.00  0.00     0.105 C 
ATOM      8  C   UNL A   1      36.972  24.062  26.055  1.00  0.00     0.023 C 
BRANCH   7   9
ATOM      9  C   UNL A   1      34.873  24.185  24.549  1.00  0.00    -0.035 A 
ATOM     10  C   UNL A   1      31.283  27.400  22.906  1.00  0.00     0.119 A 
ATOM     11  C   UNL A   1      31.648  27.831  24.179  1.00  0.00     0.047 A 
ATOM     12  C   UNL A   1      31.910  26.280  22.351  1.00  0.00     0.055 A 
ATOM     13  C   UNL A   1      32.675  27.182  24.867  1.00  0.00     0.012 A 
ATOM     14  C   UNL A   1      32.920  25.594  23.048  1.00  0.00    -0.015 A 
ATOM     15  C   UNL A   1      33.324  26.069  24.311  1.00  0.00    -0.018 A 
ATOM     16  C   UNL A   1      33.524  24.439  22.533  1.00  0.00     0.009 A 
ATOM     17  C   UNL A   1      34.338  25.394  25.011  1.00  0.00     0.013 A 
ATOM     18  C   UNL A   1      34.465  23.729  23.287  1.00  0.00     0.005 A 
BRANCH  10  19
ATOM     19  O   UNL A   1      30.314  27.972  22.127  1.00  0.00    -0.497 OA
ATOM     20  C   UNL A   1      30.230  29.392  22.189  1.00  0.00     0.278 C 
ENDBRANCH  10  19
ENDBRANCH   7   9
ENDBRANCH   4   7
ENDBRANCH   2   3
ENDBRANCH   1   2
BRANCH   1  21
ATOM     21  C   UNL A   1      37.771  20.459  24.713  1.00  0.00     0.023 C 
BRANCH  21  22
ATOM     22  C   UNL A   1      38.841  20.546  25.793  1.00  0.00     0.116 C 
BRANCH  22  23
ATOM     23  N   UNL A   1      39.841  19.488  25.731  1.00  0.00    -0.352 N 
ATOM     24  C   UNL A   1      41.175  19.552  26.070  1.00  0.00     0.251 C 
ATOM     25  H   UNL A   1      39.523  18.616  25.405  1.00  0.00     0.163 HD
ATOM     26  O   UNL A   1      41.912  18.594  25.898  1.00  0.00    -0.269 OA
BRANCH  24  27
ATOM     27  C   UNL A   1      41.713  20.825  26.598  1.00  0.00     0.039 A 
ATOM     28  C   UNL A   1      42.181  21.783  25.697  1.00  0.00     0.014 A 
ATOM     29  C   UNL A   1      41.683  21.094  27.968  1.00  0.00     0.014 A 
ATOM     30  C   UNL A   1      42.535  23.051  26.165  1.00  0.00     0.010 A 
ATOM     31  C   UNL A   1      41.960  22.378  28.422  1.00  0.00     0.010 A 
ATOM     32  C   UNL A   1      42.381  23.371  27.523  1.00  0.00    -0.014 A 
BRANCH  32  33
ATOM     33  C   UNL A   1      42.652  24.737  28.034  1.00  0.00     0.031 A 
ATOM     34  C   UNL A   1      44.046  25.118  28.449  1.00  0.00     0.074 A 
ATOM     35  C   UNL A   1      41.636  25.606  28.193  1.00  0.00     0.049 A 
ATOM     36  N   UNL A   1      44.469  26.219  29.015  1.00  0.00    -0.248 NA
ATOM     37  C   UNL A   1      45.098  24.113  28.226  1.00  0.00     0.031 C 
ATOM     38  C   UNL A   1      40.232  25.342  27.872  1.00  0.00     0.029 A 
ATOM     39  N   UNL A   1      41.627  26.890  28.678  1.00  0.00    -0.354 N 
ATOM     40  C   UNL A   1      45.828  26.032  29.228  1.00  0.00     0.074 A 
ATOM     41  C   UNL A   1      46.149  24.694  28.784  1.00  0.00     0.031 C 
ATOM     42  C   UNL A   1      39.503  26.438  28.142  1.00  0.00     0.029 A 
ATOM     43  C   UNL A   1      40.380  27.468  28.689  1.00  0.00     0.049 A 
ATOM     44  H   UNL A   1      42.438  27.354  28.988  1.00  0.00     0.167 HD
ATOM     45  C   UNL A   1      46.735  26.908  29.723  1.00  0.00     0.037 A 
ATOM     46  C   UNL A   1      39.990  28.690  29.098  1.00  0.00     0.037 A 
ATOM     47  C   UNL A   1      46.421  28.250  30.135  1.00  0.00     0.049 A 
ATOM     48  C   UNL A   1      41.018  29.643  29.643  1.00  0.00     0.074 A 
ATOM     49  C   UNL A   1      47.274  29.226  30.618  1.00  0.00     0.029 A 
ATOM     50  N   UNL A   1      45.152  28.806  30.103  1.00  0.00    -0.354 N 
ATOM     51  N   UNL A   1      42.308  29.468  29.799  1.00  0.00    -0.248 NA
ATOM     52  C   UNL A   1      40.535  30.966  30.066  1.00  0.00     0.031 C 
ATOM     53  C   UNL A   1      46.517  30.368  30.898  1.00  0.00     0.029 A 
ATOM     54  C   UNL A   1      45.199  30.112  30.559  1.00  0.00     0.049 A 
ATOM     55  H   UNL A   1      44.338  28.341  29.800  1.00  0.00     0.167 HD
ATOM     56  C   UNL A   1      42.795  30.665  30.306  1.00  0.00     0.074 A 
ATOM     57  C   UNL A   1      41.664  31.562  30.422  1.00  0.00     0.031 C 
ATOM     58  C   UNL A   1      44.064  30.994  30.646  1.00  0.00     0.037 A 
BRANCH  45  59
ATOM     59  C   UNL A   1      48.156  26.441  29.824  1.00  0.00     0.057 A 
ATOM     60  C   UNL A   1      48.632  25.788  30.968  1.00  0.00     0.134 A 
ATOM     61  C   UNL A   1      49.049  26.619  28.762  1.00  0.00     0.134 A 
ATOM     62  F   UNL A   1      47.828  25.601  32.027  1.00  0.00    -0.206 F 
ATOM     63  C   UNL A   1      49.953  25.349  31.063  1.00  0.00     0.040 A 
ATOM     64  C   UNL A   1      50.367  26.164  28.834  1.00  0.00     0.040 A 
ATOM     65  F   UNL A   1      48.657  27.235  27.637  1.00  0.00    -0.206 F 
ATOM     66  C   UNL A   1      50.824  25.531  29.990  1.00  0.00     0.006 A 
ENDBRANCH  45  59
BRANCH  46  67
ATOM     67  C   UNL A   1      38.570  29.103  28.982  1.00  0.00     0.057 A 
ATOM     68  C   UNL A   1      38.060  29.586  27.771  1.00  0.00     0.134 A 
ATOM     69  C   UNL A   1      37.698  29.055  30.075  1.00  0.00     0.134 A 
ATOM     70  F   UNL A   1      38.854  29.674  26.693  1.00  0.00    -0.206 F 
ATOM     71  C   UNL A   1      36.742  30.030  27.656  1.00  0.00     0.040 A 
ATOM     72  C   UNL A   1      36.371  29.474  29.969  1.00  0.00     0.040 A 
ATOM     73  F   UNL A   1      38.124  28.597  31.261  1.00  0.00    -0.206 F 
ATOM     74  C   UNL A   1      35.893  29.973  28.758  1.00  0.00     0.006 A 
ENDBRANCH  46  67
BRANCH  58  75
ATOM     75  C   UNL A   1      44.302  32.393  31.129  1.00  0.00     0.057 A 
ATOM     76  C   UNL A   1      44.586  33.440  30.245  1.00  0.00     0.134 A 
ATOM     77  C   UNL A   1      44.209  32.699  32.492  1.00  0.00     0.134 A 
ATOM     78  F   UNL A   1      44.702  33.206  28.929  1.00  0.00    -0.206 F 
ATOM     79  C   UNL A   1      44.788  34.743  30.703  1.00  0.00     0.040 A 
ATOM     80  C   UNL A   1      44.387  34.001  32.960  1.00  0.00     0.040 A 
ATOM     81  F   UNL A   1      43.933  31.740  33.390  1.00  0.00    -0.206 F 
ATOM     82  C   UNL A   1      44.683  35.027  32.064  1.00  0.00     0.006 A 
ENDBRANCH  58  75
ENDBRANCH  32  33
ENDBRANCH  24  27
ENDBRANCH  22  23
ENDBRANCH  21  22
ENDBRANCH   1  21
TORSDOF 13
ENDMDL
MODEL 3
REMARK VINA RESULT:     -10.9      2.687      7.866
REMARK SMILES COc1ccc2cc([C@@H](C)C(=O)NCCCCNC(=O)c3ccc(-c4c5nc(c(-c6c(F)cccc6F)c6ccc([nH]6)c(-c6c(F)cccc6F)c6nc(c(-c7c(F)cccc7F)c7ccc4[nH]7)C=C6)C=C5)cc3)ccc2c1
REMARK SMILES IDX 15 1 14 2 13 3 11 4 12 5 9 7 10 8 8 9 3 10 4 11 78 12 5 13
REMARK SMILES IDX 77 14 6 15 76 16 7 17 75 18 2 19 1 20 16 21 17 22 18 23
REMARK SMILES IDX 19 24 20 26 21 27 22 28 74 29 23 30 73 31 24 32 25 33 26 34
REMARK SMILES IDX 67 35 27 36 72 37 66 38 68 39 28 40 71 41 65 42 64 43 29 45
REMARK SMILES IDX 55 46 38 47 54 48 39 49 42 50 53 51 69 52 40 53 41 54 52 56
REMARK SMILES IDX 70 57 43 58 30 59 31 60 36 61 32 62 33 63 35 64 37 65 34 66
REMARK SMILES IDX 56 67 57 68 62 69 58 70 59 71 61 72 63 73 60 74 44 75 45 76
REMARK SMILES IDX 50 77 46 78 47 79 49 80 51 81 48 82
REMARK H PARENT 13 6 18 25 68 44 42 55
REMARK Flexibility Score: inf
ROOT
ATOM      1  C   UNL A   1      31.648  29.038  27.268  1.00  0.00     0.023 C 
ENDROOT
BRANCH   1   2
ATOM      2  C   UNL A   1      32.629  27.892  27.022  1.00  0.00     0.116 C 
BRANCH   2   3
ATOM      3  N   UNL A   1      32.004  26.597  27.192  1.00  0.00    -0.356 N 
ATOM      4  C   UNL A   1      31.663  25.629  26.297  1.00  0.00     0.227 C 
ATOM      5  O   UNL A   1      31.052  24.656  26.756  1.00  0.00    -0.274 OA
ATOM      6  H   UNL A   1      31.786  26.376  28.126  1.00  0.00     0.163 HD
BRANCH   4   7
ATOM      7  C   UNL A   1      32.000  25.683  24.796  1.00  0.00     0.105 C 
ATOM      8  C   UNL A   1      33.449  25.325  24.467  1.00  0.00     0.023 C 
BRANCH   7   9
ATOM      9  C   UNL A   1      31.438  26.910  24.093  1.00  0.00    -0.035 A 
ATOM     10  C   UNL A   1      28.500  30.265  21.638  1.00  0.00     0.119 A 
ATOM     11  C   UNL A   1      27.639  29.425  22.341  1.00  0.00     0.047 A 
ATOM     12  C   UNL A   1      29.881  30.069  21.729  1.00  0.00     0.055 A 
ATOM     13  C   UNL A   1      28.160  28.434  23.176  1.00  0.00     0.012 A 
ATOM     14  C   UNL A   1      30.418  29.051  22.535  1.00  0.00    -0.015 A 
ATOM     15  C   UNL A   1      29.546  28.242  23.288  1.00  0.00    -0.018 A 
ATOM     16  C   UNL A   1      31.796  28.803  22.599  1.00  0.00     0.009 A 
ATOM     17  C   UNL A   1      30.074  27.227  24.104  1.00  0.00     0.013 A 
ATOM     18  C   UNL A   1      32.295  27.729  23.343  1.00  0.00     0.005 A 
BRANCH  10  19
ATOM     19  O   UNL A   1      28.107  31.285  20.815  1.00  0.00    -0.497 OA
ATOM     20  C   UNL A   1      28.011  32.569  21.424  1.00  0.00     0.278 C 
ENDBRANCH  10  19
ENDBRANCH   7   9
ENDBRANCH   4   7
ENDBRANCH   2   3
ENDBRANCH   1   2
BRANCH   1  21
ATOM     21  C   UNL A   1      31.902  30.300  26.452  1.00  0.00     0.023 C 
BRANCH  21  22
ATOM     22  C   UNL A   1      32.943  31.247  27.034  1.00  0.00     0.116 C 
BRANCH  22  23
ATOM     23  N   UNL A   1      32.435  32.577  27.343  1.00  0.00    -0.352 N 
ATOM     24  C   UNL A   1      33.032  33.567  28.094  1.00  0.00     0.251 C 
ATOM     25  H   UNL A   1      31.552  32.797  26.968  1.00  0.00     0.163 HD
ATOM     26  O   UNL A   1      32.449  34.615  28.325  1.00  0.00    -0.269 OA
BRANCH  24  27
ATOM     27  C   UNL A   1      34.375  33.315  28.661  1.00  0.00     0.039 A 
ATOM     28  C   UNL A   1      34.474  32.652  29.885  1.00  0.00     0.014 A 
ATOM     29  C   UNL A   1      35.524  33.667  27.949  1.00  0.00     0.014 A 
ATOM     30  C   UNL A   1      35.730  32.259  30.354  1.00  0.00     0.010 A 
ATOM     31  C   UNL A   1      36.763  33.206  28.376  1.00  0.00     0.010 A 
ATOM     32  C   UNL A   1      36.878  32.491  29.578  1.00  0.00    -0.014 A 
BRANCH  32  33
ATOM     33  C   UNL A   1      38.211  31.997  30.000  1.00  0.00     0.031 A 
ATOM     34  C   UNL A   1      38.717  30.678  29.486  1.00  0.00     0.074 A 
ATOM     35  C   UNL A   1      38.930  32.696  30.899  1.00  0.00     0.049 A 
ATOM     36  N   UNL A   1      39.802  30.025  29.813  1.00  0.00    -0.248 NA
ATOM     37  C   UNL A   1      37.875  29.989  28.495  1.00  0.00     0.031 C 
ATOM     38  C   UNL A   1      38.529  33.966  31.509  1.00  0.00     0.029 A 
ATOM     39  N   UNL A   1      40.151  32.430  31.467  1.00  0.00    -0.354 N 
ATOM     40  C   UNL A   1      39.763  28.845  29.082  1.00  0.00     0.074 A 
ATOM     41  C   UNL A   1      38.524  28.846  28.338  1.00  0.00     0.031 C 
ATOM     42  C   UNL A   1      39.496  34.381  32.344  1.00  0.00     0.029 A 
ATOM     43  C   UNL A   1      40.568  33.390  32.357  1.00  0.00     0.049 A 
ATOM     44  H   UNL A   1      40.678  31.626  31.257  1.00  0.00     0.167 HD
ATOM     45  C   UNL A   1      40.692  27.861  29.014  1.00  0.00     0.037 A 
ATOM     46  C   UNL A   1      41.688  33.461  33.100  1.00  0.00     0.037 A 
ATOM     47  C   UNL A   1      41.939  27.876  29.729  1.00  0.00     0.049 A 
ATOM     48  C   UNL A   1      42.703  32.355  33.004  1.00  0.00     0.074 A 
ATOM     49  C   UNL A   1      42.962  26.944  29.701  1.00  0.00     0.029 A 
ATOM     50  N   UNL A   1      42.337  28.881  30.596  1.00  0.00    -0.354 N 
ATOM     51  N   UNL A   1      42.673  31.266  32.275  1.00  0.00    -0.248 NA
ATOM     52  C   UNL A   1      43.910  32.491  33.833  1.00  0.00     0.031 C 
ATOM     53  C   UNL A   1      43.971  27.376  30.568  1.00  0.00     0.029 A 
ATOM     54  C   UNL A   1      43.589  28.592  31.111  1.00  0.00     0.049 A 
ATOM     55  H   UNL A   1      41.808  29.683  30.813  1.00  0.00     0.167 HD
ATOM     56  C   UNL A   1      43.866  30.605  32.532  1.00  0.00     0.074 A 
ATOM     57  C   UNL A   1      44.603  31.419  33.476  1.00  0.00     0.031 C 
ATOM     58  C   UNL A   1      44.313  29.428  32.033  1.00  0.00     0.037 A 
BRANCH  45  59
ATOM     59  C   UNL A   1      40.395  26.698  28.114  1.00  0.00     0.057 A 
ATOM     60  C   UNL A   1      40.982  26.585  26.848  1.00  0.00     0.134 A 
ATOM     61  C   UNL A   1      39.539  25.671  28.526  1.00  0.00     0.134 A 
ATOM     62  F   UNL A   1      41.799  27.545  26.389  1.00  0.00    -0.206 F 
ATOM     63  C   UNL A   1      40.709  25.503  26.010  1.00  0.00     0.040 A 
ATOM     64  C   UNL A   1      39.276  24.571  27.708  1.00  0.00     0.040 A 
ATOM     65  F   UNL A   1      38.947  25.717  29.728  1.00  0.00    -0.206 F 
ATOM     66  C   UNL A   1      39.858  24.487  26.443  1.00  0.00     0.006 A 
ENDBRANCH  45  59
BRANCH  46  67
ATOM     67  C   UNL A   1      41.934  34.632  33.979  1.00  0.00     0.057 A 
ATOM     68  C   UNL A   1      41.549  34.610  35.325  1.00  0.00     0.134 A 
ATOM     69  C   UNL A   1      42.525  35.804  33.495  1.00  0.00     0.134 A 
ATOM     70  F   UNL A   1      40.960  33.521  35.841  1.00  0.00    -0.206 F 
ATOM     71  C   UNL A   1      41.722  35.720  36.154  1.00  0.00     0.040 A 
ATOM     72  C   UNL A   1      42.724  36.913  34.318  1.00  0.00     0.040 A 
ATOM     73  F   UNL A   1      42.920  35.885  32.217  1.00  0.00    -0.206 F 
ATOM     74  C   UNL A   1      42.313  36.876  35.650  1.00  0.00     0.006 A 
ENDBRANCH  46  67
BRANCH  58  75
ATOM     75  C   UNL A   1      45.677  28.977  32.460  1.00  0.00     0.057 A 
ATOM     76  C   UNL A   1      45.867  28.154  33.576  1.00  0.00     0.134 A 
ATOM     77  C   UNL A   1      46.809  29.343  31.722  1.00  0.00     0.134 A 
ATOM     78  F   UNL A   1      44.822  27.781  34.330  1.00  0.00    -0.206 F 
ATOM     79  C   UNL A   1      47.139  27.725  33.954  1.00  0.00     0.040 A 
ATOM     80  C   UNL A   1      48.085  28.903  32.077  1.00  0.00     0.040 A 
ATOM     81  F   UNL A   1      46.694  30.125  30.638  1.00  0.00    -0.206 F 
ATOM     82  C   UNL A   1      48.252  28.094  33.200  1.00  0.00     0.006 A 
ENDBRANCH  58  75
ENDBRANCH  32  33
ENDBRANCH  24  27
ENDBRANCH  22  23
ENDBRANCH  21  22
ENDBRANCH   1  21
TORSDOF 13
ENDMDL
