MODEL 1
REMARK VINA RESULT:     -11.6      0.000      0.000
REMARK SMILES Cc1nonc1C[C@@H](C(=O)NCCCCNC(=O)c1ccc(-c2c3nc(c(-c4c(F)cccc4F)c4ccc([nH]4)c(-c4c(F)cccc4F)c4nc(c(-c5c(F)cccc5F)c5ccc2[nH]5)C=C4)C=C3)cc1)c1ccccc1Br
REMARK SMILES IDX 13 1 12 2 11 3 9 4 10 5 8 7 7 8 6 9 1 10 2 11 3 12 4 13 5 14
REMARK SMILES IDX 73 15 74 16 78 17 75 18 77 19 79 20 76 21 14 22 15 23 16 24
REMARK SMILES IDX 17 25 18 27 19 28 20 29 72 30 21 31 71 32 22 33 23 34 24 35
REMARK SMILES IDX 65 36 25 37 70 38 64 39 66 40 26 41 69 42 63 43 62 44 27 46
REMARK SMILES IDX 53 47 36 48 52 49 37 50 40 51 51 52 67 53 38 54 39 55 50 57
REMARK SMILES IDX 68 58 41 59 28 60 29 61 34 62 30 63 31 64 33 65 35 66 32 67
REMARK SMILES IDX 54 68 55 69 60 70 56 71 57 72 59 73 61 74 58 75 42 76 43 77
REMARK SMILES IDX 48 78 44 79 45 80 47 81 49 82 46 83
REMARK H PARENT 11 6 16 26 66 45 40 56
REMARK Flexibility Score: inf
ROOT
ATOM      1  C   UNL A   1      37.414  21.738  24.559  1.00  0.00     0.023 C 
ENDROOT
BRANCH   1   2
ATOM      2  C   UNL A   1      35.889  21.818  24.484  1.00  0.00     0.116 C 
BRANCH   2   3
ATOM      3  N   UNL A   1      35.336  21.318  25.726  1.00  0.00    -0.356 N 
ATOM      4  C   UNL A   1      34.050  21.418  26.182  1.00  0.00     0.227 C 
ATOM      5  O   UNL A   1      33.882  21.459  27.403  1.00  0.00    -0.274 OA
ATOM      6  H   UNL A   1      35.966  20.846  26.318  1.00  0.00     0.163 HD
BRANCH   4   7
ATOM      7  C   UNL A   1      32.868  21.362  25.192  1.00  0.00     0.116 C 
BRANCH   7   8
ATOM      8  C   UNL A   1      31.600  21.873  25.928  1.00  0.00     0.080 C 
BRANCH   8   9
ATOM      9  C   UNL A   1      31.366  23.340  26.012  1.00  0.00     0.109 A 
ATOM     10  C   UNL A   1      30.639  24.045  23.590  1.00  0.00     0.073 C 
ATOM     11  C   UNL A   1      30.954  24.254  25.018  1.00  0.00     0.105 A 
ATOM     12  N   UNL A   1      30.805  25.463  25.563  1.00  0.00    -0.055 NA
ATOM     13  O   UNL A   1      31.039  25.280  26.919  1.00  0.00    -0.244 OA
ATOM     14  N   UNL A   1      31.355  23.955  27.196  1.00  0.00    -0.055 NA
ENDBRANCH   8   9
ENDBRANCH   7   8
BRANCH   7  15
ATOM     15  C   UNL A   1      32.690  19.900  24.667  1.00  0.00    -0.021 A 
ATOM     16  C   UNL A   1      32.814  18.800  25.547  1.00  0.00     0.006 A 
ATOM     17  C   UNL A   1      32.448  19.583  23.310  1.00  0.00     0.021 A 
ATOM     18  C   UNL A   1      32.831  17.477  25.095  1.00  0.00     0.000 A 
ATOM     19  C   UNL A   1      32.511  18.255  22.855  1.00  0.00     0.016 A 
ATOM     20  Br  UNL A   1      31.938  20.859  21.992  1.00  0.00    -0.051 Br
ATOM     21  C   UNL A   1      32.724  17.206  23.742  1.00  0.00     0.001 A 
ENDBRANCH   7  15
ENDBRANCH   4   7
ENDBRANCH   2   3
ENDBRANCH   1   2
BRANCH   1  22
ATOM     22  C   UNL A   1      37.967  20.379  24.967  1.00  0.00     0.023 C 
BRANCH  22  23
ATOM     23  C   UNL A   1      39.023  20.436  26.055  1.00  0.00     0.116 C 
BRANCH  23  24
ATOM     24  N   UNL A   1      40.091  19.460  25.875  1.00  0.00    -0.352 N 
ATOM     25  C   UNL A   1      41.452  19.608  26.032  1.00  0.00     0.251 C 
ATOM     26  H   UNL A   1      39.796  18.563  25.600  1.00  0.00     0.163 HD
ATOM     27  O   UNL A   1      42.216  18.708  25.728  1.00  0.00    -0.269 OA
BRANCH  25  28
ATOM     28  C   UNL A   1      41.975  20.893  26.539  1.00  0.00     0.039 A 
ATOM     29  C   UNL A   1      42.359  21.877  25.626  1.00  0.00     0.014 A 
ATOM     30  C   UNL A   1      42.011  21.144  27.910  1.00  0.00     0.014 A 
ATOM     31  C   UNL A   1      42.692  23.150  26.093  1.00  0.00     0.010 A 
ATOM     32  C   UNL A   1      42.227  22.438  28.361  1.00  0.00     0.010 A 
ATOM     33  C   UNL A   1      42.576  23.454  27.459  1.00  0.00    -0.014 A 
BRANCH  33  34
ATOM     34  C   UNL A   1      42.827  24.820  27.982  1.00  0.00     0.031 A 
ATOM     35  C   UNL A   1      44.219  25.210  28.400  1.00  0.00     0.074 A 
ATOM     36  C   UNL A   1      41.799  25.669  28.171  1.00  0.00     0.049 A 
ATOM     37  N   UNL A   1      44.630  26.296  29.000  1.00  0.00    -0.248 NA
ATOM     38  C   UNL A   1      45.285  24.223  28.152  1.00  0.00     0.031 C 
ATOM     39  C   UNL A   1      40.393  25.386  27.870  1.00  0.00     0.029 A 
ATOM     40  N   UNL A   1      41.777  26.944  28.677  1.00  0.00    -0.354 N 
ATOM     41  C   UNL A   1      45.987  26.106  29.234  1.00  0.00     0.074 A 
ATOM     42  C   UNL A   1      46.316  24.778  28.768  1.00  0.00     0.031 C 
ATOM     43  C   UNL A   1      39.653  26.467  28.165  1.00  0.00     0.029 A 
ATOM     44  C   UNL A   1      40.522  27.503  28.712  1.00  0.00     0.049 A 
ATOM     45  H   UNL A   1      42.585  27.415  28.985  1.00  0.00     0.167 HD
ATOM     46  C   UNL A   1      46.884  26.970  29.761  1.00  0.00     0.037 A 
ATOM     47  C   UNL A   1      40.121  28.714  29.141  1.00  0.00     0.037 A 
ATOM     48  C   UNL A   1      46.563  28.312  30.166  1.00  0.00     0.049 A 
ATOM     49  C   UNL A   1      41.143  29.673  29.683  1.00  0.00     0.074 A 
ATOM     50  C   UNL A   1      47.412  29.298  30.634  1.00  0.00     0.029 A 
ATOM     51  N   UNL A   1      45.288  28.858  30.139  1.00  0.00    -0.354 N 
ATOM     52  N   UNL A   1      42.435  29.506  29.836  1.00  0.00    -0.248 NA
ATOM     53  C   UNL A   1      40.655  30.993  30.107  1.00  0.00     0.031 C 
ATOM     54  C   UNL A   1      46.646  30.433  30.919  1.00  0.00     0.029 A 
ATOM     55  C   UNL A   1      45.327  30.165  30.592  1.00  0.00     0.049 A 
ATOM     56  H   UNL A   1      44.478  28.386  29.841  1.00  0.00     0.167 HD
ATOM     57  C   UNL A   1      42.917  30.704  30.346  1.00  0.00     0.074 A 
ATOM     58  C   UNL A   1      41.780  31.594  30.465  1.00  0.00     0.031 C 
ATOM     59  C   UNL A   1      44.185  31.037  30.688  1.00  0.00     0.037 A 
BRANCH  46  60
ATOM     60  C   UNL A   1      48.298  26.492  29.908  1.00  0.00     0.057 A 
ATOM     61  C   UNL A   1      49.258  26.703  28.908  1.00  0.00     0.134 A 
ATOM     62  C   UNL A   1      48.711  25.825  31.068  1.00  0.00     0.134 A 
ATOM     63  F   UNL A   1      48.924  27.321  27.765  1.00  0.00    -0.206 F 
ATOM     64  C   UNL A   1      50.567  26.238  29.043  1.00  0.00     0.040 A 
ATOM     65  C   UNL A   1      50.025  25.381  31.227  1.00  0.00     0.040 A 
ATOM     66  F   UNL A   1      47.845  25.594  32.066  1.00  0.00    -0.206 F 
ATOM     67  C   UNL A   1      50.955  25.580  30.208  1.00  0.00     0.006 A 
ENDBRANCH  46  60
BRANCH  47  68
ATOM     68  C   UNL A   1      38.692  29.106  29.040  1.00  0.00     0.057 A 
ATOM     69  C   UNL A   1      38.159  29.566  27.830  1.00  0.00     0.134 A 
ATOM     70  C   UNL A   1      37.831  29.040  30.141  1.00  0.00     0.134 A 
ATOM     71  F   UNL A   1      38.939  29.668  26.744  1.00  0.00    -0.206 F 
ATOM     72  C   UNL A   1      36.825  29.965  27.723  1.00  0.00     0.040 A 
ATOM     73  C   UNL A   1      36.490  29.415  30.043  1.00  0.00     0.040 A 
ATOM     74  F   UNL A   1      38.279  28.601  31.326  1.00  0.00    -0.206 F 
ATOM     75  C   UNL A   1      35.986  29.885  28.832  1.00  0.00     0.006 A 
ENDBRANCH  47  68
BRANCH  59  76
ATOM     76  C   UNL A   1      44.416  32.433  31.184  1.00  0.00     0.057 A 
ATOM     77  C   UNL A   1      44.385  32.746  32.548  1.00  0.00     0.134 A 
ATOM     78  C   UNL A   1      44.718  33.465  30.287  1.00  0.00     0.134 A 
ATOM     79  F   UNL A   1      44.088  31.803  33.455  1.00  0.00    -0.206 F 
ATOM     80  C   UNL A   1      44.629  34.042  33.003  1.00  0.00     0.040 A 
ATOM     81  C   UNL A   1      44.988  34.759  30.730  1.00  0.00     0.040 A 
ATOM     82  F   UNL A   1      44.772  33.227  28.968  1.00  0.00    -0.206 F 
ATOM     83  C   UNL A   1      44.939  35.052  32.092  1.00  0.00     0.006 A 
ENDBRANCH  59  76
ENDBRANCH  33  34
ENDBRANCH  25  28
ENDBRANCH  23  24
ENDBRANCH  22  23
ENDBRANCH   1  22
TORSDOF 14
ENDMDL
MODEL 2
REMARK VINA RESULT:     -11.6      1.544      6.838
REMARK SMILES Cc1nonc1C[C@@H](C(=O)NCCCCNC(=O)c1ccc(-c2c3nc(c(-c4c(F)cccc4F)c4ccc([nH]4)c(-c4c(F)cccc4F)c4nc(c(-c5c(F)cccc5F)c5ccc2[nH]5)C=C4)C=C3)cc1)c1ccccc1Br
REMARK SMILES IDX 13 1 12 2 11 3 9 4 10 5 8 7 7 8 6 9 1 10 2 11 3 12 4 13 5 14
REMARK SMILES IDX 73 15 74 16 78 17 75 18 77 19 79 20 76 21 14 22 15 23 16 24
REMARK SMILES IDX 17 25 18 27 19 28 20 29 72 30 21 31 71 32 22 33 23 34 24 35
REMARK SMILES IDX 65 36 25 37 70 38 64 39 66 40 26 41 69 42 63 43 62 44 27 46
REMARK SMILES IDX 53 47 36 48 52 49 37 50 40 51 51 52 67 53 38 54 39 55 50 57
REMARK SMILES IDX 68 58 41 59 28 60 29 61 34 62 30 63 31 64 33 65 35 66 32 67
REMARK SMILES IDX 54 68 55 69 60 70 56 71 57 72 59 73 61 74 58 75 42 76 43 77
REMARK SMILES IDX 48 78 44 79 45 80 47 81 49 82 46 83
REMARK H PARENT 11 6 16 26 66 45 40 56
REMARK Flexibility Score: inf
ROOT
ATOM      1  C   UNL A   1      37.095  22.310  23.829  1.00  0.00     0.023 C 
ENDROOT
BRANCH   1   2
ATOM      2  C   UNL A   1      36.178  23.396  24.391  1.00  0.00     0.116 C 
BRANCH   2   3
ATOM      3  N   UNL A   1      35.214  23.763  23.375  1.00  0.00    -0.356 N 
ATOM      4  C   UNL A   1      34.079  23.096  23.002  1.00  0.00     0.227 C 
ATOM      5  O   UNL A   1      33.710  23.211  21.831  1.00  0.00    -0.274 OA
ATOM      6  H   UNL A   1      35.399  24.599  22.888  1.00  0.00     0.163 HD
BRANCH   4   7
ATOM      7  C   UNL A   1      33.246  22.331  24.053  1.00  0.00     0.116 C 
BRANCH   7   8
ATOM      8  C   UNL A   1      32.504  21.175  23.331  1.00  0.00     0.080 C 
BRANCH   8   9
ATOM      9  C   UNL A   1      32.331  19.881  24.045  1.00  0.00     0.109 A 
ATOM     10  C   UNL A   1      32.410  18.057  22.159  1.00  0.00     0.073 C 
ATOM     11  C   UNL A   1      32.296  18.562  23.543  1.00  0.00     0.105 A 
ATOM     12  N   UNL A   1      32.194  17.704  24.559  1.00  0.00    -0.055 NA
ATOM     13  O   UNL A   1      32.254  18.489  25.703  1.00  0.00    -0.244 OA
ATOM     14  N   UNL A   1      32.371  19.835  25.377  1.00  0.00    -0.055 NA
ENDBRANCH   8   9
ENDBRANCH   7   8
BRANCH   7  15
ATOM     15  C   UNL A   1      32.255  23.314  24.756  1.00  0.00    -0.021 A 
ATOM     16  C   UNL A   1      31.225  23.945  24.020  1.00  0.00     0.006 A 
ATOM     17  C   UNL A   1      32.345  23.668  26.122  1.00  0.00     0.021 A 
ATOM     18  C   UNL A   1      30.425  24.954  24.564  1.00  0.00     0.000 A 
ATOM     19  C   UNL A   1      31.569  24.714  26.652  1.00  0.00     0.016 A 
ATOM     20  Br  UNL A   1      33.423  22.747  27.393  1.00  0.00    -0.051 Br
ATOM     21  C   UNL A   1      30.626  25.370  25.869  1.00  0.00     0.001 A 
ENDBRANCH   7  15
ENDBRANCH   4   7
ENDBRANCH   2   3
ENDBRANCH   1   2
BRANCH   1  22
ATOM     22  C   UNL A   1      37.247  21.079  24.712  1.00  0.00     0.023 C 
BRANCH  22  23
ATOM     23  C   UNL A   1      38.397  21.158  25.700  1.00  0.00     0.116 C 
BRANCH  23  24
ATOM     24  N   UNL A   1      39.295  20.011  25.635  1.00  0.00    -0.352 N 
ATOM     25  C   UNL A   1      40.627  19.918  25.970  1.00  0.00     0.251 C 
ATOM     26  H   UNL A   1      38.888  19.180  25.301  1.00  0.00     0.163 HD
ATOM     27  O   UNL A   1      41.258  18.900  25.745  1.00  0.00    -0.269 OA
BRANCH  25  28
ATOM     28  C   UNL A   1      41.293  21.091  26.574  1.00  0.00     0.039 A 
ATOM     29  C   UNL A   1      41.892  22.037  25.739  1.00  0.00     0.014 A 
ATOM     30  C   UNL A   1      41.256  21.286  27.955  1.00  0.00     0.014 A 
ATOM     31  C   UNL A   1      42.371  23.227  26.288  1.00  0.00     0.010 A 
ATOM     32  C   UNL A   1      41.625  22.515  28.480  1.00  0.00     0.010 A 
ATOM     33  C   UNL A   1      42.192  23.497  27.654  1.00  0.00    -0.014 A 
BRANCH  33  34
ATOM     34  C   UNL A   1      42.601  24.790  28.257  1.00  0.00     0.031 A 
ATOM     35  C   UNL A   1      41.570  25.862  28.485  1.00  0.00     0.074 A 
ATOM     36  C   UNL A   1      43.902  25.035  28.508  1.00  0.00     0.049 A 
ATOM     37  N   UNL A   1      41.735  27.100  28.874  1.00  0.00    -0.248 NA
ATOM     38  C   UNL A   1      40.171  25.508  28.189  1.00  0.00     0.031 C 
ATOM     39  C   UNL A   1      45.007  24.103  28.267  1.00  0.00     0.029 A 
ATOM     40  N   UNL A   1      44.518  26.153  29.011  1.00  0.00    -0.354 N 
ATOM     41  C   UNL A   1      40.471  27.678  28.831  1.00  0.00     0.074 A 
ATOM     42  C   UNL A   1      39.563  26.676  28.321  1.00  0.00     0.031 C 
ATOM     43  C   UNL A   1      46.158  24.675  28.655  1.00  0.00     0.029 A 
ATOM     44  C   UNL A   1      45.881  26.025  29.133  1.00  0.00     0.049 A 
ATOM     45  H   UNL A   1      44.030  26.969  29.263  1.00  0.00     0.167 HD
ATOM     46  C   UNL A   1      40.095  28.920  29.212  1.00  0.00     0.037 A 
ATOM     47  C   UNL A   1      46.801  26.901  29.577  1.00  0.00     0.037 A 
ATOM     48  C   UNL A   1      40.992  29.892  29.776  1.00  0.00     0.049 A 
ATOM     49  C   UNL A   1      46.353  28.262  30.034  1.00  0.00     0.074 A 
ATOM     50  C   UNL A   1      40.701  31.149  30.272  1.00  0.00     0.029 A 
ATOM     51  N   UNL A   1      42.358  29.706  29.928  1.00  0.00    -0.354 N 
ATOM     52  N   UNL A   1      45.146  28.772  30.052  1.00  0.00    -0.248 NA
ATOM     53  C   UNL A   1      47.395  29.167  30.538  1.00  0.00     0.031 C 
ATOM     54  C   UNL A   1      41.896  31.738  30.698  1.00  0.00     0.029 A 
ATOM     55  C   UNL A   1      42.925  30.831  30.502  1.00  0.00     0.049 A 
ATOM     56  H   UNL A   1      42.851  28.894  29.668  1.00  0.00     0.167 HD
ATOM     57  C   UNL A   1      45.277  30.043  30.594  1.00  0.00     0.074 A 
ATOM     58  C   UNL A   1      46.681  30.223  30.903  1.00  0.00     0.031 C 
ATOM     59  C   UNL A   1      44.323  30.980  30.814  1.00  0.00     0.037 A 
BRANCH  46  60
ATOM     60  C   UNL A   1      38.650  29.285  29.045  1.00  0.00     0.057 A 
ATOM     61  C   UNL A   1      38.121  29.658  27.802  1.00  0.00     0.134 A 
ATOM     62  C   UNL A   1      37.773  29.251  30.136  1.00  0.00     0.134 A 
ATOM     63  F   UNL A   1      38.911  29.727  26.720  1.00  0.00    -0.206 F 
ATOM     64  C   UNL A   1      36.779  30.016  27.656  1.00  0.00     0.040 A 
ATOM     65  C   UNL A   1      36.423  29.578  29.997  1.00  0.00     0.040 A 
ATOM     66  F   UNL A   1      38.212  28.899  31.353  1.00  0.00    -0.206 F 
ATOM     67  C   UNL A   1      35.925  29.970  28.756  1.00  0.00     0.006 A 
ENDBRANCH  46  60
BRANCH  47  68
ATOM     68  C   UNL A   1      48.232  26.510  29.648  1.00  0.00     0.057 A 
ATOM     69  C   UNL A   1      49.106  26.798  28.594  1.00  0.00     0.134 A 
ATOM     70  C   UNL A   1      48.757  25.840  30.758  1.00  0.00     0.134 A 
ATOM     71  F   UNL A   1      48.657  27.423  27.496  1.00  0.00    -0.206 F 
ATOM     72  C   UNL A   1      50.448  26.414  28.631  1.00  0.00     0.040 A 
ATOM     73  C   UNL A   1      50.102  25.470  30.818  1.00  0.00     0.040 A 
ATOM     74  F   UNL A   1      47.973  25.542  31.804  1.00  0.00    -0.206 F 
ATOM     75  C   UNL A   1      50.950  25.751  29.749  1.00  0.00     0.006 A 
ENDBRANCH  47  68
BRANCH  59  76
ATOM     76  C   UNL A   1      44.759  32.264  31.453  1.00  0.00     0.057 A 
ATOM     77  C   UNL A   1      45.151  33.372  30.692  1.00  0.00     0.134 A 
ATOM     78  C   UNL A   1      44.741  32.407  32.846  1.00  0.00     0.134 A 
ATOM     79  F   UNL A   1      45.202  33.293  29.353  1.00  0.00    -0.206 F 
ATOM     80  C   UNL A   1      45.529  34.572  31.295  1.00  0.00     0.040 A 
ATOM     81  C   UNL A   1      45.092  33.608  33.460  1.00  0.00     0.040 A 
ATOM     82  F   UNL A   1      44.366  31.385  33.630  1.00  0.00    -0.206 F 
ATOM     83  C   UNL A   1      45.492  34.694  32.683  1.00  0.00     0.006 A 
ENDBRANCH  59  76
ENDBRANCH  33  34
ENDBRANCH  25  28
ENDBRANCH  23  24
ENDBRANCH  22  23
ENDBRANCH   1  22
TORSDOF 14
ENDMDL
MODEL 3
REMARK VINA RESULT:     -11.6      5.072     10.536
REMARK SMILES Cc1nonc1C[C@@H](C(=O)NCCCCNC(=O)c1ccc(-c2c3nc(c(-c4c(F)cccc4F)c4ccc([nH]4)c(-c4c(F)cccc4F)c4nc(c(-c5c(F)cccc5F)c5ccc2[nH]5)C=C4)C=C3)cc1)c1ccccc1Br
REMARK SMILES IDX 13 1 12 2 11 3 9 4 10 5 8 7 7 8 6 9 1 10 2 11 3 12 4 13 5 14
REMARK SMILES IDX 73 15 74 16 78 17 75 18 77 19 79 20 76 21 14 22 15 23 16 24
REMARK SMILES IDX 17 25 18 27 19 28 20 29 72 30 21 31 71 32 22 33 23 34 24 35
REMARK SMILES IDX 65 36 25 37 70 38 64 39 66 40 26 41 69 42 63 43 62 44 27 46
REMARK SMILES IDX 53 47 36 48 52 49 37 50 40 51 51 52 67 53 38 54 39 55 50 57
REMARK SMILES IDX 68 58 41 59 28 60 29 61 34 62 30 63 31 64 33 65 35 66 32 67
REMARK SMILES IDX 54 68 55 69 60 70 56 71 57 72 59 73 61 74 58 75 42 76 43 77
REMARK SMILES IDX 48 78 44 79 45 80 47 81 49 82 46 83
REMARK H PARENT 11 6 16 26 66 45 40 56
REMARK Flexibility Score: inf
ROOT
ATOM      1  C   UNL A   1      35.572  32.852  30.448  1.00  0.00     0.023 C 
ENDROOT
BRANCH   1   2
ATOM      2  C   UNL A   1      35.188  32.133  31.741  1.00  0.00     0.116 C 
BRANCH   2   3
ATOM      3  N   UNL A   1      35.551  32.972  32.865  1.00  0.00    -0.356 N 
ATOM      4  C   UNL A   1      36.497  32.741  33.825  1.00  0.00     0.227 C 
ATOM      5  O   UNL A   1      36.300  33.221  34.944  1.00  0.00    -0.274 OA
ATOM      6  H   UNL A   1      35.052  33.818  32.948  1.00  0.00     0.163 HD
BRANCH   4   7
ATOM      7  C   UNL A   1      37.805  32.004  33.467  1.00  0.00     0.116 C 
BRANCH   7   8
ATOM      8  C   UNL A   1      37.832  30.663  34.248  1.00  0.00     0.080 C 
BRANCH   8   9
ATOM      9  C   UNL A   1      38.292  29.436  33.544  1.00  0.00     0.109 A 
ATOM     10  C   UNL A   1      40.905  29.663  33.433  1.00  0.00     0.073 C 
ATOM     11  C   UNL A   1      39.596  29.016  33.205  1.00  0.00     0.105 A 
ATOM     12  N   UNL A   1      39.539  27.808  32.641  1.00  0.00    -0.055 NA
ATOM     13  O   UNL A   1      38.203  27.439  32.708  1.00  0.00    -0.244 OA
ATOM     14  N   UNL A   1      37.440  28.439  33.299  1.00  0.00    -0.055 NA
ENDBRANCH   8   9
ENDBRANCH   7   8
BRANCH   7  15
ATOM     15  C   UNL A   1      39.031  32.910  33.815  1.00  0.00    -0.021 A 
ATOM     16  C   UNL A   1      39.790  32.673  34.985  1.00  0.00     0.006 A 
ATOM     17  C   UNL A   1      39.425  34.022  33.036  1.00  0.00     0.021 A 
ATOM     18  C   UNL A   1      40.784  33.553  35.424  1.00  0.00     0.000 A 
ATOM     19  C   UNL A   1      40.393  34.928  33.505  1.00  0.00     0.016 A 
ATOM     20  Br  UNL A   1      38.782  34.375  31.279  1.00  0.00    -0.051 Br
ATOM     21  C   UNL A   1      41.056  34.705  34.706  1.00  0.00     0.001 A 
ENDBRANCH   7  15
ENDBRANCH   4   7
ENDBRANCH   2   3
ENDBRANCH   1   2
BRANCH   1  22
ATOM     22  C   UNL A   1      34.413  33.135  29.502  1.00  0.00     0.023 C 
BRANCH  22  23
ATOM     23  C   UNL A   1      34.597  32.573  28.104  1.00  0.00     0.116 C 
BRANCH  23  24
ATOM     24  N   UNL A   1      33.964  31.273  27.916  1.00  0.00    -0.352 N 
ATOM     25  C   UNL A   1      34.521  30.013  27.939  1.00  0.00     0.251 C 
ATOM     26  H   UNL A   1      32.995  31.300  27.748  1.00  0.00     0.163 HD
ATOM     27  O   UNL A   1      33.858  29.032  27.648  1.00  0.00    -0.269 OA
BRANCH  25  28
ATOM     28  C   UNL A   1      35.951  29.872  28.283  1.00  0.00     0.039 A 
ATOM     29  C   UNL A   1      36.302  29.424  29.558  1.00  0.00     0.014 A 
ATOM     30  C   UNL A   1      36.931  30.112  27.320  1.00  0.00     0.014 A 
ATOM     31  C   UNL A   1      37.637  29.126  29.834  1.00  0.00     0.010 A 
ATOM     32  C   UNL A   1      38.235  29.705  27.559  1.00  0.00     0.010 A 
ATOM     33  C   UNL A   1      38.604  29.213  28.820  1.00  0.00    -0.014 A 
BRANCH  33  34
ATOM     34  C   UNL A   1      40.016  28.815  29.047  1.00  0.00     0.031 A 
ATOM     35  C   UNL A   1      40.974  29.797  29.664  1.00  0.00     0.074 A 
ATOM     36  C   UNL A   1      40.456  27.617  28.615  1.00  0.00     0.049 A 
ATOM     37  N   UNL A   1      42.268  29.701  29.827  1.00  0.00    -0.248 NA
ATOM     38  C   UNL A   1      40.408  31.081  30.113  1.00  0.00     0.031 C 
ATOM     39  C   UNL A   1      39.641  26.603  27.940  1.00  0.00     0.029 A 
ATOM     40  N   UNL A   1      41.706  27.054  28.668  1.00  0.00    -0.354 N 
ATOM     41  C   UNL A   1      42.671  30.919  30.359  1.00  0.00     0.074 A 
ATOM     42  C   UNL A   1      41.498  31.760  30.433  1.00  0.00     0.031 C 
ATOM     43  C   UNL A   1      40.405  25.531  27.674  1.00  0.00     0.029 A 
ATOM     44  C   UNL A   1      41.769  25.795  28.121  1.00  0.00     0.049 A 
ATOM     45  H   UNL A   1      42.485  27.509  29.061  1.00  0.00     0.167 HD
ATOM     46  C   UNL A   1      43.902  31.295  30.778  1.00  0.00     0.037 A 
ATOM     47  C   UNL A   1      42.810  24.953  27.993  1.00  0.00     0.037 A 
ATOM     48  C   UNL A   1      45.053  30.434  30.758  1.00  0.00     0.049 A 
ATOM     49  C   UNL A   1      44.159  25.376  28.504  1.00  0.00     0.074 A 
ATOM     50  C   UNL A   1      46.326  30.685  31.235  1.00  0.00     0.029 A 
ATOM     51  N   UNL A   1      45.063  29.147  30.241  1.00  0.00    -0.354 N 
ATOM     52  N   UNL A   1      44.512  26.506  29.067  1.00  0.00    -0.248 NA
ATOM     53  C   UNL A   1      45.254  24.406  28.367  1.00  0.00     0.031 C 
ATOM     54  C   UNL A   1      47.117  29.560  30.979  1.00  0.00     0.029 A 
ATOM     55  C   UNL A   1      46.325  28.595  30.379  1.00  0.00     0.049 A 
ATOM     56  H   UNL A   1      44.289  28.693  29.838  1.00  0.00     0.167 HD
ATOM     57  C   UNL A   1      45.859  26.373  29.377  1.00  0.00     0.074 A 
ATOM     58  C   UNL A   1      46.257  25.047  28.950  1.00  0.00     0.031 C 
ATOM     59  C   UNL A   1      46.694  27.267  29.960  1.00  0.00     0.037 A 
BRANCH  46  60
ATOM     60  C   UNL A   1      44.055  32.690  31.307  1.00  0.00     0.057 A 
ATOM     61  C   UNL A   1      44.341  33.773  30.463  1.00  0.00     0.134 A 
ATOM     62  C   UNL A   1      43.901  32.959  32.672  1.00  0.00     0.134 A 
ATOM     63  F   UNL A   1      44.516  33.582  29.147  1.00  0.00    -0.206 F 
ATOM     64  C   UNL A   1      44.501  35.066  30.964  1.00  0.00     0.040 A 
ATOM     65  C   UNL A   1      44.031  34.252  33.181  1.00  0.00     0.040 A 
ATOM     66  F   UNL A   1      43.623  31.970  33.534  1.00  0.00    -0.206 F 
ATOM     67  C   UNL A   1      44.340  35.309  32.326  1.00  0.00     0.006 A 
ENDBRANCH  46  60
BRANCH  47  68
ATOM     68  C   UNL A   1      42.615  23.610  27.390  1.00  0.00     0.057 A 
ATOM     69  C   UNL A   1      42.301  22.505  28.190  1.00  0.00     0.134 A 
ATOM     70  C   UNL A   1      42.743  23.395  26.014  1.00  0.00     0.134 A 
ATOM     71  F   UNL A   1      42.183  22.644  29.518  1.00  0.00    -0.206 F 
ATOM     72  C   UNL A   1      42.142  21.229  27.645  1.00  0.00     0.040 A 
ATOM     73  C   UNL A   1      42.564  22.129  25.452  1.00  0.00     0.040 A 
ATOM     74  F   UNL A   1      43.035  24.414  25.193  1.00  0.00    -0.206 F 
ATOM     75  C   UNL A   1      42.269  21.041  26.270  1.00  0.00     0.006 A 
ENDBRANCH  47  68
BRANCH  59  76
ATOM     76  C   UNL A   1      48.105  26.827  30.206  1.00  0.00     0.057 A 
ATOM     77  C   UNL A   1      48.462  26.095  31.344  1.00  0.00     0.134 A 
ATOM     78  C   UNL A   1      49.108  27.101  29.268  1.00  0.00     0.134 A 
ATOM     79  F   UNL A   1      47.548  25.812  32.285  1.00  0.00    -0.206 F 
ATOM     80  C   UNL A   1      49.773  25.665  31.551  1.00  0.00     0.040 A 
ATOM     81  C   UNL A   1      50.417  26.656  29.450  1.00  0.00     0.040 A 
ATOM     82  F   UNL A   1      48.828  27.791  28.152  1.00  0.00    -0.206 F 
ATOM     83  C   UNL A   1      50.754  25.939  30.598  1.00  0.00     0.006 A 
ENDBRANCH  59  76
ENDBRANCH  33  34
ENDBRANCH  25  28
ENDBRANCH  23  24
ENDBRANCH  22  23
ENDBRANCH   1  22
TORSDOF 14
ENDMDL
