MODEL 1
REMARK VINA RESULT:     -12.6      0.000      0.000
REMARK SMILES O=C(NCCCCNC(=O)[C@@H]1CCCN(c2cnnc(O)c2Cl)C1)c1ccc(-c2c3nc(c(-c4c(F)cccc4F)c4ccc([nH]4)c(-c4c(F)cccc4F)c4nc(c(-c5c(F)cccc5F)c5ccc2[nH]5)C=C4)C=C3)cc1
REMARK SMILES IDX 5 1 4 2 3 3 1 4 2 5 25 7 26 8 78 9 27 10 77 11 28 12 29 13
REMARK SMILES IDX 30 14 71 15 31 16 76 17 70 18 72 19 32 20 75 21 69 22 68 23
REMARK SMILES IDX 33 25 59 26 42 27 58 28 43 29 46 30 57 31 73 32 44 33 45 34
REMARK SMILES IDX 56 36 74 37 47 38 34 39 35 40 40 41 36 42 37 43 39 44 41 45
REMARK SMILES IDX 38 46 60 47 61 48 66 49 62 50 63 51 65 52 67 53 64 54 48 55
REMARK SMILES IDX 49 56 54 57 50 58 51 59 53 60 55 61 52 62 6 63 7 64 8 65
REMARK SMILES IDX 9 66 10 68 11 69 12 70 24 71 13 72 15 73 14 74 16 75 17 76
REMARK SMILES IDX 22 77 18 78 20 79 23 80 19 81 21 82
REMARK H PARENT 3 6 72 24 46 35 8 67 21 83
REMARK Flexibility Score: inf
ROOT
ATOM      1  C   UNL A   1      31.325  31.807  26.520  1.00  0.00     0.023 C 
ENDROOT
BRANCH   1   2
ATOM      2  C   UNL A   1      32.630  32.468  26.952  1.00  0.00     0.116 C 
BRANCH   2   3
ATOM      3  N   UNL A   1      32.435  33.842  27.386  1.00  0.00    -0.352 N 
ATOM      4  O   UNL A   1      32.663  35.635  28.738  1.00  0.00    -0.269 OA
ATOM      5  C   UNL A   1      33.074  34.533  28.384  1.00  0.00     0.251 C 
ATOM      6  H   UNL A   1      31.748  34.347  26.892  1.00  0.00     0.163 HD
BRANCH   5   7
ATOM      7  C   UNL A   1      34.246  33.932  29.047  1.00  0.00     0.039 A 
ATOM      8  C   UNL A   1      35.540  34.347  28.713  1.00  0.00     0.014 A 
ATOM      9  C   UNL A   1      34.045  32.943  30.013  1.00  0.00     0.014 A 
ATOM     10  C   UNL A   1      36.638  33.691  29.261  1.00  0.00     0.010 A 
ATOM     11  C   UNL A   1      35.147  32.324  30.602  1.00  0.00     0.010 A 
ATOM     12  C   UNL A   1      36.450  32.675  30.211  1.00  0.00    -0.014 A 
BRANCH  12  13
ATOM     13  C   UNL A   1      37.623  32.009  30.824  1.00  0.00     0.031 A 
ATOM     14  C   UNL A   1      38.380  30.949  30.075  1.00  0.00     0.074 A 
ATOM     15  C   UNL A   1      37.992  32.360  32.070  1.00  0.00     0.049 A 
ATOM     16  N   UNL A   1      39.399  30.231  30.471  1.00  0.00    -0.248 NA
ATOM     17  C   UNL A   1      37.933  30.656  28.704  1.00  0.00     0.031 C 
ATOM     18  C   UNL A   1      37.330  33.378  32.889  1.00  0.00     0.029 A 
ATOM     19  N   UNL A   1      39.002  31.892  32.869  1.00  0.00    -0.354 N 
ATOM     20  C   UNL A   1      39.713  29.395  29.406  1.00  0.00     0.074 A 
ATOM     21  C   UNL A   1      38.759  29.678  28.354  1.00  0.00     0.031 C 
ATOM     22  C   UNL A   1      37.953  33.457  34.076  1.00  0.00     0.029 A 
ATOM     23  C   UNL A   1      39.019  32.463  34.118  1.00  0.00     0.049 A 
ATOM     24  H   UNL A   1      39.652  31.214  32.577  1.00  0.00     0.167 HD
ATOM     25  C   UNL A   1      40.709  28.481  29.317  1.00  0.00     0.037 A 
ATOM     26  C   UNL A   1      39.785  32.187  35.190  1.00  0.00     0.037 A 
ATOM     27  C   UNL A   1      41.654  28.208  30.370  1.00  0.00     0.049 A 
ATOM     28  C   UNL A   1      40.827  31.108  35.084  1.00  0.00     0.074 A 
ATOM     29  C   UNL A   1      42.738  27.348  30.353  1.00  0.00     0.029 A 
ATOM     30  N   UNL A   1      41.615  28.776  31.634  1.00  0.00    -0.354 N 
ATOM     31  N   UNL A   1      41.163  30.380  34.047  1.00  0.00    -0.248 NA
ATOM     32  C   UNL A   1      41.591  30.808  36.302  1.00  0.00     0.031 C 
ATOM     33  C   UNL A   1      43.313  27.345  31.628  1.00  0.00     0.029 A 
ATOM     34  C   UNL A   1      42.622  28.244  32.423  1.00  0.00     0.049 A 
ATOM     35  H   UNL A   1      40.966  29.456  31.929  1.00  0.00     0.167 HD
ATOM     36  C   UNL A   1      42.184  29.547  34.483  1.00  0.00     0.074 A 
ATOM     37  C   UNL A   1      42.435  29.883  35.870  1.00  0.00     0.031 C 
ATOM     38  C   UNL A   1      42.851  28.582  33.803  1.00  0.00     0.037 A 
BRANCH  25  39
ATOM     39  C   UNL A   1      40.820  27.685  28.050  1.00  0.00     0.057 A 
ATOM     40  C   UNL A   1      40.212  26.426  27.946  1.00  0.00     0.134 A 
ATOM     41  C   UNL A   1      41.581  28.125  26.960  1.00  0.00     0.134 A 
ATOM     42  F   UNL A   1      39.475  25.941  28.957  1.00  0.00    -0.206 F 
ATOM     43  C   UNL A   1      40.363  25.631  26.809  1.00  0.00     0.040 A 
ATOM     44  C   UNL A   1      41.721  27.349  25.807  1.00  0.00     0.040 A 
ATOM     45  F   UNL A   1      42.182  29.324  26.990  1.00  0.00    -0.206 F 
ATOM     46  C   UNL A   1      41.117  26.094  25.733  1.00  0.00     0.006 A 
ENDBRANCH  25  39
BRANCH  26  47
ATOM     47  C   UNL A   1      39.569  32.902  36.473  1.00  0.00     0.057 A 
ATOM     48  C   UNL A   1      40.253  34.088  36.769  1.00  0.00     0.134 A 
ATOM     49  C   UNL A   1      38.630  32.449  37.407  1.00  0.00     0.134 A 
ATOM     50  F   UNL A   1      41.168  34.573  35.918  1.00  0.00    -0.206 F 
ATOM     51  C   UNL A   1      40.009  34.799  37.944  1.00  0.00     0.040 A 
ATOM     52  C   UNL A   1      38.354  33.168  38.572  1.00  0.00     0.040 A 
ATOM     53  F   UNL A   1      37.928  31.332  37.171  1.00  0.00    -0.206 F 
ATOM     54  C   UNL A   1      39.046  34.347  38.842  1.00  0.00     0.006 A 
ENDBRANCH  26  47
BRANCH  38  55
ATOM     55  C   UNL A   1      43.913  27.833  34.553  1.00  0.00     0.057 A 
ATOM     56  C   UNL A   1      43.618  26.631  35.209  1.00  0.00     0.134 A 
ATOM     57  C   UNL A   1      45.227  28.312  34.640  1.00  0.00     0.134 A 
ATOM     58  F   UNL A   1      42.378  26.120  35.171  1.00  0.00    -0.206 F 
ATOM     59  C   UNL A   1      44.590  25.936  35.928  1.00  0.00     0.040 A 
ATOM     60  C   UNL A   1      46.215  27.609  35.331  1.00  0.00     0.040 A 
ATOM     61  F   UNL A   1      45.579  29.448  34.019  1.00  0.00    -0.206 F 
ATOM     62  C   UNL A   1      45.895  26.420  35.984  1.00  0.00     0.006 A 
ENDBRANCH  38  55
ENDBRANCH  12  13
ENDBRANCH   5   7
ENDBRANCH   2   3
ENDBRANCH   1   2
BRANCH   1  63
ATOM     63  C   UNL A   1      31.490  30.514  25.717  1.00  0.00     0.023 C 
BRANCH  63  64
ATOM     64  C   UNL A   1      32.824  29.802  25.916  1.00  0.00     0.116 C 
BRANCH  64  65
ATOM     65  N   UNL A   1      33.557  29.701  24.671  1.00  0.00    -0.356 N 
ATOM     66  C   UNL A   1      33.791  28.629  23.868  1.00  0.00     0.224 C 
ATOM     67  H   UNL A   1      33.951  30.547  24.354  1.00  0.00     0.163 HD
ATOM     68  O   UNL A   1      34.523  28.813  22.898  1.00  0.00    -0.275 OA
BRANCH  66  69
ATOM     69  C   UNL A   1      33.174  27.280  24.210  1.00  0.00     0.098 C 
ATOM     70  C   UNL A   1      33.648  26.197  23.232  1.00  0.00     0.017 C 
ATOM     71  C   UNL A   1      31.649  27.384  24.314  1.00  0.00     0.130 C 
ATOM     72  C   UNL A   1      32.870  26.207  21.915  1.00  0.00     0.022 C 
ATOM     73  N   UNL A   1      30.985  27.267  23.017  1.00  0.00    -0.368 N 
ATOM     74  C   UNL A   1      31.362  26.156  22.154  1.00  0.00     0.116 C 
BRANCH  73  75
ATOM     75  C   UNL A   1      29.906  28.089  22.726  1.00  0.00     0.082 A 
ATOM     76  C   UNL A   1      30.091  29.267  21.998  1.00  0.00     0.163 A 
ATOM     77  C   UNL A   1      28.582  27.852  23.109  1.00  0.00     0.129 A 
ATOM     78  N   UNL A   1      29.109  30.135  21.651  1.00  0.00    -0.153 NA
ATOM     79  C   UNL A   1      27.592  28.761  22.738  1.00  0.00     0.252 A 
ATOM     80  Cl  UNL A   1      28.130  26.511  24.114  1.00  0.00    -0.076 Cl
ATOM     81  N   UNL A   1      27.841  29.874  22.023  1.00  0.00    -0.111 NA
BRANCH  79  82
ATOM     82  O   UNL A   1      26.281  28.589  23.100  1.00  0.00    -0.491 OA
ATOM     83  H   UNL A   1      25.595  28.877  22.530  1.00  0.00     0.295 HD
ENDBRANCH  79  82
ENDBRANCH  73  75
ENDBRANCH  66  69
ENDBRANCH  64  65
ENDBRANCH  63  64
ENDBRANCH   1  63
TORSDOF 13
ENDMDL
MODEL 2
REMARK VINA RESULT:     -12.3      0.242      1.344
REMARK SMILES O=C(NCCCCNC(=O)[C@@H]1CCCN(c2cnnc(O)c2Cl)C1)c1ccc(-c2c3nc(c(-c4c(F)cccc4F)c4ccc([nH]4)c(-c4c(F)cccc4F)c4nc(c(-c5c(F)cccc5F)c5ccc2[nH]5)C=C4)C=C3)cc1
REMARK SMILES IDX 5 1 4 2 3 3 1 4 2 5 25 7 26 8 78 9 27 10 77 11 28 12 29 13
REMARK SMILES IDX 30 14 71 15 31 16 76 17 70 18 72 19 32 20 75 21 69 22 68 23
REMARK SMILES IDX 33 25 59 26 42 27 58 28 43 29 46 30 57 31 73 32 44 33 45 34
REMARK SMILES IDX 56 36 74 37 47 38 34 39 35 40 40 41 36 42 37 43 39 44 41 45
REMARK SMILES IDX 38 46 60 47 61 48 66 49 62 50 63 51 65 52 67 53 64 54 48 55
REMARK SMILES IDX 49 56 54 57 50 58 51 59 53 60 55 61 52 62 6 63 7 64 8 65
REMARK SMILES IDX 9 66 10 68 11 69 12 70 24 71 13 72 15 73 14 74 16 75 17 76
REMARK SMILES IDX 22 77 18 78 20 79 23 80 19 81 21 82
REMARK H PARENT 3 6 72 24 46 35 8 67 21 83
REMARK Flexibility Score: inf
ROOT
ATOM      1  C   UNL A   1      31.444  31.895  26.874  1.00  0.00     0.023 C 
ENDROOT
BRANCH   1   2
ATOM      2  C   UNL A   1      32.744  32.669  27.056  1.00  0.00     0.116 C 
BRANCH   2   3
ATOM      3  N   UNL A   1      32.519  34.017  27.556  1.00  0.00    -0.352 N 
ATOM      4  O   UNL A   1      32.706  35.745  28.995  1.00  0.00    -0.269 OA
ATOM      5  C   UNL A   1      33.141  34.671  28.588  1.00  0.00     0.251 C 
ATOM      6  H   UNL A   1      31.822  34.530  27.086  1.00  0.00     0.163 HD
BRANCH   5   7
ATOM      7  C   UNL A   1      34.325  34.064  29.224  1.00  0.00     0.039 A 
ATOM      8  C   UNL A   1      35.612  34.385  28.779  1.00  0.00     0.014 A 
ATOM      9  C   UNL A   1      34.142  33.163  30.276  1.00  0.00     0.014 A 
ATOM     10  C   UNL A   1      36.712  33.718  29.310  1.00  0.00     0.010 A 
ATOM     11  C   UNL A   1      35.250  32.535  30.844  1.00  0.00     0.010 A 
ATOM     12  C   UNL A   1      36.539  32.788  30.348  1.00  0.00    -0.014 A 
BRANCH  12  13
ATOM     13  C   UNL A   1      37.718  32.112  30.939  1.00  0.00     0.031 A 
ATOM     14  C   UNL A   1      38.428  31.018  30.193  1.00  0.00     0.074 A 
ATOM     15  C   UNL A   1      38.136  32.486  32.162  1.00  0.00     0.049 A 
ATOM     16  N   UNL A   1      39.444  30.287  30.573  1.00  0.00    -0.248 NA
ATOM     17  C   UNL A   1      37.929  30.700  28.845  1.00  0.00     0.031 C 
ATOM     18  C   UNL A   1      37.524  33.538  32.976  1.00  0.00     0.029 A 
ATOM     19  N   UNL A   1      39.162  32.017  32.940  1.00  0.00    -0.354 N 
ATOM     20  C   UNL A   1      39.704  29.418  29.520  1.00  0.00     0.074 A 
ATOM     21  C   UNL A   1      38.721  29.696  28.493  1.00  0.00     0.031 C 
ATOM     22  C   UNL A   1      38.187  33.633  34.140  1.00  0.00     0.029 A 
ATOM     23  C   UNL A   1      39.233  32.618  34.173  1.00  0.00     0.049 A 
ATOM     24  H   UNL A   1      39.788  31.317  32.643  1.00  0.00     0.167 HD
ATOM     25  C   UNL A   1      40.677  28.481  29.422  1.00  0.00     0.037 A 
ATOM     26  C   UNL A   1      40.027  32.352  35.225  1.00  0.00     0.037 A 
ATOM     27  C   UNL A   1      41.650  28.214  30.450  1.00  0.00     0.049 A 
ATOM     28  C   UNL A   1      41.043  31.248  35.113  1.00  0.00     0.074 A 
ATOM     29  C   UNL A   1      42.715  27.330  30.420  1.00  0.00     0.029 A 
ATOM     30  N   UNL A   1      41.666  28.813  31.700  1.00  0.00    -0.354 N 
ATOM     31  N   UNL A   1      41.329  30.487  34.084  1.00  0.00    -0.248 NA
ATOM     32  C   UNL A   1      41.841  30.962  36.313  1.00  0.00     0.031 C 
ATOM     33  C   UNL A   1      43.332  27.346  31.675  1.00  0.00     0.029 A 
ATOM     34  C   UNL A   1      42.687  28.280  32.469  1.00  0.00     0.049 A 
ATOM     35  H   UNL A   1      41.042  29.515  31.998  1.00  0.00     0.167 HD
ATOM     36  C   UNL A   1      42.346  29.643  34.509  1.00  0.00     0.074 A 
ATOM     37  C   UNL A   1      42.649  30.008  35.877  1.00  0.00     0.031 C 
ATOM     38  C   UNL A   1      42.969  28.647  33.831  1.00  0.00     0.037 A 
BRANCH  25  39
ATOM     39  C   UNL A   1      40.729  27.651  28.173  1.00  0.00     0.057 A 
ATOM     40  C   UNL A   1      40.081  26.409  28.118  1.00  0.00     0.134 A 
ATOM     41  C   UNL A   1      41.471  28.042  27.052  1.00  0.00     0.134 A 
ATOM     42  F   UNL A   1      39.359  25.971  29.161  1.00  0.00    -0.206 F 
ATOM     43  C   UNL A   1      40.177  25.582  26.997  1.00  0.00     0.040 A 
ATOM     44  C   UNL A   1      41.556  27.234  25.915  1.00  0.00     0.040 A 
ATOM     45  F   UNL A   1      42.109  29.222  27.035  1.00  0.00    -0.206 F 
ATOM     46  C   UNL A   1      40.914  25.996  25.890  1.00  0.00     0.006 A 
ENDBRANCH  25  39
BRANCH  26  47
ATOM     47  C   UNL A   1      39.870  33.103  36.496  1.00  0.00     0.057 A 
ATOM     48  C   UNL A   1      38.972  32.678  37.485  1.00  0.00     0.134 A 
ATOM     49  C   UNL A   1      40.655  34.226  36.778  1.00  0.00     0.134 A 
ATOM     50  F   UNL A   1      38.188  31.611  37.276  1.00  0.00    -0.206 F 
ATOM     51  C   UNL A   1      38.863  33.341  38.707  1.00  0.00     0.040 A 
ATOM     52  C   UNL A   1      40.579  34.880  38.009  1.00  0.00     0.040 A 
ATOM     53  F   UNL A   1      41.548  34.668  35.880  1.00  0.00    -0.206 F 
ATOM     54  C   UNL A   1      39.679  34.437  38.978  1.00  0.00     0.006 A 
ENDBRANCH  26  47
BRANCH  38  55
ATOM     55  C   UNL A   1      44.039  27.893  34.565  1.00  0.00     0.057 A 
ATOM     56  C   UNL A   1      45.365  28.345  34.566  1.00  0.00     0.134 A 
ATOM     57  C   UNL A   1      43.760  26.707  35.257  1.00  0.00     0.134 A 
ATOM     58  F   UNL A   1      45.702  29.470  33.918  1.00  0.00    -0.206 F 
ATOM     59  C   UNL A   1      46.374  27.643  35.225  1.00  0.00     0.040 A 
ATOM     60  C   UNL A   1      44.756  26.012  35.945  1.00  0.00     0.040 A 
ATOM     61  F   UNL A   1      42.507  26.230  35.309  1.00  0.00    -0.206 F 
ATOM     62  C   UNL A   1      46.069  26.477  35.923  1.00  0.00     0.006 A 
ENDBRANCH  38  55
ENDBRANCH  12  13
ENDBRANCH   5   7
ENDBRANCH   2   3
ENDBRANCH   1   2
BRANCH   1  63
ATOM     63  C   UNL A   1      31.472  30.831  25.773  1.00  0.00     0.023 C 
BRANCH  63  64
ATOM     64  C   UNL A   1      32.527  29.745  25.958  1.00  0.00     0.116 C 
BRANCH  64  65
ATOM     65  N   UNL A   1      33.408  29.667  24.812  1.00  0.00    -0.356 N 
ATOM     66  C   UNL A   1      33.764  28.604  24.042  1.00  0.00     0.224 C 
ATOM     67  H   UNL A   1      33.817  30.523  24.548  1.00  0.00     0.163 HD
ATOM     68  O   UNL A   1      34.605  28.810  23.169  1.00  0.00    -0.275 OA
BRANCH  66  69
ATOM     69  C   UNL A   1      33.143  27.240  24.305  1.00  0.00     0.098 C 
ATOM     70  C   UNL A   1      33.656  26.202  23.298  1.00  0.00     0.017 C 
ATOM     71  C   UNL A   1      31.614  27.334  24.359  1.00  0.00     0.130 C 
ATOM     72  C   UNL A   1      32.925  26.266  21.956  1.00  0.00     0.022 C 
ATOM     73  N   UNL A   1      30.997  27.271  23.035  1.00  0.00    -0.368 N 
ATOM     74  C   UNL A   1      31.410  26.199  22.139  1.00  0.00     0.116 C 
BRANCH  73  75
ATOM     75  C   UNL A   1      29.924  28.101  22.743  1.00  0.00     0.082 A 
ATOM     76  C   UNL A   1      30.123  29.289  22.034  1.00  0.00     0.163 A 
ATOM     77  C   UNL A   1      28.595  27.862  23.105  1.00  0.00     0.129 A 
ATOM     78  N   UNL A   1      29.149  30.165  21.688  1.00  0.00    -0.153 NA
ATOM     79  C   UNL A   1      27.613  28.780  22.733  1.00  0.00     0.252 A 
ATOM     80  Cl  UNL A   1      28.125  26.508  24.083  1.00  0.00    -0.076 Cl
ATOM     81  N   UNL A   1      27.874  29.902  22.038  1.00  0.00    -0.111 NA
BRANCH  79  82
ATOM     82  O   UNL A   1      26.297  28.607  23.076  1.00  0.00    -0.491 OA
ATOM     83  H   UNL A   1      26.066  28.393  23.959  1.00  0.00     0.295 HD
ENDBRANCH  79  82
ENDBRANCH  73  75
ENDBRANCH  66  69
ENDBRANCH  64  65
ENDBRANCH  63  64
ENDBRANCH   1  63
TORSDOF 13
ENDMDL
MODEL 3
REMARK VINA RESULT:     -12.3      5.982     10.552
REMARK SMILES O=C(NCCCCNC(=O)[C@@H]1CCCN(c2cnnc(O)c2Cl)C1)c1ccc(-c2c3nc(c(-c4c(F)cccc4F)c4ccc([nH]4)c(-c4c(F)cccc4F)c4nc(c(-c5c(F)cccc5F)c5ccc2[nH]5)C=C4)C=C3)cc1
REMARK SMILES IDX 5 1 4 2 3 3 1 4 2 5 25 7 26 8 78 9 27 10 77 11 28 12 29 13
REMARK SMILES IDX 30 14 71 15 31 16 76 17 70 18 72 19 32 20 75 21 69 22 68 23
REMARK SMILES IDX 33 25 59 26 42 27 58 28 43 29 46 30 57 31 73 32 44 33 45 34
REMARK SMILES IDX 56 36 74 37 47 38 34 39 35 40 40 41 36 42 37 43 39 44 41 45
REMARK SMILES IDX 38 46 60 47 61 48 66 49 62 50 63 51 65 52 67 53 64 54 48 55
REMARK SMILES IDX 49 56 54 57 50 58 51 59 53 60 55 61 52 62 6 63 7 64 8 65
REMARK SMILES IDX 9 66 10 68 11 69 12 70 24 71 13 72 15 73 14 74 16 75 17 76
REMARK SMILES IDX 22 77 18 78 20 79 23 80 19 81 21 82
REMARK H PARENT 3 6 72 24 46 35 8 67 21 83
REMARK Flexibility Score: inf
ROOT
ATOM      1  C   UNL A   1      37.958  19.704  24.760  1.00  0.00     0.023 C 
ENDROOT
BRANCH   1   2
ATOM      2  C   UNL A   1      39.078  20.132  25.703  1.00  0.00     0.116 C 
BRANCH   2   3
ATOM      3  N   UNL A   1      40.101  19.107  25.845  1.00  0.00    -0.352 N 
ATOM      4  O   UNL A   1      42.196  18.292  26.036  1.00  0.00    -0.269 OA
ATOM      5  C   UNL A   1      41.435  19.251  26.128  1.00  0.00     0.251 C 
ATOM      6  H   UNL A   1      39.790  18.181  25.721  1.00  0.00     0.163 HD
BRANCH   5   7
ATOM      7  C   UNL A   1      41.956  20.574  26.521  1.00  0.00     0.039 A 
ATOM      8  C   UNL A   1      42.043  20.929  27.872  1.00  0.00     0.014 A 
ATOM      9  C   UNL A   1      42.358  21.466  25.525  1.00  0.00     0.014 A 
ATOM     10  C   UNL A   1      42.426  22.220  28.222  1.00  0.00     0.010 A 
ATOM     11  C   UNL A   1      42.794  22.743  25.881  1.00  0.00     0.010 A 
ATOM     12  C   UNL A   1      42.805  23.137  27.229  1.00  0.00    -0.014 A 
BRANCH  12  13
ATOM     13  C   UNL A   1      43.253  24.497  27.610  1.00  0.00     0.031 A 
ATOM     14  C   UNL A   1      42.256  25.551  28.001  1.00  0.00     0.074 A 
ATOM     15  C   UNL A   1      44.570  24.777  27.589  1.00  0.00     0.049 A 
ATOM     16  N   UNL A   1      42.464  26.802  28.319  1.00  0.00    -0.248 NA
ATOM     17  C   UNL A   1      40.842  25.147  28.036  1.00  0.00     0.031 C 
ATOM     18  C   UNL A   1      45.627  23.830  27.228  1.00  0.00     0.029 A 
ATOM     19  N   UNL A   1      45.242  25.940  27.863  1.00  0.00    -0.354 N 
ATOM     20  C   UNL A   1      41.210  27.340  28.584  1.00  0.00     0.074 A 
ATOM     21  C   UNL A   1      40.244  26.284  28.365  1.00  0.00     0.031 C 
ATOM     22  C   UNL A   1      46.815  24.451  27.301  1.00  0.00     0.029 A 
ATOM     23  C   UNL A   1      46.598  25.847  27.664  1.00  0.00     0.049 A 
ATOM     24  H   UNL A   1      44.796  26.761  28.172  1.00  0.00     0.167 HD
ATOM     25  C   UNL A   1      40.900  28.599  28.978  1.00  0.00     0.037 A 
ATOM     26  C   UNL A   1      47.552  26.793  27.728  1.00  0.00     0.037 A 
ATOM     27  C   UNL A   1      41.870  29.642  29.194  1.00  0.00     0.049 A 
ATOM     28  C   UNL A   1      47.163  28.200  28.088  1.00  0.00     0.074 A 
ATOM     29  C   UNL A   1      41.661  30.930  29.656  1.00  0.00     0.029 A 
ATOM     30  N   UNL A   1      43.228  29.523  28.943  1.00  0.00    -0.354 N 
ATOM     31  N   UNL A   1      45.985  28.676  28.412  1.00  0.00    -0.248 NA
ATOM     32  C   UNL A   1      48.236  29.203  28.084  1.00  0.00     0.031 C 
ATOM     33  C   UNL A   1      42.883  31.610  29.620  1.00  0.00     0.029 A 
ATOM     34  C   UNL A   1      43.862  30.730  29.189  1.00  0.00     0.049 A 
ATOM     35  H   UNL A   1      43.676  28.702  28.636  1.00  0.00     0.167 HD
ATOM     36  C   UNL A   1      46.178  30.028  28.661  1.00  0.00     0.074 A 
ATOM     37  C   UNL A   1      47.592  30.289  28.484  1.00  0.00     0.031 C 
ATOM     38  C   UNL A   1      45.267  30.974  28.998  1.00  0.00     0.037 A 
BRANCH  25  39
ATOM     39  C   UNL A   1      39.451  28.935  29.180  1.00  0.00     0.057 A 
ATOM     40  C   UNL A   1      38.844  28.741  30.428  1.00  0.00     0.134 A 
ATOM     41  C   UNL A   1      38.639  29.383  28.131  1.00  0.00     0.134 A 
ATOM     42  F   UNL A   1      39.563  28.306  31.475  1.00  0.00    -0.206 F 
ATOM     43  C   UNL A   1      37.481  28.972  30.624  1.00  0.00     0.040 A 
ATOM     44  C   UNL A   1      37.279  29.640  28.319  1.00  0.00     0.040 A 
ATOM     45  F   UNL A   1      39.158  29.598  26.912  1.00  0.00    -0.206 F 
ATOM     46  C   UNL A   1      36.695  29.427  29.567  1.00  0.00     0.006 A 
ENDBRANCH  25  39
BRANCH  26  47
ATOM     47  C   UNL A   1      48.962  26.463  27.399  1.00  0.00     0.057 A 
ATOM     48  C   UNL A   1      49.857  26.031  28.386  1.00  0.00     0.134 A 
ATOM     49  C   UNL A   1      49.431  26.513  26.082  1.00  0.00     0.134 A 
ATOM     50  F   UNL A   1      49.472  25.963  29.669  1.00  0.00    -0.206 F 
ATOM     51  C   UNL A   1      51.165  25.658  28.075  1.00  0.00     0.040 A 
ATOM     52  C   UNL A   1      50.727  26.114  25.752  1.00  0.00     0.040 A 
ATOM     53  F   UNL A   1      48.615  26.898  25.089  1.00  0.00    -0.206 F 
ATOM     54  C   UNL A   1      51.598  25.685  26.752  1.00  0.00     0.006 A 
ENDBRANCH  26  47
BRANCH  38  55
ATOM     55  C   UNL A   1      45.781  32.370  29.199  1.00  0.00     0.057 A 
ATOM     56  C   UNL A   1      46.249  32.791  30.450  1.00  0.00     0.134 A 
ATOM     57  C   UNL A   1      45.794  33.306  28.156  1.00  0.00     0.134 A 
ATOM     58  F   UNL A   1      46.257  31.948  31.494  1.00  0.00    -0.206 F 
ATOM     59  C   UNL A   1      46.708  34.092  30.657  1.00  0.00     0.040 A 
ATOM     60  C   UNL A   1      46.280  34.601  28.343  1.00  0.00     0.040 A 
ATOM     61  F   UNL A   1      45.376  32.960  26.928  1.00  0.00    -0.206 F 
ATOM     62  C   UNL A   1      46.732  34.998  29.600  1.00  0.00     0.006 A 
ENDBRANCH  38  55
ENDBRANCH  12  13
ENDBRANCH   5   7
ENDBRANCH   2   3
ENDBRANCH   1   2
BRANCH   1  63
ATOM     63  C   UNL A   1      36.597  20.346  25.039  1.00  0.00     0.023 C 
BRANCH  63  64
ATOM     64  C   UNL A   1      36.655  21.809  25.468  1.00  0.00     0.116 C 
BRANCH  64  65
ATOM     65  N   UNL A   1      35.873  22.038  26.665  1.00  0.00    -0.356 N 
ATOM     66  C   UNL A   1      34.738  22.763  26.854  1.00  0.00     0.224 C 
ATOM     67  H   UNL A   1      36.219  21.596  27.475  1.00  0.00     0.163 HD
ATOM     68  O   UNL A   1      34.325  22.854  28.008  1.00  0.00    -0.275 OA
BRANCH  66  69
ATOM     69  C   UNL A   1      34.064  23.434  25.666  1.00  0.00     0.098 C 
ATOM     70  C   UNL A   1      32.797  24.181  26.105  1.00  0.00     0.017 C 
ATOM     71  C   UNL A   1      33.820  22.430  24.534  1.00  0.00     0.130 C 
ATOM     72  C   UNL A   1      31.588  23.256  26.257  1.00  0.00     0.022 C 
ATOM     73  N   UNL A   1      32.581  21.674  24.708  1.00  0.00    -0.368 N 
ATOM     74  C   UNL A   1      31.362  22.417  25.001  1.00  0.00     0.116 C 
BRANCH  73  75
ATOM     75  C   UNL A   1      32.561  20.319  24.410  1.00  0.00     0.082 A 
ATOM     76  C   UNL A   1      32.908  19.378  25.383  1.00  0.00     0.163 A 
ATOM     77  C   UNL A   1      32.217  19.767  23.172  1.00  0.00     0.129 A 
ATOM     78  N   UNL A   1      32.914  18.034  25.204  1.00  0.00    -0.153 NA
ATOM     79  C   UNL A   1      32.230  18.381  23.017  1.00  0.00     0.252 A 
ATOM     80  Cl  UNL A   1      31.859  20.746  21.784  1.00  0.00    -0.076 Cl
ATOM     81  N   UNL A   1      32.564  17.530  24.004  1.00  0.00    -0.111 NA
BRANCH  79  82
ATOM     82  O   UNL A   1      31.920  17.786  21.822  1.00  0.00    -0.491 OA
ATOM     83  H   UNL A   1      31.042  17.502  21.654  1.00  0.00     0.295 HD
ENDBRANCH  79  82
ENDBRANCH  73  75
ENDBRANCH  66  69
ENDBRANCH  64  65
ENDBRANCH  63  64
ENDBRANCH   1  63
TORSDOF 13
ENDMDL
