MODEL 1
REMARK VINA RESULT:     -12.1      0.000      0.000
REMARK SMILES Cc1ccc(C(=O)[C@@H](C)[C@H](C)C(=O)NCCCCNC(=O)c2ccc(-c3c4nc(c(-c5c(F)cccc5F)c5ccc([nH]5)c(-c5c(F)cccc5F)c5nc(c(-c6c(F)cccc6F)c6ccc3[nH]6)C=C5)C=C4)cc2)cc1
REMARK SMILES IDX 16 1 15 2 14 3 12 4 13 5 10 7 11 8 8 9 9 10 6 11 7 12 5 13
REMARK SMILES IDX 1 14 2 15 3 16 77 17 4 18 76 19 17 20 18 21 19 22 20 23
REMARK SMILES IDX 21 25 22 26 23 27 75 28 24 29 74 30 25 31 26 32 27 33 68 34
REMARK SMILES IDX 28 35 73 36 67 37 69 38 29 39 72 40 66 41 65 42 30 44 56 45
REMARK SMILES IDX 39 46 55 47 40 48 43 49 54 50 70 51 41 52 42 53 53 55 71 56
REMARK SMILES IDX 44 57 31 58 32 59 37 60 33 61 34 62 36 63 38 64 35 65 57 66
REMARK SMILES IDX 58 67 63 68 59 69 60 70 62 71 64 72 61 73 45 74 46 75 51 76
REMARK SMILES IDX 47 77 48 78 50 79 52 80 49 81
REMARK H PARENT 14 6 19 24 69 43 43 54
REMARK Flexibility Score: inf
ROOT
ATOM      1  C   UNL A   1      31.819  29.400  26.729  1.00  0.00     0.023 C 
ENDROOT
BRANCH   1   2
ATOM      2  C   UNL A   1      31.867  28.163  27.634  1.00  0.00     0.116 C 
BRANCH   2   3
ATOM      3  N   UNL A   1      31.028  27.060  27.177  1.00  0.00    -0.356 N 
ATOM      4  C   UNL A   1      30.848  26.278  26.090  1.00  0.00     0.223 C 
ATOM      5  O   UNL A   1      30.053  25.343  26.279  1.00  0.00    -0.275 OA
ATOM      6  H   UNL A   1      30.393  26.804  27.884  1.00  0.00     0.163 HD
BRANCH   4   7
ATOM      7  C   UNL A   1      31.459  26.426  24.685  1.00  0.00     0.086 C 
ATOM      8  C   UNL A   1      30.680  27.398  23.804  1.00  0.00     0.019 C 
BRANCH   7   9
ATOM      9  C   UNL A   1      33.007  26.339  24.521  1.00  0.00     0.070 C 
ATOM     10  C   UNL A   1      33.749  27.655  24.305  1.00  0.00     0.017 C 
BRANCH   9  11
ATOM     11  C   UNL A   1      33.608  25.187  23.681  1.00  0.00     0.166 C 
ATOM     12  O   UNL A   1      33.118  24.902  22.585  1.00  0.00    -0.294 OA
BRANCH  11  13
ATOM     13  C   UNL A   1      34.769  24.369  24.149  1.00  0.00     0.018 A 
ATOM     14  C   UNL A   1      37.970  21.809  25.531  1.00  0.00     0.044 C 
ATOM     15  C   UNL A   1      36.866  22.710  25.063  1.00  0.00    -0.051 A 
ATOM     16  C   UNL A   1      36.324  23.697  25.894  1.00  0.00     0.004 A 
ATOM     17  C   UNL A   1      36.368  22.579  23.771  1.00  0.00     0.004 A 
ATOM     18  C   UNL A   1      35.280  24.519  25.442  1.00  0.00     0.012 A 
ATOM     19  C   UNL A   1      35.334  23.404  23.335  1.00  0.00     0.012 A 
ENDBRANCH  11  13
ENDBRANCH   9  11
ENDBRANCH   7   9
ENDBRANCH   4   7
ENDBRANCH   2   3
ENDBRANCH   1   2
BRANCH   1  20
ATOM     20  C   UNL A   1      32.903  30.479  26.927  1.00  0.00     0.023 C 
BRANCH  20  21
ATOM     21  C   UNL A   1      34.209  30.053  27.595  1.00  0.00     0.116 C 
BRANCH  21  22
ATOM     22  N   UNL A   1      34.894  31.087  28.366  1.00  0.00    -0.352 N 
ATOM     23  C   UNL A   1      36.159  31.064  28.959  1.00  0.00     0.251 C 
ATOM     24  H   UNL A   1      34.389  31.924  28.485  1.00  0.00     0.163 HD
ATOM     25  O   UNL A   1      36.607  32.069  29.464  1.00  0.00    -0.269 OA
BRANCH  23  26
ATOM     26  C   UNL A   1      37.005  29.837  28.859  1.00  0.00     0.039 A 
ATOM     27  C   UNL A   1      37.163  29.022  29.989  1.00  0.00     0.014 A 
ATOM     28  C   UNL A   1      37.751  29.567  27.722  1.00  0.00     0.014 A 
ATOM     29  C   UNL A   1      38.245  28.139  30.055  1.00  0.00     0.010 A 
ATOM     30  C   UNL A   1      38.897  28.814  27.831  1.00  0.00     0.010 A 
ATOM     31  C   UNL A   1      39.178  28.143  29.022  1.00  0.00    -0.014 A 
BRANCH  31  32
ATOM     32  C   UNL A   1      40.514  27.563  29.101  1.00  0.00     0.031 A 
ATOM     33  C   UNL A   1      40.743  26.156  28.712  1.00  0.00     0.074 A 
ATOM     34  C   UNL A   1      41.556  28.389  29.337  1.00  0.00     0.049 A 
ATOM     35  N   UNL A   1      41.824  25.495  28.949  1.00  0.00    -0.248 NA
ATOM     36  C   UNL A   1      39.733  25.369  28.015  1.00  0.00     0.031 C 
ATOM     37  C   UNL A   1      42.978  28.123  29.143  1.00  0.00     0.029 A 
ATOM     38  N   UNL A   1      41.526  29.606  30.030  1.00  0.00    -0.354 N 
ATOM     39  C   UNL A   1      41.760  24.305  28.260  1.00  0.00     0.074 A 
ATOM     40  C   UNL A   1      40.427  24.270  27.705  1.00  0.00     0.031 C 
ATOM     41  C   UNL A   1      43.680  28.937  29.947  1.00  0.00     0.029 A 
ATOM     42  C   UNL A   1      42.723  29.640  30.784  1.00  0.00     0.049 A 
ATOM     43  H   UNL A   1      40.821  30.293  29.999  1.00  0.00     0.167 HD
ATOM     44  C   UNL A   1      42.878  23.528  28.164  1.00  0.00     0.037 A 
ATOM     45  C   UNL A   1      42.661  29.561  32.147  1.00  0.00     0.037 A 
ATOM     46  C   UNL A   1      43.964  24.071  28.979  1.00  0.00     0.049 A 
ATOM     47  C   UNL A   1      43.267  28.299  32.728  1.00  0.00     0.074 A 
ATOM     48  C   UNL A   1      45.046  24.898  28.725  1.00  0.00     0.029 A 
ATOM     49  N   UNL A   1      43.831  24.026  30.354  1.00  0.00    -0.354 N 
ATOM     50  N   UNL A   1      43.766  27.321  32.020  1.00  0.00    -0.248 NA
ATOM     51  C   UNL A   1      43.281  28.006  34.163  1.00  0.00     0.031 C 
ATOM     52  C   UNL A   1      45.500  25.421  29.972  1.00  0.00     0.029 A 
ATOM     53  C   UNL A   1      44.708  24.894  30.975  1.00  0.00     0.049 A 
ATOM     54  H   UNL A   1      43.194  23.447  30.831  1.00  0.00     0.167 HD
ATOM     55  C   UNL A   1      44.108  26.291  32.851  1.00  0.00     0.074 A 
ATOM     56  C   UNL A   1      43.797  26.766  34.185  1.00  0.00     0.031 C 
ATOM     57  C   UNL A   1      44.591  25.098  32.408  1.00  0.00     0.037 A 
BRANCH  44  58
ATOM     58  C   UNL A   1      43.052  22.385  27.191  1.00  0.00     0.057 A 
ATOM     59  C   UNL A   1      42.236  21.239  27.280  1.00  0.00     0.134 A 
ATOM     60  C   UNL A   1      44.019  22.324  26.172  1.00  0.00     0.134 A 
ATOM     61  F   UNL A   1      41.208  21.173  28.136  1.00  0.00    -0.206 F 
ATOM     62  C   UNL A   1      42.437  20.095  26.494  1.00  0.00     0.040 A 
ATOM     63  C   UNL A   1      44.271  21.166  25.421  1.00  0.00     0.040 A 
ATOM     64  F   UNL A   1      44.723  23.400  25.805  1.00  0.00    -0.206 F 
ATOM     65  C   UNL A   1      43.483  20.039  25.587  1.00  0.00     0.006 A 
ENDBRANCH  44  58
BRANCH  45  66
ATOM     66  C   UNL A   1      41.479  30.281  32.696  1.00  0.00     0.057 A 
ATOM     67  C   UNL A   1      41.508  31.689  32.719  1.00  0.00     0.134 A 
ATOM     68  C   UNL A   1      40.228  29.670  32.811  1.00  0.00     0.134 A 
ATOM     69  F   UNL A   1      42.678  32.341  32.618  1.00  0.00    -0.206 F 
ATOM     70  C   UNL A   1      40.339  32.452  32.707  1.00  0.00     0.040 A 
ATOM     71  C   UNL A   1      39.050  30.428  32.827  1.00  0.00     0.040 A 
ATOM     72  F   UNL A   1      40.111  28.335  32.777  1.00  0.00    -0.206 F 
ATOM     73  C   UNL A   1      39.103  31.818  32.725  1.00  0.00     0.006 A 
ENDBRANCH  45  66
BRANCH  57  74
ATOM     74  C   UNL A   1      44.999  24.019  33.353  1.00  0.00     0.057 A 
ATOM     75  C   UNL A   1      46.305  23.945  33.852  1.00  0.00     0.134 A 
ATOM     76  C   UNL A   1      44.136  22.965  33.693  1.00  0.00     0.134 A 
ATOM     77  F   UNL A   1      47.205  24.897  33.559  1.00  0.00    -0.206 F 
ATOM     78  C   UNL A   1      46.729  22.886  34.658  1.00  0.00     0.040 A 
ATOM     79  C   UNL A   1      44.557  21.881  34.465  1.00  0.00     0.040 A 
ATOM     80  F   UNL A   1      42.854  22.962  33.296  1.00  0.00    -0.206 F 
ATOM     81  C   UNL A   1      45.857  21.842  34.954  1.00  0.00     0.006 A 
ENDBRANCH  57  74
ENDBRANCH  31  32
ENDBRANCH  23  26
ENDBRANCH  21  22
ENDBRANCH  20  21
ENDBRANCH   1  20
TORSDOF 14
ENDMDL
MODEL 2
REMARK VINA RESULT:     -11.7      1.434      2.316
REMARK SMILES Cc1ccc(C(=O)[C@@H](C)[C@H](C)C(=O)NCCCCNC(=O)c2ccc(-c3c4nc(c(-c5c(F)cccc5F)c5ccc([nH]5)c(-c5c(F)cccc5F)c5nc(c(-c6c(F)cccc6F)c6ccc3[nH]6)C=C5)C=C4)cc2)cc1
REMARK SMILES IDX 16 1 15 2 14 3 12 4 13 5 10 7 11 8 8 9 9 10 6 11 7 12 5 13
REMARK SMILES IDX 1 14 2 15 3 16 77 17 4 18 76 19 17 20 18 21 19 22 20 23
REMARK SMILES IDX 21 25 22 26 23 27 75 28 24 29 74 30 25 31 26 32 27 33 68 34
REMARK SMILES IDX 28 35 73 36 67 37 69 38 29 39 72 40 66 41 65 42 30 44 56 45
REMARK SMILES IDX 39 46 55 47 40 48 43 49 54 50 70 51 41 52 42 53 53 55 71 56
REMARK SMILES IDX 44 57 31 58 32 59 37 60 33 61 34 62 36 63 38 64 35 65 57 66
REMARK SMILES IDX 58 67 63 68 59 69 60 70 62 71 64 72 61 73 45 74 46 75 51 76
REMARK SMILES IDX 47 77 48 78 50 79 52 80 49 81
REMARK H PARENT 14 6 19 24 69 43 43 54
REMARK Flexibility Score: inf
ROOT
ATOM      1  C   UNL A   1      33.161  27.684  26.874  1.00  0.00     0.023 C 
ENDROOT
BRANCH   1   2
ATOM      2  C   UNL A   1      32.166  27.018  25.917  1.00  0.00     0.116 C 
BRANCH   2   3
ATOM      3  N   UNL A   1      31.544  25.810  26.451  1.00  0.00    -0.356 N 
ATOM      4  C   UNL A   1      31.835  24.511  26.677  1.00  0.00     0.223 C 
ATOM      5  O   UNL A   1      30.956  23.911  27.316  1.00  0.00    -0.275 OA
ATOM      6  H   UNL A   1      30.623  26.003  26.737  1.00  0.00     0.163 HD
BRANCH   4   7
ATOM      7  C   UNL A   1      33.065  23.705  26.221  1.00  0.00     0.086 C 
ATOM      8  C   UNL A   1      33.531  22.700  27.270  1.00  0.00     0.019 C 
BRANCH   7   9
ATOM      9  C   UNL A   1      33.214  23.341  24.713  1.00  0.00     0.070 C 
ATOM     10  C   UNL A   1      32.593  22.022  24.261  1.00  0.00     0.017 C 
BRANCH   9  11
ATOM     11  C   UNL A   1      34.559  23.625  24.003  1.00  0.00     0.166 C 
ATOM     12  O   UNL A   1      34.572  24.222  22.924  1.00  0.00    -0.294 OA
BRANCH  11  13
ATOM     13  C   UNL A   1      35.874  23.187  24.562  1.00  0.00     0.018 A 
ATOM     14  C   UNL A   1      39.554  21.766  26.338  1.00  0.00     0.044 C 
ATOM     15  C   UNL A   1      38.285  22.275  25.723  1.00  0.00    -0.051 A 
ATOM     16  C   UNL A   1      37.788  23.551  26.019  1.00  0.00     0.004 A 
ATOM     17  C   UNL A   1      37.580  21.477  24.829  1.00  0.00     0.004 A 
ATOM     18  C   UNL A   1      36.589  24.002  25.445  1.00  0.00     0.012 A 
ATOM     19  C   UNL A   1      36.394  21.939  24.265  1.00  0.00     0.012 A 
ENDBRANCH  11  13
ENDBRANCH   9  11
ENDBRANCH   7   9
ENDBRANCH   4   7
ENDBRANCH   2   3
ENDBRANCH   1   2
BRANCH   1  20
ATOM     20  C   UNL A   1      32.803  29.078  27.429  1.00  0.00     0.023 C 
BRANCH  20  21
ATOM     21  C   UNL A   1      33.674  30.256  26.994  1.00  0.00     0.116 C 
BRANCH  21  22
ATOM     22  N   UNL A   1      34.000  31.223  28.038  1.00  0.00    -0.352 N 
ATOM     23  C   UNL A   1      35.099  31.267  28.899  1.00  0.00     0.251 C 
ATOM     24  H   UNL A   1      33.348  31.952  28.151  1.00  0.00     0.163 HD
ATOM     25  O   UNL A   1      35.257  32.220  29.628  1.00  0.00    -0.269 OA
BRANCH  23  26
ATOM     26  C   UNL A   1      36.141  30.198  28.829  1.00  0.00     0.039 A 
ATOM     27  C   UNL A   1      36.427  29.446  29.977  1.00  0.00     0.014 A 
ATOM     28  C   UNL A   1      36.930  30.035  27.700  1.00  0.00     0.014 A 
ATOM     29  C   UNL A   1      37.642  28.761  30.066  1.00  0.00     0.010 A 
ATOM     30  C   UNL A   1      38.187  29.489  27.831  1.00  0.00     0.010 A 
ATOM     31  C   UNL A   1      38.568  28.901  29.037  1.00  0.00    -0.014 A 
BRANCH  31  32
ATOM     32  C   UNL A   1      39.983  28.557  29.134  1.00  0.00     0.031 A 
ATOM     33  C   UNL A   1      40.465  27.238  28.674  1.00  0.00     0.074 A 
ATOM     34  C   UNL A   1      40.857  29.534  29.456  1.00  0.00     0.049 A 
ATOM     35  N   UNL A   1      41.639  26.761  28.914  1.00  0.00    -0.248 NA
ATOM     36  C   UNL A   1      39.628  26.334  27.895  1.00  0.00     0.031 C 
ATOM     37  C   UNL A   1      42.308  29.531  29.302  1.00  0.00     0.029 A 
ATOM     38  N   UNL A   1      40.594  30.682  30.216  1.00  0.00    -0.354 N 
ATOM     39  C   UNL A   1      41.803  25.624  28.156  1.00  0.00     0.074 A 
ATOM     40  C   UNL A   1      40.512  25.393  27.550  1.00  0.00     0.031 C 
ATOM     41  C   UNL A   1      42.834  30.402  30.178  1.00  0.00     0.029 A 
ATOM     42  C   UNL A   1      41.746  30.875  31.016  1.00  0.00     0.049 A 
ATOM     43  H   UNL A   1      39.781  31.237  30.198  1.00  0.00     0.167 HD
ATOM     44  C   UNL A   1      43.041  25.059  28.059  1.00  0.00     0.037 A 
ATOM     45  C   UNL A   1      41.662  30.700  32.369  1.00  0.00     0.037 A 
ATOM     46  C   UNL A   1      43.993  25.730  28.944  1.00  0.00     0.049 A 
ATOM     47  C   UNL A   1      42.463  29.528  32.900  1.00  0.00     0.074 A 
ATOM     48  C   UNL A   1      44.920  26.746  28.779  1.00  0.00     0.029 A 
ATOM     49  N   UNL A   1      43.832  25.576  30.309  1.00  0.00    -0.354 N 
ATOM     50  N   UNL A   1      43.144  28.699  32.156  1.00  0.00    -0.248 NA
ATOM     51  C   UNL A   1      42.488  29.153  34.315  1.00  0.00     0.031 C 
ATOM     52  C   UNL A   1      45.241  27.261  30.071  1.00  0.00     0.029 A 
ATOM     53  C   UNL A   1      44.525  26.542  31.012  1.00  0.00     0.049 A 
ATOM     54  H   UNL A   1      43.293  24.867  30.726  1.00  0.00     0.167 HD
ATOM     55  C   UNL A   1      43.638  27.693  32.939  1.00  0.00     0.074 A 
ATOM     56  C   UNL A   1      43.212  28.022  34.286  1.00  0.00     0.031 C 
ATOM     57  C   UNL A   1      44.335  26.632  32.448  1.00  0.00     0.037 A 
BRANCH  44  58
ATOM     58  C   UNL A   1      43.440  24.028  27.029  1.00  0.00     0.057 A 
ATOM     59  C   UNL A   1      44.124  24.413  25.858  1.00  0.00     0.134 A 
ATOM     60  C   UNL A   1      43.155  22.653  27.101  1.00  0.00     0.134 A 
ATOM     61  F   UNL A   1      44.551  25.670  25.675  1.00  0.00    -0.206 F 
ATOM     62  C   UNL A   1      44.402  23.526  24.808  1.00  0.00     0.040 A 
ATOM     63  C   UNL A   1      43.372  21.766  26.035  1.00  0.00     0.040 A 
ATOM     64  F   UNL A   1      42.715  22.083  28.229  1.00  0.00    -0.206 F 
ATOM     65  C   UNL A   1      43.990  22.205  24.876  1.00  0.00     0.006 A 
ENDBRANCH  44  58
BRANCH  45  66
ATOM     66  C   UNL A   1      40.356  31.169  32.913  1.00  0.00     0.057 A 
ATOM     67  C   UNL A   1      39.386  30.202  33.240  1.00  0.00     0.134 A 
ATOM     68  C   UNL A   1      40.201  32.439  33.474  1.00  0.00     0.134 A 
ATOM     69  F   UNL A   1      39.471  28.962  32.731  1.00  0.00    -0.206 F 
ATOM     70  C   UNL A   1      38.395  30.444  34.193  1.00  0.00     0.040 A 
ATOM     71  C   UNL A   1      39.194  32.699  34.411  1.00  0.00     0.040 A 
ATOM     72  F   UNL A   1      41.094  33.409  33.230  1.00  0.00    -0.206 F 
ATOM     73  C   UNL A   1      38.320  31.688  34.808  1.00  0.00     0.006 A 
ENDBRANCH  45  66
BRANCH  57  74
ATOM     74  C   UNL A   1      44.900  25.583  33.345  1.00  0.00     0.057 A 
ATOM     75  C   UNL A   1      46.282  25.388  33.457  1.00  0.00     0.134 A 
ATOM     76  C   UNL A   1      44.078  24.667  34.023  1.00  0.00     0.134 A 
ATOM     77  F   UNL A   1      47.141  26.201  32.823  1.00  0.00    -0.206 F 
ATOM     78  C   UNL A   1      46.822  24.347  34.215  1.00  0.00     0.040 A 
ATOM     79  C   UNL A   1      44.604  23.599  34.752  1.00  0.00     0.040 A 
ATOM     80  F   UNL A   1      42.742  24.790  34.010  1.00  0.00    -0.206 F 
ATOM     81  C   UNL A   1      45.981  23.439  34.853  1.00  0.00     0.006 A 
ENDBRANCH  57  74
ENDBRANCH  31  32
ENDBRANCH  23  26
ENDBRANCH  21  22
ENDBRANCH  20  21
ENDBRANCH   1  20
TORSDOF 14
ENDMDL
MODEL 3
REMARK VINA RESULT:     -11.7      4.141      9.416
REMARK SMILES Cc1ccc(C(=O)[C@@H](C)[C@H](C)C(=O)NCCCCNC(=O)c2ccc(-c3c4nc(c(-c5c(F)cccc5F)c5ccc([nH]5)c(-c5c(F)cccc5F)c5nc(c(-c6c(F)cccc6F)c6ccc3[nH]6)C=C5)C=C4)cc2)cc1
REMARK SMILES IDX 16 1 15 2 14 3 12 4 13 5 10 7 11 8 8 9 9 10 6 11 7 12 5 13
REMARK SMILES IDX 1 14 2 15 3 16 77 17 4 18 76 19 17 20 18 21 19 22 20 23
REMARK SMILES IDX 21 25 22 26 23 27 75 28 24 29 74 30 25 31 26 32 27 33 68 34
REMARK SMILES IDX 28 35 73 36 67 37 69 38 29 39 72 40 66 41 65 42 30 44 56 45
REMARK SMILES IDX 39 46 55 47 40 48 43 49 54 50 70 51 41 52 42 53 53 55 71 56
REMARK SMILES IDX 44 57 31 58 32 59 37 60 33 61 34 62 36 63 38 64 35 65 57 66
REMARK SMILES IDX 58 67 63 68 59 69 60 70 62 71 64 72 61 73 45 74 46 75 51 76
REMARK SMILES IDX 47 77 48 78 50 79 52 80 49 81
REMARK H PARENT 14 6 19 24 69 43 43 54
REMARK Flexibility Score: inf
ROOT
ATOM      1  C   UNL A   1      37.060  21.754  24.804  1.00  0.00     0.023 C 
ENDROOT
BRANCH   1   2
ATOM      2  C   UNL A   1      35.921  20.915  25.394  1.00  0.00     0.116 C 
BRANCH   2   3
ATOM      3  N   UNL A   1      35.275  21.521  26.555  1.00  0.00    -0.356 N 
ATOM      4  C   UNL A   1      34.356  22.465  26.851  1.00  0.00     0.223 C 
ATOM      5  O   UNL A   1      34.047  22.495  28.053  1.00  0.00    -0.275 OA
ATOM      6  H   UNL A   1      35.616  21.112  27.382  1.00  0.00     0.163 HD
BRANCH   4   7
ATOM      7  C   UNL A   1      33.698  23.496  25.916  1.00  0.00     0.086 C 
ATOM      8  C   UNL A   1      34.653  24.615  25.510  1.00  0.00     0.019 C 
BRANCH   7   9
ATOM      9  C   UNL A   1      32.627  23.013  24.891  1.00  0.00     0.070 C 
ATOM     10  C   UNL A   1      31.764  24.091  24.241  1.00  0.00     0.017 C 
BRANCH   9  11
ATOM     11  C   UNL A   1      31.822  21.728  25.198  1.00  0.00     0.166 C 
ATOM     12  O   UNL A   1      30.789  21.793  25.869  1.00  0.00    -0.294 OA
BRANCH  11  13
ATOM     13  C   UNL A   1      32.250  20.377  24.724  1.00  0.00     0.018 A 
ATOM     14  C   UNL A   1      33.730  16.533  23.403  1.00  0.00     0.044 C 
ATOM     15  C   UNL A   1      33.207  17.866  23.847  1.00  0.00    -0.051 A 
ATOM     16  C   UNL A   1      32.774  18.826  22.925  1.00  0.00     0.004 A 
ATOM     17  C   UNL A   1      33.134  18.164  25.203  1.00  0.00     0.004 A 
ATOM     18  C   UNL A   1      32.302  20.074  23.360  1.00  0.00     0.012 A 
ATOM     19  C   UNL A   1      32.661  19.406  25.621  1.00  0.00     0.012 A 
ENDBRANCH  11  13
ENDBRANCH   9  11
ENDBRANCH   7   9
ENDBRANCH   4   7
ENDBRANCH   2   3
ENDBRANCH   1   2
BRANCH   1  20
ATOM     20  C   UNL A   1      38.444  21.666  25.480  1.00  0.00     0.023 C 
BRANCH  20  21
ATOM     21  C   UNL A   1      38.917  22.878  26.281  1.00  0.00     0.116 C 
BRANCH  21  22
ATOM     22  N   UNL A   1      40.359  22.983  26.479  1.00  0.00    -0.352 N 
ATOM     23  C   UNL A   1      41.122  24.073  26.907  1.00  0.00     0.251 C 
ATOM     24  H   UNL A   1      40.870  22.166  26.281  1.00  0.00     0.163 HD
ATOM     25  O   UNL A   1      42.305  23.934  27.124  1.00  0.00    -0.269 OA
BRANCH  23  26
ATOM     26  C   UNL A   1      40.453  25.372  27.216  1.00  0.00     0.039 A 
ATOM     27  C   UNL A   1      40.727  26.490  26.415  1.00  0.00     0.014 A 
ATOM     28  C   UNL A   1      39.686  25.533  28.360  1.00  0.00     0.014 A 
ATOM     29  C   UNL A   1      40.468  27.772  26.908  1.00  0.00     0.010 A 
ATOM     30  C   UNL A   1      39.560  26.786  28.916  1.00  0.00     0.010 A 
ATOM     31  C   UNL A   1      40.006  27.907  28.214  1.00  0.00    -0.014 A 
BRANCH  31  32
ATOM     32  C   UNL A   1      40.026  29.146  28.984  1.00  0.00     0.031 A 
ATOM     33  C   UNL A   1      38.953  30.148  28.819  1.00  0.00     0.074 A 
ATOM     34  C   UNL A   1      40.925  29.261  29.985  1.00  0.00     0.049 A 
ATOM     35  N   UNL A   1      38.994  31.351  29.280  1.00  0.00    -0.248 NA
ATOM     36  C   UNL A   1      37.724  29.856  28.090  1.00  0.00     0.031 C 
ATOM     37  C   UNL A   1      40.935  30.227  31.079  1.00  0.00     0.029 A 
ATOM     38  N   UNL A   1      42.170  28.625  30.077  1.00  0.00    -0.354 N 
ATOM     39  C   UNL A   1      37.746  31.913  29.124  1.00  0.00     0.074 A 
ATOM     40  C   UNL A   1      36.995  30.942  28.362  1.00  0.00     0.031 C 
ATOM     41  C   UNL A   1      42.195  30.356  31.526  1.00  0.00     0.029 A 
ATOM     42  C   UNL A   1      43.046  29.588  30.632  1.00  0.00     0.049 A 
ATOM     43  H   UNL A   1      42.390  27.702  29.812  1.00  0.00     0.167 HD
ATOM     44  C   UNL A   1      37.467  33.099  29.737  1.00  0.00     0.037 A 
ATOM     45  C   UNL A   1      44.049  30.106  29.864  1.00  0.00     0.037 A 
ATOM     46  C   UNL A   1      38.662  33.654  30.371  1.00  0.00     0.049 A 
ATOM     47  C   UNL A   1      43.902  31.583  29.553  1.00  0.00     0.074 A 
ATOM     48  C   UNL A   1      39.188  33.613  31.652  1.00  0.00     0.029 A 
ATOM     49  N   UNL A   1      39.680  34.110  29.554  1.00  0.00    -0.354 N 
ATOM     50  N   UNL A   1      42.890  32.320  29.922  1.00  0.00    -0.248 NA
ATOM     51  C   UNL A   1      44.855  32.324  28.724  1.00  0.00     0.031 C 
ATOM     52  C   UNL A   1      40.568  33.965  31.571  1.00  0.00     0.029 A 
ATOM     53  C   UNL A   1      40.867  34.237  30.249  1.00  0.00     0.049 A 
ATOM     54  H   UNL A   1      39.572  34.319  28.598  1.00  0.00     0.167 HD
ATOM     55  C   UNL A   1      43.013  33.565  29.370  1.00  0.00     0.074 A 
ATOM     56  C   UNL A   1      44.263  33.527  28.636  1.00  0.00     0.031 C 
ATOM     57  C   UNL A   1      42.079  34.544  29.510  1.00  0.00     0.037 A 
BRANCH  44  58
ATOM     58  C   UNL A   1      36.079  33.666  29.927  1.00  0.00     0.057 A 
ATOM     59  C   UNL A   1      35.315  34.074  28.815  1.00  0.00     0.134 A 
ATOM     60  C   UNL A   1      35.448  33.874  31.166  1.00  0.00     0.134 A 
ATOM     61  F   UNL A   1      35.731  33.862  27.560  1.00  0.00    -0.206 F 
ATOM     62  C   UNL A   1      34.079  34.727  28.935  1.00  0.00     0.040 A 
ATOM     63  C   UNL A   1      34.242  34.580  31.305  1.00  0.00     0.040 A 
ATOM     64  F   UNL A   1      35.928  33.347  32.298  1.00  0.00    -0.206 F 
ATOM     65  C   UNL A   1      33.557  35.019  30.185  1.00  0.00     0.006 A 
ENDBRANCH  44  58
BRANCH  45  66
ATOM     66  C   UNL A   1      44.636  29.088  28.948  1.00  0.00     0.057 A 
ATOM     67  C   UNL A   1      44.232  29.095  27.599  1.00  0.00     0.134 A 
ATOM     68  C   UNL A   1      45.820  28.413  29.253  1.00  0.00     0.134 A 
ATOM     69  F   UNL A   1      43.100  29.720  27.237  1.00  0.00    -0.206 F 
ATOM     70  C   UNL A   1      45.042  28.583  26.583  1.00  0.00     0.040 A 
ATOM     71  C   UNL A   1      46.627  27.873  28.243  1.00  0.00     0.040 A 
ATOM     72  F   UNL A   1      46.285  28.378  30.510  1.00  0.00    -0.206 F 
ATOM     73  C   UNL A   1      46.262  28.001  26.904  1.00  0.00     0.006 A 
ENDBRANCH  45  66
BRANCH  57  74
ATOM     74  C   UNL A   1      42.278  35.905  28.933  1.00  0.00     0.057 A 
ATOM     75  C   UNL A   1      41.764  36.244  27.675  1.00  0.00     0.134 A 
ATOM     76  C   UNL A   1      43.086  36.866  29.562  1.00  0.00     0.134 A 
ATOM     77  F   UNL A   1      41.001  35.377  26.991  1.00  0.00    -0.206 F 
ATOM     78  C   UNL A   1      42.027  37.479  27.079  1.00  0.00     0.040 A 
ATOM     79  C   UNL A   1      43.389  38.089  28.960  1.00  0.00     0.040 A 
ATOM     80  F   UNL A   1      43.595  36.653  30.785  1.00  0.00    -0.206 F 
ATOM     81  C   UNL A   1      42.854  38.400  27.716  1.00  0.00     0.006 A 
ENDBRANCH  57  74
ENDBRANCH  31  32
ENDBRANCH  23  26
ENDBRANCH  21  22
ENDBRANCH  20  21
ENDBRANCH   1  20
TORSDOF 14
ENDMDL
