MODEL 1
REMARK VINA RESULT:     -11.1      0.000      0.000
REMARK SMILES CC(C)C[C@H](CNC(=O)[C@]1([NH3+])CCC[C@@H](C)C1)C(=O)NCCCCNC(=O)c1ccc(-c2c3nc(c(-c4c(F)cccc4F)c4ccc([nH]4)c(-c4c(F)cccc4F)c4nc(c(-c5c(F)cccc5F)c5ccc2[nH]5)C=C4)C=C3)cc1
REMARK SMILES IDX 21 1 20 2 18 3 19 4 5 6 4 7 2 8 1 9 3 10 6 11 7 12 8 13 9 15
REMARK SMILES IDX 10 16 12 17 17 18 13 19 15 20 14 21 16 22 11 23 22 27 23 28
REMARK SMILES IDX 24 29 25 30 26 31 27 33 28 34 29 35 81 36 30 37 80 38 31 39
REMARK SMILES IDX 32 40 33 41 74 42 34 43 79 44 73 45 75 46 35 47 78 48 72 49
REMARK SMILES IDX 71 50 36 52 62 53 45 54 61 55 46 56 49 57 60 58 76 59 47 60
REMARK SMILES IDX 48 61 59 63 77 64 50 65 37 66 38 67 43 68 39 69 40 70 42 71
REMARK SMILES IDX 44 72 41 73 63 74 64 75 69 76 65 77 66 78 68 79 70 80 67 81
REMARK SMILES IDX 51 82 52 83 57 84 53 85 54 86 56 87 58 88 55 89
REMARK H PARENT 20 5 7 14 11 24 11 25 11 26 25 32 75 51 49 62
REMARK Flexibility Score: inf
ROOT
ATOM      1  C   UNL A   1      35.675  22.914  24.295  1.00  0.00     0.116 C 
ENDROOT
BRANCH   1   2
ATOM      2  N   UNL A   1      34.955  23.356  23.123  1.00  0.00    -0.356 N 
ATOM      3  C   UNL A   1      33.683  23.104  22.734  1.00  0.00     0.224 C 
ATOM      4  O   UNL A   1      33.356  23.457  21.598  1.00  0.00    -0.275 OA
ATOM      5  H   UNL A   1      35.469  23.931  22.512  1.00  0.00     0.163 HD
BRANCH   3   6
ATOM      6  C   UNL A   1      32.675  22.454  23.667  1.00  0.00     0.098 C 
BRANCH   6   7
ATOM      7  C   UNL A   1      32.533  20.945  23.425  1.00  0.00     0.018 C 
BRANCH   7   8
ATOM      8  C   UNL A   1      33.303  20.086  24.451  1.00  0.00    -0.017 C 
ATOM      9  C   UNL A   1      33.245  20.671  25.868  1.00  0.00     0.007 C 
ATOM     10  C   UNL A   1      32.706  18.678  24.459  1.00  0.00     0.007 C 
ENDBRANCH   7   8
ENDBRANCH   6   7
BRANCH   6  11
ATOM     11  C   UNL A   1      31.351  23.241  23.748  1.00  0.00     0.129 C 
BRANCH  11  12
ATOM     12  N   UNL A   1      30.737  23.318  25.091  1.00  0.00    -0.350 N 
ATOM     13  C   UNL A   1      30.802  24.283  26.082  1.00  0.00     0.281 C 
ATOM     14  H   UNL A   1      30.179  22.540  25.323  1.00  0.00     0.163 HD
ATOM     15  O   UNL A   1      30.221  24.078  27.146  1.00  0.00    -0.268 OA
BRANCH  13  16
ATOM     16  C   UNL A   1      31.562  25.602  25.764  1.00  0.00     0.174 C 
ATOM     17  C   UNL A   1      33.060  25.285  25.927  1.00  0.00     0.079 C 
ATOM     18  C   UNL A   1      31.322  26.796  26.717  1.00  0.00     0.082 C 
ATOM     19  C   UNL A   1      33.959  26.388  25.426  1.00  0.00     0.007 C 
ATOM     20  C   UNL A   1      32.244  28.020  26.407  1.00  0.00    -0.008 C 
ATOM     21  C   UNL A   1      33.732  27.636  26.262  1.00  0.00     0.004 C 
ATOM     22  C   UNL A   1      31.801  28.824  25.178  1.00  0.00     0.008 C 
BRANCH  16  23
ATOM     23  N   UNL A   1      31.093  26.025  24.415  1.00  0.00    -0.345 N 
ATOM     24  H   UNL A   1      30.203  26.516  24.503  1.00  0.00     0.345 HD
ATOM     25  H   UNL A   1      30.971  25.202  23.825  1.00  0.00     0.345 HD
ATOM     26  H   UNL A   1      31.783  26.646  23.994  1.00  0.00     0.345 HD
ENDBRANCH  16  23
ENDBRANCH  13  16
ENDBRANCH  11  12
ENDBRANCH   6  11
ENDBRANCH   3   6
ENDBRANCH   1   2
BRANCH   1  27
ATOM     27  C   UNL A   1      36.965  22.207  23.880  1.00  0.00     0.023 C 
BRANCH  27  28
ATOM     28  C   UNL A   1      37.230  20.913  24.652  1.00  0.00     0.023 C 
BRANCH  28  29
ATOM     29  C   UNL A   1      38.352  21.016  25.677  1.00  0.00     0.116 C 
BRANCH  29  30
ATOM     30  N   UNL A   1      39.270  19.889  25.612  1.00  0.00    -0.352 N 
ATOM     31  C   UNL A   1      40.601  19.859  25.937  1.00  0.00     0.251 C 
ATOM     32  H   UNL A   1      38.888  19.040  25.292  1.00  0.00     0.163 HD
ATOM     33  O   UNL A   1      41.285  18.868  25.703  1.00  0.00    -0.269 OA
BRANCH  31  34
ATOM     34  C   UNL A   1      41.200  21.059  26.542  1.00  0.00     0.039 A 
ATOM     35  C   UNL A   1      41.768  22.022  25.707  1.00  0.00     0.014 A 
ATOM     36  C   UNL A   1      41.127  21.257  27.924  1.00  0.00     0.014 A 
ATOM     37  C   UNL A   1      42.214  23.221  26.258  1.00  0.00     0.010 A 
ATOM     38  C   UNL A   1      41.501  22.482  28.459  1.00  0.00     0.010 A 
ATOM     39  C   UNL A   1      42.052  23.473  27.631  1.00  0.00    -0.014 A 
BRANCH  39  40
ATOM     40  C   UNL A   1      42.461  24.767  28.224  1.00  0.00     0.031 A 
ATOM     41  C   UNL A   1      41.444  25.854  28.422  1.00  0.00     0.074 A 
ATOM     42  C   UNL A   1      43.756  24.981  28.524  1.00  0.00     0.049 A 
ATOM     43  N   UNL A   1      41.614  27.074  28.862  1.00  0.00    -0.248 NA
ATOM     44  C   UNL A   1      40.056  25.538  28.048  1.00  0.00     0.031 C 
ATOM     45  C   UNL A   1      44.844  24.020  28.326  1.00  0.00     0.029 A 
ATOM     46  N   UNL A   1      44.380  26.084  29.051  1.00  0.00    -0.354 N 
ATOM     47  C   UNL A   1      40.362  27.671  28.806  1.00  0.00     0.074 A 
ATOM     48  C   UNL A   1      39.455  26.702  28.233  1.00  0.00     0.031 C 
ATOM     49  C   UNL A   1      45.996  24.567  28.745  1.00  0.00     0.029 A 
ATOM     50  C   UNL A   1      45.735  25.927  29.207  1.00  0.00     0.049 A 
ATOM     51  H   UNL A   1      43.901  26.909  29.293  1.00  0.00     0.167 HD
ATOM     52  C   UNL A   1      39.996  28.906  29.222  1.00  0.00     0.037 A 
ATOM     53  C   UNL A   1      46.663  26.787  29.668  1.00  0.00     0.037 A 
ATOM     54  C   UNL A   1      40.899  29.857  29.813  1.00  0.00     0.049 A 
ATOM     55  C   UNL A   1      46.231  28.153  30.121  1.00  0.00     0.074 A 
ATOM     56  C   UNL A   1      40.618  31.115  30.315  1.00  0.00     0.029 A 
ATOM     57  N   UNL A   1      42.260  29.654  29.978  1.00  0.00    -0.354 N 
ATOM     58  N   UNL A   1      45.031  28.682  30.128  1.00  0.00    -0.248 NA
ATOM     59  C   UNL A   1      47.281  29.040  30.642  1.00  0.00     0.031 C 
ATOM     60  C   UNL A   1      41.818  31.690  30.748  1.00  0.00     0.029 A 
ATOM     61  C   UNL A   1      42.838  30.770  30.559  1.00  0.00     0.049 A 
ATOM     62  H   UNL A   1      42.746  28.836  29.721  1.00  0.00     0.167 HD
ATOM     63  C   UNL A   1      45.177  29.950  30.674  1.00  0.00     0.074 A 
ATOM     64  C   UNL A   1      46.579  30.105  31.002  1.00  0.00     0.031 C 
ATOM     65  C   UNL A   1      44.235  30.902  30.885  1.00  0.00     0.037 A 
BRANCH  52  66
ATOM     66  C   UNL A   1      38.554  29.289  29.058  1.00  0.00     0.057 A 
ATOM     67  C   UNL A   1      37.659  29.268  30.137  1.00  0.00     0.134 A 
ATOM     68  C   UNL A   1      38.059  29.707  27.817  1.00  0.00     0.134 A 
ATOM     69  F   UNL A   1      38.065  28.862  31.350  1.00  0.00    -0.206 F 
ATOM     70  C   UNL A   1      36.318  29.621  29.980  1.00  0.00     0.040 A 
ATOM     71  C   UNL A   1      36.727  30.091  27.654  1.00  0.00     0.040 A 
ATOM     72  F   UNL A   1      38.864  29.754  26.744  1.00  0.00    -0.206 F 
ATOM     73  C   UNL A   1      35.850  30.041  28.736  1.00  0.00     0.006 A 
ENDBRANCH  52  66
BRANCH  53  74
ATOM     74  C   UNL A   1      48.087  26.374  29.744  1.00  0.00     0.057 A 
ATOM     75  C   UNL A   1      48.952  26.562  28.659  1.00  0.00     0.134 A 
ATOM     76  C   UNL A   1      48.615  25.775  30.894  1.00  0.00     0.134 A 
ATOM     77  F   UNL A   1      48.500  27.115  27.523  1.00  0.00    -0.206 F 
ATOM     78  C   UNL A   1      50.285  26.152  28.708  1.00  0.00     0.040 A 
ATOM     79  C   UNL A   1      49.953  25.384  30.965  1.00  0.00     0.040 A 
ATOM     80  F   UNL A   1      47.841  25.576  31.970  1.00  0.00    -0.206 F 
ATOM     81  C   UNL A   1      50.790  25.565  29.866  1.00  0.00     0.006 A 
ENDBRANCH  53  74
BRANCH  65  82
ATOM     82  C   UNL A   1      44.684  32.180  31.530  1.00  0.00     0.057 A 
ATOM     83  C   UNL A   1      45.080  33.291  30.775  1.00  0.00     0.134 A 
ATOM     84  C   UNL A   1      44.679  32.313  32.924  1.00  0.00     0.134 A 
ATOM     85  F   UNL A   1      45.118  33.224  29.435  1.00  0.00    -0.206 F 
ATOM     86  C   UNL A   1      45.477  34.481  31.385  1.00  0.00     0.040 A 
ATOM     87  C   UNL A   1      45.048  33.506  33.545  1.00  0.00     0.040 A 
ATOM     88  F   UNL A   1      44.302  31.289  33.705  1.00  0.00    -0.206 F 
ATOM     89  C   UNL A   1      45.455  34.594  32.774  1.00  0.00     0.006 A 
ENDBRANCH  65  82
ENDBRANCH  39  40
ENDBRANCH  31  34
ENDBRANCH  29  30
ENDBRANCH  28  29
ENDBRANCH  27  28
ENDBRANCH   1  27
TORSDOF 17
ENDMDL
MODEL 2
REMARK VINA RESULT:     -11.1      4.062      8.744
REMARK SMILES CC(C)C[C@H](CNC(=O)[C@]1([NH3+])CCC[C@@H](C)C1)C(=O)NCCCCNC(=O)c1ccc(-c2c3nc(c(-c4c(F)cccc4F)c4ccc([nH]4)c(-c4c(F)cccc4F)c4nc(c(-c5c(F)cccc5F)c5ccc2[nH]5)C=C4)C=C3)cc1
REMARK SMILES IDX 21 1 20 2 18 3 19 4 5 6 4 7 2 8 1 9 3 10 6 11 7 12 8 13 9 15
REMARK SMILES IDX 10 16 12 17 17 18 13 19 15 20 14 21 16 22 11 23 22 27 23 28
REMARK SMILES IDX 24 29 25 30 26 31 27 33 28 34 29 35 81 36 30 37 80 38 31 39
REMARK SMILES IDX 32 40 33 41 74 42 34 43 79 44 73 45 75 46 35 47 78 48 72 49
REMARK SMILES IDX 71 50 36 52 62 53 45 54 61 55 46 56 49 57 60 58 76 59 47 60
REMARK SMILES IDX 48 61 59 63 77 64 50 65 37 66 38 67 43 68 39 69 40 70 42 71
REMARK SMILES IDX 44 72 41 73 63 74 64 75 69 76 65 77 66 78 68 79 70 80 67 81
REMARK SMILES IDX 51 82 52 83 57 84 53 85 54 86 56 87 58 88 55 89
REMARK H PARENT 20 5 7 14 11 24 11 25 11 26 25 32 75 51 49 62
REMARK Flexibility Score: inf
ROOT
ATOM      1  C   UNL A   1      32.223  30.037  25.405  1.00  0.00     0.116 C 
ENDROOT
BRANCH   1   2
ATOM      2  N   UNL A   1      31.078  29.685  24.597  1.00  0.00    -0.356 N 
ATOM      3  C   UNL A   1      30.676  28.479  24.131  1.00  0.00     0.224 C 
ATOM      4  O   UNL A   1      29.754  28.467  23.312  1.00  0.00    -0.275 OA
ATOM      5  H   UNL A   1      30.499  30.441  24.347  1.00  0.00     0.163 HD
BRANCH   3   6
ATOM      6  C   UNL A   1      31.297  27.183  24.625  1.00  0.00     0.098 C 
BRANCH   6   7
ATOM      7  C   UNL A   1      32.741  26.998  24.140  1.00  0.00     0.018 C 
BRANCH   7   8
ATOM      8  C   UNL A   1      32.919  27.271  22.631  1.00  0.00    -0.017 C 
ATOM      9  C   UNL A   1      34.029  28.291  22.346  1.00  0.00     0.007 C 
ATOM     10  C   UNL A   1      33.249  25.953  21.929  1.00  0.00     0.007 C 
ENDBRANCH   7   8
ENDBRANCH   6   7
BRANCH   6  11
ATOM     11  C   UNL A   1      30.367  25.969  24.426  1.00  0.00     0.129 C 
BRANCH  11  12
ATOM     12  N   UNL A   1      29.934  25.288  25.665  1.00  0.00    -0.350 N 
ATOM     13  C   UNL A   1      30.281  24.065  26.216  1.00  0.00     0.281 C 
ATOM     14  H   UNL A   1      29.280  25.797  26.196  1.00  0.00     0.163 HD
ATOM     15  O   UNL A   1      29.732  23.708  27.255  1.00  0.00    -0.268 OA
BRANCH  13  16
ATOM     16  C   UNL A   1      31.396  23.240  25.511  1.00  0.00     0.174 C 
ATOM     17  C   UNL A   1      32.729  23.911  25.886  1.00  0.00     0.079 C 
ATOM     18  C   UNL A   1      31.393  23.237  23.965  1.00  0.00     0.082 C 
ATOM     19  C   UNL A   1      33.937  23.101  25.483  1.00  0.00     0.007 C 
ATOM     20  C   UNL A   1      32.637  22.511  23.354  1.00  0.00    -0.008 C 
ATOM     21  C   UNL A   1      33.973  22.979  23.968  1.00  0.00     0.004 C 
ATOM     22  C   UNL A   1      32.549  20.981  23.425  1.00  0.00     0.008 C 
BRANCH  16  23
ATOM     23  N   UNL A   1      31.191  21.829  25.946  1.00  0.00    -0.345 N 
ATOM     24  H   UNL A   1      31.160  21.222  25.127  1.00  0.00     0.345 HD
ATOM     25  H   UNL A   1      30.312  21.757  26.458  1.00  0.00     0.345 HD
ATOM     26  H   UNL A   1      31.961  21.545  26.551  1.00  0.00     0.345 HD
ENDBRANCH  16  23
ENDBRANCH  13  16
ENDBRANCH  11  12
ENDBRANCH   6  11
ENDBRANCH   3   6
ENDBRANCH   1   2
BRANCH   1  27
ATOM     27  C   UNL A   1      31.765  30.528  26.777  1.00  0.00     0.023 C 
BRANCH  27  28
ATOM     28  C   UNL A   1      31.530  32.039  26.840  1.00  0.00     0.023 C 
BRANCH  28  29
ATOM     29  C   UNL A   1      32.760  32.847  27.231  1.00  0.00     0.116 C 
BRANCH  29  30
ATOM     30  N   UNL A   1      32.429  34.206  27.632  1.00  0.00    -0.352 N 
ATOM     31  C   UNL A   1      33.005  34.964  28.617  1.00  0.00     0.251 C 
ATOM     32  H   UNL A   1      31.698  34.636  27.133  1.00  0.00     0.163 HD
ATOM     33  O   UNL A   1      32.531  36.050  28.936  1.00  0.00    -0.269 OA
BRANCH  31  34
ATOM     34  C   UNL A   1      34.187  34.428  29.312  1.00  0.00     0.039 A 
ATOM     35  C   UNL A   1      34.006  33.719  30.500  1.00  0.00     0.014 A 
ATOM     36  C   UNL A   1      35.456  34.566  28.742  1.00  0.00     0.014 A 
ATOM     37  C   UNL A   1      35.101  33.093  31.091  1.00  0.00     0.010 A 
ATOM     38  C   UNL A   1      36.528  33.877  29.290  1.00  0.00     0.010 A 
ATOM     39  C   UNL A   1      36.361  33.138  30.472  1.00  0.00    -0.014 A 
BRANCH  39  40
ATOM     40  C   UNL A   1      37.523  32.425  31.051  1.00  0.00     0.031 A 
ATOM     41  C   UNL A   1      38.152  32.927  32.319  1.00  0.00     0.074 A 
ATOM     42  C   UNL A   1      38.046  31.368  30.402  1.00  0.00     0.049 A 
ATOM     43  N   UNL A   1      39.210  32.485  32.948  1.00  0.00    -0.248 NA
ATOM     44  C   UNL A   1      37.525  34.101  32.949  1.00  0.00     0.031 C 
ATOM     45  C   UNL A   1      37.555  30.821  29.135  1.00  0.00     0.029 A 
ATOM     46  N   UNL A   1      39.116  30.568  30.716  1.00  0.00    -0.354 N 
ATOM     47  C   UNL A   1      39.382  33.331  34.035  1.00  0.00     0.074 A 
ATOM     48  C   UNL A   1      38.357  34.348  33.948  1.00  0.00     0.031 C 
ATOM     49  C   UNL A   1      38.308  29.765  28.791  1.00  0.00     0.029 A 
ATOM     50  C   UNL A   1      39.354  29.581  29.791  1.00  0.00     0.049 A 
ATOM     51  H   UNL A   1      39.661  30.692  31.525  1.00  0.00     0.167 HD
ATOM     52  C   UNL A   1      40.293  33.249  35.033  1.00  0.00     0.037 A 
ATOM     53  C   UNL A   1      40.313  28.637  29.754  1.00  0.00     0.037 A 
ATOM     54  C   UNL A   1      41.295  32.222  35.126  1.00  0.00     0.049 A 
ATOM     55  C   UNL A   1      41.316  28.570  30.872  1.00  0.00     0.074 A 
ATOM     56  C   UNL A   1      42.232  32.020  36.124  1.00  0.00     0.029 A 
ATOM     57  N   UNL A   1      41.491  31.224  34.184  1.00  0.00    -0.354 N 
ATOM     58  N   UNL A   1      41.425  29.334  31.932  1.00  0.00    -0.248 NA
ATOM     59  C   UNL A   1      42.323  27.502  30.795  1.00  0.00     0.031 C 
ATOM     60  C   UNL A   1      43.022  30.922  35.764  1.00  0.00     0.029 A 
ATOM     61  C   UNL A   1      42.545  30.412  34.567  1.00  0.00     0.049 A 
ATOM     62  H   UNL A   1      40.958  31.108  33.363  1.00  0.00     0.167 HD
ATOM     63  C   UNL A   1      42.493  28.826  32.660  1.00  0.00     0.074 A 
ATOM     64  C   UNL A   1      42.988  27.678  31.928  1.00  0.00     0.031 C 
ATOM     65  C   UNL A   1      43.018  29.269  33.828  1.00  0.00     0.037 A 
BRANCH  52  66
ATOM     66  C   UNL A   1      40.237  34.298  36.105  1.00  0.00     0.057 A 
ATOM     67  C   UNL A   1      39.464  34.129  37.262  1.00  0.00     0.134 A 
ATOM     68  C   UNL A   1      40.980  35.479  35.992  1.00  0.00     0.134 A 
ATOM     69  F   UNL A   1      38.715  33.028  37.424  1.00  0.00    -0.206 F 
ATOM     70  C   UNL A   1      39.411  35.109  38.255  1.00  0.00     0.040 A 
ATOM     71  C   UNL A   1      40.959  36.453  36.992  1.00  0.00     0.040 A 
ATOM     72  F   UNL A   1      41.745  35.703  34.913  1.00  0.00    -0.206 F 
ATOM     73  C   UNL A   1      40.166  36.272  38.124  1.00  0.00     0.006 A 
ENDBRANCH  52  66
BRANCH  53  74
ATOM     74  C   UNL A   1      40.359  27.668  28.631  1.00  0.00     0.057 A 
ATOM     75  C   UNL A   1      39.653  26.460  28.690  1.00  0.00     0.134 A 
ATOM     76  C   UNL A   1      41.113  27.918  27.478  1.00  0.00     0.134 A 
ATOM     77  F   UNL A   1      38.926  26.156  29.775  1.00  0.00    -0.206 F 
ATOM     78  C   UNL A   1      39.710  25.528  27.652  1.00  0.00     0.040 A 
ATOM     79  C   UNL A   1      41.159  27.006  26.422  1.00  0.00     0.040 A 
ATOM     80  F   UNL A   1      41.805  29.060  27.357  1.00  0.00    -0.206 F 
ATOM     81  C   UNL A   1      40.462  25.803  26.512  1.00  0.00     0.006 A 
ENDBRANCH  53  74
BRANCH  65  82
ATOM     82  C   UNL A   1      44.164  28.491  34.404  1.00  0.00     0.057 A 
ATOM     83  C   UNL A   1      45.495  28.798  34.097  1.00  0.00     0.134 A 
ATOM     84  C   UNL A   1      43.932  27.449  35.310  1.00  0.00     0.134 A 
ATOM     85  F   UNL A   1      45.784  29.778  33.227  1.00  0.00    -0.206 F 
ATOM     86  C   UNL A   1      46.554  28.081  34.654  1.00  0.00     0.040 A 
ATOM     87  C   UNL A   1      44.983  26.742  35.894  1.00  0.00     0.040 A 
ATOM     88  F   UNL A   1      42.680  27.110  35.653  1.00  0.00    -0.206 F 
ATOM     89  C   UNL A   1      46.300  27.054  35.560  1.00  0.00     0.006 A 
ENDBRANCH  65  82
ENDBRANCH  39  40
ENDBRANCH  31  34
ENDBRANCH  29  30
ENDBRANCH  28  29
ENDBRANCH  27  28
ENDBRANCH   1  27
TORSDOF 17
ENDMDL
MODEL 3
REMARK VINA RESULT:     -11.1      1.746      6.426
REMARK SMILES CC(C)C[C@H](CNC(=O)[C@]1([NH3+])CCC[C@@H](C)C1)C(=O)NCCCCNC(=O)c1ccc(-c2c3nc(c(-c4c(F)cccc4F)c4ccc([nH]4)c(-c4c(F)cccc4F)c4nc(c(-c5c(F)cccc5F)c5ccc2[nH]5)C=C4)C=C3)cc1
REMARK SMILES IDX 21 1 20 2 18 3 19 4 5 6 4 7 2 8 1 9 3 10 6 11 7 12 8 13 9 15
REMARK SMILES IDX 10 16 12 17 17 18 13 19 15 20 14 21 16 22 11 23 22 27 23 28
REMARK SMILES IDX 24 29 25 30 26 31 27 33 28 34 29 35 81 36 30 37 80 38 31 39
REMARK SMILES IDX 32 40 33 41 74 42 34 43 79 44 73 45 75 46 35 47 78 48 72 49
REMARK SMILES IDX 71 50 36 52 62 53 45 54 61 55 46 56 49 57 60 58 76 59 47 60
REMARK SMILES IDX 48 61 59 63 77 64 50 65 37 66 38 67 43 68 39 69 40 70 42 71
REMARK SMILES IDX 44 72 41 73 63 74 64 75 69 76 65 77 66 78 68 79 70 80 67 81
REMARK SMILES IDX 51 82 52 83 57 84 53 85 54 86 56 87 58 88 55 89
REMARK H PARENT 20 5 7 14 11 24 11 25 11 26 25 32 75 51 49 62
REMARK Flexibility Score: inf
ROOT
ATOM      1  C   UNL A   1      35.870  21.517  24.608  1.00  0.00     0.116 C 
ENDROOT
BRANCH   1   2
ATOM      2  N   UNL A   1      35.378  21.415  25.963  1.00  0.00    -0.356 N 
ATOM      3  C   UNL A   1      34.149  21.079  26.422  1.00  0.00     0.224 C 
ATOM      4  O   UNL A   1      33.932  21.235  27.626  1.00  0.00    -0.275 OA
ATOM      5  H   UNL A   1      36.040  21.621  26.662  1.00  0.00     0.163 HD
BRANCH   3   6
ATOM      6  C   UNL A   1      33.088  20.489  25.509  1.00  0.00     0.098 C 
BRANCH   6   7
ATOM      7  C   UNL A   1      33.677  19.548  24.450  1.00  0.00     0.018 C 
BRANCH   7   8
ATOM      8  C   UNL A   1      32.799  18.308  24.176  1.00  0.00    -0.017 C 
ATOM      9  C   UNL A   1      33.458  17.327  23.197  1.00  0.00     0.007 C 
ATOM     10  C   UNL A   1      32.527  17.596  25.502  1.00  0.00     0.007 C 
ENDBRANCH   7   8
ENDBRANCH   6   7
BRANCH   6  11
ATOM     11  C   UNL A   1      32.105  21.553  24.981  1.00  0.00     0.129 C 
BRANCH  11  12
ATOM     12  N   UNL A   1      31.094  22.025  25.952  1.00  0.00    -0.350 N 
ATOM     13  C   UNL A   1      30.806  23.286  26.445  1.00  0.00     0.281 C 
ATOM     14  H   UNL A   1      30.521  21.311  26.315  1.00  0.00     0.163 HD
ATOM     15  O   UNL A   1      29.926  23.402  27.295  1.00  0.00    -0.268 OA
BRANCH  13  16
ATOM     16  C   UNL A   1      31.579  24.496  25.845  1.00  0.00     0.174 C 
ATOM     17  C   UNL A   1      31.384  24.417  24.320  1.00  0.00     0.079 C 
ATOM     18  C   UNL A   1      33.114  24.509  26.032  1.00  0.00     0.082 C 
ATOM     19  C   UNL A   1      31.868  25.648  23.594  1.00  0.00     0.007 C 
ATOM     20  C   UNL A   1      33.811  25.679  25.264  1.00  0.00    -0.008 C 
ATOM     21  C   UNL A   1      33.368  25.785  23.789  1.00  0.00     0.004 C 
ATOM     22  C   UNL A   1      33.649  27.043  25.947  1.00  0.00     0.008 C 
BRANCH  16  23
ATOM     23  N   UNL A   1      31.048  25.702  26.543  1.00  0.00    -0.345 N 
ATOM     24  H   UNL A   1      30.922  26.456  25.869  1.00  0.00     0.345 HD
ATOM     25  H   UNL A   1      31.708  25.994  27.263  1.00  0.00     0.345 HD
ATOM     26  H   UNL A   1      30.152  25.477  26.975  1.00  0.00     0.345 HD
ENDBRANCH  16  23
ENDBRANCH  13  16
ENDBRANCH  11  12
ENDBRANCH   6  11
ENDBRANCH   3   6
ENDBRANCH   1   2
BRANCH   1  27
ATOM     27  C   UNL A   1      37.397  21.502  24.604  1.00  0.00     0.023 C 
BRANCH  27  28
ATOM     28  C   UNL A   1      37.998  20.153  25.004  1.00  0.00     0.023 C 
BRANCH  28  29
ATOM     29  C   UNL A   1      39.044  20.237  26.108  1.00  0.00     0.116 C 
BRANCH  29  30
ATOM     30  N   UNL A   1      40.050  19.190  26.003  1.00  0.00    -0.352 N 
ATOM     31  C   UNL A   1      41.412  19.314  26.073  1.00  0.00     0.251 C 
ATOM     32  H   UNL A   1      39.708  18.278  25.864  1.00  0.00     0.163 HD
ATOM     33  O   UNL A   1      42.144  18.358  25.831  1.00  0.00    -0.269 OA
BRANCH  31  34
ATOM     34  C   UNL A   1      41.980  20.629  26.408  1.00  0.00     0.039 A 
ATOM     35  C   UNL A   1      42.259  21.525  25.376  1.00  0.00     0.014 A 
ATOM     36  C   UNL A   1      42.159  20.992  27.746  1.00  0.00     0.014 A 
ATOM     37  C   UNL A   1      42.668  22.818  25.691  1.00  0.00     0.010 A 
ATOM     38  C   UNL A   1      42.491  22.304  28.057  1.00  0.00     0.010 A 
ATOM     39  C   UNL A   1      42.752  23.227  27.033  1.00  0.00    -0.014 A 
BRANCH  39  40
ATOM     40  C   UNL A   1      43.122  24.617  27.386  1.00  0.00     0.031 A 
ATOM     41  C   UNL A   1      44.563  25.039  27.352  1.00  0.00     0.074 A 
ATOM     42  C   UNL A   1      42.169  25.475  27.797  1.00  0.00     0.049 A 
ATOM     43  N   UNL A   1      45.096  26.185  27.688  1.00  0.00    -0.248 NA
ATOM     44  C   UNL A   1      45.538  24.028  26.910  1.00  0.00     0.031 C 
ATOM     45  C   UNL A   1      40.744  25.164  27.923  1.00  0.00     0.029 A 
ATOM     46  N   UNL A   1      42.259  26.785  28.195  1.00  0.00    -0.354 N 
ATOM     47  C   UNL A   1      46.464  26.029  27.509  1.00  0.00     0.074 A 
ATOM     48  C   UNL A   1      46.685  24.661  27.095  1.00  0.00     0.031 C 
ATOM     49  C   UNL A   1      40.091  26.258  28.346  1.00  0.00     0.029 A 
ATOM     50  C   UNL A   1      41.054  27.334  28.557  1.00  0.00     0.049 A 
ATOM     51  H   UNL A   1      43.108  27.283  28.219  1.00  0.00     0.167 HD
ATOM     52  C   UNL A   1      47.445  26.951  27.649  1.00  0.00     0.037 A 
ATOM     53  C   UNL A   1      40.761  28.567  29.011  1.00  0.00     0.037 A 
ATOM     54  C   UNL A   1      47.216  28.317  28.039  1.00  0.00     0.049 A 
ATOM     55  C   UNL A   1      41.868  29.573  29.161  1.00  0.00     0.074 A 
ATOM     56  C   UNL A   1      48.135  29.344  28.160  1.00  0.00     0.029 A 
ATOM     57  N   UNL A   1      45.978  28.844  28.374  1.00  0.00    -0.354 N 
ATOM     58  N   UNL A   1      43.150  29.433  28.922  1.00  0.00    -0.248 NA
ATOM     59  C   UNL A   1      41.487  30.911  29.634  1.00  0.00     0.031 C 
ATOM     60  C   UNL A   1      47.457  30.484  28.607  1.00  0.00     0.029 A 
ATOM     61  C   UNL A   1      46.110  30.178  28.718  1.00  0.00     0.049 A 
ATOM     62  H   UNL A   1      45.129  28.344  28.367  1.00  0.00     0.167 HD
ATOM     63  C   UNL A   1      43.724  30.669  29.190  1.00  0.00     0.074 A 
ATOM     64  C   UNL A   1      42.648  31.550  29.594  1.00  0.00     0.031 C 
ATOM     65  C   UNL A   1      45.025  31.042  29.110  1.00  0.00     0.037 A 
BRANCH  52  66
ATOM     66  C   UNL A   1      48.852  26.510  27.370  1.00  0.00     0.057 A 
ATOM     67  C   UNL A   1      49.687  26.024  28.385  1.00  0.00     0.134 A 
ATOM     68  C   UNL A   1      49.371  26.550  26.070  1.00  0.00     0.134 A 
ATOM     69  F   UNL A   1      49.257  25.975  29.655  1.00  0.00    -0.206 F 
ATOM     70  C   UNL A   1      50.997  25.618  28.122  1.00  0.00     0.040 A 
ATOM     71  C   UNL A   1      50.669  26.119  25.789  1.00  0.00     0.040 A 
ATOM     72  F   UNL A   1      48.623  27.000  25.051  1.00  0.00    -0.206 F 
ATOM     73  C   UNL A   1      51.488  25.659  26.818  1.00  0.00     0.006 A 
ENDBRANCH  52  66
BRANCH  53  74
ATOM     74  C   UNL A   1      39.358  28.925  29.336  1.00  0.00     0.057 A 
ATOM     75  C   UNL A   1      38.840  28.723  30.621  1.00  0.00     0.134 A 
ATOM     76  C   UNL A   1      38.499  29.469  28.373  1.00  0.00     0.134 A 
ATOM     77  F   UNL A   1      39.609  28.190  31.582  1.00  0.00    -0.206 F 
ATOM     78  C   UNL A   1      37.514  29.030  30.932  1.00  0.00     0.040 A 
ATOM     79  C   UNL A   1      37.178  29.804  28.678  1.00  0.00     0.040 A 
ATOM     80  F   UNL A   1      38.937  29.696  27.127  1.00  0.00    -0.206 F 
ATOM     81  C   UNL A   1      36.681  29.576  29.959  1.00  0.00     0.006 A 
ENDBRANCH  53  74
BRANCH  65  82
ATOM     82  C   UNL A   1      45.350  32.470  29.432  1.00  0.00     0.057 A 
ATOM     83  C   UNL A   1      45.299  33.477  28.460  1.00  0.00     0.134 A 
ATOM     84  C   UNL A   1      45.677  32.849  30.740  1.00  0.00     0.134 A 
ATOM     85  F   UNL A   1      45.005  33.178  27.185  1.00  0.00    -0.206 F 
ATOM     86  C   UNL A   1      45.585  34.806  28.773  1.00  0.00     0.040 A 
ATOM     87  C   UNL A   1      45.938  34.178  31.071  1.00  0.00     0.040 A 
ATOM     88  F   UNL A   1      45.734  31.934  31.720  1.00  0.00    -0.206 F 
ATOM     89  C   UNL A   1      45.898  35.161  30.084  1.00  0.00     0.006 A 
ENDBRANCH  65  82
ENDBRANCH  39  40
ENDBRANCH  31  34
ENDBRANCH  29  30
ENDBRANCH  28  29
ENDBRANCH  27  28
ENDBRANCH   1  27
TORSDOF 17
ENDMDL
