MODEL 1
REMARK VINA RESULT:     -13.0      0.000      0.000
REMARK SMILES Cc1cc(C)c2c(CCCC(=O)NCCCCNC(=O)c3ccc(-c4c5nc(c(-c6c(F)cccc6F)c6ccc([nH]6)c(-c6c(F)cccc6F)c6nc(c(-c7c(F)cccc7F)c7ccc4[nH]7)C=C6)C=C5)cc3)c(-c3ccccn3)[nH]c2c1
REMARK SMILES IDX 14 1 13 2 11 3 12 4 10 6 9 7 8 8 7 9 1 10 2 11 3 12 84 13
REMARK SMILES IDX 4 14 83 15 5 16 6 17 82 18 75 19 76 21 77 22 81 23 78 24
REMARK SMILES IDX 80 25 79 26 15 27 16 28 17 29 18 30 19 31 20 33 21 34 22 35
REMARK SMILES IDX 74 36 23 37 73 38 24 39 25 40 26 41 67 42 27 43 72 44 66 45
REMARK SMILES IDX 68 46 28 47 71 48 65 49 64 50 29 52 55 53 38 54 54 55 39 56
REMARK SMILES IDX 42 57 53 58 69 59 40 60 41 61 52 63 70 64 43 65 30 66 31 67
REMARK SMILES IDX 36 68 32 69 33 70 35 71 37 72 34 73 56 74 57 75 62 76 58 77
REMARK SMILES IDX 59 78 61 79 63 80 60 81 44 82 45 83 50 84 46 85 47 86 49 87
REMARK SMILES IDX 51 88 48 89
REMARK H PARENT 13 5 82 20 18 32 68 51 42 62
REMARK Flexibility Score: inf
ROOT
ATOM      1  C   UNL A   1      40.047  21.019  26.676  1.00  0.00     0.116 C 
ENDROOT
BRANCH   1   2
ATOM      2  N   UNL A   1      39.409  22.314  26.684  1.00  0.00    -0.356 N 
ATOM      3  C   UNL A   1      38.387  22.838  25.965  1.00  0.00     0.220 C 
ATOM      4  O   UNL A   1      37.975  23.938  26.359  1.00  0.00    -0.275 OA
ATOM      5  H   UNL A   1      39.794  22.940  27.340  1.00  0.00     0.163 HD
BRANCH   3   6
ATOM      6  C   UNL A   1      37.650  22.146  24.830  1.00  0.00     0.100 C 
BRANCH   6   7
ATOM      7  C   UNL A   1      36.473  21.217  25.000  1.00  0.00     0.015 C 
BRANCH   7   8
ATOM      8  C   UNL A   1      35.398  21.452  26.041  1.00  0.00     0.039 C 
BRANCH   8   9
ATOM      9  C   UNL A   1      33.895  21.337  25.854  1.00  0.00    -0.013 A 
ATOM     10  C   UNL A   1      29.905  25.490  25.745  1.00  0.00     0.044 C 
ATOM     11  C   UNL A   1      30.996  24.461  25.713  1.00  0.00    -0.049 A 
ATOM     12  C   UNL A   1      32.326  24.877  25.776  1.00  0.00     0.007 A 
ATOM     13  C   UNL A   1      30.701  23.100  25.606  1.00  0.00     0.030 A 
ATOM     14  C   UNL A   1      33.402  23.964  25.782  1.00  0.00    -0.041 A 
ATOM     15  C   UNL A   1      31.764  22.191  25.647  1.00  0.00     0.047 A 
ATOM     16  C   UNL A   1      34.792  24.551  25.773  1.00  0.00     0.045 C 
ATOM     17  C   UNL A   1      33.096  22.567  25.779  1.00  0.00     0.006 A 
ATOM     18  N   UNL A   1      31.739  20.826  25.553  1.00  0.00    -0.353 N 
ATOM     19  C   UNL A   1      33.008  20.288  25.549  1.00  0.00     0.068 A 
ATOM     20  H   UNL A   1      30.914  20.292  25.496  1.00  0.00     0.167 HD
BRANCH  19  21
ATOM     21  C   UNL A   1      33.140  18.892  25.118  1.00  0.00     0.087 A 
ATOM     22  C   UNL A   1      34.168  18.514  24.251  1.00  0.00     0.030 A 
ATOM     23  N   UNL A   1      32.259  18.009  25.622  1.00  0.00    -0.255 NA
ATOM     24  C   UNL A   1      34.410  17.159  24.037  1.00  0.00     0.004 A 
ATOM     25  C   UNL A   1      32.526  16.694  25.408  1.00  0.00     0.112 A 
ATOM     26  C   UNL A   1      33.598  16.225  24.664  1.00  0.00     0.020 A 
ENDBRANCH  19  21
ENDBRANCH   8   9
ENDBRANCH   7   8
ENDBRANCH   6   7
ENDBRANCH   3   6
ENDBRANCH   1   2
BRANCH   1  27
ATOM     27  C   UNL A   1      41.244  20.924  27.624  1.00  0.00     0.023 C 
BRANCH  27  28
ATOM     28  C   UNL A   1      42.280  19.865  27.241  1.00  0.00     0.023 C 
BRANCH  28  29
ATOM     29  C   UNL A   1      42.309  19.544  25.751  1.00  0.00     0.116 C 
BRANCH  29  30
ATOM     30  N   UNL A   1      43.632  19.176  25.251  1.00  0.00    -0.352 N 
ATOM     31  C   UNL A   1      44.590  20.038  24.737  1.00  0.00     0.251 C 
ATOM     32  H   UNL A   1      43.867  18.220  25.283  1.00  0.00     0.163 HD
ATOM     33  O   UNL A   1      45.478  19.655  24.002  1.00  0.00    -0.269 OA
BRANCH  31  34
ATOM     34  C   UNL A   1      44.503  21.454  25.136  1.00  0.00     0.039 A 
ATOM     35  C   UNL A   1      43.522  22.301  24.619  1.00  0.00     0.014 A 
ATOM     36  C   UNL A   1      45.399  21.894  26.111  1.00  0.00     0.014 A 
ATOM     37  C   UNL A   1      43.397  23.578  25.159  1.00  0.00     0.010 A 
ATOM     38  C   UNL A   1      45.184  23.096  26.737  1.00  0.00     0.010 A 
ATOM     39  C   UNL A   1      44.215  23.959  26.239  1.00  0.00    -0.014 A 
BRANCH  39  40
ATOM     40  C   UNL A   1      43.965  25.212  26.946  1.00  0.00     0.031 A 
ATOM     41  C   UNL A   1      44.957  26.280  26.639  1.00  0.00     0.074 A 
ATOM     42  C   UNL A   1      42.844  25.454  27.662  1.00  0.00     0.049 A 
ATOM     43  N   UNL A   1      45.883  26.727  27.419  1.00  0.00    -0.248 NA
ATOM     44  C   UNL A   1      45.043  26.800  25.264  1.00  0.00     0.031 C 
ATOM     45  C   UNL A   1      41.647  24.611  27.783  1.00  0.00     0.029 A 
ATOM     46  N   UNL A   1      42.497  26.563  28.376  1.00  0.00    -0.354 N 
ATOM     47  C   UNL A   1      46.519  27.747  26.717  1.00  0.00     0.074 A 
ATOM     48  C   UNL A   1      46.095  27.621  25.348  1.00  0.00     0.031 C 
ATOM     49  C   UNL A   1      40.632  25.330  28.312  1.00  0.00     0.029 A 
ATOM     50  C   UNL A   1      41.153  26.612  28.744  1.00  0.00     0.049 A 
ATOM     51  H   UNL A   1      43.141  27.268  28.613  1.00  0.00     0.167 HD
ATOM     52  C   UNL A   1      47.111  28.777  27.384  1.00  0.00     0.037 A 
ATOM     53  C   UNL A   1      40.525  27.640  29.363  1.00  0.00     0.037 A 
ATOM     54  C   UNL A   1      47.203  28.480  28.790  1.00  0.00     0.049 A 
ATOM     55  C   UNL A   1      41.568  28.432  30.048  1.00  0.00     0.074 A 
ATOM     56  C   UNL A   1      47.959  27.658  29.594  1.00  0.00     0.029 A 
ATOM     57  N   UNL A   1      46.075  28.817  29.488  1.00  0.00    -0.354 N 
ATOM     58  N   UNL A   1      42.263  27.992  31.058  1.00  0.00    -0.248 NA
ATOM     59  C   UNL A   1      42.102  29.617  29.388  1.00  0.00     0.031 C 
ATOM     60  C   UNL A   1      47.132  27.340  30.713  1.00  0.00     0.029 A 
ATOM     61  C   UNL A   1      45.923  28.024  30.590  1.00  0.00     0.049 A 
ATOM     62  H   UNL A   1      45.455  29.536  29.230  1.00  0.00     0.167 HD
ATOM     63  C   UNL A   1      43.511  28.553  30.882  1.00  0.00     0.074 A 
ATOM     64  C   UNL A   1      43.304  29.669  29.967  1.00  0.00     0.031 C 
ATOM     65  C   UNL A   1      44.635  27.864  31.231  1.00  0.00     0.037 A 
BRANCH  52  66
ATOM     66  C   UNL A   1      47.150  30.211  26.904  1.00  0.00     0.057 A 
ATOM     67  C   UNL A   1      48.353  30.936  26.995  1.00  0.00     0.134 A 
ATOM     68  C   UNL A   1      46.002  30.990  26.659  1.00  0.00     0.134 A 
ATOM     69  F   UNL A   1      49.511  30.316  27.268  1.00  0.00    -0.206 F 
ATOM     70  C   UNL A   1      48.401  32.333  26.888  1.00  0.00     0.040 A 
ATOM     71  C   UNL A   1      46.044  32.379  26.501  1.00  0.00     0.040 A 
ATOM     72  F   UNL A   1      44.769  30.468  26.672  1.00  0.00    -0.206 F 
ATOM     73  C   UNL A   1      47.242  33.060  26.640  1.00  0.00     0.006 A 
ENDBRANCH  52  66
BRANCH  53  74
ATOM     74  C   UNL A   1      39.156  28.177  29.171  1.00  0.00     0.057 A 
ATOM     75  C   UNL A   1      38.269  28.261  30.257  1.00  0.00     0.134 A 
ATOM     76  C   UNL A   1      38.818  28.934  28.037  1.00  0.00     0.134 A 
ATOM     77  F   UNL A   1      38.512  27.582  31.388  1.00  0.00    -0.206 F 
ATOM     78  C   UNL A   1      37.159  29.114  30.251  1.00  0.00     0.040 A 
ATOM     79  C   UNL A   1      37.708  29.787  28.017  1.00  0.00     0.040 A 
ATOM     80  F   UNL A   1      39.608  28.951  26.954  1.00  0.00    -0.206 F 
ATOM     81  C   UNL A   1      36.891  29.901  29.137  1.00  0.00     0.006 A 
ENDBRANCH  53  74
BRANCH  65  82
ATOM     82  C   UNL A   1      44.489  26.763  32.238  1.00  0.00     0.057 A 
ATOM     83  C   UNL A   1      44.343  25.403  31.932  1.00  0.00     0.134 A 
ATOM     84  C   UNL A   1      44.599  27.103  33.591  1.00  0.00     0.134 A 
ATOM     85  F   UNL A   1      44.298  24.975  30.663  1.00  0.00    -0.206 F 
ATOM     86  C   UNL A   1      44.280  24.430  32.935  1.00  0.00     0.040 A 
ATOM     87  C   UNL A   1      44.573  26.139  34.598  1.00  0.00     0.040 A 
ATOM     88  F   UNL A   1      44.775  28.383  33.953  1.00  0.00    -0.206 F 
ATOM     89  C   UNL A   1      44.404  24.796  34.272  1.00  0.00     0.006 A 
ENDBRANCH  65  82
ENDBRANCH  39  40
ENDBRANCH  31  34
ENDBRANCH  29  30
ENDBRANCH  28  29
ENDBRANCH  27  28
ENDBRANCH   1  27
TORSDOF 15
ENDMDL
MODEL 2
REMARK VINA RESULT:     -12.4      1.693      3.275
REMARK SMILES Cc1cc(C)c2c(CCCC(=O)NCCCCNC(=O)c3ccc(-c4c5nc(c(-c6c(F)cccc6F)c6ccc([nH]6)c(-c6c(F)cccc6F)c6nc(c(-c7c(F)cccc7F)c7ccc4[nH]7)C=C6)C=C5)cc3)c(-c3ccccn3)[nH]c2c1
REMARK SMILES IDX 14 1 13 2 11 3 12 4 10 6 9 7 8 8 7 9 1 10 2 11 3 12 84 13
REMARK SMILES IDX 4 14 83 15 5 16 6 17 82 18 75 19 76 21 77 22 81 23 78 24
REMARK SMILES IDX 80 25 79 26 15 27 16 28 17 29 18 30 19 31 20 33 21 34 22 35
REMARK SMILES IDX 74 36 23 37 73 38 24 39 25 40 26 41 67 42 27 43 72 44 66 45
REMARK SMILES IDX 68 46 28 47 71 48 65 49 64 50 29 52 55 53 38 54 54 55 39 56
REMARK SMILES IDX 42 57 53 58 69 59 40 60 41 61 52 63 70 64 43 65 30 66 31 67
REMARK SMILES IDX 36 68 32 69 33 70 35 71 37 72 34 73 56 74 57 75 62 76 58 77
REMARK SMILES IDX 59 78 61 79 63 80 60 81 44 82 45 83 50 84 46 85 47 86 49 87
REMARK SMILES IDX 51 88 48 89
REMARK H PARENT 13 5 82 20 18 32 68 51 42 62
REMARK Flexibility Score: inf
ROOT
ATOM      1  C   UNL A   1      40.274  22.084  26.443  1.00  0.00     0.116 C 
ENDROOT
BRANCH   1   2
ATOM      2  N   UNL A   1      39.146  21.314  25.973  1.00  0.00    -0.356 N 
ATOM      3  C   UNL A   1      37.977  21.665  25.385  1.00  0.00     0.220 C 
ATOM      4  O   UNL A   1      37.305  20.723  24.945  1.00  0.00    -0.275 OA
ATOM      5  H   UNL A   1      39.245  20.344  26.108  1.00  0.00     0.163 HD
BRANCH   3   6
ATOM      6  C   UNL A   1      37.505  23.085  25.119  1.00  0.00     0.100 C 
BRANCH   6   7
ATOM      7  C   UNL A   1      36.694  23.923  26.079  1.00  0.00     0.015 C 
BRANCH   7   8
ATOM      8  C   UNL A   1      35.222  24.206  25.864  1.00  0.00     0.039 C 
BRANCH   8   9
ATOM      9  C   UNL A   1      34.392  23.878  24.635  1.00  0.00    -0.013 A 
ATOM     10  C   UNL A   1      32.046  18.862  23.049  1.00  0.00     0.044 C 
ATOM     11  C   UNL A   1      32.621  20.154  23.549  1.00  0.00    -0.049 A 
ATOM     12  C   UNL A   1      33.230  20.187  24.804  1.00  0.00     0.007 A 
ATOM     13  C   UNL A   1      32.542  21.322  22.787  1.00  0.00     0.030 A 
ATOM     14  C   UNL A   1      33.819  21.359  25.325  1.00  0.00    -0.041 A 
ATOM     15  C   UNL A   1      33.157  22.476  23.286  1.00  0.00     0.047 A 
ATOM     16  C   UNL A   1      34.372  21.276  26.726  1.00  0.00     0.045 C 
ATOM     17  C   UNL A   1      33.832  22.527  24.500  1.00  0.00     0.006 A 
ATOM     18  N   UNL A   1      33.211  23.731  22.742  1.00  0.00    -0.353 N 
ATOM     19  C   UNL A   1      33.837  24.627  23.581  1.00  0.00     0.068 A 
ATOM     20  H   UNL A   1      32.848  23.964  21.857  1.00  0.00     0.167 HD
BRANCH  19  21
ATOM     21  C   UNL A   1      33.668  26.054  23.281  1.00  0.00     0.087 A 
ATOM     22  C   UNL A   1      33.483  26.976  24.314  1.00  0.00     0.030 A 
ATOM     23  N   UNL A   1      33.736  26.420  21.988  1.00  0.00    -0.255 NA
ATOM     24  C   UNL A   1      33.551  28.337  24.026  1.00  0.00     0.004 A 
ATOM     25  C   UNL A   1      33.812  27.753  21.737  1.00  0.00     0.112 A 
ATOM     26  C   UNL A   1      33.764  28.736  22.714  1.00  0.00     0.020 A 
ENDBRANCH  19  21
ENDBRANCH   8   9
ENDBRANCH   7   8
ENDBRANCH   6   7
ENDBRANCH   3   6
ENDBRANCH   1   2
BRANCH   1  27
ATOM     27  C   UNL A   1      40.986  21.451  27.640  1.00  0.00     0.023 C 
BRANCH  27  28
ATOM     28  C   UNL A   1      41.940  20.309  27.285  1.00  0.00     0.023 C 
BRANCH  28  29
ATOM     29  C   UNL A   1      42.139  20.118  25.785  1.00  0.00     0.116 C 
BRANCH  29  30
ATOM     30  N   UNL A   1      43.493  19.714  25.415  1.00  0.00    -0.352 N 
ATOM     31  C   UNL A   1      44.519  20.549  24.993  1.00  0.00     0.251 C 
ATOM     32  H   UNL A   1      43.700  18.752  25.471  1.00  0.00     0.163 HD
ATOM     33  O   UNL A   1      45.462  20.140  24.347  1.00  0.00    -0.269 OA
BRANCH  31  34
ATOM     34  C   UNL A   1      44.431  21.969  25.379  1.00  0.00     0.039 A 
ATOM     35  C   UNL A   1      43.608  22.863  24.693  1.00  0.00     0.014 A 
ATOM     36  C   UNL A   1      45.150  22.365  26.507  1.00  0.00     0.014 A 
ATOM     37  C   UNL A   1      43.449  24.146  25.210  1.00  0.00     0.010 A 
ATOM     38  C   UNL A   1      44.883  23.577  27.090  1.00  0.00     0.010 A 
ATOM     39  C   UNL A   1      44.069  24.488  26.426  1.00  0.00    -0.014 A 
BRANCH  39  40
ATOM     40  C   UNL A   1      43.755  25.754  27.083  1.00  0.00     0.031 A 
ATOM     41  C   UNL A   1      44.691  26.857  26.733  1.00  0.00     0.074 A 
ATOM     42  C   UNL A   1      42.623  25.966  27.790  1.00  0.00     0.049 A 
ATOM     43  N   UNL A   1      45.593  27.381  27.493  1.00  0.00    -0.248 NA
ATOM     44  C   UNL A   1      44.752  27.326  25.337  1.00  0.00     0.031 C 
ATOM     45  C   UNL A   1      41.469  25.070  27.945  1.00  0.00     0.029 A 
ATOM     46  N   UNL A   1      42.218  27.084  28.459  1.00  0.00    -0.354 N 
ATOM     47  C   UNL A   1      46.177  28.403  26.750  1.00  0.00     0.074 A 
ATOM     48  C   UNL A   1      45.761  28.202  25.388  1.00  0.00     0.031 C 
ATOM     49  C   UNL A   1      40.419  25.757  28.446  1.00  0.00     0.029 A 
ATOM     50  C   UNL A   1      40.874  27.079  28.827  1.00  0.00     0.049 A 
ATOM     51  H   UNL A   1      42.826  27.830  28.667  1.00  0.00     0.167 HD
ATOM     52  C   UNL A   1      46.715  29.488  27.375  1.00  0.00     0.037 A 
ATOM     53  C   UNL A   1      40.193  28.098  29.404  1.00  0.00     0.037 A 
ATOM     54  C   UNL A   1      46.821  29.253  28.791  1.00  0.00     0.049 A 
ATOM     55  C   UNL A   1      41.194  28.969  30.056  1.00  0.00     0.074 A 
ATOM     56  C   UNL A   1      47.617  28.502  29.626  1.00  0.00     0.029 A 
ATOM     57  N   UNL A   1      45.677  29.559  29.476  1.00  0.00    -0.354 N 
ATOM     58  N   UNL A   1      41.909  28.605  31.082  1.00  0.00    -0.248 NA
ATOM     59  C   UNL A   1      41.668  30.152  29.349  1.00  0.00     0.031 C 
ATOM     60  C   UNL A   1      46.806  28.188  30.758  1.00  0.00     0.029 A 
ATOM     61  C   UNL A   1      45.564  28.804  30.609  1.00  0.00     0.049 A 
ATOM     62  H   UNL A   1      45.021  30.236  29.190  1.00  0.00     0.167 HD
ATOM     63  C   UNL A   1      43.128  29.222  30.883  1.00  0.00     0.074 A 
ATOM     64  C   UNL A   1      42.866  30.288  29.924  1.00  0.00     0.031 C 
ATOM     65  C   UNL A   1      44.285  28.604  31.258  1.00  0.00     0.037 A 
BRANCH  52  66
ATOM     66  C   UNL A   1      46.682  30.902  26.838  1.00  0.00     0.057 A 
ATOM     67  C   UNL A   1      47.855  31.679  26.869  1.00  0.00     0.134 A 
ATOM     68  C   UNL A   1      45.496  31.622  26.591  1.00  0.00     0.134 A 
ATOM     69  F   UNL A   1      49.044  31.120  27.138  1.00  0.00    -0.206 F 
ATOM     70  C   UNL A   1      47.840  33.072  26.707  1.00  0.00     0.040 A 
ATOM     71  C   UNL A   1      45.475  33.004  26.378  1.00  0.00     0.040 A 
ATOM     72  F   UNL A   1      44.287  31.050  26.656  1.00  0.00    -0.206 F 
ATOM     73  C   UNL A   1      46.647  33.739  26.460  1.00  0.00     0.006 A 
ENDBRANCH  52  66
BRANCH  53  74
ATOM     74  C   UNL A   1      38.799  28.557  29.193  1.00  0.00     0.057 A 
ATOM     75  C   UNL A   1      37.898  28.604  30.269  1.00  0.00     0.134 A 
ATOM     76  C   UNL A   1      38.432  29.281  28.047  1.00  0.00     0.134 A 
ATOM     77  F   UNL A   1      38.166  27.953  31.410  1.00  0.00    -0.206 F 
ATOM     78  C   UNL A   1      36.743  29.396  30.242  1.00  0.00     0.040 A 
ATOM     79  C   UNL A   1      37.277  30.071  28.005  1.00  0.00     0.040 A 
ATOM     80  F   UNL A   1      39.231  29.329  26.971  1.00  0.00    -0.206 F 
ATOM     81  C   UNL A   1      36.443  30.154  29.115  1.00  0.00     0.006 A 
ENDBRANCH  53  74
BRANCH  65  82
ATOM     82  C   UNL A   1      44.194  27.539  32.308  1.00  0.00     0.057 A 
ATOM     83  C   UNL A   1      44.174  26.160  32.059  1.00  0.00     0.134 A 
ATOM     84  C   UNL A   1      44.225  27.944  33.647  1.00  0.00     0.134 A 
ATOM     85  F   UNL A   1      44.212  25.677  30.810  1.00  0.00    -0.206 F 
ATOM     86  C   UNL A   1      44.155  25.228  33.102  1.00  0.00     0.040 A 
ATOM     87  C   UNL A   1      44.242  27.024  34.695  1.00  0.00     0.040 A 
ATOM     88  F   UNL A   1      44.280  29.249  33.956  1.00  0.00    -0.206 F 
ATOM     89  C   UNL A   1      44.198  25.660  34.425  1.00  0.00     0.006 A 
ENDBRANCH  65  82
ENDBRANCH  39  40
ENDBRANCH  31  34
ENDBRANCH  29  30
ENDBRANCH  28  29
ENDBRANCH  27  28
ENDBRANCH   1  27
TORSDOF 15
ENDMDL
MODEL 3
REMARK VINA RESULT:     -12.1      1.443      2.024
REMARK SMILES Cc1cc(C)c2c(CCCC(=O)NCCCCNC(=O)c3ccc(-c4c5nc(c(-c6c(F)cccc6F)c6ccc([nH]6)c(-c6c(F)cccc6F)c6nc(c(-c7c(F)cccc7F)c7ccc4[nH]7)C=C6)C=C5)cc3)c(-c3ccccn3)[nH]c2c1
REMARK SMILES IDX 14 1 13 2 11 3 12 4 10 6 9 7 8 8 7 9 1 10 2 11 3 12 84 13
REMARK SMILES IDX 4 14 83 15 5 16 6 17 82 18 75 19 76 21 77 22 81 23 78 24
REMARK SMILES IDX 80 25 79 26 15 27 16 28 17 29 18 30 19 31 20 33 21 34 22 35
REMARK SMILES IDX 74 36 23 37 73 38 24 39 25 40 26 41 67 42 27 43 72 44 66 45
REMARK SMILES IDX 68 46 28 47 71 48 65 49 64 50 29 52 55 53 38 54 54 55 39 56
REMARK SMILES IDX 42 57 53 58 69 59 40 60 41 61 52 63 70 64 43 65 30 66 31 67
REMARK SMILES IDX 36 68 32 69 33 70 35 71 37 72 34 73 56 74 57 75 62 76 58 77
REMARK SMILES IDX 59 78 61 79 63 80 60 81 44 82 45 83 50 84 46 85 47 86 49 87
REMARK SMILES IDX 51 88 48 89
REMARK H PARENT 13 5 82 20 18 32 68 51 42 62
REMARK Flexibility Score: inf
ROOT
ATOM      1  C   UNL A   1      39.090  22.448  26.093  1.00  0.00     0.116 C 
ENDROOT
BRANCH   1   2
ATOM      2  N   UNL A   1      38.007  21.535  25.815  1.00  0.00    -0.356 N 
ATOM      3  C   UNL A   1      36.715  21.727  25.454  1.00  0.00     0.220 C 
ATOM      4  O   UNL A   1      36.104  20.703  25.119  1.00  0.00    -0.275 OA
ATOM      5  H   UNL A   1      38.255  20.587  25.907  1.00  0.00     0.163 HD
BRANCH   3   6
ATOM      6  C   UNL A   1      36.021  23.071  25.311  1.00  0.00     0.100 C 
BRANCH   6   7
ATOM      7  C   UNL A   1      34.928  23.584  26.219  1.00  0.00     0.015 C 
BRANCH   7   8
ATOM      8  C   UNL A   1      33.927  24.629  25.774  1.00  0.00     0.039 C 
BRANCH   8   9
ATOM      9  C   UNL A   1      32.590  24.391  25.092  1.00  0.00    -0.013 A 
ATOM     10  C   UNL A   1      28.689  28.220  23.277  1.00  0.00     0.044 C 
ATOM     11  C   UNL A   1      29.772  27.275  23.707  1.00  0.00    -0.049 A 
ATOM     12  C   UNL A   1      30.975  27.793  24.187  1.00  0.00     0.007 A 
ATOM     13  C   UNL A   1      29.599  25.892  23.619  1.00  0.00     0.030 A 
ATOM     14  C   UNL A   1      32.025  26.965  24.637  1.00  0.00    -0.041 A 
ATOM     15  C   UNL A   1      30.625  25.070  24.098  1.00  0.00     0.047 A 
ATOM     16  C   UNL A   1      33.302  27.652  25.056  1.00  0.00     0.045 C 
ATOM     17  C   UNL A   1      31.808  25.551  24.646  1.00  0.00     0.006 A 
ATOM     18  N   UNL A   1      30.701  23.703  24.115  1.00  0.00    -0.353 N 
ATOM     19  C   UNL A   1      31.917  23.262  24.591  1.00  0.00     0.068 A 
ATOM     20  H   UNL A   1      29.974  23.107  23.823  1.00  0.00     0.167 HD
BRANCH  19  21
ATOM     21  C   UNL A   1      32.259  21.856  24.350  1.00  0.00     0.087 A 
ATOM     22  C   UNL A   1      32.609  21.021  25.414  1.00  0.00     0.030 A 
ATOM     23  N   UNL A   1      32.182  21.416  23.081  1.00  0.00    -0.255 NA
ATOM     24  C   UNL A   1      32.709  19.649  25.194  1.00  0.00     0.004 A 
ATOM     25  C   UNL A   1      32.271  20.073  22.897  1.00  0.00     0.112 A 
ATOM     26  C   UNL A   1      32.492  19.157  23.915  1.00  0.00     0.020 A 
ENDBRANCH  19  21
ENDBRANCH   8   9
ENDBRANCH   7   8
ENDBRANCH   6   7
ENDBRANCH   3   6
ENDBRANCH   1   2
BRANCH   1  27
ATOM     27  C   UNL A   1      40.205  21.829  26.940  1.00  0.00     0.023 C 
BRANCH  27  28
ATOM     28  C   UNL A   1      40.774  20.521  26.388  1.00  0.00     0.023 C 
BRANCH  28  29
ATOM     29  C   UNL A   1      42.044  20.057  27.093  1.00  0.00     0.116 C 
BRANCH  29  30
ATOM     30  N   UNL A   1      43.133  19.713  26.183  1.00  0.00    -0.352 N 
ATOM     31  C   UNL A   1      43.817  20.584  25.346  1.00  0.00     0.251 C 
ATOM     32  H   UNL A   1      43.411  18.768  26.160  1.00  0.00     0.163 HD
ATOM     33  O   UNL A   1      44.419  20.200  24.364  1.00  0.00    -0.269 OA
BRANCH  31  34
ATOM     34  C   UNL A   1      43.804  22.013  25.708  1.00  0.00     0.039 A 
ATOM     35  C   UNL A   1      43.095  22.951  24.957  1.00  0.00     0.014 A 
ATOM     36  C   UNL A   1      44.471  22.376  26.878  1.00  0.00     0.014 A 
ATOM     37  C   UNL A   1      42.992  24.250  25.446  1.00  0.00     0.010 A 
ATOM     38  C   UNL A   1      44.252  23.614  27.427  1.00  0.00     0.010 A 
ATOM     39  C   UNL A   1      43.551  24.568  26.698  1.00  0.00    -0.014 A 
BRANCH  39  40
ATOM     40  C   UNL A   1      43.284  25.863  27.317  1.00  0.00     0.031 A 
ATOM     41  C   UNL A   1      44.243  26.928  26.912  1.00  0.00     0.074 A 
ATOM     42  C   UNL A   1      42.171  26.131  28.036  1.00  0.00     0.049 A 
ATOM     43  N   UNL A   1      45.172  27.453  27.638  1.00  0.00    -0.248 NA
ATOM     44  C   UNL A   1      44.290  27.348  25.500  1.00  0.00     0.031 C 
ATOM     45  C   UNL A   1      40.998  25.272  28.243  1.00  0.00     0.029 A 
ATOM     46  N   UNL A   1      41.810  27.281  28.674  1.00  0.00    -0.354 N 
ATOM     47  C   UNL A   1      45.769  28.433  26.849  1.00  0.00     0.074 A 
ATOM     48  C   UNL A   1      45.322  28.197  25.503  1.00  0.00     0.031 C 
ATOM     49  C   UNL A   1      39.976  26.004  28.739  1.00  0.00     0.029 A 
ATOM     50  C   UNL A   1      40.473  27.326  29.066  1.00  0.00     0.049 A 
ATOM     51  H   UNL A   1      42.441  28.017  28.846  1.00  0.00     0.167 HD
ATOM     52  C   UNL A   1      46.348  29.523  27.427  1.00  0.00     0.037 A 
ATOM     53  C   UNL A   1      39.831  28.382  29.620  1.00  0.00     0.037 A 
ATOM     54  C   UNL A   1      46.475  29.333  28.848  1.00  0.00     0.049 A 
ATOM     55  C   UNL A   1      40.867  29.246  30.223  1.00  0.00     0.074 A 
ATOM     56  C   UNL A   1      47.266  28.589  29.694  1.00  0.00     0.029 A 
ATOM     57  N   UNL A   1      45.352  29.694  29.543  1.00  0.00    -0.354 N 
ATOM     58  N   UNL A   1      41.592  28.898  31.248  1.00  0.00    -0.248 NA
ATOM     59  C   UNL A   1      41.360  30.391  29.468  1.00  0.00     0.031 C 
ATOM     60  C   UNL A   1      46.469  28.336  30.850  1.00  0.00     0.029 A 
ATOM     61  C   UNL A   1      45.241  28.980  30.703  1.00  0.00     0.049 A 
ATOM     62  H   UNL A   1      44.709  30.377  29.246  1.00  0.00     0.167 HD
ATOM     63  C   UNL A   1      42.823  29.474  31.006  1.00  0.00     0.074 A 
ATOM     64  C   UNL A   1      42.571  30.514  30.016  1.00  0.00     0.031 C 
ATOM     65  C   UNL A   1      43.970  28.838  31.381  1.00  0.00     0.037 A 
BRANCH  52  66
ATOM     66  C   UNL A   1      46.342  30.918  26.842  1.00  0.00     0.057 A 
ATOM     67  C   UNL A   1      47.531  31.673  26.848  1.00  0.00     0.134 A 
ATOM     68  C   UNL A   1      45.171  31.653  26.572  1.00  0.00     0.134 A 
ATOM     69  F   UNL A   1      48.709  31.099  27.136  1.00  0.00    -0.206 F 
ATOM     70  C   UNL A   1      47.544  33.059  26.638  1.00  0.00     0.040 A 
ATOM     71  C   UNL A   1      45.178  33.027  26.312  1.00  0.00     0.040 A 
ATOM     72  F   UNL A   1      43.951  31.107  26.655  1.00  0.00    -0.206 F 
ATOM     73  C   UNL A   1      46.364  33.741  26.369  1.00  0.00     0.006 A 
ENDBRANCH  52  66
BRANCH  53  74
ATOM     74  C   UNL A   1      38.446  28.872  29.418  1.00  0.00     0.057 A 
ATOM     75  C   UNL A   1      37.571  28.994  30.511  1.00  0.00     0.134 A 
ATOM     76  C   UNL A   1      38.073  29.554  28.248  1.00  0.00     0.134 A 
ATOM     77  F   UNL A   1      37.847  28.387  31.674  1.00  0.00    -0.206 F 
ATOM     78  C   UNL A   1      36.439  29.816  30.472  1.00  0.00     0.040 A 
ATOM     79  C   UNL A   1      36.941  30.375  28.196  1.00  0.00     0.040 A 
ATOM     80  F   UNL A   1      38.849  29.530  27.155  1.00  0.00    -0.206 F 
ATOM     81  C   UNL A   1      36.135  30.531  29.319  1.00  0.00     0.006 A 
ENDBRANCH  53  74
BRANCH  65  82
ATOM     82  C   UNL A   1      43.870  27.812  32.468  1.00  0.00     0.057 A 
ATOM     83  C   UNL A   1      43.851  26.424  32.270  1.00  0.00     0.134 A 
ATOM     84  C   UNL A   1      43.890  28.265  33.792  1.00  0.00     0.134 A 
ATOM     85  F   UNL A   1      43.900  25.896  31.039  1.00  0.00    -0.206 F 
ATOM     86  C   UNL A   1      43.824  25.531  33.346  1.00  0.00     0.040 A 
ATOM     87  C   UNL A   1      43.898  27.384  34.873  1.00  0.00     0.040 A 
ATOM     88  F   UNL A   1      43.942  29.580  34.054  1.00  0.00    -0.206 F 
ATOM     89  C   UNL A   1      43.857  26.011  34.653  1.00  0.00     0.006 A 
ENDBRANCH  65  82
ENDBRANCH  39  40
ENDBRANCH  31  34
ENDBRANCH  29  30
ENDBRANCH  28  29
ENDBRANCH  27  28
ENDBRANCH   1  27
TORSDOF 15
ENDMDL
