MODEL 1
REMARK VINA RESULT:     -12.9      0.000      0.000
REMARK SMILES [NH3+][C@H]1CN(C(=O)OCC2c3ccccc3-c3ccccc32)C[C@@H]1C(=O)NCCCCNC(=O)c1ccc(-c2c3nc(c(-c4c(F)cccc4F)c4ccc([nH]4)c(-c4c(F)cccc4F)c4nc(c(-c5c(F)cccc5F)c5ccc2[nH]5)C=C4)C=C3)cc1
REMARK SMILES IDX 27 1 26 2 24 3 25 4 23 6 2 7 3 8 4 9 22 10 1 11 5 15 6 16
REMARK SMILES IDX 7 17 8 18 9 19 10 20 21 21 11 22 15 23 16 24 20 25 12 26
REMARK SMILES IDX 14 27 17 28 19 29 13 30 18 31 28 32 29 33 30 34 31 35 32 36
REMARK SMILES IDX 33 38 34 39 35 40 87 41 36 42 86 43 37 44 38 45 39 46 80 47
REMARK SMILES IDX 40 48 85 49 79 50 81 51 41 52 84 53 78 54 77 55 42 57 68 58
REMARK SMILES IDX 51 59 67 60 52 61 55 62 66 63 82 64 53 65 54 66 65 68 83 69
REMARK SMILES IDX 56 70 43 71 44 72 49 73 45 74 46 75 48 76 50 77 47 78 69 79
REMARK SMILES IDX 70 80 75 81 71 82 72 83 74 84 76 85 73 86 57 87 58 88 63 89
REMARK SMILES IDX 59 90 60 91 62 92 64 93 61 94
REMARK H PARENT 26 5 1 12 1 13 1 14 31 37 81 56 55 67
REMARK Flexibility Score: inf
ROOT
ATOM      1  C   UNL A   1      36.913  22.081  25.895  1.00  0.00     0.116 C 
ENDROOT
BRANCH   1   2
ATOM      2  N   UNL A   1      36.028  23.211  25.656  1.00  0.00    -0.356 N 
ATOM      3  C   UNL A   1      34.697  23.343  25.946  1.00  0.00     0.231 C 
ATOM      4  O   UNL A   1      34.105  24.352  25.569  1.00  0.00    -0.274 OA
ATOM      5  H   UNL A   1      36.447  23.991  25.225  1.00  0.00     0.163 HD
BRANCH   3   6
ATOM      6  C   UNL A   1      34.020  22.232  26.724  1.00  0.00     0.158 C 
ATOM      7  C   UNL A   1      33.359  21.167  25.828  1.00  0.00     0.215 C 
ATOM      8  C   UNL A   1      31.939  21.724  25.566  1.00  0.00     0.188 C 
ATOM      9  N   UNL A   1      31.730  22.741  26.577  1.00  0.00    -0.301 N 
ATOM     10  C   UNL A   1      32.847  22.828  27.489  1.00  0.00     0.143 C 
BRANCH   7  11
ATOM     11  N   UNL A   1      33.305  19.874  26.541  1.00  0.00    -0.353 N 
ATOM     12  H   UNL A   1      33.869  19.929  27.390  1.00  0.00     0.344 HD
ATOM     13  H   UNL A   1      33.669  19.137  25.938  1.00  0.00     0.344 HD
ATOM     14  H   UNL A   1      32.338  19.663  26.789  1.00  0.00     0.344 HD
ENDBRANCH   7  11
BRANCH   9  15
ATOM     15  C   UNL A   1      30.726  23.667  26.558  1.00  0.00     0.410 C 
ATOM     16  O   UNL A   1      29.758  23.622  27.311  1.00  0.00    -0.224 OA
BRANCH  15  17
ATOM     17  O   UNL A   1      30.881  24.566  25.554  1.00  0.00    -0.448 OA
BRANCH  17  18
ATOM     18  C   UNL A   1      30.728  25.954  25.922  1.00  0.00     0.248 C 
BRANCH  18  19
ATOM     19  C   UNL A   1      31.515  26.891  24.978  1.00  0.00     0.088 C 
ATOM     20  C   UNL A   1      30.638  27.847  24.165  1.00  0.00    -0.029 A 
ATOM     21  C   UNL A   1      32.365  27.884  25.775  1.00  0.00    -0.029 A 
ATOM     22  C   UNL A   1      29.741  27.563  23.146  1.00  0.00     0.005 A 
ATOM     23  C   UNL A   1      30.869  29.183  24.558  1.00  0.00    -0.014 A 
ATOM     24  C   UNL A   1      31.946  29.208  25.519  1.00  0.00    -0.014 A 
ATOM     25  C   UNL A   1      33.434  27.623  26.620  1.00  0.00     0.005 A 
ATOM     26  C   UNL A   1      28.994  28.605  22.597  1.00  0.00     0.000 A 
ATOM     27  C   UNL A   1      30.137  30.223  24.005  1.00  0.00     0.009 A 
ATOM     28  C   UNL A   1      32.589  30.281  26.114  1.00  0.00     0.009 A 
ATOM     29  C   UNL A   1      34.083  28.706  27.219  1.00  0.00     0.000 A 
ATOM     30  C   UNL A   1      29.179  29.925  23.033  1.00  0.00     0.001 A 
ATOM     31  C   UNL A   1      33.665  30.023  26.969  1.00  0.00     0.001 A 
ENDBRANCH  18  19
ENDBRANCH  17  18
ENDBRANCH  15  17
ENDBRANCH   9  15
ENDBRANCH   3   6
ENDBRANCH   1   2
BRANCH   1  32
ATOM     32  C   UNL A   1      36.887  21.093  24.732  1.00  0.00     0.023 C 
BRANCH  32  33
ATOM     33  C   UNL A   1      37.972  20.014  24.791  1.00  0.00     0.023 C 
BRANCH  33  34
ATOM     34  C   UNL A   1      39.098  20.279  25.785  1.00  0.00     0.116 C 
BRANCH  34  35
ATOM     35  N   UNL A   1      40.077  19.205  25.835  1.00  0.00    -0.352 N 
ATOM     36  C   UNL A   1      41.423  19.276  26.102  1.00  0.00     0.251 C 
ATOM     37  H   UNL A   1      39.728  18.303  25.651  1.00  0.00     0.163 HD
ATOM     38  O   UNL A   1      42.132  18.283  25.973  1.00  0.00    -0.269 OA
BRANCH  36  39
ATOM     39  C   UNL A   1      42.025  20.563  26.515  1.00  0.00     0.039 A 
ATOM     40  C   UNL A   1      42.491  21.439  25.531  1.00  0.00     0.014 A 
ATOM     41  C   UNL A   1      42.120  20.910  27.865  1.00  0.00     0.014 A 
ATOM     42  C   UNL A   1      42.990  22.691  25.895  1.00  0.00     0.010 A 
ATOM     43  C   UNL A   1      42.555  22.183  28.223  1.00  0.00     0.010 A 
ATOM     44  C   UNL A   1      42.994  23.086  27.242  1.00  0.00    -0.014 A 
BRANCH  44  45
ATOM     45  C   UNL A   1      43.462  24.434  27.656  1.00  0.00     0.031 A 
ATOM     46  C   UNL A   1      42.463  25.483  28.058  1.00  0.00     0.074 A 
ATOM     47  C   UNL A   1      44.772  24.741  27.593  1.00  0.00     0.049 A 
ATOM     48  N   UNL A   1      42.655  26.749  28.331  1.00  0.00    -0.248 NA
ATOM     49  C   UNL A   1      41.057  25.059  28.133  1.00  0.00     0.031 C 
ATOM     50  C   UNL A   1      45.839  23.825  27.186  1.00  0.00     0.029 A 
ATOM     51  N   UNL A   1      45.427  25.919  27.854  1.00  0.00    -0.354 N 
ATOM     52  C   UNL A   1      41.396  27.275  28.588  1.00  0.00     0.074 A 
ATOM     53  C   UNL A   1      40.442  26.203  28.395  1.00  0.00     0.031 C 
ATOM     54  C   UNL A   1      47.015  24.471  27.238  1.00  0.00     0.029 A 
ATOM     55  C   UNL A   1      46.783  25.854  27.641  1.00  0.00     0.049 A 
ATOM     56  H   UNL A   1      44.969  26.732  28.164  1.00  0.00     0.167 HD
ATOM     57  C   UNL A   1      41.064  28.532  28.969  1.00  0.00     0.037 A 
ATOM     58  C   UNL A   1      47.729  26.806  27.748  1.00  0.00     0.037 A 
ATOM     59  C   UNL A   1      42.015  29.588  29.191  1.00  0.00     0.049 A 
ATOM     60  C   UNL A   1      47.336  28.195  28.169  1.00  0.00     0.074 A 
ATOM     61  C   UNL A   1      41.781  30.881  29.630  1.00  0.00     0.029 A 
ATOM     62  N   UNL A   1      43.383  29.474  28.993  1.00  0.00    -0.354 N 
ATOM     63  N   UNL A   1      46.147  28.665  28.458  1.00  0.00    -0.248 NA
ATOM     64  C   UNL A   1      48.417  29.185  28.282  1.00  0.00     0.031 C 
ATOM     65  C   UNL A   1      43.004  31.558  29.664  1.00  0.00     0.029 A 
ATOM     66  C   UNL A   1      44.004  30.676  29.288  1.00  0.00     0.049 A 
ATOM     67  H   UNL A   1      43.843  28.659  28.687  1.00  0.00     0.167 HD
ATOM     68  C   UNL A   1      46.340  29.992  28.819  1.00  0.00     0.074 A 
ATOM     69  C   UNL A   1      47.761  30.252  28.718  1.00  0.00     0.031 C 
ATOM     70  C   UNL A   1      45.422  30.913  29.200  1.00  0.00     0.037 A 
BRANCH  57  71
ATOM     71  C   UNL A   1      39.607  28.830  29.171  1.00  0.00     0.057 A 
ATOM     72  C   UNL A   1      38.981  28.641  30.410  1.00  0.00     0.134 A 
ATOM     73  C   UNL A   1      38.828  29.336  28.124  1.00  0.00     0.134 A 
ATOM     74  F   UNL A   1      39.669  28.147  31.451  1.00  0.00    -0.206 F 
ATOM     75  C   UNL A   1      37.626  28.921  30.593  1.00  0.00     0.040 A 
ATOM     76  C   UNL A   1      37.479  29.644  28.301  1.00  0.00     0.040 A 
ATOM     77  F   UNL A   1      39.367  29.546  26.913  1.00  0.00    -0.206 F 
ATOM     78  C   UNL A   1      36.873  29.430  29.537  1.00  0.00     0.006 A 
ENDBRANCH  57  71
BRANCH  58  79
ATOM     79  C   UNL A   1      49.150  26.477  27.470  1.00  0.00     0.057 A 
ATOM     80  C   UNL A   1      49.660  26.537  26.167  1.00  0.00     0.134 A 
ATOM     81  C   UNL A   1      50.025  26.084  28.489  1.00  0.00     0.134 A 
ATOM     82  F   UNL A   1      48.864  26.887  25.147  1.00  0.00    -0.206 F 
ATOM     83  C   UNL A   1      50.985  26.200  25.884  1.00  0.00     0.040 A 
ATOM     84  C   UNL A   1      51.358  25.767  28.224  1.00  0.00     0.040 A 
ATOM     85  F   UNL A   1      49.599  26.014  29.758  1.00  0.00    -0.206 F 
ATOM     86  C   UNL A   1      51.840  25.819  26.917  1.00  0.00     0.006 A 
ENDBRANCH  58  79
BRANCH  70  87
ATOM     87  C   UNL A   1      45.928  32.272  29.586  1.00  0.00     0.057 A 
ATOM     88  C   UNL A   1      46.372  32.555  30.882  1.00  0.00     0.134 A 
ATOM     89  C   UNL A   1      46.015  33.294  28.632  1.00  0.00     0.134 A 
ATOM     90  F   UNL A   1      46.303  31.622  31.844  1.00  0.00    -0.206 F 
ATOM     91  C   UNL A   1      46.870  33.814  31.223  1.00  0.00     0.040 A 
ATOM     92  C   UNL A   1      46.533  34.549  28.954  1.00  0.00     0.040 A 
ATOM     93  F   UNL A   1      45.613  33.085  27.370  1.00  0.00    -0.206 F 
ATOM     94  C   UNL A   1      46.958  34.813  30.254  1.00  0.00     0.006 A 
ENDBRANCH  70  87
ENDBRANCH  44  45
ENDBRANCH  36  39
ENDBRANCH  34  35
ENDBRANCH  33  34
ENDBRANCH  32  33
ENDBRANCH   1  32
TORSDOF 16
ENDMDL
MODEL 2
REMARK VINA RESULT:     -12.8      4.872      9.962
REMARK SMILES [NH3+][C@H]1CN(C(=O)OCC2c3ccccc3-c3ccccc32)C[C@@H]1C(=O)NCCCCNC(=O)c1ccc(-c2c3nc(c(-c4c(F)cccc4F)c4ccc([nH]4)c(-c4c(F)cccc4F)c4nc(c(-c5c(F)cccc5F)c5ccc2[nH]5)C=C4)C=C3)cc1
REMARK SMILES IDX 27 1 26 2 24 3 25 4 23 6 2 7 3 8 4 9 22 10 1 11 5 15 6 16
REMARK SMILES IDX 7 17 8 18 9 19 10 20 21 21 11 22 15 23 16 24 20 25 12 26
REMARK SMILES IDX 14 27 17 28 19 29 13 30 18 31 28 32 29 33 30 34 31 35 32 36
REMARK SMILES IDX 33 38 34 39 35 40 87 41 36 42 86 43 37 44 38 45 39 46 80 47
REMARK SMILES IDX 40 48 85 49 79 50 81 51 41 52 84 53 78 54 77 55 42 57 68 58
REMARK SMILES IDX 51 59 67 60 52 61 55 62 66 63 82 64 53 65 54 66 65 68 83 69
REMARK SMILES IDX 56 70 43 71 44 72 49 73 45 74 46 75 48 76 50 77 47 78 69 79
REMARK SMILES IDX 70 80 75 81 71 82 72 83 74 84 76 85 73 86 57 87 58 88 63 89
REMARK SMILES IDX 59 90 60 91 62 92 64 93 61 94
REMARK H PARENT 26 5 1 12 1 13 1 14 31 37 81 56 55 67
REMARK Flexibility Score: inf
ROOT
ATOM      1  C   UNL A   1      33.177  30.137  26.002  1.00  0.00     0.116 C 
ENDROOT
BRANCH   1   2
ATOM      2  N   UNL A   1      33.384  28.704  25.862  1.00  0.00    -0.356 N 
ATOM      3  C   UNL A   1      33.281  27.921  24.744  1.00  0.00     0.231 C 
ATOM      4  O   UNL A   1      33.400  26.703  24.859  1.00  0.00    -0.274 OA
ATOM      5  H   UNL A   1      33.633  28.230  26.689  1.00  0.00     0.163 HD
BRANCH   3   6
ATOM      6  C   UNL A   1      33.026  28.602  23.413  1.00  0.00     0.158 C 
ATOM      7  C   UNL A   1      31.538  28.641  23.017  1.00  0.00     0.215 C 
ATOM      8  C   UNL A   1      31.311  27.304  22.271  1.00  0.00     0.188 C 
ATOM      9  N   UNL A   1      32.636  26.826  21.924  1.00  0.00    -0.301 N 
ATOM     10  C   UNL A   1      33.663  27.763  22.315  1.00  0.00     0.143 C 
BRANCH   7  11
ATOM     11  N   UNL A   1      31.283  29.798  22.133  1.00  0.00    -0.353 N 
ATOM     12  H   UNL A   1      30.837  30.543  22.668  1.00  0.00     0.344 HD
ATOM     13  H   UNL A   1      30.671  29.514  21.369  1.00  0.00     0.344 HD
ATOM     14  H   UNL A   1      32.168  30.135  21.751  1.00  0.00     0.344 HD
ENDBRANCH   7  11
BRANCH   9  15
ATOM     15  C   UNL A   1      32.922  25.562  21.495  1.00  0.00     0.410 C 
ATOM     16  O   UNL A   1      33.141  25.287  20.319  1.00  0.00    -0.224 OA
BRANCH  15  17
ATOM     17  O   UNL A   1      32.837  24.652  22.497  1.00  0.00    -0.448 OA
BRANCH  17  18
ATOM     18  C   UNL A   1      33.157  23.289  22.140  1.00  0.00     0.248 C 
BRANCH  18  19
ATOM     19  C   UNL A   1      33.572  22.453  23.372  1.00  0.00     0.088 C 
ATOM     20  C   UNL A   1      34.934  22.830  23.960  1.00  0.00    -0.029 A 
ATOM     21  C   UNL A   1      32.653  22.738  24.563  1.00  0.00    -0.029 A 
ATOM     22  C   UNL A   1      36.199  22.668  23.416  1.00  0.00     0.005 A 
ATOM     23  C   UNL A   1      34.779  23.382  25.249  1.00  0.00    -0.014 A 
ATOM     24  C   UNL A   1      33.388  23.298  25.630  1.00  0.00    -0.014 A 
ATOM     25  C   UNL A   1      31.294  22.486  24.685  1.00  0.00     0.005 A 
ATOM     26  C   UNL A   1      37.301  23.161  24.116  1.00  0.00     0.000 A 
ATOM     27  C   UNL A   1      35.873  23.862  25.954  1.00  0.00     0.009 A 
ATOM     28  C   UNL A   1      32.767  23.616  26.826  1.00  0.00     0.009 A 
ATOM     29  C   UNL A   1      30.669  22.807  25.893  1.00  0.00     0.000 A 
ATOM     30  C   UNL A   1      37.139  23.767  25.371  1.00  0.00     0.001 A 
ATOM     31  C   UNL A   1      31.398  23.367  26.954  1.00  0.00     0.001 A 
ENDBRANCH  18  19
ENDBRANCH  17  18
ENDBRANCH  15  17
ENDBRANCH   9  15
ENDBRANCH   3   6
ENDBRANCH   1   2
BRANCH   1  32
ATOM     32  C   UNL A   1      31.714  30.468  26.288  1.00  0.00     0.023 C 
BRANCH  32  33
ATOM     33  C   UNL A   1      31.458  31.925  26.681  1.00  0.00     0.023 C 
BRANCH  33  34
ATOM     34  C   UNL A   1      32.668  32.673  27.229  1.00  0.00     0.116 C 
BRANCH  34  35
ATOM     35  N   UNL A   1      32.368  34.045  27.604  1.00  0.00    -0.352 N 
ATOM     36  C   UNL A   1      33.005  34.850  28.517  1.00  0.00     0.251 C 
ATOM     37  H   UNL A   1      31.601  34.454  27.140  1.00  0.00     0.163 HD
ATOM     38  O   UNL A   1      32.536  35.946  28.808  1.00  0.00    -0.269 OA
BRANCH  36  39
ATOM     39  C   UNL A   1      34.243  34.379  29.176  1.00  0.00     0.039 A 
ATOM     40  C   UNL A   1      34.150  33.751  30.421  1.00  0.00     0.014 A 
ATOM     41  C   UNL A   1      35.489  34.545  28.566  1.00  0.00     0.014 A 
ATOM     42  C   UNL A   1      35.296  33.229  31.024  1.00  0.00     0.010 A 
ATOM     43  C   UNL A   1      36.620  33.967  29.134  1.00  0.00     0.010 A 
ATOM     44  C   UNL A   1      36.536  33.303  30.368  1.00  0.00    -0.014 A 
BRANCH  44  45
ATOM     45  C   UNL A   1      37.763  32.705  30.954  1.00  0.00     0.031 A 
ATOM     46  C   UNL A   1      38.368  31.477  30.333  1.00  0.00     0.074 A 
ATOM     47  C   UNL A   1      38.285  33.213  32.087  1.00  0.00     0.049 A 
ATOM     48  N   UNL A   1      39.358  30.734  30.760  1.00  0.00    -0.248 NA
ATOM     49  C   UNL A   1      37.759  31.005  29.080  1.00  0.00     0.031 C 
ATOM     50  C   UNL A   1      37.772  34.380  32.808  1.00  0.00     0.029 A 
ATOM     51  N   UNL A   1      39.355  32.800  32.842  1.00  0.00    -0.354 N 
ATOM     52  C   UNL A   1      39.474  29.697  29.843  1.00  0.00     0.074 A 
ATOM     53  C   UNL A   1      38.428  29.882  28.860  1.00  0.00     0.031 C 
ATOM     54  C   UNL A   1      38.536  34.596  33.892  1.00  0.00     0.029 A 
ATOM     55  C   UNL A   1      39.564  33.562  33.965  1.00  0.00     0.049 A 
ATOM     56  H   UNL A   1      39.918  32.030  32.600  1.00  0.00     0.167 HD
ATOM     57  C   UNL A   1      40.383  28.693  29.810  1.00  0.00     0.037 A 
ATOM     58  C   UNL A   1      40.475  33.434  34.949  1.00  0.00     0.037 A 
ATOM     59  C   UNL A   1      41.443  28.529  30.769  1.00  0.00     0.049 A 
ATOM     60  C   UNL A   1      41.471  32.310  34.892  1.00  0.00     0.074 A 
ATOM     61  C   UNL A   1      42.446  27.574  30.790  1.00  0.00     0.029 A 
ATOM     62  N   UNL A   1      41.638  29.340  31.876  1.00  0.00    -0.354 N 
ATOM     63  N   UNL A   1      41.601  31.367  33.991  1.00  0.00    -0.248 NA
ATOM     64  C   UNL A   1      42.448  32.234  35.988  1.00  0.00     0.031 C 
ATOM     65  C   UNL A   1      43.227  27.787  31.930  1.00  0.00     0.029 A 
ATOM     66  C   UNL A   1      42.737  28.900  32.595  1.00  0.00     0.049 A 
ATOM     67  H   UNL A   1      41.079  30.113  32.117  1.00  0.00     0.167 HD
ATOM     68  C   UNL A   1      42.693  30.607  34.392  1.00  0.00     0.074 A 
ATOM     69  C   UNL A   1      43.193  31.203  35.613  1.00  0.00     0.031 C 
ATOM     70  C   UNL A   1      43.234  29.514  33.800  1.00  0.00     0.037 A 
BRANCH  57  71
ATOM     71  C   UNL A   1      40.268  27.695  28.696  1.00  0.00     0.057 A 
ATOM     72  C   UNL A   1      40.931  27.873  27.475  1.00  0.00     0.134 A 
ATOM     73  C   UNL A   1      39.510  26.529  28.855  1.00  0.00     0.134 A 
ATOM     74  F   UNL A   1      41.665  28.975  27.254  1.00  0.00    -0.206 F 
ATOM     75  C   UNL A   1      40.822  26.941  26.442  1.00  0.00     0.040 A 
ATOM     76  C   UNL A   1      39.414  25.577  27.839  1.00  0.00     0.040 A 
ATOM     77  F   UNL A   1      38.854  26.293  30.002  1.00  0.00    -0.206 F 
ATOM     78  C   UNL A   1      40.065  25.785  26.626  1.00  0.00     0.006 A 
ENDBRANCH  57  71
BRANCH  58  79
ATOM     79  C   UNL A   1      40.502  34.411  36.067  1.00  0.00     0.057 A 
ATOM     80  C   UNL A   1      39.793  34.169  37.250  1.00  0.00     0.134 A 
ATOM     81  C   UNL A   1      41.223  35.606  35.979  1.00  0.00     0.134 A 
ATOM     82  F   UNL A   1      39.068  33.050  37.385  1.00  0.00    -0.206 F 
ATOM     83  C   UNL A   1      39.784  35.091  38.298  1.00  0.00     0.040 A 
ATOM     84  C   UNL A   1      41.242  36.527  37.028  1.00  0.00     0.040 A 
ATOM     85  F   UNL A   1      41.929  35.893  34.875  1.00  0.00    -0.206 F 
ATOM     86  C   UNL A   1      40.515  36.272  38.190  1.00  0.00     0.006 A 
ENDBRANCH  58  79
BRANCH  70  87
ATOM     87  C   UNL A   1      44.457  28.921  34.434  1.00  0.00     0.057 A 
ATOM     88  C   UNL A   1      44.375  27.898  35.385  1.00  0.00     0.134 A 
ATOM     89  C   UNL A   1      45.734  29.350  34.049  1.00  0.00     0.134 A 
ATOM     90  F   UNL A   1      43.181  27.453  35.805  1.00  0.00    -0.206 F 
ATOM     91  C   UNL A   1      45.521  27.333  35.947  1.00  0.00     0.040 A 
ATOM     92  C   UNL A   1      46.887  28.776  34.585  1.00  0.00     0.040 A 
ATOM     93  F   UNL A   1      45.881  30.322  33.136  1.00  0.00    -0.206 F 
ATOM     94  C   UNL A   1      46.782  27.767  35.540  1.00  0.00     0.006 A 
ENDBRANCH  70  87
ENDBRANCH  44  45
ENDBRANCH  36  39
ENDBRANCH  34  35
ENDBRANCH  33  34
ENDBRANCH  32  33
ENDBRANCH   1  32
TORSDOF 16
ENDMDL
MODEL 3
REMARK VINA RESULT:     -12.8      4.876     10.127
REMARK SMILES [NH3+][C@H]1CN(C(=O)OCC2c3ccccc3-c3ccccc32)C[C@@H]1C(=O)NCCCCNC(=O)c1ccc(-c2c3nc(c(-c4c(F)cccc4F)c4ccc([nH]4)c(-c4c(F)cccc4F)c4nc(c(-c5c(F)cccc5F)c5ccc2[nH]5)C=C4)C=C3)cc1
REMARK SMILES IDX 27 1 26 2 24 3 25 4 23 6 2 7 3 8 4 9 22 10 1 11 5 15 6 16
REMARK SMILES IDX 7 17 8 18 9 19 10 20 21 21 11 22 15 23 16 24 20 25 12 26
REMARK SMILES IDX 14 27 17 28 19 29 13 30 18 31 28 32 29 33 30 34 31 35 32 36
REMARK SMILES IDX 33 38 34 39 35 40 87 41 36 42 86 43 37 44 38 45 39 46 80 47
REMARK SMILES IDX 40 48 85 49 79 50 81 51 41 52 84 53 78 54 77 55 42 57 68 58
REMARK SMILES IDX 51 59 67 60 52 61 55 62 66 63 82 64 53 65 54 66 65 68 83 69
REMARK SMILES IDX 56 70 43 71 44 72 49 73 45 74 46 75 48 76 50 77 47 78 69 79
REMARK SMILES IDX 70 80 75 81 71 82 72 83 74 84 76 85 73 86 57 87 58 88 63 89
REMARK SMILES IDX 59 90 60 91 62 92 64 93 61 94
REMARK H PARENT 26 5 1 12 1 13 1 14 31 37 81 56 55 67
REMARK Flexibility Score: inf
ROOT
ATOM      1  C   UNL A   1      33.152  30.087  25.968  1.00  0.00     0.116 C 
ENDROOT
BRANCH   1   2
ATOM      2  N   UNL A   1      33.350  28.646  25.925  1.00  0.00    -0.356 N 
ATOM      3  C   UNL A   1      33.267  27.793  24.858  1.00  0.00     0.231 C 
ATOM      4  O   UNL A   1      33.373  26.585  25.054  1.00  0.00    -0.274 OA
ATOM      5  H   UNL A   1      33.574  28.225  26.787  1.00  0.00     0.163 HD
BRANCH   3   6
ATOM      6  C   UNL A   1      33.051  28.389  23.480  1.00  0.00     0.158 C 
ATOM      7  C   UNL A   1      31.572  28.426  23.050  1.00  0.00     0.215 C 
ATOM      8  C   UNL A   1      31.338  27.046  22.389  1.00  0.00     0.188 C 
ATOM      9  N   UNL A   1      32.660  26.525  22.103  1.00  0.00    -0.301 N 
ATOM     10  C   UNL A   1      33.695  27.469  22.453  1.00  0.00     0.143 C 
BRANCH   7  11
ATOM     11  N   UNL A   1      31.356  29.525  22.087  1.00  0.00    -0.353 N 
ATOM     12  H   UNL A   1      30.693  30.195  22.479  1.00  0.00     0.344 HD
ATOM     13  H   UNL A   1      30.982  29.147  21.217  1.00  0.00     0.344 HD
ATOM     14  H   UNL A   1      32.243  29.994  21.901  1.00  0.00     0.344 HD
ENDBRANCH   7  11
BRANCH   9  15
ATOM     15  C   UNL A   1      32.933  25.231  21.764  1.00  0.00     0.410 C 
ATOM     16  O   UNL A   1      33.276  24.892  20.636  1.00  0.00    -0.224 OA
BRANCH  15  17
ATOM     17  O   UNL A   1      32.684  24.374  22.785  1.00  0.00    -0.448 OA
BRANCH  17  18
ATOM     18  C   UNL A   1      33.438  23.141  22.771  1.00  0.00     0.248 C 
BRANCH  18  19
ATOM     19  C   UNL A   1      33.611  22.555  24.190  1.00  0.00     0.088 C 
ATOM     20  C   UNL A   1      33.469  21.032  24.264  1.00  0.00    -0.029 A 
ATOM     21  C   UNL A   1      35.047  22.737  24.687  1.00  0.00    -0.029 A 
ATOM     22  C   UNL A   1      32.344  20.245  24.070  1.00  0.00     0.005 A 
ATOM     23  C   UNL A   1      34.700  20.439  24.618  1.00  0.00    -0.014 A 
ATOM     24  C   UNL A   1      35.656  21.482  24.906  1.00  0.00    -0.014 A 
ATOM     25  C   UNL A   1      35.727  23.918  24.950  1.00  0.00     0.005 A 
ATOM     26  C   UNL A   1      32.477  18.857  24.119  1.00  0.00     0.000 A 
ATOM     27  C   UNL A   1      34.833  19.060  24.680  1.00  0.00     0.009 A 
ATOM     28  C   UNL A   1      36.954  21.400  25.383  1.00  0.00     0.009 A 
ATOM     29  C   UNL A   1      37.036  23.833  25.432  1.00  0.00     0.000 A 
ATOM     30  C   UNL A   1      33.716  18.267  24.408  1.00  0.00     0.001 A 
ATOM     31  C   UNL A   1      37.645  22.585  25.646  1.00  0.00     0.001 A 
ENDBRANCH  18  19
ENDBRANCH  17  18
ENDBRANCH  15  17
ENDBRANCH   9  15
ENDBRANCH   3   6
ENDBRANCH   1   2
BRANCH   1  32
ATOM     32  C   UNL A   1      31.684  30.446  26.185  1.00  0.00     0.023 C 
BRANCH  32  33
ATOM     33  C   UNL A   1      31.437  31.909  26.561  1.00  0.00     0.023 C 
BRANCH  33  34
ATOM     34  C   UNL A   1      32.602  32.607  27.256  1.00  0.00     0.116 C 
BRANCH  34  35
ATOM     35  N   UNL A   1      32.321  33.996  27.582  1.00  0.00    -0.352 N 
ATOM     36  C   UNL A   1      32.968  34.822  28.469  1.00  0.00     0.251 C 
ATOM     37  H   UNL A   1      31.561  34.399  27.102  1.00  0.00     0.163 HD
ATOM     38  O   UNL A   1      32.515  35.934  28.721  1.00  0.00    -0.269 OA
BRANCH  36  39
ATOM     39  C   UNL A   1      34.198  34.356  29.145  1.00  0.00     0.039 A 
ATOM     40  C   UNL A   1      34.085  33.675  30.361  1.00  0.00     0.014 A 
ATOM     41  C   UNL A   1      35.457  34.580  28.582  1.00  0.00     0.014 A 
ATOM     42  C   UNL A   1      35.227  33.158  30.977  1.00  0.00     0.010 A 
ATOM     43  C   UNL A   1      36.586  34.009  29.161  1.00  0.00     0.010 A 
ATOM     44  C   UNL A   1      36.483  33.292  30.364  1.00  0.00    -0.014 A 
BRANCH  44  45
ATOM     45  C   UNL A   1      37.707  32.701  30.962  1.00  0.00     0.031 A 
ATOM     46  C   UNL A   1      38.328  31.478  30.348  1.00  0.00     0.074 A 
ATOM     47  C   UNL A   1      38.214  33.213  32.101  1.00  0.00     0.049 A 
ATOM     48  N   UNL A   1      39.318  30.741  30.784  1.00  0.00    -0.248 NA
ATOM     49  C   UNL A   1      37.736  31.002  29.087  1.00  0.00     0.031 C 
ATOM     50  C   UNL A   1      37.685  34.375  32.817  1.00  0.00     0.029 A 
ATOM     51  N   UNL A   1      39.278  32.806  32.867  1.00  0.00    -0.354 N 
ATOM     52  C   UNL A   1      39.451  29.707  29.868  1.00  0.00     0.074 A 
ATOM     53  C   UNL A   1      38.415  29.884  28.875  1.00  0.00     0.031 C 
ATOM     54  C   UNL A   1      38.436  34.595  33.910  1.00  0.00     0.029 A 
ATOM     55  C   UNL A   1      39.470  33.569  33.993  1.00  0.00     0.049 A 
ATOM     56  H   UNL A   1      39.849  32.040  32.631  1.00  0.00     0.167 HD
ATOM     57  C   UNL A   1      40.367  28.709  29.845  1.00  0.00     0.037 A 
ATOM     58  C   UNL A   1      40.371  33.447  34.987  1.00  0.00     0.037 A 
ATOM     59  C   UNL A   1      41.418  28.551  30.815  1.00  0.00     0.049 A 
ATOM     60  C   UNL A   1      41.375  32.330  34.940  1.00  0.00     0.074 A 
ATOM     61  C   UNL A   1      42.427  27.603  30.846  1.00  0.00     0.029 A 
ATOM     62  N   UNL A   1      41.596  29.363  31.925  1.00  0.00    -0.354 N 
ATOM     63  N   UNL A   1      41.522  31.388  34.040  1.00  0.00    -0.248 NA
ATOM     64  C   UNL A   1      42.341  32.259  36.046  1.00  0.00     0.031 C 
ATOM     65  C   UNL A   1      43.195  27.821  31.995  1.00  0.00     0.029 A 
ATOM     66  C   UNL A   1      42.690  28.930  32.655  1.00  0.00     0.049 A 
ATOM     67  H   UNL A   1      41.028  30.132  32.160  1.00  0.00     0.167 HD
ATOM     68  C   UNL A   1      42.615  30.636  34.452  1.00  0.00     0.074 A 
ATOM     69  C   UNL A   1      43.097  31.234  35.680  1.00  0.00     0.031 C 
ATOM     70  C   UNL A   1      43.169  29.547  33.866  1.00  0.00     0.037 A 
BRANCH  57  71
ATOM     71  C   UNL A   1      40.272  27.711  28.729  1.00  0.00     0.057 A 
ATOM     72  C   UNL A   1      40.945  27.895  27.514  1.00  0.00     0.134 A 
ATOM     73  C   UNL A   1      39.521  26.538  28.879  1.00  0.00     0.134 A 
ATOM     74  F   UNL A   1      41.672  29.003  27.301  1.00  0.00    -0.206 F 
ATOM     75  C   UNL A   1      40.853  26.963  26.479  1.00  0.00     0.040 A 
ATOM     76  C   UNL A   1      39.443  25.586  27.862  1.00  0.00     0.040 A 
ATOM     77  F   UNL A   1      38.857  26.296  30.020  1.00  0.00    -0.206 F 
ATOM     78  C   UNL A   1      40.105  25.801  26.655  1.00  0.00     0.006 A 
ENDBRANCH  57  71
BRANCH  58  79
ATOM     79  C   UNL A   1      40.379  34.423  36.106  1.00  0.00     0.057 A 
ATOM     80  C   UNL A   1      41.130  35.602  36.025  1.00  0.00     0.134 A 
ATOM     81  C   UNL A   1      39.653  34.198  37.280  1.00  0.00     0.134 A 
ATOM     82  F   UNL A   1      41.862  35.862  34.933  1.00  0.00    -0.206 F 
ATOM     83  C   UNL A   1      41.173  36.515  37.080  1.00  0.00     0.040 A 
ATOM     84  C   UNL A   1      39.668  35.113  38.334  1.00  0.00     0.040 A 
ATOM     85  F   UNL A   1      38.909  33.091  37.416  1.00  0.00    -0.206 F 
ATOM     86  C   UNL A   1      40.436  36.273  38.238  1.00  0.00     0.006 A 
ENDBRANCH  58  79
BRANCH  70  87
ATOM     87  C   UNL A   1      44.390  28.962  34.513  1.00  0.00     0.057 A 
ATOM     88  C   UNL A   1      45.679  29.402  34.193  1.00  0.00     0.134 A 
ATOM     89  C   UNL A   1      44.265  27.978  35.502  1.00  0.00     0.134 A 
ATOM     90  F   UNL A   1      45.866  30.332  33.245  1.00  0.00    -0.206 F 
ATOM     91  C   UNL A   1      46.806  28.872  34.824  1.00  0.00     0.040 A 
ATOM     92  C   UNL A   1      45.382  27.457  36.157  1.00  0.00     0.040 A 
ATOM     93  F   UNL A   1      43.056  27.519  35.859  1.00  0.00    -0.206 F 
ATOM     94  C   UNL A   1      46.657  27.901  35.814  1.00  0.00     0.006 A 
ENDBRANCH  70  87
ENDBRANCH  44  45
ENDBRANCH  36  39
ENDBRANCH  34  35
ENDBRANCH  33  34
ENDBRANCH  32  33
ENDBRANCH   1  32
TORSDOF 16
ENDMDL
