MODEL 1
REMARK VINA RESULT:     -12.6      0.000      0.000
REMARK SMILES O=C(NCCCCNC(=O)c1cnc2c(C(F)(F)F)cccc2c1NCc1cccnc1)c1ccc(-c2c3nc(c(-c4c(F)cccc4F)c4ccc([nH]4)c(-c4c(F)cccc4F)c4nc(c(-c5c(F)cccc5F)c5ccc2[nH]5)C=C4)C=C3)cc1
REMARK SMILES IDX 6 1 5 2 4 3 3 4 1 5 2 6 33 8 34 9 86 10 35 11 85 12 36 13
REMARK SMILES IDX 37 14 38 15 79 16 39 17 84 18 78 19 80 20 40 21 83 22 77 23
REMARK SMILES IDX 76 24 41 26 67 27 50 28 66 29 51 30 54 31 65 32 81 33 52 34
REMARK SMILES IDX 53 35 64 37 82 38 55 39 42 40 43 41 48 42 44 43 45 44 47 45
REMARK SMILES IDX 49 46 46 47 68 48 69 49 74 50 70 51 71 52 73 53 75 54 72 55
REMARK SMILES IDX 56 56 57 57 62 58 58 59 59 60 61 61 63 62 60 63 7 64 8 65
REMARK SMILES IDX 9 66 10 68 11 69 12 70 24 71 13 72 23 73 14 74 22 75 15 76
REMARK SMILES IDX 21 77 20 78 25 79 26 81 27 82 28 83 32 84 29 85 31 86 30 87
REMARK SMILES IDX 16 88 17 89 18 90 19 91
REMARK H PARENT 3 7 80 25 54 36 8 67 25 80
REMARK Flexibility Score: inf
ROOT
ATOM      1  C   UNL A   1      36.758  20.639  24.692  1.00  0.00     0.023 C 
ENDROOT
BRANCH   1   2
ATOM      2  C   UNL A   1      37.820  19.584  24.995  1.00  0.00     0.023 C 
BRANCH   2   3
ATOM      3  C   UNL A   1      39.024  20.062  25.797  1.00  0.00     0.116 C 
BRANCH   3   4
ATOM      4  N   UNL A   1      40.120  19.108  25.814  1.00  0.00    -0.352 N 
ATOM      5  O   UNL A   1      42.251  18.385  25.929  1.00  0.00    -0.269 OA
ATOM      6  C   UNL A   1      41.454  19.309  26.075  1.00  0.00     0.251 C 
ATOM      7  H   UNL A   1      39.869  18.179  25.607  1.00  0.00     0.163 HD
BRANCH   6   8
ATOM      8  C   UNL A   1      41.943  20.639  26.499  1.00  0.00     0.039 A 
ATOM      9  C   UNL A   1      42.119  20.953  27.849  1.00  0.00     0.014 A 
ATOM     10  C   UNL A   1      42.250  21.585  25.515  1.00  0.00     0.014 A 
ATOM     11  C   UNL A   1      42.470  22.249  28.220  1.00  0.00     0.010 A 
ATOM     12  C   UNL A   1      42.675  22.863  25.886  1.00  0.00     0.010 A 
ATOM     13  C   UNL A   1      42.758  23.214  27.242  1.00  0.00    -0.014 A 
BRANCH  13  14
ATOM     14  C   UNL A   1      43.201  24.571  27.649  1.00  0.00     0.031 A 
ATOM     15  C   UNL A   1      42.208  25.612  28.081  1.00  0.00     0.074 A 
ATOM     16  C   UNL A   1      44.513  24.868  27.604  1.00  0.00     0.049 A 
ATOM     17  N   UNL A   1      42.417  26.859  28.420  1.00  0.00    -0.248 NA
ATOM     18  C   UNL A   1      40.796  25.205  28.127  1.00  0.00     0.031 C 
ATOM     19  C   UNL A   1      45.569  23.947  27.182  1.00  0.00     0.029 A 
ATOM     20  N   UNL A   1      45.181  26.026  27.908  1.00  0.00    -0.354 N 
ATOM     21  C   UNL A   1      41.165  27.393  28.699  1.00  0.00     0.074 A 
ATOM     22  C   UNL A   1      40.199  26.339  28.469  1.00  0.00     0.031 C 
ATOM     23  C   UNL A   1      46.753  24.570  27.263  1.00  0.00     0.029 A 
ATOM     24  C   UNL A   1      46.534  25.948  27.690  1.00  0.00     0.049 A 
ATOM     25  H   UNL A   1      44.734  26.834  28.248  1.00  0.00     0.167 HD
ATOM     26  C   UNL A   1      40.854  28.644  29.115  1.00  0.00     0.037 A 
ATOM     27  C   UNL A   1      47.492  26.887  27.793  1.00  0.00     0.037 A 
ATOM     28  C   UNL A   1      41.821  29.684  29.358  1.00  0.00     0.049 A 
ATOM     29  C   UNL A   1      47.122  28.269  28.238  1.00  0.00     0.074 A 
ATOM     30  C   UNL A   1      41.609  30.964  29.841  1.00  0.00     0.029 A 
ATOM     31  N   UNL A   1      43.184  29.565  29.126  1.00  0.00    -0.354 N 
ATOM     32  N   UNL A   1      45.941  28.745  28.551  1.00  0.00    -0.248 NA
ATOM     33  C   UNL A   1      48.214  29.247  28.346  1.00  0.00     0.031 C 
ATOM     34  C   UNL A   1      42.838  31.635  29.858  1.00  0.00     0.029 A 
ATOM     35  C   UNL A   1      43.820  30.759  29.427  1.00  0.00     0.049 A 
ATOM     36  H   UNL A   1      43.632  28.754  28.796  1.00  0.00     0.167 HD
ATOM     37  C   UNL A   1      46.146  30.071  28.902  1.00  0.00     0.074 A 
ATOM     38  C   UNL A   1      47.568  30.322  28.778  1.00  0.00     0.031 C 
ATOM     39  C   UNL A   1      45.236  30.996  29.294  1.00  0.00     0.037 A 
BRANCH  26  40
ATOM     40  C   UNL A   1      39.401  28.966  29.311  1.00  0.00     0.057 A 
ATOM     41  C   UNL A   1      38.598  29.447  28.269  1.00  0.00     0.134 A 
ATOM     42  C   UNL A   1      38.790  28.764  30.556  1.00  0.00     0.134 A 
ATOM     43  F   UNL A   1      39.123  29.672  27.056  1.00  0.00    -0.206 F 
ATOM     44  C   UNL A   1      37.247  29.744  28.465  1.00  0.00     0.040 A 
ATOM     45  C   UNL A   1      37.435  29.033  30.758  1.00  0.00     0.040 A 
ATOM     46  F   UNL A   1      39.498  28.296  31.595  1.00  0.00    -0.206 F 
ATOM     47  C   UNL A   1      36.661  29.531  29.711  1.00  0.00     0.006 A 
ENDBRANCH  26  40
BRANCH  27  48
ATOM     48  C   UNL A   1      48.890  26.532  27.447  1.00  0.00     0.057 A 
ATOM     49  C   UNL A   1      49.743  25.946  28.386  1.00  0.00     0.134 A 
ATOM     50  C   UNL A   1      49.383  26.720  26.151  1.00  0.00     0.134 A 
ATOM     51  F   UNL A   1      49.329  25.754  29.648  1.00  0.00    -0.206 F 
ATOM     52  C   UNL A   1      51.040  25.558  28.049  1.00  0.00     0.040 A 
ATOM     53  C   UNL A   1      50.669  26.317  25.793  1.00  0.00     0.040 A 
ATOM     54  F   UNL A   1      48.606  27.268  25.204  1.00  0.00    -0.206 F 
ATOM     55  C   UNL A   1      51.503  25.734  26.746  1.00  0.00     0.006 A 
ENDBRANCH  27  48
BRANCH  39  56
ATOM     56  C   UNL A   1      45.752  32.362  29.633  1.00  0.00     0.057 A 
ATOM     57  C   UNL A   1      45.803  33.386  28.680  1.00  0.00     0.134 A 
ATOM     58  C   UNL A   1      46.154  32.669  30.939  1.00  0.00     0.134 A 
ATOM     59  F   UNL A   1      45.446  33.151  27.408  1.00  0.00    -0.206 F 
ATOM     60  C   UNL A   1      46.248  34.667  29.012  1.00  0.00     0.040 A 
ATOM     61  C   UNL A   1      46.580  33.951  31.288  1.00  0.00     0.040 A 
ATOM     62  F   UNL A   1      46.123  31.732  31.899  1.00  0.00    -0.206 F 
ATOM     63  C   UNL A   1      46.630  34.954  30.321  1.00  0.00     0.006 A 
ENDBRANCH  39  56
ENDBRANCH  13  14
ENDBRANCH   6   8
ENDBRANCH   3   4
ENDBRANCH   2   3
ENDBRANCH   1   2
BRANCH   1  64
ATOM     64  C   UNL A   1      36.606  21.750  25.724  1.00  0.00     0.116 C 
BRANCH  64  65
ATOM     65  N   UNL A   1      35.483  21.556  26.630  1.00  0.00    -0.352 N 
ATOM     66  C   UNL A   1      34.241  22.148  26.602  1.00  0.00     0.254 C 
ATOM     67  H   UNL A   1      35.632  20.914  27.361  1.00  0.00     0.163 HD
ATOM     68  O   UNL A   1      33.369  21.809  27.396  1.00  0.00    -0.269 OA
BRANCH  66  69
ATOM     69  C   UNL A   1      33.965  23.183  25.601  1.00  0.00     0.081 A 
ATOM     70  C   UNL A   1      34.135  24.475  26.076  1.00  0.00     0.127 A 
ATOM     71  C   UNL A   1      33.592  22.977  24.261  1.00  0.00     0.058 A 
ATOM     72  N   UNL A   1      33.867  25.584  25.368  1.00  0.00    -0.255 NA
ATOM     73  C   UNL A   1      33.341  24.170  23.480  1.00  0.00     0.025 A 
ATOM     74  C   UNL A   1      33.469  25.446  24.101  1.00  0.00     0.085 A 
ATOM     75  C   UNL A   1      32.954  24.158  22.113  1.00  0.00     0.012 A 
ATOM     76  C   UNL A   1      33.168  26.609  23.394  1.00  0.00     0.082 A 
ATOM     77  C   UNL A   1      32.702  25.330  21.400  1.00  0.00     0.001 A 
ATOM     78  C   UNL A   1      32.796  26.552  22.042  1.00  0.00     0.015 A 
BRANCH  71  79
ATOM     79  N   UNL A   1      33.335  21.736  23.668  1.00  0.00    -0.380 N 
ATOM     80  H   UNL A   1      33.865  21.535  22.864  1.00  0.00     0.160 HD
BRANCH  79  81
ATOM     81  C   UNL A   1      32.395  20.700  24.072  1.00  0.00     0.150 C 
BRANCH  81  82
ATOM     82  C   UNL A   1      32.931  19.304  23.860  1.00  0.00    -0.011 A 
ATOM     83  C   UNL A   1      33.936  18.705  24.622  1.00  0.00     0.009 A 
ATOM     84  C   UNL A   1      32.440  18.571  22.778  1.00  0.00     0.116 A 
ATOM     85  C   UNL A   1      34.399  17.434  24.284  1.00  0.00     0.020 A 
ATOM     86  N   UNL A   1      32.872  17.340  22.423  1.00  0.00    -0.264 NA
ATOM     87  C   UNL A   1      33.845  16.801  23.184  1.00  0.00     0.111 A 
ENDBRANCH  81  82
ENDBRANCH  79  81
ENDBRANCH  71  79
BRANCH  76  88
ATOM     88  C   UNL A   1      33.205  27.935  24.110  1.00  0.00     0.418 C 
ATOM     89  F   UNL A   1      32.459  27.951  25.252  1.00  0.00    -0.166 F 
ATOM     90  F   UNL A   1      34.454  28.353  24.452  1.00  0.00    -0.166 F 
ATOM     91  F   UNL A   1      32.693  28.953  23.349  1.00  0.00    -0.166 F 
ENDBRANCH  76  88
ENDBRANCH  66  69
ENDBRANCH  64  65
ENDBRANCH   1  64
TORSDOF 15
ENDMDL
MODEL 2
REMARK VINA RESULT:     -12.4      0.985      1.621
REMARK SMILES O=C(NCCCCNC(=O)c1cnc2c(C(F)(F)F)cccc2c1NCc1cccnc1)c1ccc(-c2c3nc(c(-c4c(F)cccc4F)c4ccc([nH]4)c(-c4c(F)cccc4F)c4nc(c(-c5c(F)cccc5F)c5ccc2[nH]5)C=C4)C=C3)cc1
REMARK SMILES IDX 6 1 5 2 4 3 3 4 1 5 2 6 33 8 34 9 86 10 35 11 85 12 36 13
REMARK SMILES IDX 37 14 38 15 79 16 39 17 84 18 78 19 80 20 40 21 83 22 77 23
REMARK SMILES IDX 76 24 41 26 67 27 50 28 66 29 51 30 54 31 65 32 81 33 52 34
REMARK SMILES IDX 53 35 64 37 82 38 55 39 42 40 43 41 48 42 44 43 45 44 47 45
REMARK SMILES IDX 49 46 46 47 68 48 69 49 74 50 70 51 71 52 73 53 75 54 72 55
REMARK SMILES IDX 56 56 57 57 62 58 58 59 59 60 61 61 63 62 60 63 7 64 8 65
REMARK SMILES IDX 9 66 10 68 11 69 12 70 24 71 13 72 23 73 14 74 22 75 15 76
REMARK SMILES IDX 21 77 20 78 25 79 26 81 27 82 28 83 32 84 29 85 31 86 30 87
REMARK SMILES IDX 16 88 17 89 18 90 19 91
REMARK H PARENT 3 7 80 25 54 36 8 67 25 80
REMARK Flexibility Score: inf
ROOT
ATOM      1  C   UNL A   1      37.404  21.244  24.401  1.00  0.00     0.023 C 
ENDROOT
BRANCH   1   2
ATOM      2  C   UNL A   1      37.965  19.907  24.879  1.00  0.00     0.023 C 
BRANCH   2   3
ATOM      3  C   UNL A   1      38.958  19.975  26.034  1.00  0.00     0.116 C 
BRANCH   3   4
ATOM      4  N   UNL A   1      40.058  19.034  25.905  1.00  0.00    -0.352 N 
ATOM      5  O   UNL A   1      42.193  18.334  25.752  1.00  0.00    -0.269 OA
ATOM      6  C   UNL A   1      41.410  19.247  26.007  1.00  0.00     0.251 C 
ATOM      7  H   UNL A   1      39.793  18.105  25.716  1.00  0.00     0.163 HD
BRANCH   6   8
ATOM      8  C   UNL A   1      41.934  20.576  26.388  1.00  0.00     0.039 A 
ATOM      9  C   UNL A   1      42.172  20.909  27.723  1.00  0.00     0.014 A 
ATOM     10  C   UNL A   1      42.211  21.503  25.376  1.00  0.00     0.014 A 
ATOM     11  C   UNL A   1      42.554  22.205  28.058  1.00  0.00     0.010 A 
ATOM     12  C   UNL A   1      42.667  22.781  25.709  1.00  0.00     0.010 A 
ATOM     13  C   UNL A   1      42.813  23.152  27.054  1.00  0.00    -0.014 A 
BRANCH  13  14
ATOM     14  C   UNL A   1      43.290  24.508  27.420  1.00  0.00     0.031 A 
ATOM     15  C   UNL A   1      42.329  25.573  27.864  1.00  0.00     0.074 A 
ATOM     16  C   UNL A   1      44.604  24.783  27.326  1.00  0.00     0.049 A 
ATOM     17  N   UNL A   1      42.568  26.823  28.173  1.00  0.00    -0.248 NA
ATOM     18  C   UNL A   1      40.913  25.190  27.966  1.00  0.00     0.031 C 
ATOM     19  C   UNL A   1      45.632  23.838  26.887  1.00  0.00     0.029 A 
ATOM     20  N   UNL A   1      45.300  25.936  27.585  1.00  0.00    -0.354 N 
ATOM     21  C   UNL A   1      41.334  27.382  28.483  1.00  0.00     0.074 A 
ATOM     22  C   UNL A   1      40.345  26.339  28.305  1.00  0.00     0.031 C 
ATOM     23  C   UNL A   1      46.827  24.443  26.917  1.00  0.00     0.029 A 
ATOM     24  C   UNL A   1      46.643  25.833  27.324  1.00  0.00     0.049 A 
ATOM     25  H   UNL A   1      44.877  26.758  27.924  1.00  0.00     0.167 HD
ATOM     26  C   UNL A   1      41.056  28.645  28.884  1.00  0.00     0.037 A 
ATOM     27  C   UNL A   1      47.619  26.758  27.378  1.00  0.00     0.037 A 
ATOM     28  C   UNL A   1      42.047  29.673  29.076  1.00  0.00     0.049 A 
ATOM     29  C   UNL A   1      47.286  28.154  27.808  1.00  0.00     0.074 A 
ATOM     30  C   UNL A   1      41.871  30.966  29.541  1.00  0.00     0.029 A 
ATOM     31  N   UNL A   1      43.399  29.529  28.801  1.00  0.00    -0.354 N 
ATOM     32  N   UNL A   1      46.123  28.654  28.151  1.00  0.00    -0.248 NA
ATOM     33  C   UNL A   1      48.395  29.115  27.861  1.00  0.00     0.031 C 
ATOM     34  C   UNL A   1      43.110  31.617  29.504  1.00  0.00     0.029 A 
ATOM     35  C   UNL A   1      44.064  30.718  29.058  1.00  0.00     0.049 A 
ATOM     36  H   UNL A   1      43.824  28.704  28.472  1.00  0.00     0.167 HD
ATOM     37  C   UNL A   1      46.360  29.983  28.470  1.00  0.00     0.074 A 
ATOM     38  C   UNL A   1      47.781  30.209  28.294  1.00  0.00     0.031 C 
ATOM     39  C   UNL A   1      45.478  30.930  28.873  1.00  0.00     0.037 A 
BRANCH  26  40
ATOM     40  C   UNL A   1      39.616  28.994  29.123  1.00  0.00     0.057 A 
ATOM     41  C   UNL A   1      38.783  29.456  28.096  1.00  0.00     0.134 A 
ATOM     42  C   UNL A   1      39.047  28.838  30.394  1.00  0.00     0.134 A 
ATOM     43  F   UNL A   1      39.267  29.638  26.858  1.00  0.00    -0.206 F 
ATOM     44  C   UNL A   1      37.444  29.778  28.331  1.00  0.00     0.040 A 
ATOM     45  C   UNL A   1      37.704  29.132  30.635  1.00  0.00     0.040 A 
ATOM     46  F   UNL A   1      39.786  28.390  31.421  1.00  0.00    -0.206 F 
ATOM     47  C   UNL A   1      36.900  29.611  29.602  1.00  0.00     0.006 A 
ENDBRANCH  26  40
BRANCH  27  48
ATOM     48  C   UNL A   1      48.998  26.374  26.993  1.00  0.00     0.057 A 
ATOM     49  C   UNL A   1      49.465  26.555  25.688  1.00  0.00     0.134 A 
ATOM     50  C   UNL A   1      49.898  25.869  27.940  1.00  0.00     0.134 A 
ATOM     51  F   UNL A   1      48.644  27.022  24.736  1.00  0.00    -0.206 F 
ATOM     52  C   UNL A   1      50.780  26.248  25.336  1.00  0.00     0.040 A 
ATOM     53  C   UNL A   1      51.221  25.579  27.608  1.00  0.00     0.040 A 
ATOM     54  F   UNL A   1      49.510  25.684  29.211  1.00  0.00    -0.206 F 
ATOM     55  C   UNL A   1      51.665  25.768  26.300  1.00  0.00     0.006 A 
ENDBRANCH  27  48
BRANCH  39  56
ATOM     56  C   UNL A   1      46.025  32.293  29.169  1.00  0.00     0.057 A 
ATOM     57  C   UNL A   1      46.535  32.624  30.429  1.00  0.00     0.134 A 
ATOM     58  C   UNL A   1      46.089  33.269  28.166  1.00  0.00     0.134 A 
ATOM     59  F   UNL A   1      46.489  31.738  31.436  1.00  0.00    -0.206 F 
ATOM     60  C   UNL A   1      47.079  33.883  30.687  1.00  0.00     0.040 A 
ATOM     61  C   UNL A   1      46.650  34.524  28.405  1.00  0.00     0.040 A 
ATOM     62  F   UNL A   1      45.622  33.012  26.934  1.00  0.00    -0.206 F 
ATOM     63  C   UNL A   1      47.145  34.834  29.670  1.00  0.00     0.006 A 
ENDBRANCH  39  56
ENDBRANCH  13  14
ENDBRANCH   6   8
ENDBRANCH   3   4
ENDBRANCH   2   3
ENDBRANCH   1   2
BRANCH   1  64
ATOM     64  C   UNL A   1      35.905  21.447  24.594  1.00  0.00     0.116 C 
BRANCH  64  65
ATOM     65  N   UNL A   1      35.433  21.086  25.923  1.00  0.00    -0.352 N 
ATOM     66  C   UNL A   1      34.332  21.553  26.603  1.00  0.00     0.254 C 
ATOM     67  H   UNL A   1      35.975  20.417  26.399  1.00  0.00     0.163 HD
ATOM     68  O   UNL A   1      34.023  21.079  27.692  1.00  0.00    -0.269 OA
BRANCH  66  69
ATOM     69  C   UNL A   1      33.520  22.617  26.004  1.00  0.00     0.081 A 
ATOM     70  C   UNL A   1      33.869  23.889  26.432  1.00  0.00     0.127 A 
ATOM     71  C   UNL A   1      32.493  22.458  25.057  1.00  0.00     0.058 A 
ATOM     72  N   UNL A   1      33.219  25.010  26.082  1.00  0.00    -0.255 NA
ATOM     73  C   UNL A   1      31.814  23.668  24.644  1.00  0.00     0.025 A 
ATOM     74  C   UNL A   1      32.207  24.913  25.217  1.00  0.00     0.085 A 
ATOM     75  C   UNL A   1      30.754  23.703  23.700  1.00  0.00     0.012 A 
ATOM     76  C   UNL A   1      31.527  26.085  24.891  1.00  0.00     0.082 A 
ATOM     77  C   UNL A   1      30.112  24.888  23.344  1.00  0.00     0.001 A 
ATOM     78  C   UNL A   1      30.489  26.075  23.947  1.00  0.00     0.015 A 
BRANCH  71  79
ATOM     79  N   UNL A   1      32.006  21.236  24.581  1.00  0.00    -0.380 N 
ATOM     80  H   UNL A   1      31.210  20.889  25.044  1.00  0.00     0.160 HD
BRANCH  79  81
ATOM     81  C   UNL A   1      32.509  20.403  23.497  1.00  0.00     0.150 C 
BRANCH  81  82
ATOM     82  C   UNL A   1      32.716  18.965  23.906  1.00  0.00    -0.011 A 
ATOM     83  C   UNL A   1      32.714  18.496  25.221  1.00  0.00     0.009 A 
ATOM     84  C   UNL A   1      33.000  18.033  22.906  1.00  0.00     0.116 A 
ATOM     85  C   UNL A   1      32.990  17.154  25.480  1.00  0.00     0.020 A 
ATOM     86  N   UNL A   1      33.276  16.727  23.126  1.00  0.00    -0.264 NA
ATOM     87  C   UNL A   1      33.267  16.319  24.411  1.00  0.00     0.111 A 
ENDBRANCH  81  82
ENDBRANCH  79  81
ENDBRANCH  71  79
BRANCH  76  88
ATOM     88  C   UNL A   1      31.892  27.367  25.595  1.00  0.00     0.418 C 
ATOM     89  F   UNL A   1      31.844  27.266  26.954  1.00  0.00    -0.166 F 
ATOM     90  F   UNL A   1      33.126  27.847  25.282  1.00  0.00    -0.166 F 
ATOM     91  F   UNL A   1      31.033  28.391  25.293  1.00  0.00    -0.166 F 
ENDBRANCH  76  88
ENDBRANCH  66  69
ENDBRANCH  64  65
ENDBRANCH   1  64
TORSDOF 15
ENDMDL
MODEL 3
REMARK VINA RESULT:     -12.3      1.227      1.717
REMARK SMILES O=C(NCCCCNC(=O)c1cnc2c(C(F)(F)F)cccc2c1NCc1cccnc1)c1ccc(-c2c3nc(c(-c4c(F)cccc4F)c4ccc([nH]4)c(-c4c(F)cccc4F)c4nc(c(-c5c(F)cccc5F)c5ccc2[nH]5)C=C4)C=C3)cc1
REMARK SMILES IDX 6 1 5 2 4 3 3 4 1 5 2 6 33 8 34 9 86 10 35 11 85 12 36 13
REMARK SMILES IDX 37 14 38 15 79 16 39 17 84 18 78 19 80 20 40 21 83 22 77 23
REMARK SMILES IDX 76 24 41 26 67 27 50 28 66 29 51 30 54 31 65 32 81 33 52 34
REMARK SMILES IDX 53 35 64 37 82 38 55 39 42 40 43 41 48 42 44 43 45 44 47 45
REMARK SMILES IDX 49 46 46 47 68 48 69 49 74 50 70 51 71 52 73 53 75 54 72 55
REMARK SMILES IDX 56 56 57 57 62 58 58 59 59 60 61 61 63 62 60 63 7 64 8 65
REMARK SMILES IDX 9 66 10 68 11 69 12 70 24 71 13 72 23 73 14 74 22 75 15 76
REMARK SMILES IDX 21 77 20 78 25 79 26 81 27 82 28 83 32 84 29 85 31 86 30 87
REMARK SMILES IDX 16 88 17 89 18 90 19 91
REMARK H PARENT 3 7 80 25 54 36 8 67 25 80
REMARK Flexibility Score: inf
ROOT
ATOM      1  C   UNL A   1      37.403  21.454  24.574  1.00  0.00     0.023 C 
ENDROOT
BRANCH   1   2
ATOM      2  C   UNL A   1      38.099  20.103  24.720  1.00  0.00     0.023 C 
BRANCH   2   3
ATOM      3  C   UNL A   1      38.844  19.875  26.031  1.00  0.00     0.116 C 
BRANCH   3   4
ATOM      4  N   UNL A   1      40.065  19.105  25.873  1.00  0.00    -0.352 N 
ATOM      5  O   UNL A   1      42.281  18.716  25.747  1.00  0.00    -0.269 OA
ATOM      6  C   UNL A   1      41.373  19.491  26.039  1.00  0.00     0.251 C 
ATOM      7  H   UNL A   1      39.936  18.166  25.607  1.00  0.00     0.163 HD
BRANCH   6   8
ATOM      8  C   UNL A   1      41.698  20.846  26.535  1.00  0.00     0.039 A 
ATOM      9  C   UNL A   1      41.948  21.902  25.655  1.00  0.00     0.014 A 
ATOM     10  C   UNL A   1      41.733  21.064  27.916  1.00  0.00     0.014 A 
ATOM     11  C   UNL A   1      42.364  23.135  26.150  1.00  0.00     0.010 A 
ATOM     12  C   UNL A   1      42.078  22.323  28.414  1.00  0.00     0.010 A 
ATOM     13  C   UNL A   1      42.426  23.360  27.534  1.00  0.00    -0.014 A 
BRANCH  13  14
ATOM     14  C   UNL A   1      42.801  24.699  28.051  1.00  0.00     0.031 A 
ATOM     15  C   UNL A   1      41.756  25.743  28.325  1.00  0.00     0.074 A 
ATOM     16  C   UNL A   1      44.102  24.979  28.254  1.00  0.00     0.049 A 
ATOM     17  N   UNL A   1      41.911  26.978  28.731  1.00  0.00    -0.248 NA
ATOM     18  C   UNL A   1      40.355  25.355  28.103  1.00  0.00     0.031 C 
ATOM     19  C   UNL A   1      45.209  24.054  28.005  1.00  0.00     0.029 A 
ATOM     20  N   UNL A   1      44.715  26.120  28.705  1.00  0.00    -0.354 N 
ATOM     21  C   UNL A   1      40.635  27.522  28.793  1.00  0.00     0.074 A 
ATOM     22  C   UNL A   1      39.716  26.488  28.362  1.00  0.00     0.031 C 
ATOM     23  C   UNL A   1      46.364  24.658  28.317  1.00  0.00     0.029 A 
ATOM     24  C   UNL A   1      46.083  26.028  28.734  1.00  0.00     0.049 A 
ATOM     25  H   UNL A   1      44.221  26.925  28.981  1.00  0.00     0.167 HD
ATOM     26  C   UNL A   1      40.264  28.767  29.179  1.00  0.00     0.037 A 
ATOM     27  C   UNL A   1      47.016  26.950  29.035  1.00  0.00     0.037 A 
ATOM     28  C   UNL A   1      41.181  29.786  29.622  1.00  0.00     0.049 A 
ATOM     29  C   UNL A   1      46.584  28.326  29.444  1.00  0.00     0.074 A 
ATOM     30  C   UNL A   1      40.896  31.056  30.094  1.00  0.00     0.029 A 
ATOM     31  N   UNL A   1      42.562  29.655  29.638  1.00  0.00    -0.354 N 
ATOM     32  N   UNL A   1      45.370  28.810  29.550  1.00  0.00    -0.248 NA
ATOM     33  C   UNL A   1      47.647  29.285  29.775  1.00  0.00     0.031 C 
ATOM     34  C   UNL A   1      42.108  31.709  30.351  1.00  0.00     0.029 A 
ATOM     35  C   UNL A   1      43.144  30.831  30.083  1.00  0.00     0.049 A 
ATOM     36  H   UNL A   1      43.056  28.845  29.373  1.00  0.00     0.167 HD
ATOM     37  C   UNL A   1      45.520  30.124  29.969  1.00  0.00     0.074 A 
ATOM     38  C   UNL A   1      46.943  30.358  30.113  1.00  0.00     0.031 C 
ATOM     39  C   UNL A   1      44.563  31.051  30.215  1.00  0.00     0.037 A 
BRANCH  26  40
ATOM     40  C   UNL A   1      38.803  29.104  29.118  1.00  0.00     0.057 A 
ATOM     41  C   UNL A   1      37.972  29.018  30.242  1.00  0.00     0.134 A 
ATOM     42  C   UNL A   1      38.226  29.551  27.921  1.00  0.00     0.134 A 
ATOM     43  F   UNL A   1      38.460  28.589  31.416  1.00  0.00    -0.206 F 
ATOM     44  C   UNL A   1      36.614  29.335  30.172  1.00  0.00     0.040 A 
ATOM     45  C   UNL A   1      36.875  29.894  27.845  1.00  0.00     0.040 A 
ATOM     46  F   UNL A   1      38.966  29.666  26.809  1.00  0.00    -0.206 F 
ATOM     47  C   UNL A   1      36.063  29.780  28.972  1.00  0.00     0.006 A 
ENDBRANCH  26  40
BRANCH  27  48
ATOM     48  C   UNL A   1      48.449  26.584  28.939  1.00  0.00     0.057 A 
ATOM     49  C   UNL A   1      49.127  26.016  30.021  1.00  0.00     0.134 A 
ATOM     50  C   UNL A   1      49.157  26.744  27.742  1.00  0.00     0.134 A 
ATOM     51  F   UNL A   1      48.504  25.851  31.198  1.00  0.00    -0.206 F 
ATOM     52  C   UNL A   1      50.461  25.618  29.917  1.00  0.00     0.040 A 
ATOM     53  C   UNL A   1      50.483  26.330  27.616  1.00  0.00     0.040 A 
ATOM     54  F   UNL A   1      48.556  27.274  26.666  1.00  0.00    -0.206 F 
ATOM     55  C   UNL A   1      51.139  25.766  28.708  1.00  0.00     0.006 A 
ENDBRANCH  27  48
BRANCH  39  56
ATOM     56  C   UNL A   1      45.021  32.401  30.679  1.00  0.00     0.057 A 
ATOM     57  C   UNL A   1      45.285  33.438  29.777  1.00  0.00     0.134 A 
ATOM     58  C   UNL A   1      45.150  32.679  32.046  1.00  0.00     0.134 A 
ATOM     59  F   UNL A   1      45.193  33.230  28.455  1.00  0.00    -0.206 F 
ATOM     60  C   UNL A   1      45.674  34.704  30.219  1.00  0.00     0.040 A 
ATOM     61  C   UNL A   1      45.517  33.946  32.499  1.00  0.00     0.040 A 
ATOM     62  F   UNL A   1      44.906  31.728  32.961  1.00  0.00    -0.206 F 
ATOM     63  C   UNL A   1      45.783  34.963  31.583  1.00  0.00     0.006 A 
ENDBRANCH  39  56
ENDBRANCH  13  14
ENDBRANCH   6   8
ENDBRANCH   3   4
ENDBRANCH   2   3
ENDBRANCH   1   2
BRANCH   1  64
ATOM     64  C   UNL A   1      35.881  21.436  24.670  1.00  0.00     0.116 C 
BRANCH  64  65
ATOM     65  N   UNL A   1      35.385  21.095  25.995  1.00  0.00    -0.352 N 
ATOM     66  C   UNL A   1      34.276  21.579  26.652  1.00  0.00     0.254 C 
ATOM     67  H   UNL A   1      35.912  20.425  26.488  1.00  0.00     0.163 HD
ATOM     68  O   UNL A   1      33.946  21.120  27.741  1.00  0.00    -0.269 OA
BRANCH  66  69
ATOM     69  C   UNL A   1      33.484  22.644  26.028  1.00  0.00     0.081 A 
ATOM     70  C   UNL A   1      33.849  23.918  26.435  1.00  0.00     0.127 A 
ATOM     71  C   UNL A   1      32.462  22.482  25.076  1.00  0.00     0.058 A 
ATOM     72  N   UNL A   1      33.217  25.042  26.060  1.00  0.00    -0.255 NA
ATOM     73  C   UNL A   1      31.804  23.694  24.637  1.00  0.00     0.025 A 
ATOM     74  C   UNL A   1      32.211  24.944  25.189  1.00  0.00     0.085 A 
ATOM     75  C   UNL A   1      30.751  23.727  23.684  1.00  0.00     0.012 A 
ATOM     76  C   UNL A   1      31.550  26.119  24.837  1.00  0.00     0.082 A 
ATOM     77  C   UNL A   1      30.129  24.914  23.302  1.00  0.00     0.001 A 
ATOM     78  C   UNL A   1      30.519  26.106  23.886  1.00  0.00     0.015 A 
BRANCH  71  79
ATOM     79  N   UNL A   1      31.961  21.258  24.619  1.00  0.00    -0.380 N 
ATOM     80  H   UNL A   1      31.154  20.934  25.080  1.00  0.00     0.160 HD
BRANCH  79  81
ATOM     81  C   UNL A   1      32.461  20.397  23.556  1.00  0.00     0.150 C 
BRANCH  81  82
ATOM     82  C   UNL A   1      32.660  18.968  24.001  1.00  0.00    -0.011 A 
ATOM     83  C   UNL A   1      32.646  18.530  25.327  1.00  0.00     0.009 A 
ATOM     84  C   UNL A   1      32.950  18.012  23.025  1.00  0.00     0.116 A 
ATOM     85  C   UNL A   1      32.916  17.194  25.619  1.00  0.00     0.020 A 
ATOM     86  N   UNL A   1      33.220  16.712  23.279  1.00  0.00    -0.264 NA
ATOM     87  C   UNL A   1      33.199  16.333  24.573  1.00  0.00     0.111 A 
ENDBRANCH  81  82
ENDBRANCH  79  81
ENDBRANCH  71  79
BRANCH  76  88
ATOM     88  C   UNL A   1      31.928  27.408  25.520  1.00  0.00     0.418 C 
ATOM     89  F   UNL A   1      33.266  27.672  25.469  1.00  0.00    -0.166 F 
ATOM     90  F   UNL A   1      31.294  28.509  25.031  1.00  0.00    -0.166 F 
ATOM     91  F   UNL A   1      31.629  27.398  26.857  1.00  0.00    -0.166 F 
ENDBRANCH  76  88
ENDBRANCH  66  69
ENDBRANCH  64  65
ENDBRANCH   1  64
TORSDOF 15
ENDMDL
