MODEL 1
REMARK VINA RESULT:     -12.3      0.000      0.000
REMARK SMILES NC(=O)c1c(-c2ccc(Cl)cc2)csc1NC(=O)[C@H]1[C@@H](C(=O)NCCCCNC(=O)c2ccc(-c3c4nc(c(-c5c(F)cccc5F)c5ccc([nH]5)c(-c5c(F)cccc5F)c5nc(c(-c6c(F)cccc6F)c6ccc3[nH]6)C=C5)C=C4)cc2)[C@@H]2CC[C@H]1O2
REMARK SMILES IDX 25 1 24 2 23 3 21 4 22 5 20 7 19 8 88 9 85 10 87 11 89 12
REMARK SMILES IDX 86 13 17 14 16 15 18 17 15 18 4 19 5 20 13 21 14 22 2 23
REMARK SMILES IDX 1 24 3 27 6 28 7 29 12 30 8 31 11 32 9 33 10 34 26 35 27 36
REMARK SMILES IDX 28 37 29 38 30 40 31 41 32 42 84 43 33 44 83 45 34 46 35 47
REMARK SMILES IDX 36 48 77 49 37 50 82 51 76 52 78 53 38 54 81 55 75 56 74 57
REMARK SMILES IDX 39 59 65 60 48 61 64 62 49 63 52 64 63 65 79 66 50 67 51 68
REMARK SMILES IDX 62 70 80 71 53 72 40 73 41 74 46 75 42 76 43 77 45 78 47 79
REMARK SMILES IDX 44 80 66 81 67 82 72 83 68 84 69 85 71 86 73 87 70 88 54 89
REMARK SMILES IDX 55 90 60 91 56 92 57 93 59 94 61 95 58 96
REMARK H PARENT 23 6 16 16 1 25 1 26 28 39 78 58 52 69
REMARK Flexibility Score: inf
ROOT
ATOM      1  C   UNL A   1      32.257  28.763  27.379  1.00  0.00     0.023 C 
ENDROOT
BRANCH   1   2
ATOM      2  C   UNL A   1      32.193  27.694  26.293  1.00  0.00     0.116 C 
BRANCH   2   3
ATOM      3  N   UNL A   1      31.690  26.436  26.806  1.00  0.00    -0.356 N 
ATOM      4  C   UNL A   1      32.139  25.166  26.660  1.00  0.00     0.226 C 
ATOM      5  O   UNL A   1      31.540  24.293  27.302  1.00  0.00    -0.275 OA
ATOM      6  H   UNL A   1      30.880  26.520  27.359  1.00  0.00     0.163 HD
BRANCH   4   7
ATOM      7  C   UNL A   1      33.254  24.741  25.714  1.00  0.00     0.122 C 
ATOM      8  C   UNL A   1      33.008  23.849  24.483  1.00  0.00     0.123 C 
ATOM      9  C   UNL A   1      33.971  22.675  24.772  1.00  0.00     0.132 C 
ATOM     10  C   UNL A   1      34.386  24.005  26.439  1.00  0.00     0.132 C 
ATOM     11  C   UNL A   1      35.415  23.089  24.487  1.00  0.00     0.035 C 
ATOM     12  O   UNL A   1      34.032  22.624  26.218  1.00  0.00    -0.373 OA
ATOM     13  C   UNL A   1      35.688  24.073  25.630  1.00  0.00     0.035 C 
BRANCH   8  14
ATOM     14  C   UNL A   1      31.585  23.405  24.146  1.00  0.00     0.231 C 
ATOM     15  N   UNL A   1      30.817  24.107  23.257  1.00  0.00    -0.317 N 
ATOM     16  H   UNL A   1      30.073  23.593  22.870  1.00  0.00     0.170 HD
ATOM     17  O   UNL A   1      31.079  22.398  24.644  1.00  0.00    -0.274 OA
BRANCH  15  18
ATOM     18  C   UNL A   1      30.905  25.411  22.807  1.00  0.00     0.108 A 
ATOM     19  C   UNL A   1      30.119  26.483  23.217  1.00  0.00     0.082 A 
ATOM     20  C   UNL A   1      30.532  27.694  22.539  1.00  0.00     0.007 A 
ATOM     21  C   UNL A   1      31.621  27.484  21.715  1.00  0.00     0.076 A 
ATOM     22  S   UNL A   1      32.159  25.875  21.764  1.00  0.00    -0.125 S 
BRANCH  19  23
ATOM     23  C   UNL A   1      29.027  26.294  24.171  1.00  0.00     0.252 C 
ATOM     24  N   UNL A   1      27.761  26.506  23.717  1.00  0.00    -0.365 N 
ATOM     25  H   UNL A   1      26.995  26.391  24.324  1.00  0.00     0.159 HD
ATOM     26  H   UNL A   1      27.612  26.773  22.781  1.00  0.00     0.159 HD
ATOM     27  O   UNL A   1      29.214  25.909  25.323  1.00  0.00    -0.269 OA
ENDBRANCH  19  23
BRANCH  20  28
ATOM     28  C   UNL A   1      30.014  29.045  22.681  1.00  0.00    -0.017 A 
ATOM     29  C   UNL A   1      29.375  29.672  21.602  1.00  0.00     0.010 A 
ATOM     30  C   UNL A   1      30.158  29.724  23.896  1.00  0.00     0.010 A 
ATOM     31  C   UNL A   1      28.886  30.972  21.742  1.00  0.00     0.021 A 
ATOM     32  C   UNL A   1      29.668  31.024  24.032  1.00  0.00     0.021 A 
ATOM     33  C   UNL A   1      29.035  31.643  22.955  1.00  0.00     0.041 A 
ATOM     34  Cl  UNL A   1      28.435  33.245  23.123  1.00  0.00    -0.084 Cl
ENDBRANCH  20  28
ENDBRANCH  15  18
ENDBRANCH   8  14
ENDBRANCH   4   7
ENDBRANCH   2   3
ENDBRANCH   1   2
BRANCH   1  35
ATOM     35  C   UNL A   1      31.819  30.153  26.911  1.00  0.00     0.023 C 
BRANCH  35  36
ATOM     36  C   UNL A   1      32.916  31.215  26.925  1.00  0.00     0.116 C 
BRANCH  36  37
ATOM     37  N   UNL A   1      32.433  32.545  27.266  1.00  0.00    -0.352 N 
ATOM     38  C   UNL A   1      33.042  33.491  28.054  1.00  0.00     0.251 C 
ATOM     39  H   UNL A   1      31.562  32.798  26.883  1.00  0.00     0.163 HD
ATOM     40  O   UNL A   1      32.473  34.539  28.336  1.00  0.00    -0.269 OA
BRANCH  38  41
ATOM     41  C   UNL A   1      34.383  33.204  28.600  1.00  0.00     0.039 A 
ATOM     42  C   UNL A   1      34.484  32.528  29.818  1.00  0.00     0.014 A 
ATOM     43  C   UNL A   1      35.529  33.549  27.878  1.00  0.00     0.014 A 
ATOM     44  C   UNL A   1      35.739  32.136  30.282  1.00  0.00     0.010 A 
ATOM     45  C   UNL A   1      36.773  33.103  28.312  1.00  0.00     0.010 A 
ATOM     46  C   UNL A   1      36.888  32.388  29.514  1.00  0.00    -0.014 A 
BRANCH  46  47
ATOM     47  C   UNL A   1      38.221  31.902  29.947  1.00  0.00     0.031 A 
ATOM     48  C   UNL A   1      38.745  30.590  29.438  1.00  0.00     0.074 A 
ATOM     49  C   UNL A   1      38.924  32.609  30.852  1.00  0.00     0.049 A 
ATOM     50  N   UNL A   1      39.851  29.966  29.752  1.00  0.00    -0.248 NA
ATOM     51  C   UNL A   1      37.901  29.872  28.470  1.00  0.00     0.031 C 
ATOM     52  C   UNL A   1      38.497  33.871  31.459  1.00  0.00     0.029 A 
ATOM     53  N   UNL A   1      40.144  32.359  31.428  1.00  0.00    -0.354 N 
ATOM     54  C   UNL A   1      39.828  28.776  29.035  1.00  0.00     0.074 A 
ATOM     55  C   UNL A   1      38.578  28.745  28.307  1.00  0.00     0.031 C 
ATOM     56  C   UNL A   1      39.448  34.294  32.308  1.00  0.00     0.029 A 
ATOM     57  C   UNL A   1      40.536  33.320  32.327  1.00  0.00     0.049 A 
ATOM     58  H   UNL A   1      40.688  31.565  31.216  1.00  0.00     0.167 HD
ATOM     59  C   UNL A   1      40.772  27.808  28.972  1.00  0.00     0.037 A 
ATOM     60  C   UNL A   1      41.646  33.403  33.084  1.00  0.00     0.037 A 
ATOM     61  C   UNL A   1      42.027  27.856  29.675  1.00  0.00     0.049 A 
ATOM     62  C   UNL A   1      42.684  32.321  32.987  1.00  0.00     0.074 A 
ATOM     63  C   UNL A   1      43.077  26.956  29.624  1.00  0.00     0.029 A 
ATOM     64  N   UNL A   1      42.400  28.860  30.555  1.00  0.00    -0.354 N 
ATOM     65  N   UNL A   1      42.682  31.237  32.252  1.00  0.00    -0.248 NA
ATOM     66  C   UNL A   1      43.884  32.479  33.822  1.00  0.00     0.031 C 
ATOM     67  C   UNL A   1      44.073  27.400  30.502  1.00  0.00     0.029 A 
ATOM     68  C   UNL A   1      43.659  28.595  31.067  1.00  0.00     0.049 A 
ATOM     69  H   UNL A   1      41.851  29.645  30.782  1.00  0.00     0.167 HD
ATOM     70  C   UNL A   1      43.885  30.596  32.513  1.00  0.00     0.074 A 
ATOM     71  C   UNL A   1      44.599  31.421  33.467  1.00  0.00     0.031 C 
ATOM     72  C   UNL A   1      44.357  29.430  32.009  1.00  0.00     0.037 A 
BRANCH  59  73
ATOM     73  C   UNL A   1      40.482  26.620  28.106  1.00  0.00     0.057 A 
ATOM     74  C   UNL A   1      39.582  25.621  28.503  1.00  0.00     0.134 A 
ATOM     75  C   UNL A   1      41.087  26.482  26.851  1.00  0.00     0.134 A 
ATOM     76  F   UNL A   1      38.979  25.687  29.699  1.00  0.00    -0.206 F 
ATOM     77  C   UNL A   1      39.316  24.515  27.694  1.00  0.00     0.040 A 
ATOM     78  C   UNL A   1      40.810  25.393  26.023  1.00  0.00     0.040 A 
ATOM     79  F   UNL A   1      41.955  27.405  26.408  1.00  0.00    -0.206 F 
ATOM     80  C   UNL A   1      39.927  24.402  26.448  1.00  0.00     0.006 A 
ENDBRANCH  59  73
BRANCH  60  81
ATOM     81  C   UNL A   1      41.848  34.569  33.979  1.00  0.00     0.057 A 
ATOM     82  C   UNL A   1      41.454  34.522  35.322  1.00  0.00     0.134 A 
ATOM     83  C   UNL A   1      42.428  35.756  33.518  1.00  0.00     0.134 A 
ATOM     84  F   UNL A   1      40.875  33.418  35.816  1.00  0.00    -0.206 F 
ATOM     85  C   UNL A   1      41.616  35.617  36.170  1.00  0.00     0.040 A 
ATOM     86  C   UNL A   1      42.616  36.853  34.360  1.00  0.00     0.040 A 
ATOM     87  F   UNL A   1      42.832  35.861  32.243  1.00  0.00    -0.206 F 
ATOM     88  C   UNL A   1      42.202  36.787  35.690  1.00  0.00     0.006 A 
ENDBRANCH  60  81
BRANCH  72  89
ATOM     89  C   UNL A   1      45.720  28.995  32.454  1.00  0.00     0.057 A 
ATOM     90  C   UNL A   1      45.902  28.160  33.563  1.00  0.00     0.134 A 
ATOM     91  C   UNL A   1      46.861  29.384  31.740  1.00  0.00     0.134 A 
ATOM     92  F   UNL A   1      44.851  27.764  34.296  1.00  0.00    -0.206 F 
ATOM     93  C   UNL A   1      47.174  27.741  33.957  1.00  0.00     0.040 A 
ATOM     94  C   UNL A   1      48.135  28.953  32.110  1.00  0.00     0.040 A 
ATOM     95  F   UNL A   1      46.752  30.178  30.663  1.00  0.00    -0.206 F 
ATOM     96  C   UNL A   1      48.293  28.133  33.225  1.00  0.00     0.006 A 
ENDBRANCH  72  89
ENDBRANCH  46  47
ENDBRANCH  38  41
ENDBRANCH  36  37
ENDBRANCH  35  36
ENDBRANCH   1  35
TORSDOF 15
ENDMDL
MODEL 2
REMARK VINA RESULT:     -12.2      3.765      8.639
REMARK SMILES NC(=O)c1c(-c2ccc(Cl)cc2)csc1NC(=O)[C@H]1[C@@H](C(=O)NCCCCNC(=O)c2ccc(-c3c4nc(c(-c5c(F)cccc5F)c5ccc([nH]5)c(-c5c(F)cccc5F)c5nc(c(-c6c(F)cccc6F)c6ccc3[nH]6)C=C5)C=C4)cc2)[C@@H]2CC[C@H]1O2
REMARK SMILES IDX 25 1 24 2 23 3 21 4 22 5 20 7 19 8 88 9 85 10 87 11 89 12
REMARK SMILES IDX 86 13 17 14 16 15 18 17 15 18 4 19 5 20 13 21 14 22 2 23
REMARK SMILES IDX 1 24 3 27 6 28 7 29 12 30 8 31 11 32 9 33 10 34 26 35 27 36
REMARK SMILES IDX 28 37 29 38 30 40 31 41 32 42 84 43 33 44 83 45 34 46 35 47
REMARK SMILES IDX 36 48 77 49 37 50 82 51 76 52 78 53 38 54 81 55 75 56 74 57
REMARK SMILES IDX 39 59 65 60 48 61 64 62 49 63 52 64 63 65 79 66 50 67 51 68
REMARK SMILES IDX 62 70 80 71 53 72 40 73 41 74 46 75 42 76 43 77 45 78 47 79
REMARK SMILES IDX 44 80 66 81 67 82 72 83 68 84 69 85 71 86 73 87 70 88 54 89
REMARK SMILES IDX 55 90 60 91 56 92 57 93 59 94 61 95 58 96
REMARK H PARENT 23 6 16 16 1 25 1 26 28 39 78 58 52 69
REMARK Flexibility Score: inf
ROOT
ATOM      1  C   UNL A   1      36.981  23.002  24.385  1.00  0.00     0.023 C 
ENDROOT
BRANCH   1   2
ATOM      2  C   UNL A   1      35.473  23.230  24.421  1.00  0.00     0.116 C 
BRANCH   2   3
ATOM      3  N   UNL A   1      35.024  24.030  23.300  1.00  0.00    -0.356 N 
ATOM      4  C   UNL A   1      34.302  25.175  23.249  1.00  0.00     0.226 C 
ATOM      5  O   UNL A   1      34.149  25.681  22.129  1.00  0.00    -0.275 OA
ATOM      6  H   UNL A   1      35.292  23.680  22.420  1.00  0.00     0.163 HD
BRANCH   4   7
ATOM      7  C   UNL A   1      33.611  25.821  24.442  1.00  0.00     0.122 C 
ATOM      8  C   UNL A   1      32.081  25.952  24.550  1.00  0.00     0.123 C 
ATOM      9  C   UNL A   1      31.926  27.481  24.722  1.00  0.00     0.132 C 
ATOM     10  C   UNL A   1      34.087  27.258  24.685  1.00  0.00     0.132 C 
ATOM     11  C   UNL A   1      32.305  27.896  26.143  1.00  0.00     0.035 C 
ATOM     12  O   UNL A   1      33.066  28.025  24.015  1.00  0.00    -0.373 OA
ATOM     13  C   UNL A   1      33.823  27.684  26.136  1.00  0.00     0.035 C 
BRANCH   8  14
ATOM     14  C   UNL A   1      31.195  25.367  23.450  1.00  0.00     0.231 C 
ATOM     15  N   UNL A   1      30.718  24.087  23.533  1.00  0.00    -0.317 N 
ATOM     16  H   UNL A   1      29.928  23.912  22.973  1.00  0.00     0.170 HD
ATOM     17  O   UNL A   1      30.865  26.021  22.459  1.00  0.00    -0.274 OA
BRANCH  15  18
ATOM     18  C   UNL A   1      31.149  22.998  24.267  1.00  0.00     0.108 A 
ATOM     19  C   UNL A   1      31.870  21.910  23.788  1.00  0.00     0.082 A 
ATOM     20  C   UNL A   1      32.162  20.989  24.866  1.00  0.00     0.007 A 
ATOM     21  C   UNL A   1      31.702  21.451  26.084  1.00  0.00     0.076 A 
ATOM     22  S   UNL A   1      30.956  22.970  25.952  1.00  0.00    -0.125 S 
BRANCH  19  23
ATOM     23  C   UNL A   1      32.198  21.792  22.367  1.00  0.00     0.252 C 
ATOM     24  N   UNL A   1      31.607  20.778  21.676  1.00  0.00    -0.365 N 
ATOM     25  H   UNL A   1      31.799  20.659  20.717  1.00  0.00     0.159 HD
ATOM     26  H   UNL A   1      30.989  20.165  22.134  1.00  0.00     0.159 HD
ATOM     27  O   UNL A   1      32.930  22.591  21.788  1.00  0.00    -0.269 OA
ENDBRANCH  19  23
BRANCH  20  28
ATOM     28  C   UNL A   1      32.911  19.743  24.829  1.00  0.00    -0.017 A 
ATOM     29  C   UNL A   1      32.242  18.515  24.925  1.00  0.00     0.010 A 
ATOM     30  C   UNL A   1      34.304  19.770  24.702  1.00  0.00     0.010 A 
ATOM     31  C   UNL A   1      32.967  17.322  24.897  1.00  0.00     0.021 A 
ATOM     32  C   UNL A   1      35.026  18.576  24.673  1.00  0.00     0.021 A 
ATOM     33  C   UNL A   1      34.355  17.358  24.772  1.00  0.00     0.041 A 
ATOM     34  Cl  UNL A   1      35.246  15.887  24.740  1.00  0.00    -0.084 Cl
ENDBRANCH  20  28
ENDBRANCH  15  18
ENDBRANCH   8  14
ENDBRANCH   4   7
ENDBRANCH   2   3
ENDBRANCH   1   2
BRANCH   1  35
ATOM     35  C   UNL A   1      37.389  21.529  24.471  1.00  0.00     0.023 C 
BRANCH  35  36
ATOM     36  C   UNL A   1      38.098  21.129  25.763  1.00  0.00     0.116 C 
BRANCH  36  37
ATOM     37  N   UNL A   1      39.010  20.007  25.602  1.00  0.00    -0.352 N 
ATOM     38  C   UNL A   1      40.350  19.955  25.900  1.00  0.00     0.251 C 
ATOM     39  H   UNL A   1      38.618  19.182  25.233  1.00  0.00     0.163 HD
ATOM     40  O   UNL A   1      41.021  18.967  25.622  1.00  0.00    -0.269 OA
BRANCH  38  41
ATOM     41  C   UNL A   1      40.985  21.133  26.523  1.00  0.00     0.039 A 
ATOM     42  C   UNL A   1      41.541  22.113  25.699  1.00  0.00     0.014 A 
ATOM     43  C   UNL A   1      40.974  21.290  27.912  1.00  0.00     0.014 A 
ATOM     44  C   UNL A   1      42.026  23.291  26.266  1.00  0.00     0.010 A 
ATOM     45  C   UNL A   1      41.402  22.490  28.469  1.00  0.00     0.010 A 
ATOM     46  C   UNL A   1      41.927  23.503  27.651  1.00  0.00    -0.014 A 
BRANCH  46  47
ATOM     47  C   UNL A   1      42.357  24.783  28.263  1.00  0.00     0.031 A 
ATOM     48  C   UNL A   1      41.360  25.883  28.487  1.00  0.00     0.074 A 
ATOM     49  C   UNL A   1      43.658  24.979  28.551  1.00  0.00     0.049 A 
ATOM     50  N   UNL A   1      41.554  27.094  28.943  1.00  0.00    -0.248 NA
ATOM     51  C   UNL A   1      39.964  25.593  28.123  1.00  0.00     0.031 C 
ATOM     52  C   UNL A   1      44.730  24.006  28.330  1.00  0.00     0.029 A 
ATOM     53  N   UNL A   1      44.303  26.068  29.080  1.00  0.00    -0.354 N 
ATOM     54  C   UNL A   1      40.312  27.714  28.905  1.00  0.00     0.074 A 
ATOM     55  C   UNL A   1      39.381  26.763  28.338  1.00  0.00     0.031 C 
ATOM     56  C   UNL A   1      45.895  24.535  28.738  1.00  0.00     0.029 A 
ATOM     57  C   UNL A   1      45.656  25.893  29.221  1.00  0.00     0.049 A 
ATOM     58  H   UNL A   1      43.837  26.898  29.335  1.00  0.00     0.167 HD
ATOM     59  C   UNL A   1      39.974  28.956  29.325  1.00  0.00     0.037 A 
ATOM     60  C   UNL A   1      46.601  26.734  29.683  1.00  0.00     0.037 A 
ATOM     61  C   UNL A   1      40.897  29.889  29.914  1.00  0.00     0.049 A 
ATOM     62  C   UNL A   1      46.198  28.104  30.153  1.00  0.00     0.074 A 
ATOM     63  C   UNL A   1      40.638  31.146  30.432  1.00  0.00     0.029 A 
ATOM     64  N   UNL A   1      42.256  29.665  30.066  1.00  0.00    -0.354 N 
ATOM     65  N   UNL A   1      45.008  28.652  30.177  1.00  0.00    -0.248 NA
ATOM     66  C   UNL A   1      47.269  28.969  30.667  1.00  0.00     0.031 C 
ATOM     67  C   UNL A   1      41.850  31.697  30.866  1.00  0.00     0.029 A 
ATOM     68  C   UNL A   1      42.854  30.767  30.655  1.00  0.00     0.049 A 
ATOM     69  H   UNL A   1      42.727  28.844  29.795  1.00  0.00     0.167 HD
ATOM     70  C   UNL A   1      45.181  29.913  30.731  1.00  0.00     0.074 A 
ATOM     71  C   UNL A   1      46.591  30.044  31.040  1.00  0.00     0.031 C 
ATOM     72  C   UNL A   1      44.257  30.876  30.962  1.00  0.00     0.037 A 
BRANCH  59  73
ATOM     73  C   UNL A   1      38.543  29.370  29.165  1.00  0.00     0.057 A 
ATOM     74  C   UNL A   1      37.657  29.393  30.251  1.00  0.00     0.134 A 
ATOM     75  C   UNL A   1      38.047  29.775  27.919  1.00  0.00     0.134 A 
ATOM     76  F   UNL A   1      38.065  29.005  31.468  1.00  0.00    -0.206 F 
ATOM     77  C   UNL A   1      36.324  29.778  30.098  1.00  0.00     0.040 A 
ATOM     78  C   UNL A   1      36.723  30.185  27.758  1.00  0.00     0.040 A 
ATOM     79  F   UNL A   1      38.843  29.780  26.839  1.00  0.00    -0.206 F 
ATOM     80  C   UNL A   1      35.856  30.181  28.849  1.00  0.00     0.006 A 
ENDBRANCH  59  73
BRANCH  60  81
ATOM     81  C   UNL A   1      48.017  26.296  29.752  1.00  0.00     0.057 A 
ATOM     82  C   UNL A   1      48.538  25.733  30.923  1.00  0.00     0.134 A 
ATOM     83  C   UNL A   1      48.881  26.433  28.660  1.00  0.00     0.134 A 
ATOM     84  F   UNL A   1      47.762  25.594  32.008  1.00  0.00    -0.206 F 
ATOM     85  C   UNL A   1      49.873  25.337  31.011  1.00  0.00     0.040 A 
ATOM     86  C   UNL A   1      50.213  26.021  28.728  1.00  0.00     0.040 A 
ATOM     87  F   UNL A   1      48.439  26.959  27.508  1.00  0.00    -0.206 F 
ATOM     88  C   UNL A   1      50.714  25.477  29.909  1.00  0.00     0.006 A 
ENDBRANCH  60  81
BRANCH  72  89
ATOM     89  C   UNL A   1      44.734  32.141  31.608  1.00  0.00     0.057 A 
ATOM     90  C   UNL A   1      45.155  33.242  30.853  1.00  0.00     0.134 A 
ATOM     91  C   UNL A   1      44.734  32.273  33.003  1.00  0.00     0.134 A 
ATOM     92  F   UNL A   1      45.192  33.174  29.514  1.00  0.00    -0.206 F 
ATOM     93  C   UNL A   1      45.578  34.424  31.462  1.00  0.00     0.040 A 
ATOM     94  C   UNL A   1      45.132  33.458  33.624  1.00  0.00     0.040 A 
ATOM     95  F   UNL A   1      44.334  31.257  33.783  1.00  0.00    -0.206 F 
ATOM     96  C   UNL A   1      45.559  34.536  32.852  1.00  0.00     0.006 A 
ENDBRANCH  72  89
ENDBRANCH  46  47
ENDBRANCH  38  41
ENDBRANCH  36  37
ENDBRANCH  35  36
ENDBRANCH   1  35
TORSDOF 15
ENDMDL
MODEL 3
REMARK VINA RESULT:     -12.2      3.524      7.978
REMARK SMILES NC(=O)c1c(-c2ccc(Cl)cc2)csc1NC(=O)[C@H]1[C@@H](C(=O)NCCCCNC(=O)c2ccc(-c3c4nc(c(-c5c(F)cccc5F)c5ccc([nH]5)c(-c5c(F)cccc5F)c5nc(c(-c6c(F)cccc6F)c6ccc3[nH]6)C=C5)C=C4)cc2)[C@@H]2CC[C@H]1O2
REMARK SMILES IDX 25 1 24 2 23 3 21 4 22 5 20 7 19 8 88 9 85 10 87 11 89 12
REMARK SMILES IDX 86 13 17 14 16 15 18 17 15 18 4 19 5 20 13 21 14 22 2 23
REMARK SMILES IDX 1 24 3 27 6 28 7 29 12 30 8 31 11 32 9 33 10 34 26 35 27 36
REMARK SMILES IDX 28 37 29 38 30 40 31 41 32 42 84 43 33 44 83 45 34 46 35 47
REMARK SMILES IDX 36 48 77 49 37 50 82 51 76 52 78 53 38 54 81 55 75 56 74 57
REMARK SMILES IDX 39 59 65 60 48 61 64 62 49 63 52 64 63 65 79 66 50 67 51 68
REMARK SMILES IDX 62 70 80 71 53 72 40 73 41 74 46 75 42 76 43 77 45 78 47 79
REMARK SMILES IDX 44 80 66 81 67 82 72 83 68 84 69 85 71 86 73 87 70 88 54 89
REMARK SMILES IDX 55 90 60 91 56 92 57 93 59 94 61 95 58 96
REMARK H PARENT 23 6 16 16 1 25 1 26 28 39 78 58 52 69
REMARK Flexibility Score: inf
ROOT
ATOM      1  C   UNL A   1      36.419  23.673  24.552  1.00  0.00     0.023 C 
ENDROOT
BRANCH   1   2
ATOM      2  C   UNL A   1      35.100  24.310  24.977  1.00  0.00     0.116 C 
BRANCH   2   3
ATOM      3  N   UNL A   1      34.612  25.248  23.987  1.00  0.00    -0.356 N 
ATOM      4  C   UNL A   1      33.886  26.385  24.112  1.00  0.00     0.226 C 
ATOM      5  O   UNL A   1      33.694  27.033  23.074  1.00  0.00    -0.275 OA
ATOM      6  H   UNL A   1      34.851  25.018  23.060  1.00  0.00     0.163 HD
BRANCH   4   7
ATOM      7  C   UNL A   1      33.235  26.863  25.402  1.00  0.00     0.122 C 
ATOM      8  C   UNL A   1      31.708  26.932  25.590  1.00  0.00     0.123 C 
ATOM      9  C   UNL A   1      31.522  28.425  25.951  1.00  0.00     0.132 C 
ATOM     10  C   UNL A   1      33.684  28.275  25.795  1.00  0.00     0.132 C 
ATOM     11  C   UNL A   1      31.956  28.680  27.394  1.00  0.00     0.035 C 
ATOM     12  O   UNL A   1      32.614  29.085  25.266  1.00  0.00    -0.373 OA
ATOM     13  C   UNL A   1      33.477  28.518  27.296  1.00  0.00     0.035 C 
BRANCH   8  14
ATOM     14  C   UNL A   1      30.788  26.455  24.467  1.00  0.00     0.231 C 
ATOM     15  N   UNL A   1      30.360  25.156  24.409  1.00  0.00    -0.317 N 
ATOM     16  H   UNL A   1      29.549  25.021  23.867  1.00  0.00     0.170 HD
ATOM     17  O   UNL A   1      30.385  27.214  23.584  1.00  0.00    -0.274 OA
BRANCH  15  18
ATOM     18  C   UNL A   1      30.866  24.002  24.976  1.00  0.00     0.108 A 
ATOM     19  C   UNL A   1      31.612  23.021  24.333  1.00  0.00     0.082 A 
ATOM     20  C   UNL A   1      31.985  21.981  25.270  1.00  0.00     0.007 A 
ATOM     21  C   UNL A   1      31.556  22.259  26.553  1.00  0.00     0.076 A 
ATOM     22  S   UNL A   1      30.742  23.745  26.648  1.00  0.00    -0.125 S 
BRANCH  19  23
ATOM     23  C   UNL A   1      31.888  23.105  22.899  1.00  0.00     0.252 C 
ATOM     24  N   UNL A   1      31.687  21.978  22.161  1.00  0.00    -0.365 N 
ATOM     25  H   UNL A   1      31.860  21.987  21.192  1.00  0.00     0.159 HD
ATOM     26  H   UNL A   1      31.368  21.155  22.597  1.00  0.00     0.159 HD
ATOM     27  O   UNL A   1      32.235  24.148  22.351  1.00  0.00    -0.269 OA
ENDBRANCH  19  23
BRANCH  20  28
ATOM     28  C   UNL A   1      32.784  20.788  25.042  1.00  0.00    -0.017 A 
ATOM     29  C   UNL A   1      34.181  20.844  25.151  1.00  0.00     0.010 A 
ATOM     30  C   UNL A   1      32.159  19.582  24.709  1.00  0.00     0.010 A 
ATOM     31  C   UNL A   1      34.944  19.697  24.924  1.00  0.00     0.021 A 
ATOM     32  C   UNL A   1      32.925  18.437  24.483  1.00  0.00     0.021 A 
ATOM     33  C   UNL A   1      34.313  18.500  24.590  1.00  0.00     0.041 A 
ATOM     34  Cl  UNL A   1      35.256  17.090  24.308  1.00  0.00    -0.084 Cl
ENDBRANCH  20  28
ENDBRANCH  15  18
ENDBRANCH   8  14
ENDBRANCH   4   7
ENDBRANCH   2   3
ENDBRANCH   1   2
BRANCH   1  35
ATOM     35  C   UNL A   1      37.223  23.074  25.709  1.00  0.00     0.023 C 
BRANCH  35  36
ATOM     36  C   UNL A   1      38.137  24.058  26.437  1.00  0.00     0.116 C 
BRANCH  36  37
ATOM     37  N   UNL A   1      39.545  23.895  26.107  1.00  0.00    -0.352 N 
ATOM     38  C   UNL A   1      40.608  24.655  26.533  1.00  0.00     0.251 C 
ATOM     39  H   UNL A   1      39.763  23.148  25.505  1.00  0.00     0.163 HD
ATOM     40  O   UNL A   1      41.737  24.462  26.097  1.00  0.00    -0.269 OA
BRANCH  38  41
ATOM     41  C   UNL A   1      40.359  25.747  27.495  1.00  0.00     0.039 A 
ATOM     42  C   UNL A   1      39.437  25.541  28.523  1.00  0.00     0.014 A 
ATOM     43  C   UNL A   1      41.080  26.941  27.410  1.00  0.00     0.014 A 
ATOM     44  C   UNL A   1      39.287  26.512  29.513  1.00  0.00     0.010 A 
ATOM     45  C   UNL A   1      40.974  27.879  28.432  1.00  0.00     0.010 A 
ATOM     46  C   UNL A   1      40.082  27.671  29.494  1.00  0.00    -0.014 A 
BRANCH  46  47
ATOM     47  C   UNL A   1      40.000  28.673  30.584  1.00  0.00     0.031 A 
ATOM     48  C   UNL A   1      39.005  29.795  30.501  1.00  0.00     0.074 A 
ATOM     49  C   UNL A   1      40.870  28.613  31.611  1.00  0.00     0.049 A 
ATOM     50  N   UNL A   1      38.829  30.804  31.315  1.00  0.00    -0.248 NA
ATOM     51  C   UNL A   1      38.109  29.799  29.333  1.00  0.00     0.031 C 
ATOM     52  C   UNL A   1      41.916  27.602  31.776  1.00  0.00     0.029 A 
ATOM     53  N   UNL A   1      41.019  29.427  32.705  1.00  0.00    -0.354 N 
ATOM     54  C   UNL A   1      37.816  31.570  30.751  1.00  0.00     0.074 A 
ATOM     55  C   UNL A   1      37.450  30.935  29.503  1.00  0.00     0.031 C 
ATOM     56  C   UNL A   1      42.586  27.846  32.914  1.00  0.00     0.029 A 
ATOM     57  C   UNL A   1      42.037  29.045  33.541  1.00  0.00     0.049 A 
ATOM     58  H   UNL A   1      40.448  30.213  32.873  1.00  0.00     0.167 HD
ATOM     59  C   UNL A   1      37.230  32.688  31.239  1.00  0.00     0.037 A 
ATOM     60  C   UNL A   1      42.481  29.601  34.684  1.00  0.00     0.037 A 
ATOM     61  C   UNL A   1      37.577  33.301  32.494  1.00  0.00     0.049 A 
ATOM     62  C   UNL A   1      41.806  30.836  35.211  1.00  0.00     0.074 A 
ATOM     63  C   UNL A   1      36.996  34.397  33.107  1.00  0.00     0.029 A 
ATOM     64  N   UNL A   1      38.595  32.867  33.328  1.00  0.00    -0.354 N 
ATOM     65  N   UNL A   1      40.803  31.509  34.704  1.00  0.00    -0.248 NA
ATOM     66  C   UNL A   1      42.321  31.384  36.474  1.00  0.00     0.031 C 
ATOM     67  C   UNL A   1      37.687  34.648  34.298  1.00  0.00     0.029 A 
ATOM     68  C   UNL A   1      38.672  33.684  34.444  1.00  0.00     0.049 A 
ATOM     69  H   UNL A   1      39.179  32.094  33.153  1.00  0.00     0.167 HD
ATOM     70  C   UNL A   1      40.549  32.544  35.594  1.00  0.00     0.074 A 
ATOM     71  C   UNL A   1      41.497  32.401  36.681  1.00  0.00     0.031 C 
ATOM     72  C   UNL A   1      39.616  33.523  35.519  1.00  0.00     0.037 A 
BRANCH  59  73
ATOM     73  C   UNL A   1      36.148  33.314  30.413  1.00  0.00     0.057 A 
ATOM     74  C   UNL A   1      34.791  33.149  30.728  1.00  0.00     0.134 A 
ATOM     75  C   UNL A   1      36.461  34.110  29.304  1.00  0.00     0.134 A 
ATOM     76  F   UNL A   1      34.424  32.388  31.769  1.00  0.00    -0.206 F 
ATOM     77  C   UNL A   1      33.786  33.733  29.955  1.00  0.00     0.040 A 
ATOM     78  C   UNL A   1      35.465  34.719  28.538  1.00  0.00     0.040 A 
ATOM     79  F   UNL A   1      37.739  34.312  28.950  1.00  0.00    -0.206 F 
ATOM     80  C   UNL A   1      34.123  34.525  28.860  1.00  0.00     0.006 A 
ENDBRANCH  59  73
BRANCH  60  81
ATOM     81  C   UNL A   1      43.606  28.978  35.425  1.00  0.00     0.057 A 
ATOM     82  C   UNL A   1      43.373  27.976  36.375  1.00  0.00     0.134 A 
ATOM     83  C   UNL A   1      44.932  29.369  35.211  1.00  0.00     0.134 A 
ATOM     84  F   UNL A   1      42.121  27.572  36.636  1.00  0.00    -0.206 F 
ATOM     85  C   UNL A   1      44.416  27.396  37.096  1.00  0.00     0.040 A 
ATOM     86  C   UNL A   1      45.988  28.783  35.910  1.00  0.00     0.040 A 
ATOM     87  F   UNL A   1      45.220  30.321  34.310  1.00  0.00    -0.206 F 
ATOM     88  C   UNL A   1      45.730  27.798  36.862  1.00  0.00     0.006 A 
ENDBRANCH  60  81
BRANCH  72  89
ATOM     89  C   UNL A   1      39.552  34.495  36.657  1.00  0.00     0.057 A 
ATOM     90  C   UNL A   1      38.864  34.201  37.841  1.00  0.00     0.134 A 
ATOM     91  C   UNL A   1      40.219  35.724  36.583  1.00  0.00     0.134 A 
ATOM     92  F   UNL A   1      38.192  33.047  37.968  1.00  0.00    -0.206 F 
ATOM     93  C   UNL A   1      38.827  35.103  38.905  1.00  0.00     0.040 A 
ATOM     94  C   UNL A   1      40.210  36.625  37.649  1.00  0.00     0.040 A 
ATOM     95  F   UNL A   1      40.903  36.062  35.479  1.00  0.00    -0.206 F 
ATOM     96  C   UNL A   1      39.508  36.316  38.812  1.00  0.00     0.006 A 
ENDBRANCH  72  89
ENDBRANCH  46  47
ENDBRANCH  38  41
ENDBRANCH  36  37
ENDBRANCH  35  36
ENDBRANCH   1  35
TORSDOF 15
ENDMDL
