MODEL 1
REMARK VINA RESULT:     -11.3      0.000      0.000
REMARK SMILES Cc1ccc(S(=O)(=O)Nc2ccc(C(=O)CCC(=O)NCCCCNC(=O)c3ccc(-c4c5nc(c(-c6c(F)cccc6F)c6ccc([nH]6)c(-c6c(F)cccc6F)c6nc(c(-c7c(F)cccc7F)c7ccc4[nH]7)C=C6)C=C5)cc3)cc2)c(C)c1
REMARK SMILES IDX 18 1 19 2 20 3 17 5 16 6 14 7 15 8 13 9 10 10 11 11 83 12
REMARK SMILES IDX 12 13 82 14 9 15 6 17 7 18 8 19 5 20 1 21 2 22 3 23 86 24
REMARK SMILES IDX 4 25 84 26 85 27 21 28 22 29 23 30 24 31 25 32 26 33 27 35
REMARK SMILES IDX 28 36 29 37 81 38 30 39 80 40 31 41 32 42 33 43 74 44 34 45
REMARK SMILES IDX 79 46 73 47 75 48 35 49 78 50 72 51 71 52 36 54 62 55 45 56
REMARK SMILES IDX 61 57 46 58 49 59 60 60 76 61 47 62 48 63 59 65 77 66 50 67
REMARK SMILES IDX 37 68 38 69 43 70 39 71 40 72 42 73 44 74 41 75 63 76 64 77
REMARK SMILES IDX 69 78 65 79 66 80 68 81 70 82 67 83 51 84 52 85 57 86 53 87
REMARK SMILES IDX 54 88 56 89 58 90 55 91
REMARK H PARENT 20 4 9 16 25 34 75 53 49 64
REMARK Flexibility Score: inf
ROOT
ATOM      1  C   UNL A   1      35.174  22.352  26.066  1.00  0.00     0.220 C 
ATOM      2  O   UNL A   1      34.420  22.726  26.964  1.00  0.00    -0.275 OA
ATOM      3  N   UNL A   1      36.089  23.228  25.583  1.00  0.00    -0.356 N 
ATOM      4  H   UNL A   1      35.855  24.175  25.711  1.00  0.00     0.163 HD
ENDROOT
BRANCH   1   5
ATOM      5  C   UNL A   1      34.992  21.019  25.401  1.00  0.00     0.108 C 
BRANCH   5   6
ATOM      6  C   UNL A   1      33.962  20.207  26.192  1.00  0.00     0.091 C 
BRANCH   6   7
ATOM      7  C   UNL A   1      32.686  19.937  25.406  1.00  0.00     0.163 C 
ATOM      8  O   UNL A   1      32.222  18.794  25.375  1.00  0.00    -0.294 OA
BRANCH   7   9
ATOM      9  C   UNL A   1      32.047  21.001  24.550  1.00  0.00     0.018 A 
ATOM     10  C   UNL A   1      31.733  23.290  22.931  1.00  0.00     0.049 A 
ATOM     11  C   UNL A   1      32.074  22.057  22.363  1.00  0.00     0.027 A 
ATOM     12  C   UNL A   1      31.328  23.311  24.264  1.00  0.00     0.027 A 
ATOM     13  C   UNL A   1      32.236  20.918  23.166  1.00  0.00     0.014 A 
ATOM     14  C   UNL A   1      31.460  22.160  25.066  1.00  0.00     0.014 A 
BRANCH  10  15
ATOM     15  N   UNL A   1      32.162  24.451  22.214  1.00  0.00    -0.280 N 
ATOM     16  H   UNL A   1      31.630  24.695  21.422  1.00  0.00     0.180 HD
BRANCH  15  17
ATOM     17  S   UNL A   1      33.464  25.444  22.569  1.00  0.00     0.262 S 
ATOM     18  O   UNL A   1      33.701  26.289  21.413  1.00  0.00    -0.201 OA
ATOM     19  O   UNL A   1      34.473  24.549  23.082  1.00  0.00    -0.201 OA
BRANCH  17  20
ATOM     20  C   UNL A   1      33.027  26.512  23.938  1.00  0.00     0.090 A 
ATOM     21  C   UNL A   1      31.557  28.177  27.628  1.00  0.00     0.044 C 
ATOM     22  C   UNL A   1      32.099  27.705  26.310  1.00  0.00    -0.051 A 
ATOM     23  C   UNL A   1      33.418  27.272  26.205  1.00  0.00     0.005 A 
ATOM     24  C   UNL A   1      31.315  27.722  25.158  1.00  0.00     0.008 A 
ATOM     25  C   UNL A   1      33.872  26.641  25.039  1.00  0.00     0.023 A 
ATOM     26  C   UNL A   1      31.782  27.168  23.949  1.00  0.00    -0.030 A 
ATOM     27  C   UNL A   1      30.961  27.423  22.715  1.00  0.00     0.046 C 
ENDBRANCH  17  20
ENDBRANCH  15  17
ENDBRANCH  10  15
ENDBRANCH   7   9
ENDBRANCH   6   7
ENDBRANCH   5   6
ENDBRANCH   1   5
BRANCH   3  28
ATOM     28  C   UNL A   1      37.359  23.006  24.908  1.00  0.00     0.116 C 
BRANCH  28  29
ATOM     29  C   UNL A   1      38.519  22.609  25.823  1.00  0.00     0.023 C 
BRANCH  29  30
ATOM     30  C   UNL A   1      38.540  21.132  26.210  1.00  0.00     0.023 C 
BRANCH  30  31
ATOM     31  C   UNL A   1      38.924  20.123  25.133  1.00  0.00     0.116 C 
BRANCH  31  32
ATOM     32  N   UNL A   1      39.959  19.225  25.610  1.00  0.00    -0.352 N 
ATOM     33  C   UNL A   1      41.236  19.467  26.057  1.00  0.00     0.251 C 
ATOM     34  H   UNL A   1      39.701  18.275  25.613  1.00  0.00     0.163 HD
ATOM     35  O   UNL A   1      42.023  18.520  26.079  1.00  0.00    -0.269 OA
BRANCH  33  36
ATOM     36  C   UNL A   1      41.707  20.804  26.524  1.00  0.00     0.039 A 
ATOM     37  C   UNL A   1      41.591  21.099  27.893  1.00  0.00     0.014 A 
ATOM     38  C   UNL A   1      42.136  21.814  25.662  1.00  0.00     0.014 A 
ATOM     39  C   UNL A   1      41.895  22.377  28.383  1.00  0.00     0.010 A 
ATOM     40  C   UNL A   1      42.519  23.065  26.164  1.00  0.00     0.010 A 
ATOM     41  C   UNL A   1      42.374  23.376  27.524  1.00  0.00    -0.014 A 
BRANCH  41  42
ATOM     42  C   UNL A   1      42.673  24.753  28.019  1.00  0.00     0.031 A 
ATOM     43  C   UNL A   1      44.082  25.137  28.406  1.00  0.00     0.074 A 
ATOM     44  C   UNL A   1      41.681  25.655  28.160  1.00  0.00     0.049 A 
ATOM     45  N   UNL A   1      44.527  26.255  28.928  1.00  0.00    -0.248 NA
ATOM     46  C   UNL A   1      45.129  24.124  28.196  1.00  0.00     0.031 C 
ATOM     47  C   UNL A   1      40.271  25.422  27.846  1.00  0.00     0.029 A 
ATOM     48  N   UNL A   1      41.706  26.952  28.616  1.00  0.00    -0.354 N 
ATOM     49  C   UNL A   1      45.889  26.067  29.135  1.00  0.00     0.074 A 
ATOM     50  C   UNL A   1      46.194  24.716  28.715  1.00  0.00     0.031 C 
ATOM     51  C   UNL A   1      39.571  26.538  28.104  1.00  0.00     0.029 A 
ATOM     52  C   UNL A   1      40.470  27.553  28.642  1.00  0.00     0.049 A 
ATOM     53  H   UNL A   1      42.532  27.409  28.898  1.00  0.00     0.167 HD
ATOM     54  C   UNL A   1      46.807  26.942  29.614  1.00  0.00     0.037 A 
ATOM     55  C   UNL A   1      40.098  28.776  29.069  1.00  0.00     0.037 A 
ATOM     56  C   UNL A   1      46.516  28.300  29.995  1.00  0.00     0.049 A 
ATOM     57  C   UNL A   1      41.135  29.719  29.615  1.00  0.00     0.074 A 
ATOM     58  C   UNL A   1      47.395  29.282  30.421  1.00  0.00     0.029 A 
ATOM     59  N   UNL A   1      45.253  28.867  29.998  1.00  0.00    -0.354 N 
ATOM     60  N   UNL A   1      42.429  29.549  29.738  1.00  0.00    -0.248 NA
ATOM     61  C   UNL A   1      40.659  31.032  30.077  1.00  0.00     0.031 C 
ATOM     62  C   UNL A   1      46.657  30.426  30.732  1.00  0.00     0.029 A 
ATOM     63  C   UNL A   1      45.326  30.177  30.445  1.00  0.00     0.049 A 
ATOM     64  H   UNL A   1      44.426  28.408  29.724  1.00  0.00     0.167 HD
ATOM     65  C   UNL A   1      42.923  30.739  30.256  1.00  0.00     0.074 A 
ATOM     66  C   UNL A   1      41.794  31.631  30.410  1.00  0.00     0.031 C 
ATOM     67  C   UNL A   1      44.199  31.064  30.576  1.00  0.00     0.037 A 
BRANCH  54  68
ATOM     68  C   UNL A   1      48.226  26.465  29.761  1.00  0.00     0.057 A 
ATOM     69  C   UNL A   1      49.192  26.697  28.774  1.00  0.00     0.134 A 
ATOM     70  C   UNL A   1      48.646  25.829  30.938  1.00  0.00     0.134 A 
ATOM     71  F   UNL A   1      48.857  27.294  27.621  1.00  0.00    -0.206 F 
ATOM     72  C   UNL A   1      50.520  26.296  28.943  1.00  0.00     0.040 A 
ATOM     73  C   UNL A   1      49.976  25.450  31.129  1.00  0.00     0.040 A 
ATOM     74  F   UNL A   1      47.775  25.586  31.929  1.00  0.00    -0.206 F 
ATOM     75  C   UNL A   1      50.916  25.679  30.128  1.00  0.00     0.006 A 
ENDBRANCH  54  68
BRANCH  55  76
ATOM     76  C   UNL A   1      38.673  29.196  28.996  1.00  0.00     0.057 A 
ATOM     77  C   UNL A   1      37.842  29.129  30.121  1.00  0.00     0.134 A 
ATOM     78  C   UNL A   1      38.096  29.630  27.796  1.00  0.00     0.134 A 
ATOM     79  F   UNL A   1      38.328  28.699  31.294  1.00  0.00    -0.206 F 
ATOM     80  C   UNL A   1      36.485  29.450  30.050  1.00  0.00     0.040 A 
ATOM     81  C   UNL A   1      36.748  29.984  27.718  1.00  0.00     0.040 A 
ATOM     82  F   UNL A   1      38.837  29.721  26.682  1.00  0.00    -0.206 F 
ATOM     83  C   UNL A   1      35.935  29.882  28.845  1.00  0.00     0.006 A 
ENDBRANCH  55  76
BRANCH  67  84
ATOM     84  C   UNL A   1      44.454  32.458  31.072  1.00  0.00     0.057 A 
ATOM     85  C   UNL A   1      44.452  32.774  32.436  1.00  0.00     0.134 A 
ATOM     86  C   UNL A   1      44.744  33.492  30.170  1.00  0.00     0.134 A 
ATOM     87  F   UNL A   1      44.170  31.835  33.352  1.00  0.00    -0.206 F 
ATOM     88  C   UNL A   1      44.702  34.072  32.884  1.00  0.00     0.040 A 
ATOM     89  C   UNL A   1      45.024  34.786  30.607  1.00  0.00     0.040 A 
ATOM     90  F   UNL A   1      44.772  33.255  28.850  1.00  0.00    -0.206 F 
ATOM     91  C   UNL A   1      44.997  35.081  31.969  1.00  0.00     0.006 A 
ENDBRANCH  67  84
ENDBRANCH  41  42
ENDBRANCH  33  36
ENDBRANCH  31  32
ENDBRANCH  30  31
ENDBRANCH  29  30
ENDBRANCH  28  29
ENDBRANCH   3  28
TORSDOF 17
ENDMDL
MODEL 2
REMARK VINA RESULT:     -11.3      2.819      4.089
REMARK SMILES Cc1ccc(S(=O)(=O)Nc2ccc(C(=O)CCC(=O)NCCCCNC(=O)c3ccc(-c4c5nc(c(-c6c(F)cccc6F)c6ccc([nH]6)c(-c6c(F)cccc6F)c6nc(c(-c7c(F)cccc7F)c7ccc4[nH]7)C=C6)C=C5)cc3)cc2)c(C)c1
REMARK SMILES IDX 18 1 19 2 20 3 17 5 16 6 14 7 15 8 13 9 10 10 11 11 83 12
REMARK SMILES IDX 12 13 82 14 9 15 6 17 7 18 8 19 5 20 1 21 2 22 3 23 86 24
REMARK SMILES IDX 4 25 84 26 85 27 21 28 22 29 23 30 24 31 25 32 26 33 27 35
REMARK SMILES IDX 28 36 29 37 81 38 30 39 80 40 31 41 32 42 33 43 74 44 34 45
REMARK SMILES IDX 79 46 73 47 75 48 35 49 78 50 72 51 71 52 36 54 62 55 45 56
REMARK SMILES IDX 61 57 46 58 49 59 60 60 76 61 47 62 48 63 59 65 77 66 50 67
REMARK SMILES IDX 37 68 38 69 43 70 39 71 40 72 42 73 44 74 41 75 63 76 64 77
REMARK SMILES IDX 69 78 65 79 66 80 68 81 70 82 67 83 51 84 52 85 57 86 53 87
REMARK SMILES IDX 54 88 56 89 58 90 55 91
REMARK H PARENT 20 4 9 16 25 34 75 53 49 64
REMARK Flexibility Score: inf
ROOT
ATOM      1  C   UNL A   1      38.885  23.491  26.389  1.00  0.00     0.220 C 
ATOM      2  O   UNL A   1      38.903  24.693  26.659  1.00  0.00    -0.275 OA
ATOM      3  N   UNL A   1      40.058  22.812  26.381  1.00  0.00    -0.356 N 
ATOM      4  H   UNL A   1      40.853  23.373  26.227  1.00  0.00     0.163 HD
ENDROOT
BRANCH   1   5
ATOM      5  C   UNL A   1      37.628  22.815  25.924  1.00  0.00     0.108 C 
BRANCH   5   6
ATOM      6  C   UNL A   1      36.993  23.659  24.814  1.00  0.00     0.091 C 
BRANCH   6   7
ATOM      7  C   UNL A   1      36.273  22.822  23.767  1.00  0.00     0.163 C 
ATOM      8  O   UNL A   1      36.710  22.786  22.614  1.00  0.00    -0.294 OA
BRANCH   7   9
ATOM      9  C   UNL A   1      34.961  22.143  24.065  1.00  0.00     0.018 A 
ATOM     10  C   UNL A   1      32.379  21.664  25.099  1.00  0.00     0.049 A 
ATOM     11  C   UNL A   1      32.546  22.345  23.887  1.00  0.00     0.027 A 
ATOM     12  C   UNL A   1      33.488  21.032  25.657  1.00  0.00     0.027 A 
ATOM     13  C   UNL A   1      33.828  22.589  23.373  1.00  0.00     0.014 A 
ATOM     14  C   UNL A   1      34.774  21.250  25.124  1.00  0.00     0.014 A 
BRANCH  10  15
ATOM     15  N   UNL A   1      31.188  21.968  25.830  1.00  0.00    -0.280 N 
ATOM     16  H   UNL A   1      30.414  21.382  25.666  1.00  0.00     0.180 HD
BRANCH  15  17
ATOM     17  S   UNL A   1      30.960  23.208  26.935  1.00  0.00     0.262 S 
ATOM     18  O   UNL A   1      32.081  23.190  27.855  1.00  0.00    -0.201 OA
ATOM     19  O   UNL A   1      29.597  23.045  27.385  1.00  0.00    -0.201 OA
BRANCH  17  20
ATOM     20  C   UNL A   1      30.996  24.774  26.069  1.00  0.00     0.090 A 
ATOM     21  C   UNL A   1      30.994  27.915  23.122  1.00  0.00     0.044 C 
ATOM     22  C   UNL A   1      31.015  26.903  24.230  1.00  0.00    -0.051 A 
ATOM     23  C   UNL A   1      29.835  26.524  24.862  1.00  0.00     0.005 A 
ATOM     24  C   UNL A   1      32.213  26.345  24.677  1.00  0.00     0.008 A 
ATOM     25  C   UNL A   1      29.814  25.439  25.748  1.00  0.00     0.023 A 
ATOM     26  C   UNL A   1      32.223  25.308  25.631  1.00  0.00    -0.030 A 
ATOM     27  C   UNL A   1      33.556  24.921  26.209  1.00  0.00     0.046 C 
ENDBRANCH  17  20
ENDBRANCH  15  17
ENDBRANCH  10  15
ENDBRANCH   7   9
ENDBRANCH   6   7
ENDBRANCH   5   6
ENDBRANCH   1   5
BRANCH   3  28
ATOM     28  C   UNL A   1      40.344  21.397  26.561  1.00  0.00     0.116 C 
BRANCH  28  29
ATOM     29  C   UNL A   1      41.793  20.988  26.289  1.00  0.00     0.023 C 
BRANCH  29  30
ATOM     30  C   UNL A   1      41.954  19.578  25.723  1.00  0.00     0.023 C 
BRANCH  30  31
ATOM     31  C   UNL A   1      43.188  18.785  26.139  1.00  0.00     0.116 C 
BRANCH  31  32
ATOM     32  N   UNL A   1      44.064  18.558  25.006  1.00  0.00    -0.352 N 
ATOM     33  C   UNL A   1      44.723  19.435  24.177  1.00  0.00     0.251 C 
ATOM     34  H   UNL A   1      44.213  17.609  24.792  1.00  0.00     0.163 HD
ATOM     35  O   UNL A   1      45.123  19.007  23.094  1.00  0.00    -0.269 OA
BRANCH  33  36
ATOM     36  C   UNL A   1      44.988  20.861  24.528  1.00  0.00     0.039 A 
ATOM     37  C   UNL A   1      45.550  21.134  25.786  1.00  0.00     0.014 A 
ATOM     38  C   UNL A   1      44.593  21.936  23.730  1.00  0.00     0.014 A 
ATOM     39  C   UNL A   1      45.709  22.453  26.234  1.00  0.00     0.010 A 
ATOM     40  C   UNL A   1      44.830  23.255  24.142  1.00  0.00     0.010 A 
ATOM     41  C   UNL A   1      45.360  23.533  25.411  1.00  0.00    -0.014 A 
BRANCH  41  42
ATOM     42  C   UNL A   1      45.491  24.946  25.880  1.00  0.00     0.031 A 
ATOM     43  C   UNL A   1      46.831  25.643  25.840  1.00  0.00     0.074 A 
ATOM     44  C   UNL A   1      44.422  25.599  26.378  1.00  0.00     0.049 A 
ATOM     45  N   UNL A   1      47.161  26.837  26.271  1.00  0.00    -0.248 NA
ATOM     46  C   UNL A   1      47.953  24.894  25.251  1.00  0.00     0.031 C 
ATOM     47  C   UNL A   1      43.072  25.048  26.498  1.00  0.00     0.029 A 
ATOM     48  N   UNL A   1      44.305  26.870  26.889  1.00  0.00    -0.354 N 
ATOM     49  C   UNL A   1      48.526  26.965  26.037  1.00  0.00     0.074 A 
ATOM     50  C   UNL A   1      48.971  25.717  25.456  1.00  0.00     0.031 C 
ATOM     51  C   UNL A   1      42.262  25.976  27.031  1.00  0.00     0.029 A 
ATOM     52  C   UNL A   1      43.040  27.174  27.333  1.00  0.00     0.049 A 
ATOM     53  H   UNL A   1      45.057  27.504  26.932  1.00  0.00     0.167 HD
ATOM     54  C   UNL A   1      49.333  28.029  26.268  1.00  0.00     0.037 A 
ATOM     55  C   UNL A   1      42.562  28.282  27.933  1.00  0.00     0.037 A 
ATOM     56  C   UNL A   1      48.888  29.288  26.808  1.00  0.00     0.049 A 
ATOM     57  C   UNL A   1      43.487  29.440  28.195  1.00  0.00     0.074 A 
ATOM     58  C   UNL A   1      49.619  30.447  27.007  1.00  0.00     0.029 A 
ATOM     59  N   UNL A   1      47.597  29.552  27.237  1.00  0.00    -0.354 N 
ATOM     60  N   UNL A   1      44.758  29.570  27.902  1.00  0.00    -0.248 NA
ATOM     61  C   UNL A   1      42.905  30.613  28.866  1.00  0.00     0.031 C 
ATOM     62  C   UNL A   1      48.785  31.395  27.604  1.00  0.00     0.029 A 
ATOM     63  C   UNL A   1      47.520  30.846  27.725  1.00  0.00     0.049 A 
ATOM     64  H   UNL A   1      46.848  28.914  27.200  1.00  0.00     0.167 HD
ATOM     65  C   UNL A   1      45.117  30.845  28.321  1.00  0.00     0.074 A 
ATOM     66  C   UNL A   1      43.928  31.456  28.873  1.00  0.00     0.031 C 
ATOM     67  C   UNL A   1      46.326  31.454  28.254  1.00  0.00     0.037 A 
BRANCH  54  68
ATOM     68  C   UNL A   1      50.794  27.890  25.939  1.00  0.00     0.057 A 
ATOM     69  C   UNL A   1      51.744  27.552  26.912  1.00  0.00     0.134 A 
ATOM     70  C   UNL A   1      51.244  28.025  24.619  1.00  0.00     0.134 A 
ATOM     71  F   UNL A   1      51.383  27.414  28.196  1.00  0.00    -0.206 F 
ATOM     72  C   UNL A   1      53.091  27.373  26.587  1.00  0.00     0.040 A 
ATOM     73  C   UNL A   1      52.583  27.821  24.278  1.00  0.00     0.040 A 
ATOM     74  F   UNL A   1      50.387  28.336  23.635  1.00  0.00    -0.206 F 
ATOM     75  C   UNL A   1      53.511  27.499  25.264  1.00  0.00     0.006 A 
ENDBRANCH  54  68
BRANCH  55  76
ATOM     76  C   UNL A   1      41.132  28.365  28.329  1.00  0.00     0.057 A 
ATOM     77  C   UNL A   1      40.711  27.963  29.603  1.00  0.00     0.134 A 
ATOM     78  C   UNL A   1      40.147  28.804  27.436  1.00  0.00     0.134 A 
ATOM     79  F   UNL A   1      41.602  27.510  30.497  1.00  0.00    -0.206 F 
ATOM     80  C   UNL A   1      39.362  27.966  29.964  1.00  0.00     0.040 A 
ATOM     81  C   UNL A   1      38.798  28.842  27.794  1.00  0.00     0.040 A 
ATOM     82  F   UNL A   1      40.483  29.208  26.202  1.00  0.00    -0.206 F 
ATOM     83  C   UNL A   1      38.401  28.410  29.058  1.00  0.00     0.006 A 
ENDBRANCH  55  76
BRANCH  67  84
ATOM     84  C   UNL A   1      46.413  32.873  28.738  1.00  0.00     0.057 A 
ATOM     85  C   UNL A   1      46.187  33.963  27.890  1.00  0.00     0.134 A 
ATOM     86  C   UNL A   1      46.693  33.148  30.084  1.00  0.00     0.134 A 
ATOM     87  F   UNL A   1      45.926  33.771  26.588  1.00  0.00    -0.206 F 
ATOM     88  C   UNL A   1      46.261  35.277  28.356  1.00  0.00     0.040 A 
ATOM     89  C   UNL A   1      46.740  34.456  30.568  1.00  0.00     0.040 A 
ATOM     90  F   UNL A   1      46.911  32.149  30.953  1.00  0.00    -0.206 F 
ATOM     91  C   UNL A   1      46.530  35.526  29.701  1.00  0.00     0.006 A 
ENDBRANCH  67  84
ENDBRANCH  41  42
ENDBRANCH  33  36
ENDBRANCH  31  32
ENDBRANCH  30  31
ENDBRANCH  29  30
ENDBRANCH  28  29
ENDBRANCH   3  28
TORSDOF 17
ENDMDL
MODEL 3
REMARK VINA RESULT:     -11.2      0.609      6.021
REMARK SMILES Cc1ccc(S(=O)(=O)Nc2ccc(C(=O)CCC(=O)NCCCCNC(=O)c3ccc(-c4c5nc(c(-c6c(F)cccc6F)c6ccc([nH]6)c(-c6c(F)cccc6F)c6nc(c(-c7c(F)cccc7F)c7ccc4[nH]7)C=C6)C=C5)cc3)cc2)c(C)c1
REMARK SMILES IDX 18 1 19 2 20 3 17 5 16 6 14 7 15 8 13 9 10 10 11 11 83 12
REMARK SMILES IDX 12 13 82 14 9 15 6 17 7 18 8 19 5 20 1 21 2 22 3 23 86 24
REMARK SMILES IDX 4 25 84 26 85 27 21 28 22 29 23 30 24 31 25 32 26 33 27 35
REMARK SMILES IDX 28 36 29 37 81 38 30 39 80 40 31 41 32 42 33 43 74 44 34 45
REMARK SMILES IDX 79 46 73 47 75 48 35 49 78 50 72 51 71 52 36 54 62 55 45 56
REMARK SMILES IDX 61 57 46 58 49 59 60 60 76 61 47 62 48 63 59 65 77 66 50 67
REMARK SMILES IDX 37 68 38 69 43 70 39 71 40 72 42 73 44 74 41 75 63 76 64 77
REMARK SMILES IDX 69 78 65 79 66 80 68 81 70 82 67 83 51 84 52 85 57 86 53 87
REMARK SMILES IDX 54 88 56 89 58 90 55 91
REMARK H PARENT 20 4 9 16 25 34 75 53 49 64
REMARK Flexibility Score: inf
ROOT
ATOM      1  C   UNL A   1      35.387  21.809  26.166  1.00  0.00     0.220 C 
ATOM      2  O   UNL A   1      34.654  21.799  27.156  1.00  0.00    -0.275 OA
ATOM      3  N   UNL A   1      36.448  22.653  26.155  1.00  0.00    -0.356 N 
ATOM      4  H   UNL A   1      36.354  23.434  26.746  1.00  0.00     0.163 HD
ENDROOT
BRANCH   1   5
ATOM      5  C   UNL A   1      35.039  21.031  24.931  1.00  0.00     0.108 C 
BRANCH   5   6
ATOM      6  C   UNL A   1      34.418  19.693  25.347  1.00  0.00     0.091 C 
BRANCH   6   7
ATOM      7  C   UNL A   1      32.930  19.606  25.039  1.00  0.00     0.163 C 
ATOM      8  O   UNL A   1      32.330  18.546  25.238  1.00  0.00    -0.294 OA
BRANCH   7   9
ATOM      9  C   UNL A   1      32.196  20.738  24.367  1.00  0.00     0.018 A 
ATOM     10  C   UNL A   1      31.698  23.137  22.967  1.00  0.00     0.049 A 
ATOM     11  C   UNL A   1      31.902  21.937  22.275  1.00  0.00     0.027 A 
ATOM     12  C   UNL A   1      31.517  23.078  24.347  1.00  0.00     0.027 A 
ATOM     13  C   UNL A   1      32.154  20.744  22.968  1.00  0.00     0.014 A 
ATOM     14  C   UNL A   1      31.740  21.873  25.043  1.00  0.00     0.014 A 
BRANCH  10  15
ATOM     15  N   UNL A   1      32.043  24.333  22.262  1.00  0.00    -0.280 N 
ATOM     16  H   UNL A   1      31.434  24.602  21.536  1.00  0.00     0.180 HD
BRANCH  15  17
ATOM     17  S   UNL A   1      33.363  25.330  22.531  1.00  0.00     0.262 S 
ATOM     18  O   UNL A   1      33.545  26.149  21.348  1.00  0.00    -0.201 OA
ATOM     19  O   UNL A   1      34.395  24.442  23.013  1.00  0.00    -0.201 OA
BRANCH  17  20
ATOM     20  C   UNL A   1      32.996  26.427  23.897  1.00  0.00     0.090 A 
ATOM     21  C   UNL A   1      31.703  28.176  27.614  1.00  0.00     0.044 C 
ATOM     22  C   UNL A   1      32.183  27.674  26.284  1.00  0.00    -0.051 A 
ATOM     23  C   UNL A   1      33.491  27.225  26.130  1.00  0.00     0.005 A 
ATOM     24  C   UNL A   1      31.350  27.678  25.166  1.00  0.00     0.008 A 
ATOM     25  C   UNL A   1      33.889  26.567  24.959  1.00  0.00     0.023 A 
ATOM     26  C   UNL A   1      31.759  27.097  23.949  1.00  0.00    -0.030 A 
ATOM     27  C   UNL A   1      30.889  27.338  22.747  1.00  0.00     0.046 C 
ENDBRANCH  17  20
ENDBRANCH  15  17
ENDBRANCH  10  15
ENDBRANCH   7   9
ENDBRANCH   6   7
ENDBRANCH   5   6
ENDBRANCH   1   5
BRANCH   3  28
ATOM     28  C   UNL A   1      37.702  22.601  25.419  1.00  0.00     0.116 C 
BRANCH  28  29
ATOM     29  C   UNL A   1      38.819  21.804  26.095  1.00  0.00     0.023 C 
BRANCH  29  30
ATOM     30  C   UNL A   1      39.256  20.557  25.329  1.00  0.00     0.023 C 
BRANCH  30  31
ATOM     31  C   UNL A   1      39.706  19.348  26.142  1.00  0.00     0.116 C 
BRANCH  31  32
ATOM     32  N   UNL A   1      41.085  19.009  25.845  1.00  0.00    -0.352 N 
ATOM     33  C   UNL A   1      42.220  19.782  25.791  1.00  0.00     0.251 C 
ATOM     34  H   UNL A   1      41.234  18.056  25.645  1.00  0.00     0.163 HD
ATOM     35  O   UNL A   1      43.193  19.328  25.188  1.00  0.00    -0.269 OA
BRANCH  33  36
ATOM     36  C   UNL A   1      42.334  21.125  26.431  1.00  0.00     0.039 A 
ATOM     37  C   UNL A   1      42.640  22.221  25.608  1.00  0.00     0.014 A 
ATOM     38  C   UNL A   1      42.278  21.327  27.811  1.00  0.00     0.014 A 
ATOM     39  C   UNL A   1      42.888  23.488  26.155  1.00  0.00     0.010 A 
ATOM     40  C   UNL A   1      42.442  22.610  28.351  1.00  0.00     0.010 A 
ATOM     41  C   UNL A   1      42.782  23.701  27.537  1.00  0.00    -0.014 A 
BRANCH  41  42
ATOM     42  C   UNL A   1      43.072  25.035  28.145  1.00  0.00     0.031 A 
ATOM     43  C   UNL A   1      41.955  26.022  28.391  1.00  0.00     0.074 A 
ATOM     44  C   UNL A   1      44.338  25.384  28.447  1.00  0.00     0.049 A 
ATOM     45  N   UNL A   1      42.016  27.254  28.838  1.00  0.00    -0.248 NA
ATOM     46  C   UNL A   1      40.588  25.573  28.077  1.00  0.00     0.031 C 
ATOM     47  C   UNL A   1      45.520  24.543  28.247  1.00  0.00     0.029 A 
ATOM     48  N   UNL A   1      44.847  26.545  28.977  1.00  0.00    -0.354 N 
ATOM     49  C   UNL A   1      40.710  27.731  28.826  1.00  0.00     0.074 A 
ATOM     50  C   UNL A   1      39.880  26.670  28.298  1.00  0.00     0.031 C 
ATOM     51  C   UNL A   1      46.609  25.208  28.662  1.00  0.00     0.029 A 
ATOM     52  C   UNL A   1      46.215  26.538  29.116  1.00  0.00     0.049 A 
ATOM     53  H   UNL A   1      44.285  27.312  29.234  1.00  0.00     0.167 HD
ATOM     54  C   UNL A   1      40.239  28.935  29.234  1.00  0.00     0.037 A 
ATOM     55  C   UNL A   1      47.060  27.497  29.542  1.00  0.00     0.037 A 
ATOM     56  C   UNL A   1      41.055  29.980  29.798  1.00  0.00     0.049 A 
ATOM     57  C   UNL A   1      46.511  28.832  29.969  1.00  0.00     0.074 A 
ATOM     58  C   UNL A   1      40.655  31.204  30.308  1.00  0.00     0.029 A 
ATOM     59  N   UNL A   1      42.433  29.925  29.926  1.00  0.00    -0.354 N 
ATOM     60  N   UNL A   1      45.267  29.240  30.018  1.00  0.00    -0.248 NA
ATOM     61  C   UNL A   1      47.488  29.840  30.408  1.00  0.00     0.031 C 
ATOM     62  C   UNL A   1      41.796  31.911  30.695  1.00  0.00     0.029 A 
ATOM     63  C   UNL A   1      42.901  31.106  30.481  1.00  0.00     0.049 A 
ATOM     64  H   UNL A   1      42.995  29.161  29.662  1.00  0.00     0.167 HD
ATOM     65  C   UNL A   1      45.309  30.533  30.523  1.00  0.00     0.074 A 
ATOM     66  C   UNL A   1      46.700  30.838  30.782  1.00  0.00     0.031 C 
ATOM     67  C   UNL A   1      44.286  31.392  30.753  1.00  0.00     0.037 A 
BRANCH  54  68
ATOM     68  C   UNL A   1      38.766  29.203  29.088  1.00  0.00     0.057 A 
ATOM     69  C   UNL A   1      37.883  29.101  30.170  1.00  0.00     0.134 A 
ATOM     70  C   UNL A   1      38.240  29.638  27.864  1.00  0.00     0.134 A 
ATOM     71  F   UNL A   1      38.319  28.684  31.367  1.00  0.00    -0.206 F 
ATOM     72  C   UNL A   1      36.525  29.403  30.036  1.00  0.00     0.040 A 
ATOM     73  C   UNL A   1      36.890  29.970  27.725  1.00  0.00     0.040 A 
ATOM     74  F   UNL A   1      39.031  29.769  26.789  1.00  0.00    -0.206 F 
ATOM     75  C   UNL A   1      36.028  29.848  28.812  1.00  0.00     0.006 A 
ENDBRANCH  54  68
BRANCH  55  76
ATOM     76  C   UNL A   1      48.524  27.241  29.596  1.00  0.00     0.057 A 
ATOM     77  C   UNL A   1      49.128  26.749  30.759  1.00  0.00     0.134 A 
ATOM     78  C   UNL A   1      49.358  27.522  28.507  1.00  0.00     0.134 A 
ATOM     79  F   UNL A   1      48.386  26.482  31.844  1.00  0.00    -0.206 F 
ATOM     80  C   UNL A   1      50.510  26.573  30.849  1.00  0.00     0.040 A 
ATOM     81  C   UNL A   1      50.739  27.322  28.572  1.00  0.00     0.040 A 
ATOM     82  F   UNL A   1      48.843  27.992  27.362  1.00  0.00    -0.206 F 
ATOM     83  C   UNL A   1      51.319  26.858  29.750  1.00  0.00     0.006 A 
ENDBRANCH  55  76
BRANCH  67  84
ATOM     84  C   UNL A   1      44.623  32.722  31.363  1.00  0.00     0.057 A 
ATOM     85  C   UNL A   1      44.702  32.906  32.748  1.00  0.00     0.134 A 
ATOM     86  C   UNL A   1      44.908  33.827  30.548  1.00  0.00     0.134 A 
ATOM     87  F   UNL A   1      44.430  31.894  33.587  1.00  0.00    -0.206 F 
ATOM     88  C   UNL A   1      45.027  34.146  33.303  1.00  0.00     0.040 A 
ATOM     89  C   UNL A   1      45.263  35.062  31.089  1.00  0.00     0.040 A 
ATOM     90  F   UNL A   1      44.860  33.717  29.211  1.00  0.00    -0.206 F 
ATOM     91  C   UNL A   1      45.316  35.227  32.471  1.00  0.00     0.006 A 
ENDBRANCH  67  84
ENDBRANCH  41  42
ENDBRANCH  33  36
ENDBRANCH  31  32
ENDBRANCH  30  31
ENDBRANCH  29  30
ENDBRANCH  28  29
ENDBRANCH   3  28
TORSDOF 17
ENDMDL
