MODEL 1
REMARK VINA RESULT:     -12.3      0.000      0.000
REMARK SMILES C[C@H]1CCCC[C@H]1[N@H+]1[C@@H](C(=O)NCCCCNC(=O)c2ccc(-c3c4nc(c(-c5c(F)cccc5F)c5ccc([nH]5)c(-c5c(F)cccc5F)c5nc(c(-c6c(F)cccc6F)c6ccc3[nH]6)C=C5)C=C4)cc2)CC[C@@H]2CCCC[C@@H]21
REMARK SMILES IDX 15 1 14 2 13 3 12 4 10 5 11 6 9 8 8 9 81 10 74 12 76 13
REMARK SMILES IDX 80 14 75 15 77 16 79 17 78 18 7 19 1 20 2 21 3 22 4 23 6 24
REMARK SMILES IDX 5 25 16 26 17 27 18 28 19 30 20 31 21 32 73 33 22 34 72 35
REMARK SMILES IDX 23 36 24 37 25 38 66 39 26 40 71 41 65 42 67 43 27 44 70 45
REMARK SMILES IDX 64 46 63 47 28 49 54 50 37 51 53 52 38 53 41 54 52 55 68 56
REMARK SMILES IDX 39 57 40 58 51 60 69 61 42 62 29 63 30 64 35 65 31 66 32 67
REMARK SMILES IDX 34 68 36 69 33 70 55 71 56 72 61 73 57 74 58 75 60 76 62 77
REMARK SMILES IDX 59 78 43 79 44 80 49 81 45 82 46 83 48 84 50 85 47 86
REMARK H PARENT 12 7 8 11 17 29 67 48 41 59
REMARK Flexibility Score: inf
ROOT
ATOM      1  C   UNL A   1      33.113  28.771  25.666  1.00  0.00     0.023 C 
ENDROOT
BRANCH   1   2
ATOM      2  C   UNL A   1      33.942  28.195  24.520  1.00  0.00     0.023 C 
BRANCH   2   3
ATOM      3  C   UNL A   1      33.350  28.401  23.130  1.00  0.00     0.116 C 
BRANCH   3   4
ATOM      4  N   UNL A   1      33.708  27.369  22.164  1.00  0.00    -0.351 N 
ATOM      5  C   UNL A   1      33.142  26.131  21.943  1.00  0.00     0.278 C 
ATOM      6  O   UNL A   1      33.404  25.559  20.882  1.00  0.00    -0.268 OA
ATOM      7  H   UNL A   1      34.470  27.589  21.582  1.00  0.00     0.163 HD
BRANCH   5   8
ATOM      8  C   UNL A   1      32.143  25.565  22.940  1.00  0.00     0.274 C 
ATOM      9  N   UNL A   1      32.352  24.234  23.587  1.00  0.00    -0.319 N 
ATOM     10  C   UNL A   1      31.129  23.842  24.371  1.00  0.00     0.188 C 
ATOM     11  H   UNL A   1      33.151  24.454  24.182  1.00  0.00     0.349 HD
ATOM     12  C   UNL A   1      30.687  25.834  22.549  1.00  0.00     0.076 C 
ATOM     13  C   UNL A   1      30.382  25.072  24.964  1.00  0.00     0.048 C 
ATOM     14  C   UNL A   1      31.313  22.826  25.527  1.00  0.00     0.065 C 
ATOM     15  C   UNL A   1      29.868  25.992  23.837  1.00  0.00     0.016 C 
ATOM     16  C   UNL A   1      31.235  25.792  26.045  1.00  0.00     0.010 C 
ATOM     17  C   UNL A   1      31.556  23.455  26.903  1.00  0.00     0.006 C 
ATOM     18  C   UNL A   1      32.177  24.835  26.788  1.00  0.00     0.001 C 
BRANCH   9  19
ATOM     19  C   UNL A   1      33.092  23.108  22.951  1.00  0.00     0.187 C 
ATOM     20  C   UNL A   1      35.606  23.562  23.618  1.00  0.00     0.014 C 
ATOM     21  C   UNL A   1      34.456  22.571  23.472  1.00  0.00     0.044 C 
ATOM     22  C   UNL A   1      34.264  21.742  24.733  1.00  0.00     0.009 C 
ATOM     23  C   UNL A   1      33.458  20.482  24.441  1.00  0.00     0.001 C 
ATOM     24  C   UNL A   1      32.262  21.858  22.549  1.00  0.00     0.065 C 
ATOM     25  C   UNL A   1      32.294  20.625  23.460  1.00  0.00     0.006 C 
ENDBRANCH   9  19
ENDBRANCH   5   8
ENDBRANCH   3   4
ENDBRANCH   2   3
ENDBRANCH   1   2
BRANCH   1  26
ATOM     26  C   UNL A   1      33.819  28.810  27.018  1.00  0.00     0.116 C 
BRANCH  26  27
ATOM     27  N   UNL A   1      33.787  30.125  27.644  1.00  0.00    -0.352 N 
ATOM     28  C   UNL A   1      34.745  30.767  28.388  1.00  0.00     0.251 C 
ATOM     29  H   UNL A   1      32.951  30.628  27.515  1.00  0.00     0.163 HD
ATOM     30  O   UNL A   1      34.477  31.831  28.944  1.00  0.00    -0.269 OA
BRANCH  28  31
ATOM     31  C   UNL A   1      36.089  30.173  28.550  1.00  0.00     0.039 A 
ATOM     32  C   UNL A   1      36.985  30.238  27.480  1.00  0.00     0.014 A 
ATOM     33  C   UNL A   1      36.471  29.558  29.745  1.00  0.00     0.014 A 
ATOM     34  C   UNL A   1      38.286  29.752  27.634  1.00  0.00     0.010 A 
ATOM     35  C   UNL A   1      37.790  29.148  29.923  1.00  0.00     0.010 A 
ATOM     36  C   UNL A   1      38.713  29.243  28.871  1.00  0.00    -0.014 A 
BRANCH  36  37
ATOM     37  C   UNL A   1      40.121  28.818  29.085  1.00  0.00     0.031 A 
ATOM     38  C   UNL A   1      41.117  29.766  29.697  1.00  0.00     0.074 A 
ATOM     39  C   UNL A   1      40.519  27.598  28.672  1.00  0.00     0.049 A 
ATOM     40  N   UNL A   1      42.401  29.603  29.891  1.00  0.00    -0.248 NA
ATOM     41  C   UNL A   1      40.608  31.078  30.127  1.00  0.00     0.031 C 
ATOM     42  C   UNL A   1      39.662  26.600  28.028  1.00  0.00     0.029 A 
ATOM     43  N   UNL A   1      41.750  26.992  28.723  1.00  0.00    -0.354 N 
ATOM     44  C   UNL A   1      42.852  30.788  30.460  1.00  0.00     0.074 A 
ATOM     45  C   UNL A   1      41.717  31.684  30.525  1.00  0.00     0.031 C 
ATOM     46  C   UNL A   1      40.387  25.501  27.764  1.00  0.00     0.029 A 
ATOM     47  C   UNL A   1      41.767  25.730  28.177  1.00  0.00     0.049 A 
ATOM     48  H   UNL A   1      42.546  27.420  29.114  1.00  0.00     0.167 HD
ATOM     49  C   UNL A   1      44.093  31.094  30.910  1.00  0.00     0.037 A 
ATOM     50  C   UNL A   1      42.785  24.863  28.013  1.00  0.00     0.037 A 
ATOM     51  C   UNL A   1      45.218  30.197  30.858  1.00  0.00     0.049 A 
ATOM     52  C   UNL A   1      44.160  25.244  28.491  1.00  0.00     0.074 A 
ATOM     53  C   UNL A   1      46.504  30.404  31.325  1.00  0.00     0.029 A 
ATOM     54  N   UNL A   1      45.192  28.927  30.305  1.00  0.00    -0.354 N 
ATOM     55  N   UNL A   1      44.556  26.345  29.082  1.00  0.00    -0.248 NA
ATOM     56  C   UNL A   1      45.231  24.259  28.281  1.00  0.00     0.031 C 
ATOM     57  C   UNL A   1      47.270  29.278  31.010  1.00  0.00     0.029 A 
ATOM     58  C   UNL A   1      46.447  28.345  30.401  1.00  0.00     0.049 A 
ATOM     59  H   UNL A   1      44.400  28.500  29.904  1.00  0.00     0.167 HD
ATOM     60  C   UNL A   1      45.908  26.169  29.349  1.00  0.00     0.074 A 
ATOM     61  C   UNL A   1      46.260  24.850  28.869  1.00  0.00     0.031 C 
ATOM     62  C   UNL A   1      46.779  27.023  29.938  1.00  0.00     0.037 A 
BRANCH  49  63
ATOM     63  C   UNL A   1      44.301  32.454  31.512  1.00  0.00     0.057 A 
ATOM     64  C   UNL A   1      44.133  32.685  32.884  1.00  0.00     0.134 A 
ATOM     65  C   UNL A   1      44.736  33.528  30.725  1.00  0.00     0.134 A 
ATOM     66  F   UNL A   1      43.707  31.702  33.692  1.00  0.00    -0.206 F 
ATOM     67  C   UNL A   1      44.372  33.940  33.447  1.00  0.00     0.040 A 
ATOM     68  C   UNL A   1      45.005  34.779  31.282  1.00  0.00     0.040 A 
ATOM     69  F   UNL A   1      44.924  33.375  29.405  1.00  0.00    -0.206 F 
ATOM     70  C   UNL A   1      44.820  34.988  32.647  1.00  0.00     0.006 A 
ENDBRANCH  49  63
BRANCH  50  71
ATOM     71  C   UNL A   1      42.554  23.542  27.370  1.00  0.00     0.057 A 
ATOM     72  C   UNL A   1      42.234  22.411  28.131  1.00  0.00     0.134 A 
ATOM     73  C   UNL A   1      42.693  23.366  25.988  1.00  0.00     0.134 A 
ATOM     74  F   UNL A   1      42.106  22.510  29.463  1.00  0.00    -0.206 F 
ATOM     75  C   UNL A   1      42.099  21.150  27.551  1.00  0.00     0.040 A 
ATOM     76  C   UNL A   1      42.529  22.117  25.388  1.00  0.00     0.040 A 
ATOM     77  F   UNL A   1      42.989  24.409  25.198  1.00  0.00    -0.206 F 
ATOM     78  C   UNL A   1      42.244  21.000  26.172  1.00  0.00     0.006 A 
ENDBRANCH  50  71
BRANCH  62  79
ATOM     79  C   UNL A   1      48.187  26.540  30.145  1.00  0.00     0.057 A 
ATOM     80  C   UNL A   1      49.203  26.788  29.214  1.00  0.00     0.134 A 
ATOM     81  C   UNL A   1      48.535  25.848  31.312  1.00  0.00     0.134 A 
ATOM     82  F   UNL A   1      48.935  27.434  28.069  1.00  0.00    -0.206 F 
ATOM     83  C   UNL A   1      50.509  26.341  29.423  1.00  0.00     0.040 A 
ATOM     84  C   UNL A   1      49.842  25.423  31.547  1.00  0.00     0.040 A 
ATOM     85  F   UNL A   1      47.611  25.585  32.250  1.00  0.00    -0.206 F 
ATOM     86  C   UNL A   1      50.832  25.662  30.597  1.00  0.00     0.006 A 
ENDBRANCH  62  79
ENDBRANCH  36  37
ENDBRANCH  28  31
ENDBRANCH  26  27
ENDBRANCH   1  26
TORSDOF 12
ENDMDL
MODEL 2
REMARK VINA RESULT:     -12.0      2.509      7.482
REMARK SMILES C[C@H]1CCCC[C@H]1[N@H+]1[C@@H](C(=O)NCCCCNC(=O)c2ccc(-c3c4nc(c(-c5c(F)cccc5F)c5ccc([nH]5)c(-c5c(F)cccc5F)c5nc(c(-c6c(F)cccc6F)c6ccc3[nH]6)C=C5)C=C4)cc2)CC[C@@H]2CCCC[C@@H]21
REMARK SMILES IDX 15 1 14 2 13 3 12 4 10 5 11 6 9 8 8 9 81 10 74 12 76 13
REMARK SMILES IDX 80 14 75 15 77 16 79 17 78 18 7 19 1 20 2 21 3 22 4 23 6 24
REMARK SMILES IDX 5 25 16 26 17 27 18 28 19 30 20 31 21 32 73 33 22 34 72 35
REMARK SMILES IDX 23 36 24 37 25 38 66 39 26 40 71 41 65 42 67 43 27 44 70 45
REMARK SMILES IDX 64 46 63 47 28 49 54 50 37 51 53 52 38 53 41 54 52 55 68 56
REMARK SMILES IDX 39 57 40 58 51 60 69 61 42 62 29 63 30 64 35 65 31 66 32 67
REMARK SMILES IDX 34 68 36 69 33 70 55 71 56 72 61 73 57 74 58 75 60 76 62 77
REMARK SMILES IDX 59 78 43 79 44 80 49 81 45 82 46 83 48 84 50 85 47 86
REMARK H PARENT 12 7 8 11 17 29 67 48 41 59
REMARK Flexibility Score: inf
ROOT
ATOM      1  C   UNL A   1      37.799  19.745  24.763  1.00  0.00     0.023 C 
ENDROOT
BRANCH   1   2
ATOM      2  C   UNL A   1      36.450  20.418  25.007  1.00  0.00     0.023 C 
BRANCH   2   3
ATOM      3  C   UNL A   1      36.522  21.905  25.337  1.00  0.00     0.116 C 
BRANCH   3   4
ATOM      4  N   UNL A   1      35.757  22.297  26.515  1.00  0.00    -0.351 N 
ATOM      5  C   UNL A   1      34.399  22.478  26.666  1.00  0.00     0.278 C 
ATOM      6  O   UNL A   1      33.946  22.506  27.813  1.00  0.00    -0.268 OA
ATOM      7  H   UNL A   1      36.292  22.457  27.326  1.00  0.00     0.163 HD
BRANCH   5   8
ATOM      8  C   UNL A   1      33.498  22.524  25.441  1.00  0.00     0.274 C 
ATOM      9  N   UNL A   1      32.694  23.738  25.106  1.00  0.00    -0.319 N 
ATOM     10  C   UNL A   1      31.760  23.441  23.965  1.00  0.00     0.188 C 
ATOM     11  H   UNL A   1      33.445  24.378  24.848  1.00  0.00     0.349 HD
ATOM     12  C   UNL A   1      32.755  21.209  25.193  1.00  0.00     0.076 C 
ATOM     13  C   UNL A   1      32.345  22.395  22.973  1.00  0.00     0.048 C 
ATOM     14  C   UNL A   1      31.261  24.639  23.116  1.00  0.00     0.065 C 
ATOM     15  C   UNL A   1      32.571  21.042  23.678  1.00  0.00     0.016 C 
ATOM     16  C   UNL A   1      33.591  22.949  22.227  1.00  0.00     0.010 C 
ATOM     17  C   UNL A   1      32.107  24.943  21.876  1.00  0.00     0.006 C 
ATOM     18  C   UNL A   1      33.540  24.472  22.043  1.00  0.00     0.001 C 
BRANCH   9  19
ATOM     19  C   UNL A   1      32.178  24.699  26.122  1.00  0.00     0.187 C 
ATOM     20  C   UNL A   1      33.982  26.628  26.123  1.00  0.00     0.014 C 
ATOM     21  C   UNL A   1      32.513  26.219  26.117  1.00  0.00     0.044 C 
ATOM     22  C   UNL A   1      31.733  26.940  25.028  1.00  0.00     0.009 C 
ATOM     23  C   UNL A   1      30.236  26.892  25.307  1.00  0.00     0.001 C 
ATOM     24  C   UNL A   1      30.675  24.590  26.495  1.00  0.00     0.065 C 
ATOM     25  C   UNL A   1      29.685  25.583  25.874  1.00  0.00     0.006 C 
ENDBRANCH   9  19
ENDBRANCH   5   8
ENDBRANCH   3   4
ENDBRANCH   2   3
ENDBRANCH   1   2
BRANCH   1  26
ATOM     26  C   UNL A   1      38.922  20.191  25.695  1.00  0.00     0.116 C 
BRANCH  26  27
ATOM     27  N   UNL A   1      40.007  19.224  25.789  1.00  0.00    -0.352 N 
ATOM     28  C   UNL A   1      41.323  19.411  26.133  1.00  0.00     0.251 C 
ATOM     29  H   UNL A   1      39.760  18.296  25.573  1.00  0.00     0.163 HD
ATOM     30  O   UNL A   1      42.121  18.481  26.028  1.00  0.00    -0.269 OA
BRANCH  28  31
ATOM     31  C   UNL A   1      41.794  20.732  26.601  1.00  0.00     0.039 A 
ATOM     32  C   UNL A   1      42.280  21.643  25.659  1.00  0.00     0.014 A 
ATOM     33  C   UNL A   1      41.758  21.078  27.954  1.00  0.00     0.014 A 
ATOM     34  C   UNL A   1      42.660  22.925  26.066  1.00  0.00     0.010 A 
ATOM     35  C   UNL A   1      42.061  22.380  28.345  1.00  0.00     0.010 A 
ATOM     36  C   UNL A   1      42.511  23.319  27.406  1.00  0.00    -0.014 A 
BRANCH  36  37
ATOM     37  C   UNL A   1      42.812  24.709  27.837  1.00  0.00     0.031 A 
ATOM     38  C   UNL A   1      44.232  25.131  28.106  1.00  0.00     0.074 A 
ATOM     39  C   UNL A   1      41.801  25.576  28.046  1.00  0.00     0.049 A 
ATOM     40  N   UNL A   1      44.682  26.273  28.561  1.00  0.00    -0.248 NA
ATOM     41  C   UNL A   1      45.281  24.132  27.851  1.00  0.00     0.031 C 
ATOM     42  C   UNL A   1      40.379  25.279  27.862  1.00  0.00     0.029 A 
ATOM     43  N   UNL A   1      41.814  26.882  28.471  1.00  0.00    -0.354 N 
ATOM     44  C   UNL A   1      46.061  26.128  28.650  1.00  0.00     0.074 A 
ATOM     45  C   UNL A   1      46.370  24.769  28.258  1.00  0.00     0.031 C 
ATOM     46  C   UNL A   1      39.659  26.376  28.150  1.00  0.00     0.029 A 
ATOM     47  C   UNL A   1      40.561  27.438  28.583  1.00  0.00     0.049 A 
ATOM     48  H   UNL A   1      42.642  27.374  28.676  1.00  0.00     0.167 HD
ATOM     49  C   UNL A   1      46.989  27.050  29.001  1.00  0.00     0.037 A 
ATOM     50  C   UNL A   1      40.182  28.661  29.002  1.00  0.00     0.037 A 
ATOM     51  C   UNL A   1      46.683  28.406  29.377  1.00  0.00     0.049 A 
ATOM     52  C   UNL A   1      41.234  29.652  29.420  1.00  0.00     0.074 A 
ATOM     53  C   UNL A   1      47.560  29.424  29.711  1.00  0.00     0.029 A 
ATOM     54  N   UNL A   1      45.404  28.932  29.470  1.00  0.00    -0.354 N 
ATOM     55  N   UNL A   1      42.537  29.519  29.439  1.00  0.00    -0.248 NA
ATOM     56  C   UNL A   1      40.760  30.969  29.872  1.00  0.00     0.031 C 
ATOM     57  C   UNL A   1      46.809  30.552  30.054  1.00  0.00     0.029 A 
ATOM     58  C   UNL A   1      45.467  30.255  29.876  1.00  0.00     0.049 A 
ATOM     59  H   UNL A   1      44.574  28.439  29.275  1.00  0.00     0.167 HD
ATOM     60  C   UNL A   1      43.040  30.742  29.866  1.00  0.00     0.074 A 
ATOM     61  C   UNL A   1      41.900  31.610  30.080  1.00  0.00     0.031 C 
ATOM     62  C   UNL A   1      44.327  31.114  30.065  1.00  0.00     0.037 A 
BRANCH  49  63
ATOM     63  C   UNL A   1      48.431  26.629  28.987  1.00  0.00     0.057 A 
ATOM     64  C   UNL A   1      49.026  26.004  30.091  1.00  0.00     0.134 A 
ATOM     65  C   UNL A   1      49.214  26.790  27.837  1.00  0.00     0.134 A 
ATOM     66  F   UNL A   1      48.335  25.829  31.228  1.00  0.00    -0.206 F 
ATOM     67  C   UNL A   1      50.353  25.572  30.058  1.00  0.00     0.040 A 
ATOM     68  C   UNL A   1      50.533  26.336  27.782  1.00  0.00     0.040 A 
ATOM     69  F   UNL A   1      48.705  27.374  26.741  1.00  0.00    -0.206 F 
ATOM     70  C   UNL A   1      51.107  25.729  28.897  1.00  0.00     0.006 A 
ENDBRANCH  49  63
BRANCH  50  71
ATOM     71  C   UNL A   1      38.742  29.029  29.049  1.00  0.00     0.057 A 
ATOM     72  C   UNL A   1      38.090  29.549  27.924  1.00  0.00     0.134 A 
ATOM     73  C   UNL A   1      37.996  28.916  30.228  1.00  0.00     0.134 A 
ATOM     74  F   UNL A   1      38.755  29.700  26.769  1.00  0.00    -0.206 F 
ATOM     75  C   UNL A   1      36.763  29.978  27.978  1.00  0.00     0.040 A 
ATOM     76  C   UNL A   1      36.659  29.311  30.290  1.00  0.00     0.040 A 
ATOM     77  F   UNL A   1      38.557  28.418  31.341  1.00  0.00    -0.206 F 
ATOM     78  C   UNL A   1      36.042  29.857  29.166  1.00  0.00     0.006 A 
ENDBRANCH  50  71
BRANCH  62  79
ATOM     79  C   UNL A   1      44.579  32.534  30.486  1.00  0.00     0.057 A 
ATOM     80  C   UNL A   1      44.738  33.568  29.555  1.00  0.00     0.134 A 
ATOM     81  C   UNL A   1      44.626  32.874  31.844  1.00  0.00     0.134 A 
ATOM     82  F   UNL A   1      44.717  33.310  28.239  1.00  0.00    -0.206 F 
ATOM     83  C   UNL A   1      44.962  34.886  29.960  1.00  0.00     0.040 A 
ATOM     84  C   UNL A   1      44.817  34.191  32.261  1.00  0.00     0.040 A 
ATOM     85  F   UNL A   1      44.471  31.933  32.788  1.00  0.00    -0.206 F 
ATOM     86  C   UNL A   1      44.995  35.200  31.318  1.00  0.00     0.006 A 
ENDBRANCH  62  79
ENDBRANCH  36  37
ENDBRANCH  28  31
ENDBRANCH  26  27
ENDBRANCH   1  26
TORSDOF 12
ENDMDL
MODEL 3
REMARK VINA RESULT:     -12.0      3.157      6.889
REMARK SMILES C[C@H]1CCCC[C@H]1[N@H+]1[C@@H](C(=O)NCCCCNC(=O)c2ccc(-c3c4nc(c(-c5c(F)cccc5F)c5ccc([nH]5)c(-c5c(F)cccc5F)c5nc(c(-c6c(F)cccc6F)c6ccc3[nH]6)C=C5)C=C4)cc2)CC[C@@H]2CCCC[C@@H]21
REMARK SMILES IDX 15 1 14 2 13 3 12 4 10 5 11 6 9 8 8 9 81 10 74 12 76 13
REMARK SMILES IDX 80 14 75 15 77 16 79 17 78 18 7 19 1 20 2 21 3 22 4 23 6 24
REMARK SMILES IDX 5 25 16 26 17 27 18 28 19 30 20 31 21 32 73 33 22 34 72 35
REMARK SMILES IDX 23 36 24 37 25 38 66 39 26 40 71 41 65 42 67 43 27 44 70 45
REMARK SMILES IDX 64 46 63 47 28 49 54 50 37 51 53 52 38 53 41 54 52 55 68 56
REMARK SMILES IDX 39 57 40 58 51 60 69 61 42 62 29 63 30 64 35 65 31 66 32 67
REMARK SMILES IDX 34 68 36 69 33 70 55 71 56 72 61 73 57 74 58 75 60 76 62 77
REMARK SMILES IDX 59 78 43 79 44 80 49 81 45 82 46 83 48 84 50 85 47 86
REMARK H PARENT 12 7 8 11 17 29 67 48 41 59
REMARK Flexibility Score: inf
ROOT
ATOM      1  C   UNL A   1      31.479  29.328  25.038  1.00  0.00     0.023 C 
ENDROOT
BRANCH   1   2
ATOM      2  C   UNL A   1      32.447  29.261  23.858  1.00  0.00     0.023 C 
BRANCH   2   3
ATOM      3  C   UNL A   1      33.666  28.371  24.075  1.00  0.00     0.116 C 
BRANCH   3   4
ATOM      4  N   UNL A   1      34.009  27.532  22.932  1.00  0.00    -0.351 N 
ATOM      5  C   UNL A   1      33.349  26.441  22.408  1.00  0.00     0.278 C 
ATOM      6  O   UNL A   1      33.649  26.081  21.267  1.00  0.00    -0.268 OA
ATOM      7  H   UNL A   1      34.837  27.783  22.464  1.00  0.00     0.163 HD
BRANCH   5   8
ATOM      8  C   UNL A   1      32.215  25.793  23.187  1.00  0.00     0.274 C 
ATOM      9  N   UNL A   1      32.324  24.399  23.714  1.00  0.00    -0.319 N 
ATOM     10  C   UNL A   1      31.000  23.951  24.270  1.00  0.00     0.188 C 
ATOM     11  H   UNL A   1      33.031  24.541  24.436  1.00  0.00     0.349 HD
ATOM     12  C   UNL A   1      30.832  26.128  22.623  1.00  0.00     0.076 C 
ATOM     13  C   UNL A   1      30.181  25.126  24.876  1.00  0.00     0.048 C 
ATOM     14  C   UNL A   1      31.014  22.817  25.328  1.00  0.00     0.065 C 
ATOM     15  C   UNL A   1      29.836  26.167  23.791  1.00  0.00     0.016 C 
ATOM     16  C   UNL A   1      30.872  25.715  26.137  1.00  0.00     0.010 C 
ATOM     17  C   UNL A   1      31.058  23.296  26.782  1.00  0.00     0.006 C 
ATOM     18  C   UNL A   1      31.694  24.669  26.903  1.00  0.00     0.001 C 
BRANCH   9  19
ATOM     19  C   UNL A   1      33.144  23.331  23.075  1.00  0.00     0.187 C 
ATOM     20  C   UNL A   1      35.561  23.730  24.061  1.00  0.00     0.014 C 
ATOM     21  C   UNL A   1      34.446  22.754  23.702  1.00  0.00     0.044 C 
ATOM     22  C   UNL A   1      34.121  21.822  24.859  1.00  0.00     0.009 C 
ATOM     23  C   UNL A   1      33.367  20.590  24.372  1.00  0.00     0.001 C 
ATOM     24  C   UNL A   1      32.380  22.119  22.478  1.00  0.00     0.065 C 
ATOM     25  C   UNL A   1      32.321  20.814  23.280  1.00  0.00     0.006 C 
ENDBRANCH   9  19
ENDBRANCH   5   8
ENDBRANCH   3   4
ENDBRANCH   2   3
ENDBRANCH   1   2
BRANCH   1  26
ATOM     26  C   UNL A   1      32.078  29.860  26.336  1.00  0.00     0.116 C 
BRANCH  26  27
ATOM     27  N   UNL A   1      31.850  31.285  26.532  1.00  0.00    -0.352 N 
ATOM     28  C   UNL A   1      32.603  32.211  27.209  1.00  0.00     0.251 C 
ATOM     29  H   UNL A   1      31.030  31.638  26.116  1.00  0.00     0.163 HD
ATOM     30  O   UNL A   1      32.171  33.352  27.371  1.00  0.00    -0.269 OA
BRANCH  28  31
ATOM     31  C   UNL A   1      33.918  31.839  27.772  1.00  0.00     0.039 A 
ATOM     32  C   UNL A   1      34.853  32.848  28.020  1.00  0.00     0.014 A 
ATOM     33  C   UNL A   1      34.235  30.508  28.056  1.00  0.00     0.014 A 
ATOM     34  C   UNL A   1      36.073  32.531  28.621  1.00  0.00     0.010 A 
ATOM     35  C   UNL A   1      35.417  30.206  28.727  1.00  0.00     0.010 A 
ATOM     36  C   UNL A   1      36.347  31.213  29.021  1.00  0.00    -0.014 A 
BRANCH  36  37
ATOM     37  C   UNL A   1      37.595  30.875  29.755  1.00  0.00     0.031 A 
ATOM     38  C   UNL A   1      38.649  30.016  29.107  1.00  0.00     0.074 A 
ATOM     39  C   UNL A   1      37.754  31.290  31.027  1.00  0.00     0.049 A 
ATOM     40  N   UNL A   1      39.764  29.554  29.613  1.00  0.00    -0.248 NA
ATOM     41  C   UNL A   1      38.407  29.605  27.715  1.00  0.00     0.031 C 
ATOM     42  C   UNL A   1      36.791  32.093  31.783  1.00  0.00     0.029 A 
ATOM     43  N   UNL A   1      38.782  31.085  31.915  1.00  0.00    -0.354 N 
ATOM     44  C   UNL A   1      40.351  28.797  28.607  1.00  0.00     0.074 A 
ATOM     45  C   UNL A   1      39.443  28.812  27.481  1.00  0.00     0.031 C 
ATOM     46  C   UNL A   1      37.282  32.330  33.010  1.00  0.00     0.029 A 
ATOM     47  C   UNL A   1      38.570  31.661  33.146  1.00  0.00     0.049 A 
ATOM     48  H   UNL A   1      39.593  30.575  31.691  1.00  0.00     0.167 HD
ATOM     49  C   UNL A   1      41.551  28.167  28.612  1.00  0.00     0.037 A 
ATOM     50  C   UNL A   1      39.324  31.637  34.262  1.00  0.00     0.037 A 
ATOM     51  C   UNL A   1      42.461  28.164  29.727  1.00  0.00     0.049 A 
ATOM     52  C   UNL A   1      40.635  30.899  34.248  1.00  0.00     0.074 A 
ATOM     53  C   UNL A   1      43.716  27.586  29.812  1.00  0.00     0.029 A 
ATOM     54  N   UNL A   1      42.214  28.765  30.952  1.00  0.00    -0.354 N 
ATOM     55  N   UNL A   1      41.205  30.241  33.269  1.00  0.00    -0.248 NA
ATOM     56  C   UNL A   1      41.412  30.905  35.497  1.00  0.00     0.031 C 
ATOM     57  C   UNL A   1      44.208  27.795  31.103  1.00  0.00     0.029 A 
ATOM     58  C   UNL A   1      43.285  28.553  31.805  1.00  0.00     0.049 A 
ATOM     59  H   UNL A   1      41.399  29.267  31.181  1.00  0.00     0.167 HD
ATOM     60  C   UNL A   1      42.420  29.789  33.769  1.00  0.00     0.074 A 
ATOM     61  C   UNL A   1      42.511  30.261  35.134  1.00  0.00     0.031 C 
ATOM     62  C   UNL A   1      43.373  29.047  33.155  1.00  0.00     0.037 A 
BRANCH  49  63
ATOM     63  C   UNL A   1      41.958  27.434  27.366  1.00  0.00     0.057 A 
ATOM     64  C   UNL A   1      42.612  28.085  26.310  1.00  0.00     0.134 A 
ATOM     65  C   UNL A   1      41.755  26.054  27.246  1.00  0.00     0.134 A 
ATOM     66  F   UNL A   1      42.828  29.408  26.356  1.00  0.00    -0.206 F 
ATOM     67  C   UNL A   1      43.031  27.392  25.173  1.00  0.00     0.040 A 
ATOM     68  C   UNL A   1      42.195  25.346  26.126  1.00  0.00     0.040 A 
ATOM     69  F   UNL A   1      41.143  25.367  28.222  1.00  0.00    -0.206 F 
ATOM     70  C   UNL A   1      42.832  26.016  25.084  1.00  0.00     0.006 A 
ENDBRANCH  49  63
BRANCH  50  71
ATOM     71  C   UNL A   1      38.868  32.334  35.494  1.00  0.00     0.057 A 
ATOM     72  C   UNL A   1      39.125  33.696  35.694  1.00  0.00     0.134 A 
ATOM     73  C   UNL A   1      38.208  31.649  36.522  1.00  0.00     0.134 A 
ATOM     74  F   UNL A   1      39.771  34.405  34.755  1.00  0.00    -0.206 F 
ATOM     75  C   UNL A   1      38.779  34.342  36.881  1.00  0.00     0.040 A 
ATOM     76  C   UNL A   1      37.827  32.288  37.702  1.00  0.00     0.040 A 
ATOM     77  F   UNL A   1      37.923  30.344  36.392  1.00  0.00    -0.206 F 
ATOM     78  C   UNL A   1      38.124  33.637  37.890  1.00  0.00     0.006 A 
ENDBRANCH  50  71
BRANCH  62  79
ATOM     79  C   UNL A   1      44.622  28.746  33.933  1.00  0.00     0.057 A 
ATOM     80  C   UNL A   1      44.759  27.580  34.697  1.00  0.00     0.134 A 
ATOM     81  C   UNL A   1      45.716  29.620  33.887  1.00  0.00     0.134 A 
ATOM     82  F   UNL A   1      43.746  26.707  34.794  1.00  0.00    -0.206 F 
ATOM     83  C   UNL A   1      45.930  27.308  35.408  1.00  0.00     0.040 A 
ATOM     84  C   UNL A   1      46.901  29.344  34.568  1.00  0.00     0.040 A 
ATOM     85  F   UNL A   1      45.654  30.751  33.166  1.00  0.00    -0.206 F 
ATOM     86  C   UNL A   1      47.008  28.189  35.338  1.00  0.00     0.006 A 
ENDBRANCH  62  79
ENDBRANCH  36  37
ENDBRANCH  28  31
ENDBRANCH  26  27
ENDBRANCH   1  26
TORSDOF 12
ENDMDL
