MODEL 1
REMARK VINA RESULT:     -11.8      0.000      0.000
REMARK SMILES C[C@@H]1[C@H](C)CCC[C@@H]1NC(=O)COc1csc(C(=O)NCCCCNC(=O)c2ccc(-c3c4nc(c(-c5c(F)cccc5F)c5ccc([nH]5)c(-c5c(F)cccc5F)c5nc(c(-c6c(F)cccc6F)c6ccc3[nH]6)C=C5)C=C4)cc2)c1
REMARK SMILES IDX 21 1 20 2 18 3 19 4 17 6 14 7 15 8 82 9 16 10 13 11 12 12
REMARK SMILES IDX 10 13 9 14 11 16 8 17 1 18 2 19 3 20 4 21 5 22 7 23 6 24
REMARK SMILES IDX 22 25 23 26 24 27 25 28 26 29 27 31 28 32 29 33 81 34 30 35
REMARK SMILES IDX 80 36 31 37 32 38 33 39 74 40 34 41 79 42 73 43 75 44 35 45
REMARK SMILES IDX 78 46 72 47 71 48 36 50 62 51 45 52 61 53 46 54 49 55 60 56
REMARK SMILES IDX 76 57 47 58 48 59 59 61 77 62 50 63 37 64 38 65 43 66 39 67
REMARK SMILES IDX 40 68 42 69 44 70 41 71 63 72 64 73 69 74 65 75 66 76 68 77
REMARK SMILES IDX 70 78 67 79 51 80 52 81 57 82 53 83 54 84 56 85 58 86 55 87
REMARK H PARENT 20 5 9 15 25 30 75 49 49 60
REMARK Flexibility Score: inf
ROOT
ATOM      1  C   UNL A   1      33.068  30.021  26.826  1.00  0.00     0.116 C 
ENDROOT
BRANCH   1   2
ATOM      2  N   UNL A   1      33.618  29.644  25.540  1.00  0.00    -0.351 N 
ATOM      3  C   UNL A   1      33.304  28.614  24.680  1.00  0.00     0.261 C 
ATOM      4  O   UNL A   1      33.899  28.632  23.600  1.00  0.00    -0.268 OA
ATOM      5  H   UNL A   1      34.346  30.228  25.225  1.00  0.00     0.163 HD
BRANCH   3   6
ATOM      6  C   UNL A   1      32.322  27.597  25.039  1.00  0.00     0.096 A 
ATOM      7  C   UNL A   1      31.155  25.818  26.013  1.00  0.00     0.131 A 
ATOM      8  C   UNL A   1      30.202  26.287  25.146  1.00  0.00     0.112 A 
ATOM      9  C   UNL A   1      32.371  26.541  25.926  1.00  0.00     0.072 A 
ATOM     10  S   UNL A   1      30.791  27.617  24.240  1.00  0.00    -0.135 S 
BRANCH   7  11
ATOM     11  O   UNL A   1      31.006  24.849  26.941  1.00  0.00    -0.483 OA
BRANCH  11  12
ATOM     12  C   UNL A   1      31.983  23.840  26.949  1.00  0.00     0.329 C 
BRANCH  12  13
ATOM     13  C   UNL A   1      31.777  22.588  26.105  1.00  0.00     0.258 C 
ATOM     14  N   UNL A   1      32.782  21.921  25.486  1.00  0.00    -0.350 N 
ATOM     15  H   UNL A   1      32.461  21.414  24.706  1.00  0.00     0.163 HD
ATOM     16  O   UNL A   1      30.629  22.193  25.870  1.00  0.00    -0.271 OA
BRANCH  14  17
ATOM     17  C   UNL A   1      34.235  21.762  25.685  1.00  0.00     0.085 C 
ATOM     18  C   UNL A   1      34.934  23.678  24.112  1.00  0.00     0.010 C 
ATOM     19  C   UNL A   1      35.159  22.985  25.459  1.00  0.00     0.011 C 
ATOM     20  C   UNL A   1      36.642  22.574  25.696  1.00  0.00    -0.009 C 
ATOM     21  C   UNL A   1      37.615  23.746  25.565  1.00  0.00     0.008 C 
ATOM     22  C   UNL A   1      37.070  21.411  24.793  1.00  0.00     0.004 C 
ATOM     23  C   UNL A   1      34.684  20.579  24.798  1.00  0.00     0.025 C 
ATOM     24  C   UNL A   1      36.151  20.212  24.974  1.00  0.00     0.002 C 
ENDBRANCH  14  17
ENDBRANCH  12  13
ENDBRANCH  11  12
ENDBRANCH   7  11
ENDBRANCH   3   6
ENDBRANCH   1   2
BRANCH   1  25
ATOM     25  C   UNL A   1      31.644  30.568  26.694  1.00  0.00     0.023 C 
BRANCH  25  26
ATOM     26  C   UNL A   1      31.552  32.093  26.616  1.00  0.00     0.023 C 
BRANCH  26  27
ATOM     27  C   UNL A   1      32.705  32.846  27.268  1.00  0.00     0.116 C 
BRANCH  27  28
ATOM     28  N   UNL A   1      32.365  34.204  27.667  1.00  0.00    -0.352 N 
ATOM     29  C   UNL A   1      32.983  34.994  28.608  1.00  0.00     0.251 C 
ATOM     30  H   UNL A   1      31.594  34.607  27.205  1.00  0.00     0.163 HD
ATOM     31  O   UNL A   1      32.524  36.089  28.902  1.00  0.00    -0.269 OA
BRANCH  29  32
ATOM     32  C   UNL A   1      34.186  34.480  29.295  1.00  0.00     0.039 A 
ATOM     33  C   UNL A   1      34.031  33.824  30.520  1.00  0.00     0.014 A 
ATOM     34  C   UNL A   1      35.449  34.602  28.711  1.00  0.00     0.014 A 
ATOM     35  C   UNL A   1      35.137  33.226  31.123  1.00  0.00     0.010 A 
ATOM     36  C   UNL A   1      36.536  33.947  29.280  1.00  0.00     0.010 A 
ATOM     37  C   UNL A   1      36.390  33.249  30.488  1.00  0.00    -0.014 A 
BRANCH  37  38
ATOM     38  C   UNL A   1      37.557  32.539  31.065  1.00  0.00     0.031 A 
ATOM     39  C   UNL A   1      38.184  33.030  32.339  1.00  0.00     0.074 A 
ATOM     40  C   UNL A   1      38.100  31.499  30.401  1.00  0.00     0.049 A 
ATOM     41  N   UNL A   1      39.251  32.592  32.957  1.00  0.00    -0.248 NA
ATOM     42  C   UNL A   1      37.542  34.183  32.990  1.00  0.00     0.031 C 
ATOM     43  C   UNL A   1      37.616  30.964  29.126  1.00  0.00     0.029 A 
ATOM     44  N   UNL A   1      39.185  30.716  30.700  1.00  0.00    -0.354 N 
ATOM     45  C   UNL A   1      39.418  33.425  34.056  1.00  0.00     0.074 A 
ATOM     46  C   UNL A   1      38.372  34.423  33.993  1.00  0.00     0.031 C 
ATOM     47  C   UNL A   1      38.390  29.928  28.764  1.00  0.00     0.029 A 
ATOM     48  C   UNL A   1      39.442  29.747  29.760  1.00  0.00     0.049 A 
ATOM     49  H   UNL A   1      39.729  30.837  31.511  1.00  0.00     0.167 HD
ATOM     50  C   UNL A   1      40.344  33.350  35.041  1.00  0.00     0.037 A 
ATOM     51  C   UNL A   1      40.417  28.821  29.706  1.00  0.00     0.037 A 
ATOM     52  C   UNL A   1      41.365  32.339  35.116  1.00  0.00     0.049 A 
ATOM     53  C   UNL A   1      41.428  28.753  30.817  1.00  0.00     0.074 A 
ATOM     54  C   UNL A   1      42.308  32.138  36.109  1.00  0.00     0.029 A 
ATOM     55  N   UNL A   1      41.574  31.356  34.160  1.00  0.00    -0.354 N 
ATOM     56  N   UNL A   1      41.531  29.503  31.887  1.00  0.00    -0.248 NA
ATOM     57  C   UNL A   1      42.454  27.706  30.715  1.00  0.00     0.031 C 
ATOM     58  C   UNL A   1      43.113  31.056  35.735  1.00  0.00     0.029 A 
ATOM     59  C   UNL A   1      42.644  30.559  34.530  1.00  0.00     0.049 A 
ATOM     60  H   UNL A   1      41.042  31.244  33.340  1.00  0.00     0.167 HD
ATOM     61  C   UNL A   1      42.614  29.003  32.598  1.00  0.00     0.074 A 
ATOM     62  C   UNL A   1      43.127  27.878  31.844  1.00  0.00     0.031 C 
ATOM     63  C   UNL A   1      43.136  29.437  33.771  1.00  0.00     0.037 A 
BRANCH  50  64
ATOM     64  C   UNL A   1      40.289  34.390  36.120  1.00  0.00     0.057 A 
ATOM     65  C   UNL A   1      40.994  35.598  36.016  1.00  0.00     0.134 A 
ATOM     66  C   UNL A   1      39.501  34.199  37.261  1.00  0.00     0.134 A 
ATOM     67  F   UNL A   1      41.778  35.838  34.954  1.00  0.00    -0.206 F 
ATOM     68  C   UNL A   1      40.938  36.564  37.022  1.00  0.00     0.040 A 
ATOM     69  C   UNL A   1      39.417  35.168  38.261  1.00  0.00     0.040 A 
ATOM     70  F   UNL A   1      38.797  33.068  37.422  1.00  0.00    -0.206 F 
ATOM     71  C   UNL A   1      40.142  36.353  38.146  1.00  0.00     0.006 A 
ENDBRANCH  50  64
BRANCH  51  72
ATOM     72  C   UNL A   1      40.470  27.864  28.573  1.00  0.00     0.057 A 
ATOM     73  C   UNL A   1      39.779  26.648  28.626  1.00  0.00     0.134 A 
ATOM     74  C   UNL A   1      41.214  28.136  27.419  1.00  0.00     0.134 A 
ATOM     75  F   UNL A   1      39.065  26.325  29.715  1.00  0.00    -0.206 F 
ATOM     76  C   UNL A   1      39.840  25.726  27.580  1.00  0.00     0.040 A 
ATOM     77  C   UNL A   1      41.264  27.233  26.355  1.00  0.00     0.040 A 
ATOM     78  F   UNL A   1      41.891  29.287  27.305  1.00  0.00    -0.206 F 
ATOM     79  C   UNL A   1      40.582  26.021  26.437  1.00  0.00     0.006 A 
ENDBRANCH  51  72
BRANCH  63  80
ATOM     80  C   UNL A   1      44.301  28.673  34.326  1.00  0.00     0.057 A 
ATOM     81  C   UNL A   1      45.624  29.043  34.055  1.00  0.00     0.134 A 
ATOM     82  C   UNL A   1      44.094  27.579  35.176  1.00  0.00     0.134 A 
ATOM     83  F   UNL A   1      45.888  30.074  33.239  1.00  0.00    -0.206 F 
ATOM     84  C   UNL A   1      46.701  28.338  34.593  1.00  0.00     0.040 A 
ATOM     85  C   UNL A   1      45.163  26.882  35.739  1.00  0.00     0.040 A 
ATOM     86  F   UNL A   1      42.851  27.178  35.481  1.00  0.00    -0.206 F 
ATOM     87  C   UNL A   1      46.472  27.258  35.444  1.00  0.00     0.006 A 
ENDBRANCH  63  80
ENDBRANCH  37  38
ENDBRANCH  29  32
ENDBRANCH  27  28
ENDBRANCH  26  27
ENDBRANCH  25  26
ENDBRANCH   1  25
TORSDOF 15
ENDMDL
MODEL 2
REMARK VINA RESULT:     -11.6      4.331      9.527
REMARK SMILES C[C@@H]1[C@H](C)CCC[C@@H]1NC(=O)COc1csc(C(=O)NCCCCNC(=O)c2ccc(-c3c4nc(c(-c5c(F)cccc5F)c5ccc([nH]5)c(-c5c(F)cccc5F)c5nc(c(-c6c(F)cccc6F)c6ccc3[nH]6)C=C5)C=C4)cc2)c1
REMARK SMILES IDX 21 1 20 2 18 3 19 4 17 6 14 7 15 8 82 9 16 10 13 11 12 12
REMARK SMILES IDX 10 13 9 14 11 16 8 17 1 18 2 19 3 20 4 21 5 22 7 23 6 24
REMARK SMILES IDX 22 25 23 26 24 27 25 28 26 29 27 31 28 32 29 33 81 34 30 35
REMARK SMILES IDX 80 36 31 37 32 38 33 39 74 40 34 41 79 42 73 43 75 44 35 45
REMARK SMILES IDX 78 46 72 47 71 48 36 50 62 51 45 52 61 53 46 54 49 55 60 56
REMARK SMILES IDX 76 57 47 58 48 59 59 61 77 62 50 63 37 64 38 65 43 66 39 67
REMARK SMILES IDX 40 68 42 69 44 70 41 71 63 72 64 73 69 74 65 75 66 76 68 77
REMARK SMILES IDX 70 78 67 79 51 80 52 81 57 82 53 83 54 84 56 85 58 86 55 87
REMARK H PARENT 20 5 9 15 25 30 75 49 49 60
REMARK Flexibility Score: inf
ROOT
ATOM      1  C   UNL A   1      36.670  22.332  25.510  1.00  0.00     0.116 C 
ENDROOT
BRANCH   1   2
ATOM      2  N   UNL A   1      35.677  21.930  26.484  1.00  0.00    -0.351 N 
ATOM      3  C   UNL A   1      34.345  21.600  26.346  1.00  0.00     0.261 C 
ATOM      4  O   UNL A   1      33.796  21.196  27.374  1.00  0.00    -0.268 OA
ATOM      5  H   UNL A   1      36.011  21.886  27.410  1.00  0.00     0.163 HD
BRANCH   3   6
ATOM      6  C   UNL A   1      33.663  21.714  25.062  1.00  0.00     0.096 A 
ATOM      7  C   UNL A   1      32.890  22.388  22.960  1.00  0.00     0.131 A 
ATOM      8  C   UNL A   1      32.261  21.174  23.071  1.00  0.00     0.112 A 
ATOM      9  C   UNL A   1      33.657  22.709  24.106  1.00  0.00     0.072 A 
ATOM     10  S   UNL A   1      32.623  20.426  24.570  1.00  0.00    -0.135 S 
BRANCH   7  11
ATOM     11  O   UNL A   1      32.906  23.200  21.882  1.00  0.00    -0.483 OA
BRANCH  11  12
ATOM     12  C   UNL A   1      33.215  24.549  22.124  1.00  0.00     0.329 C 
BRANCH  12  13
ATOM     13  C   UNL A   1      32.674  25.623  21.188  1.00  0.00     0.258 C 
ATOM     14  N   UNL A   1      31.725  26.525  21.543  1.00  0.00    -0.350 N 
ATOM     15  H   UNL A   1      31.228  26.861  20.762  1.00  0.00     0.163 HD
ATOM     16  O   UNL A   1      33.027  25.634  20.003  1.00  0.00    -0.271 OA
BRANCH  14  17
ATOM     17  C   UNL A   1      31.250  27.132  22.799  1.00  0.00     0.085 C 
ATOM     18  C   UNL A   1      33.573  27.856  23.644  1.00  0.00     0.010 C 
ATOM     19  C   UNL A   1      32.102  28.243  23.462  1.00  0.00     0.011 C 
ATOM     20  C   UNL A   1      31.423  28.709  24.784  1.00  0.00    -0.009 C 
ATOM     21  C   UNL A   1      32.166  29.860  25.463  1.00  0.00     0.008 C 
ATOM     22  C   UNL A   1      31.210  27.549  25.763  1.00  0.00     0.004 C 
ATOM     23  C   UNL A   1      31.009  25.975  23.795  1.00  0.00     0.025 C 
ATOM     24  C   UNL A   1      30.405  26.430  25.118  1.00  0.00     0.002 C 
ENDBRANCH  14  17
ENDBRANCH  12  13
ENDBRANCH  11  12
ENDBRANCH   7  11
ENDBRANCH   3   6
ENDBRANCH   1   2
BRANCH   1  25
ATOM     25  C   UNL A   1      36.925  21.233  24.475  1.00  0.00     0.023 C 
BRANCH  25  26
ATOM     26  C   UNL A   1      37.766  20.061  24.984  1.00  0.00     0.023 C 
BRANCH  26  27
ATOM     27  C   UNL A   1      39.026  20.451  25.746  1.00  0.00     0.116 C 
BRANCH  27  28
ATOM     28  N   UNL A   1      40.052  19.418  25.746  1.00  0.00    -0.352 N 
ATOM     29  C   UNL A   1      41.376  19.534  26.103  1.00  0.00     0.251 C 
ATOM     30  H   UNL A   1      39.762  18.524  25.452  1.00  0.00     0.163 HD
ATOM     31  O   UNL A   1      42.144  18.593  25.963  1.00  0.00    -0.269 OA
BRANCH  29  32
ATOM     32  C   UNL A   1      41.868  20.829  26.616  1.00  0.00     0.039 A 
ATOM     33  C   UNL A   1      42.327  21.782  25.703  1.00  0.00     0.014 A 
ATOM     34  C   UNL A   1      41.830  21.117  27.982  1.00  0.00     0.014 A 
ATOM     35  C   UNL A   1      42.681  23.053  26.156  1.00  0.00     0.010 A 
ATOM     36  C   UNL A   1      42.117  22.405  28.422  1.00  0.00     0.010 A 
ATOM     37  C   UNL A   1      42.540  23.386  27.513  1.00  0.00    -0.014 A 
BRANCH  37  38
ATOM     38  C   UNL A   1      42.820  24.758  28.001  1.00  0.00     0.031 A 
ATOM     39  C   UNL A   1      44.217  25.152  28.386  1.00  0.00     0.074 A 
ATOM     40  C   UNL A   1      41.802  25.626  28.168  1.00  0.00     0.049 A 
ATOM     41  N   UNL A   1      44.648  26.274  28.903  1.00  0.00    -0.248 NA
ATOM     42  C   UNL A   1      45.266  24.139  28.191  1.00  0.00     0.031 C 
ATOM     43  C   UNL A   1      40.394  25.345  27.882  1.00  0.00     0.029 A 
ATOM     44  N   UNL A   1      41.796  26.917  28.633  1.00  0.00    -0.354 N 
ATOM     45  C   UNL A   1      46.009  26.096  29.111  1.00  0.00     0.074 A 
ATOM     46  C   UNL A   1      46.325  24.743  28.711  1.00  0.00     0.031 C 
ATOM     47  C   UNL A   1      39.663  26.437  28.159  1.00  0.00     0.029 A 
ATOM     48  C   UNL A   1      40.544  27.482  28.672  1.00  0.00     0.049 A 
ATOM     49  H   UNL A   1      42.610  27.393  28.912  1.00  0.00     0.167 HD
ATOM     50  C   UNL A   1      46.918  26.988  29.571  1.00  0.00     0.037 A 
ATOM     51  C   UNL A   1      40.151  28.703  29.080  1.00  0.00     0.037 A 
ATOM     52  C   UNL A   1      46.606  28.344  29.940  1.00  0.00     0.049 A 
ATOM     53  C   UNL A   1      41.181  29.678  29.578  1.00  0.00     0.074 A 
ATOM     54  C   UNL A   1      47.468  29.344  30.355  1.00  0.00     0.029 A 
ATOM     55  N   UNL A   1      45.331  28.888  29.938  1.00  0.00    -0.354 N 
ATOM     56  N   UNL A   1      42.476  29.520  29.703  1.00  0.00    -0.248 NA
ATOM     57  C   UNL A   1      40.695  31.004  29.987  1.00  0.00     0.031 C 
ATOM     58  C   UNL A   1      46.709  30.484  30.640  1.00  0.00     0.029 A 
ATOM     59  C   UNL A   1      45.380  30.205  30.363  1.00  0.00     0.049 A 
ATOM     60  H   UNL A   1      44.512  28.409  29.676  1.00  0.00     0.167 HD
ATOM     61  C   UNL A   1      42.963  30.731  30.177  1.00  0.00     0.074 A 
ATOM     62  C   UNL A   1      41.826  31.618  30.306  1.00  0.00     0.031 C 
ATOM     63  C   UNL A   1      44.239  31.077  30.478  1.00  0.00     0.037 A 
BRANCH  50  64
ATOM     64  C   UNL A   1      48.339  26.524  29.693  1.00  0.00     0.057 A 
ATOM     65  C   UNL A   1      49.271  26.723  28.665  1.00  0.00     0.134 A 
ATOM     66  C   UNL A   1      48.790  25.898  30.861  1.00  0.00     0.134 A 
ATOM     67  F   UNL A   1      48.899  27.305  27.515  1.00  0.00    -0.206 F 
ATOM     68  C   UNL A   1      50.593  26.290  28.784  1.00  0.00     0.040 A 
ATOM     69  C   UNL A   1      50.116  25.484  31.002  1.00  0.00     0.040 A 
ATOM     70  F   UNL A   1      47.952  25.680  31.886  1.00  0.00    -0.206 F 
ATOM     71  C   UNL A   1      51.020  25.675  29.959  1.00  0.00     0.006 A 
ENDBRANCH  50  64
BRANCH  51  72
ATOM     72  C   UNL A   1      38.719  29.084  29.010  1.00  0.00     0.057 A 
ATOM     73  C   UNL A   1      38.158  29.560  27.818  1.00  0.00     0.134 A 
ATOM     74  C   UNL A   1      37.879  28.990  30.126  1.00  0.00     0.134 A 
ATOM     75  F   UNL A   1      38.918  29.689  26.721  1.00  0.00    -0.206 F 
ATOM     76  C   UNL A   1      36.819  29.946  27.743  1.00  0.00     0.040 A 
ATOM     77  C   UNL A   1      36.533  29.350  30.059  1.00  0.00     0.040 A 
ATOM     78  F   UNL A   1      38.355  28.534  31.294  1.00  0.00    -0.206 F 
ATOM     79  C   UNL A   1      36.001  29.837  28.866  1.00  0.00     0.006 A 
ENDBRANCH  51  72
BRANCH  63  80
ATOM     80  C   UNL A   1      44.475  32.482  30.945  1.00  0.00     0.057 A 
ATOM     81  C   UNL A   1      44.479  32.818  32.304  1.00  0.00     0.134 A 
ATOM     82  C   UNL A   1      44.741  33.503  30.023  1.00  0.00     0.134 A 
ATOM     83  F   UNL A   1      44.218  31.889  33.235  1.00  0.00    -0.206 F 
ATOM     84  C   UNL A   1      44.720  34.126  32.729  1.00  0.00     0.040 A 
ATOM     85  C   UNL A   1      45.008  34.808  30.437  1.00  0.00     0.040 A 
ATOM     86  F   UNL A   1      44.759  33.245  28.707  1.00  0.00    -0.206 F 
ATOM     87  C   UNL A   1      44.993  35.123  31.795  1.00  0.00     0.006 A 
ENDBRANCH  63  80
ENDBRANCH  37  38
ENDBRANCH  29  32
ENDBRANCH  27  28
ENDBRANCH  26  27
ENDBRANCH  25  26
ENDBRANCH   1  25
TORSDOF 15
ENDMDL
MODEL 3
REMARK VINA RESULT:     -11.6      3.620      5.345
REMARK SMILES C[C@@H]1[C@H](C)CCC[C@@H]1NC(=O)COc1csc(C(=O)NCCCCNC(=O)c2ccc(-c3c4nc(c(-c5c(F)cccc5F)c5ccc([nH]5)c(-c5c(F)cccc5F)c5nc(c(-c6c(F)cccc6F)c6ccc3[nH]6)C=C5)C=C4)cc2)c1
REMARK SMILES IDX 21 1 20 2 18 3 19 4 17 6 14 7 15 8 82 9 16 10 13 11 12 12
REMARK SMILES IDX 10 13 9 14 11 16 8 17 1 18 2 19 3 20 4 21 5 22 7 23 6 24
REMARK SMILES IDX 22 25 23 26 24 27 25 28 26 29 27 31 28 32 29 33 81 34 30 35
REMARK SMILES IDX 80 36 31 37 32 38 33 39 74 40 34 41 79 42 73 43 75 44 35 45
REMARK SMILES IDX 78 46 72 47 71 48 36 50 62 51 45 52 61 53 46 54 49 55 60 56
REMARK SMILES IDX 76 57 47 58 48 59 59 61 77 62 50 63 37 64 38 65 43 66 39 67
REMARK SMILES IDX 40 68 42 69 44 70 41 71 63 72 64 73 69 74 65 75 66 76 68 77
REMARK SMILES IDX 70 78 67 79 51 80 52 81 57 82 53 83 54 84 56 85 58 86 55 87
REMARK H PARENT 20 5 9 15 25 30 75 49 49 60
REMARK Flexibility Score: inf
ROOT
ATOM      1  C   UNL A   1      31.036  27.303  25.135  1.00  0.00     0.116 C 
ENDROOT
BRANCH   1   2
ATOM      2  N   UNL A   1      30.939  26.199  26.067  1.00  0.00    -0.351 N 
ATOM      3  C   UNL A   1      31.752  25.104  26.272  1.00  0.00     0.261 C 
ATOM      4  O   UNL A   1      31.440  24.392  27.229  1.00  0.00    -0.268 OA
ATOM      5  H   UNL A   1      30.153  26.236  26.660  1.00  0.00     0.163 HD
BRANCH   3   6
ATOM      6  C   UNL A   1      32.900  24.838  25.412  1.00  0.00     0.096 A 
ATOM      7  C   UNL A   1      35.032  24.422  24.545  1.00  0.00     0.131 A 
ATOM      8  C   UNL A   1      34.279  24.293  23.406  1.00  0.00     0.112 A 
ATOM      9  C   UNL A   1      34.252  24.766  25.676  1.00  0.00     0.072 A 
ATOM     10  S   UNL A   1      32.620  24.579  23.728  1.00  0.00    -0.135 S 
BRANCH   7  11
ATOM     11  O   UNL A   1      36.352  24.175  24.679  1.00  0.00    -0.483 OA
BRANCH  11  12
ATOM     12  C   UNL A   1      36.734  23.432  25.808  1.00  0.00     0.329 C 
BRANCH  12  13
ATOM     13  C   UNL A   1      37.344  22.047  25.626  1.00  0.00     0.258 C 
ATOM     14  N   UNL A   1      36.615  20.924  25.413  1.00  0.00    -0.350 N 
ATOM     15  H   UNL A   1      37.095  20.114  25.704  1.00  0.00     0.163 HD
ATOM     16  O   UNL A   1      38.562  21.893  25.775  1.00  0.00    -0.271 OA
BRANCH  14  17
ATOM     17  C   UNL A   1      35.287  20.606  24.857  1.00  0.00     0.085 C 
ATOM     18  C   UNL A   1      33.963  21.136  27.002  1.00  0.00     0.010 C 
ATOM     19  C   UNL A   1      34.036  21.277  25.478  1.00  0.00     0.011 C 
ATOM     20  C   UNL A   1      32.753  20.770  24.754  1.00  0.00    -0.009 C 
ATOM     21  C   UNL A   1      31.477  21.443  25.261  1.00  0.00     0.008 C 
ATOM     22  C   UNL A   1      32.622  19.244  24.814  1.00  0.00     0.004 C 
ATOM     23  C   UNL A   1      35.142  19.068  24.889  1.00  0.00     0.025 C 
ATOM     24  C   UNL A   1      33.859  18.566  24.241  1.00  0.00     0.002 C 
ENDBRANCH  14  17
ENDBRANCH  12  13
ENDBRANCH  11  12
ENDBRANCH   7  11
ENDBRANCH   3   6
ENDBRANCH   1   2
BRANCH   1  25
ATOM     25  C   UNL A   1      31.665  28.539  25.784  1.00  0.00     0.023 C 
BRANCH  25  26
ATOM     26  C   UNL A   1      33.192  28.508  25.866  1.00  0.00     0.023 C 
BRANCH  26  27
ATOM     27  C   UNL A   1      33.769  28.662  27.268  1.00  0.00     0.116 C 
BRANCH  27  28
ATOM     28  N   UNL A   1      33.726  30.027  27.771  1.00  0.00    -0.352 N 
ATOM     29  C   UNL A   1      34.731  30.741  28.382  1.00  0.00     0.251 C 
ATOM     30  H   UNL A   1      32.869  30.499  27.660  1.00  0.00     0.163 HD
ATOM     31  O   UNL A   1      34.517  31.856  28.837  1.00  0.00    -0.269 OA
BRANCH  29  32
ATOM     32  C   UNL A   1      36.064  30.120  28.524  1.00  0.00     0.039 A 
ATOM     33  C   UNL A   1      36.948  30.171  27.442  1.00  0.00     0.014 A 
ATOM     34  C   UNL A   1      36.455  29.537  29.731  1.00  0.00     0.014 A 
ATOM     35  C   UNL A   1      38.252  29.701  27.597  1.00  0.00     0.010 A 
ATOM     36  C   UNL A   1      37.774  29.131  29.905  1.00  0.00     0.010 A 
ATOM     37  C   UNL A   1      38.686  29.214  28.842  1.00  0.00    -0.014 A 
BRANCH  37  38
ATOM     38  C   UNL A   1      40.093  28.797  29.055  1.00  0.00     0.031 A 
ATOM     39  C   UNL A   1      41.082  29.757  29.653  1.00  0.00     0.074 A 
ATOM     40  C   UNL A   1      40.498  27.580  28.640  1.00  0.00     0.049 A 
ATOM     41  N   UNL A   1      42.368  29.605  29.847  1.00  0.00    -0.248 NA
ATOM     42  C   UNL A   1      40.563  31.071  30.061  1.00  0.00     0.031 C 
ATOM     43  C   UNL A   1      39.645  26.580  27.994  1.00  0.00     0.029 A 
ATOM     44  N   UNL A   1      41.732  26.985  28.686  1.00  0.00    -0.354 N 
ATOM     45  C   UNL A   1      42.812  30.808  30.382  1.00  0.00     0.074 A 
ATOM     46  C   UNL A   1      41.671  31.694  30.436  1.00  0.00     0.031 C 
ATOM     47  C   UNL A   1      40.378  25.488  27.723  1.00  0.00     0.029 A 
ATOM     48  C   UNL A   1      41.756  25.722  28.144  1.00  0.00     0.049 A 
ATOM     49  H   UNL A   1      42.526  27.420  29.071  1.00  0.00     0.167 HD
ATOM     50  C   UNL A   1      44.054  31.134  30.811  1.00  0.00     0.037 A 
ATOM     51  C   UNL A   1      42.775  24.854  28.000  1.00  0.00     0.037 A 
ATOM     52  C   UNL A   1      45.181  30.240  30.784  1.00  0.00     0.049 A 
ATOM     53  C   UNL A   1      44.142  25.238  28.493  1.00  0.00     0.074 A 
ATOM     54  C   UNL A   1      46.464  30.455  31.257  1.00  0.00     0.029 A 
ATOM     55  N   UNL A   1      45.158  28.959  30.254  1.00  0.00    -0.354 N 
ATOM     56  N   UNL A   1      44.533  26.353  29.062  1.00  0.00    -0.248 NA
ATOM     57  C   UNL A   1      45.209  24.240  28.329  1.00  0.00     0.031 C 
ATOM     58  C   UNL A   1      47.228  29.316  30.979  1.00  0.00     0.029 A 
ATOM     59  C   UNL A   1      46.410  28.378  30.372  1.00  0.00     0.049 A 
ATOM     60  H   UNL A   1      44.370  28.526  29.853  1.00  0.00     0.167 HD
ATOM     61  C   UNL A   1      45.881  26.181  29.348  1.00  0.00     0.074 A 
ATOM     62  C   UNL A   1      46.237  24.850  28.902  1.00  0.00     0.031 C 
ATOM     63  C   UNL A   1      46.746  27.048  29.929  1.00  0.00     0.037 A 
BRANCH  50  64
ATOM     64  C   UNL A   1      44.254  32.518  31.353  1.00  0.00     0.057 A 
ATOM     65  C   UNL A   1      44.625  33.587  30.526  1.00  0.00     0.134 A 
ATOM     66  C   UNL A   1      44.047  32.794  32.710  1.00  0.00     0.134 A 
ATOM     67  F   UNL A   1      44.853  33.387  29.219  1.00  0.00    -0.206 F 
ATOM     68  C   UNL A   1      44.809  34.874  31.035  1.00  0.00     0.040 A 
ATOM     69  C   UNL A   1      44.201  34.082  33.225  1.00  0.00     0.040 A 
ATOM     70  F   UNL A   1      43.685  31.818  33.557  1.00  0.00    -0.206 F 
ATOM     71  C   UNL A   1      44.590  35.125  32.388  1.00  0.00     0.006 A 
ENDBRANCH  50  64
BRANCH  51  72
ATOM     72  C   UNL A   1      42.537  23.525  27.385  1.00  0.00     0.057 A 
ATOM     73  C   UNL A   1      42.187  22.421  28.171  1.00  0.00     0.134 A 
ATOM     74  C   UNL A   1      42.657  23.324  26.005  1.00  0.00     0.134 A 
ATOM     75  F   UNL A   1      42.075  22.549  29.501  1.00  0.00    -0.206 F 
ATOM     76  C   UNL A   1      41.984  21.159  27.610  1.00  0.00     0.040 A 
ATOM     77  C   UNL A   1      42.434  22.073  25.428  1.00  0.00     0.040 A 
ATOM     78  F   UNL A   1      42.982  24.344  25.197  1.00  0.00    -0.206 F 
ATOM     79  C   UNL A   1      42.104  20.984  26.232  1.00  0.00     0.006 A 
ENDBRANCH  51  72
BRANCH  63  80
ATOM     80  C   UNL A   1      48.151  26.572  30.145  1.00  0.00     0.057 A 
ATOM     81  C   UNL A   1      49.167  26.825  29.215  1.00  0.00     0.134 A 
ATOM     82  C   UNL A   1      48.499  25.889  31.317  1.00  0.00     0.134 A 
ATOM     83  F   UNL A   1      48.895  27.464  28.068  1.00  0.00    -0.206 F 
ATOM     84  C   UNL A   1      50.477  26.396  29.435  1.00  0.00     0.040 A 
ATOM     85  C   UNL A   1      49.809  25.476  31.558  1.00  0.00     0.040 A 
ATOM     86  F   UNL A   1      47.573  25.622  32.250  1.00  0.00    -0.206 F 
ATOM     87  C   UNL A   1      50.802  25.726  30.613  1.00  0.00     0.006 A 
ENDBRANCH  63  80
ENDBRANCH  37  38
ENDBRANCH  29  32
ENDBRANCH  27  28
ENDBRANCH  26  27
ENDBRANCH  25  26
ENDBRANCH   1  25
TORSDOF 15
ENDMDL
