MODEL 1
REMARK VINA RESULT:     -13.3      0.000      0.000
REMARK SMILES O=C(NCCCCNC(=O)[C@@H]1CCCC[C@@H]1C(=O)Nc1ccccc1C(=O)N1CCN(c2ccc(F)cc2)CC1)c1ccc(-c2c3nc(c(-c4c(F)cccc4F)c4ccc([nH]4)c(-c4c(F)cccc4F)c4nc(c(-c5c(F)cccc5F)c5ccc2[nH]5)C=C4)C=C3)cc1
REMARK SMILES IDX 6 1 5 2 4 3 3 4 1 5 2 6 41 8 42 9 94 10 43 11 93 12 44 13
REMARK SMILES IDX 45 14 46 15 87 16 47 17 92 18 86 19 88 20 48 21 91 22 85 23
REMARK SMILES IDX 84 24 49 26 75 27 58 28 74 29 59 30 62 31 73 32 89 33 60 34
REMARK SMILES IDX 61 35 72 37 90 38 63 39 50 40 51 41 56 42 52 43 53 44 55 45
REMARK SMILES IDX 57 46 54 47 76 48 77 49 82 50 78 51 79 52 81 53 83 54 80 55
REMARK SMILES IDX 64 56 65 57 70 58 66 59 67 60 69 61 71 62 68 63 7 64 8 65
REMARK SMILES IDX 9 66 10 68 11 69 12 70 16 71 13 72 15 73 14 74 17 75 18 76
REMARK SMILES IDX 19 77 20 79 21 80 25 81 22 82 24 83 23 84 26 85 27 86 28 87
REMARK SMILES IDX 29 88 40 89 30 90 39 91 31 92 32 93 33 94 38 95 34 96 37 97
REMARK SMILES IDX 35 98 36 99
REMARK H PARENT 3 7 88 25 62 36 8 67 19 78
REMARK Flexibility Score: inf
ROOT
ATOM      1  C   UNL A   1      31.667  30.502  25.969  1.00  0.00     0.023 C 
ENDROOT
BRANCH   1   2
ATOM      2  C   UNL A   1      31.370  31.808  26.754  1.00  0.00     0.023 C 
BRANCH   2   3
ATOM      3  C   UNL A   1      32.137  33.116  26.492  1.00  0.00     0.116 C 
BRANCH   3   4
ATOM      4  N   UNL A   1      32.165  34.082  27.597  1.00  0.00    -0.352 N 
ATOM      5  O   UNL A   1      33.077  35.321  29.272  1.00  0.00    -0.269 OA
ATOM      6  C   UNL A   1      33.186  34.393  28.491  1.00  0.00     0.251 C 
ATOM      7  H   UNL A   1      31.331  34.587  27.728  1.00  0.00     0.163 HD
BRANCH   6   8
ATOM      8  C   UNL A   1      34.376  33.510  28.567  1.00  0.00     0.039 A 
ATOM      9  C   UNL A   1      34.234  32.144  28.776  1.00  0.00     0.014 A 
ATOM     10  C   UNL A   1      35.648  34.096  28.597  1.00  0.00     0.014 A 
ATOM     11  C   UNL A   1      35.297  31.435  29.320  1.00  0.00     0.010 A 
ATOM     12  C   UNL A   1      36.745  33.348  29.036  1.00  0.00     0.010 A 
ATOM     13  C   UNL A   1      36.554  32.041  29.503  1.00  0.00    -0.014 A 
BRANCH  13  14
ATOM     14  C   UNL A   1      37.614  31.297  30.235  1.00  0.00     0.031 A 
ATOM     15  C   UNL A   1      38.547  30.352  29.513  1.00  0.00     0.074 A 
ATOM     16  C   UNL A   1      37.805  31.562  31.541  1.00  0.00     0.049 A 
ATOM     17  N   UNL A   1      39.566  29.677  29.987  1.00  0.00    -0.248 NA
ATOM     18  C   UNL A   1      38.307  30.129  28.078  1.00  0.00     0.031 C 
ATOM     19  C   UNL A   1      36.967  32.455  32.345  1.00  0.00     0.029 A 
ATOM     20  N   UNL A   1      38.780  31.148  32.411  1.00  0.00    -0.354 N 
ATOM     21  C   UNL A   1      40.068  28.935  28.923  1.00  0.00     0.074 A 
ATOM     22  C   UNL A   1      39.231  29.224  27.779  1.00  0.00     0.031 C 
ATOM     23  C   UNL A   1      37.501  32.576  33.567  1.00  0.00     0.029 A 
ATOM     24  C   UNL A   1      38.676  31.717  33.656  1.00  0.00     0.049 A 
ATOM     25  H   UNL A   1      39.485  30.506  32.167  1.00  0.00     0.167 HD
ATOM     26  C   UNL A   1      41.134  28.095  28.900  1.00  0.00     0.037 A 
ATOM     27  C   UNL A   1      39.433  31.557  34.757  1.00  0.00     0.037 A 
ATOM     28  C   UNL A   1      41.980  27.830  30.036  1.00  0.00     0.049 A 
ATOM     29  C   UNL A   1      40.614  30.637  34.698  1.00  0.00     0.074 A 
ATOM     30  C   UNL A   1      43.081  26.994  30.119  1.00  0.00     0.029 A 
ATOM     31  N   UNL A   1      41.823  28.407  31.288  1.00  0.00    -0.354 N 
ATOM     32  N   UNL A   1      41.059  29.932  33.687  1.00  0.00    -0.248 NA
ATOM     33  C   UNL A   1      41.393  30.483  35.933  1.00  0.00     0.031 C 
ATOM     34  C   UNL A   1      43.572  27.043  31.428  1.00  0.00     0.029 A 
ATOM     35  C   UNL A   1      42.804  27.941  32.150  1.00  0.00     0.049 A 
ATOM     36  H   UNL A   1      41.120  29.051  31.529  1.00  0.00     0.167 HD
ATOM     37  C   UNL A   1      42.167  29.245  34.163  1.00  0.00     0.074 A 
ATOM     38  C   UNL A   1      42.348  29.652  35.543  1.00  0.00     0.031 C 
ATOM     39  C   UNL A   1      42.955  28.348  33.523  1.00  0.00     0.037 A 
BRANCH  26  40
ATOM     40  C   UNL A   1      41.445  27.388  27.609  1.00  0.00     0.057 A 
ATOM     41  C   UNL A   1      42.267  27.962  26.630  1.00  0.00     0.134 A 
ATOM     42  C   UNL A   1      40.973  26.090  27.372  1.00  0.00     0.134 A 
ATOM     43  F   UNL A   1      42.746  29.204  26.787  1.00  0.00    -0.206 F 
ATOM     44  C   UNL A   1      42.596  27.276  25.458  1.00  0.00     0.040 A 
ATOM     45  C   UNL A   1      41.312  25.386  26.214  1.00  0.00     0.040 A 
ATOM     46  F   UNL A   1      40.188  25.477  28.271  1.00  0.00    -0.206 F 
ATOM     47  C   UNL A   1      42.125  25.981  25.251  1.00  0.00     0.006 A 
ENDBRANCH  26  40
BRANCH  27  48
ATOM     48  C   UNL A   1      39.071  32.277  36.003  1.00  0.00     0.057 A 
ATOM     49  C   UNL A   1      39.521  33.577  36.253  1.00  0.00     0.134 A 
ATOM     50  C   UNL A   1      38.237  31.685  36.961  1.00  0.00     0.134 A 
ATOM     51  F   UNL A   1      40.335  34.189  35.383  1.00  0.00    -0.206 F 
ATOM     52  C   UNL A   1      39.157  34.263  37.413  1.00  0.00     0.040 A 
ATOM     53  C   UNL A   1      37.840  32.371  38.108  1.00  0.00     0.040 A 
ATOM     54  F   UNL A   1      37.765  30.444  36.774  1.00  0.00    -0.206 F 
ATOM     55  C   UNL A   1      38.306  33.663  38.340  1.00  0.00     0.006 A 
ENDBRANCH  27  48
BRANCH  39  56
ATOM     56  C   UNL A   1      44.078  27.756  34.318  1.00  0.00     0.057 A 
ATOM     57  C   UNL A   1      43.916  26.566  35.040  1.00  0.00     0.134 A 
ATOM     58  C   UNL A   1      45.327  28.384  34.371  1.00  0.00     0.134 A 
ATOM     59  F   UNL A   1      42.737  25.927  35.041  1.00  0.00    -0.206 F 
ATOM     60  C   UNL A   1      44.952  26.038  35.813  1.00  0.00     0.040 A 
ATOM     61  C   UNL A   1      46.377  27.853  35.122  1.00  0.00     0.040 A 
ATOM     62  F   UNL A   1      45.547  29.522  33.697  1.00  0.00    -0.206 F 
ATOM     63  C   UNL A   1      46.187  26.682  35.853  1.00  0.00     0.006 A 
ENDBRANCH  39  56
ENDBRANCH  13  14
ENDBRANCH   6   8
ENDBRANCH   3   4
ENDBRANCH   2   3
ENDBRANCH   1   2
BRANCH   1  64
ATOM     64  C   UNL A   1      33.084  29.895  26.032  1.00  0.00     0.116 C 
BRANCH  64  65
ATOM     65  N   UNL A   1      33.109  28.403  26.174  1.00  0.00    -0.356 N 
ATOM     66  C   UNL A   1      33.025  27.161  25.662  1.00  0.00     0.223 C 
ATOM     67  H   UNL A   1      33.272  28.255  27.134  1.00  0.00     0.163 HD
ATOM     68  O   UNL A   1      33.348  26.366  26.582  1.00  0.00    -0.275 OA
BRANCH  66  69
ATOM     69  C   UNL A   1      32.726  26.418  24.262  1.00  0.00     0.091 C 
ATOM     70  C   UNL A   1      31.217  26.193  24.020  1.00  0.00     0.014 C 
ATOM     71  C   UNL A   1      33.611  25.665  23.159  1.00  0.00     0.091 C 
ATOM     72  C   UNL A   1      30.806  26.673  22.613  1.00  0.00     0.001 C 
ATOM     73  C   UNL A   1      33.235  26.336  21.785  1.00  0.00     0.014 C 
ATOM     74  C   UNL A   1      31.727  26.223  21.471  1.00  0.00     0.001 C 
BRANCH  71  75
ATOM     75  C   UNL A   1      33.373  24.156  22.782  1.00  0.00     0.228 C 
ATOM     76  O   UNL A   1      33.246  23.787  21.608  1.00  0.00    -0.274 OA
ATOM     77  N   UNL A   1      33.570  23.128  23.678  1.00  0.00    -0.325 N 
ATOM     78  H   UNL A   1      33.848  22.286  23.249  1.00  0.00     0.169 HD
BRANCH  77  79
ATOM     79  C   UNL A   1      33.455  23.029  25.078  1.00  0.00     0.054 A 
ATOM     80  C   UNL A   1      32.159  22.912  25.603  1.00  0.00     0.027 A 
ATOM     81  C   UNL A   1      34.511  23.103  25.986  1.00  0.00     0.063 A 
ATOM     82  C   UNL A   1      31.954  22.655  26.964  1.00  0.00     0.002 A 
ATOM     83  C   UNL A   1      34.318  22.759  27.337  1.00  0.00     0.016 A 
ATOM     84  C   UNL A   1      33.040  22.515  27.821  1.00  0.00     0.001 A 
BRANCH  81  85
ATOM     85  C   UNL A   1      35.850  23.576  25.616  1.00  0.00     0.256 C 
ATOM     86  O   UNL A   1      35.979  24.781  25.395  1.00  0.00    -0.269 OA
ATOM     87  N   UNL A   1      36.935  22.704  25.696  1.00  0.00    -0.335 N 
ATOM     88  C   UNL A   1      38.141  23.344  26.105  1.00  0.00     0.141 C 
ATOM     89  C   UNL A   1      37.132  21.466  24.912  1.00  0.00     0.141 C 
ATOM     90  C   UNL A   1      39.177  22.432  26.714  1.00  0.00     0.138 C 
ATOM     91  C   UNL A   1      38.408  20.610  25.304  1.00  0.00     0.138 C 
ATOM     92  N   UNL A   1      39.556  21.460  25.697  1.00  0.00    -0.368 N 
BRANCH  92  93
ATOM     93  C   UNL A   1      40.820  20.958  26.024  1.00  0.00     0.037 A 
ATOM     94  C   UNL A   1      41.985  21.733  25.893  1.00  0.00     0.029 A 
ATOM     95  C   UNL A   1      40.957  19.566  26.154  1.00  0.00     0.029 A 
ATOM     96  C   UNL A   1      43.243  21.124  25.839  1.00  0.00     0.041 A 
ATOM     97  C   UNL A   1      42.213  18.958  26.120  1.00  0.00     0.041 A 
ATOM     98  C   UNL A   1      43.344  19.743  25.947  1.00  0.00     0.123 A 
ATOM     99  F   UNL A   1      44.544  19.157  25.846  1.00  0.00    -0.207 F 
ENDBRANCH  92  93
ENDBRANCH  81  85
ENDBRANCH  77  79
ENDBRANCH  71  75
ENDBRANCH  66  69
ENDBRANCH  64  65
ENDBRANCH   1  64
TORSDOF 15
ENDMDL
MODEL 2
REMARK VINA RESULT:     -13.2      0.288      5.737
REMARK SMILES O=C(NCCCCNC(=O)[C@@H]1CCCC[C@@H]1C(=O)Nc1ccccc1C(=O)N1CCN(c2ccc(F)cc2)CC1)c1ccc(-c2c3nc(c(-c4c(F)cccc4F)c4ccc([nH]4)c(-c4c(F)cccc4F)c4nc(c(-c5c(F)cccc5F)c5ccc2[nH]5)C=C4)C=C3)cc1
REMARK SMILES IDX 6 1 5 2 4 3 3 4 1 5 2 6 41 8 42 9 94 10 43 11 93 12 44 13
REMARK SMILES IDX 45 14 46 15 87 16 47 17 92 18 86 19 88 20 48 21 91 22 85 23
REMARK SMILES IDX 84 24 49 26 75 27 58 28 74 29 59 30 62 31 73 32 89 33 60 34
REMARK SMILES IDX 61 35 72 37 90 38 63 39 50 40 51 41 56 42 52 43 53 44 55 45
REMARK SMILES IDX 57 46 54 47 76 48 77 49 82 50 78 51 79 52 81 53 83 54 80 55
REMARK SMILES IDX 64 56 65 57 70 58 66 59 67 60 69 61 71 62 68 63 7 64 8 65
REMARK SMILES IDX 9 66 10 68 11 69 12 70 16 71 13 72 15 73 14 74 17 75 18 76
REMARK SMILES IDX 19 77 20 79 21 80 25 81 22 82 24 83 23 84 26 85 27 86 28 87
REMARK SMILES IDX 29 88 40 89 30 90 39 91 31 92 32 93 33 94 38 95 34 96 37 97
REMARK SMILES IDX 35 98 36 99
REMARK H PARENT 3 7 88 25 62 36 8 67 19 78
REMARK Flexibility Score: inf
ROOT
ATOM      1  C   UNL A   1      31.411  30.394  25.890  1.00  0.00     0.023 C 
ENDROOT
BRANCH   1   2
ATOM      2  C   UNL A   1      31.103  31.807  26.455  1.00  0.00     0.023 C 
BRANCH   2   3
ATOM      3  C   UNL A   1      32.146  32.937  26.454  1.00  0.00     0.116 C 
BRANCH   3   4
ATOM      4  N   UNL A   1      32.116  33.846  27.607  1.00  0.00    -0.352 N 
ATOM      5  O   UNL A   1      32.952  35.055  29.343  1.00  0.00    -0.269 OA
ATOM      6  C   UNL A   1      33.118  34.176  28.516  1.00  0.00     0.251 C 
ATOM      7  H   UNL A   1      31.252  34.290  27.763  1.00  0.00     0.163 HD
BRANCH   6   8
ATOM      8  C   UNL A   1      34.361  33.367  28.548  1.00  0.00     0.039 A 
ATOM      9  C   UNL A   1      34.326  32.025  28.905  1.00  0.00     0.014 A 
ATOM     10  C   UNL A   1      35.591  34.018  28.381  1.00  0.00     0.014 A 
ATOM     11  C   UNL A   1      35.482  31.432  29.396  1.00  0.00     0.010 A 
ATOM     12  C   UNL A   1      36.772  33.376  28.769  1.00  0.00     0.010 A 
ATOM     13  C   UNL A   1      36.711  32.117  29.380  1.00  0.00    -0.014 A 
BRANCH  13  14
ATOM     14  C   UNL A   1      37.885  31.508  30.062  1.00  0.00     0.031 A 
ATOM     15  C   UNL A   1      38.155  31.760  31.527  1.00  0.00     0.074 A 
ATOM     16  C   UNL A   1      38.648  30.634  29.379  1.00  0.00     0.049 A 
ATOM     17  N   UNL A   1      39.093  31.255  32.292  1.00  0.00    -0.248 NA
ATOM     18  C   UNL A   1      37.266  32.701  32.228  1.00  0.00     0.031 C 
ATOM     19  C   UNL A   1      38.485  30.313  27.959  1.00  0.00     0.029 A 
ATOM     20  N   UNL A   1      39.678  29.828  29.786  1.00  0.00    -0.354 N 
ATOM     21  C   UNL A   1      38.923  31.833  33.546  1.00  0.00     0.074 A 
ATOM     22  C   UNL A   1      37.805  32.744  33.440  1.00  0.00     0.031 C 
ATOM     23  C   UNL A   1      39.334  29.330  27.631  1.00  0.00     0.029 A 
ATOM     24  C   UNL A   1      40.148  29.002  28.796  1.00  0.00     0.049 A 
ATOM     25  H   UNL A   1      40.045  29.840  30.700  1.00  0.00     0.167 HD
ATOM     26  C   UNL A   1      39.631  31.618  34.684  1.00  0.00     0.037 A 
ATOM     27  C   UNL A   1      41.136  28.088  28.813  1.00  0.00     0.037 A 
ATOM     28  C   UNL A   1      40.729  30.690  34.791  1.00  0.00     0.049 A 
ATOM     29  C   UNL A   1      41.890  27.859  30.088  1.00  0.00     0.074 A 
ATOM     30  C   UNL A   1      41.513  30.401  35.895  1.00  0.00     0.029 A 
ATOM     31  N   UNL A   1      41.191  29.893  33.754  1.00  0.00    -0.354 N 
ATOM     32  N   UNL A   1      41.724  28.429  31.257  1.00  0.00    -0.248 NA
ATOM     33  C   UNL A   1      42.971  26.867  30.046  1.00  0.00     0.031 C 
ATOM     34  C   UNL A   1      42.468  29.450  35.519  1.00  0.00     0.029 A 
ATOM     35  C   UNL A   1      42.252  29.116  34.192  1.00  0.00     0.049 A 
ATOM     36  H   UNL A   1      40.820  29.879  32.843  1.00  0.00     0.167 HD
ATOM     37  C   UNL A   1      42.684  27.871  32.090  1.00  0.00     0.074 A 
ATOM     38  C   UNL A   1      43.399  26.887  31.300  1.00  0.00     0.031 C 
ATOM     39  C   UNL A   1      42.959  28.155  33.385  1.00  0.00     0.037 A 
BRANCH  26  40
ATOM     40  C   UNL A   1      39.252  32.405  35.908  1.00  0.00     0.057 A 
ATOM     41  C   UNL A   1      39.773  33.682  36.159  1.00  0.00     0.134 A 
ATOM     42  C   UNL A   1      38.305  31.909  36.813  1.00  0.00     0.134 A 
ATOM     43  F   UNL A   1      40.691  34.214  35.339  1.00  0.00    -0.206 F 
ATOM     44  C   UNL A   1      39.376  34.429  37.270  1.00  0.00     0.040 A 
ATOM     45  C   UNL A   1      37.883  32.655  37.917  1.00  0.00     0.040 A 
ATOM     46  F   UNL A   1      37.759  30.698  36.631  1.00  0.00    -0.206 F 
ATOM     47  C   UNL A   1      38.422  33.920  38.149  1.00  0.00     0.006 A 
ENDBRANCH  26  40
BRANCH  27  48
ATOM     48  C   UNL A   1      41.468  27.347  27.572  1.00  0.00     0.057 A 
ATOM     49  C   UNL A   1      42.366  27.862  26.632  1.00  0.00     0.134 A 
ATOM     50  C   UNL A   1      40.914  26.086  27.314  1.00  0.00     0.134 A 
ATOM     51  F   UNL A   1      42.916  29.071  26.814  1.00  0.00    -0.206 F 
ATOM     52  C   UNL A   1      42.700  27.151  25.477  1.00  0.00     0.040 A 
ATOM     53  C   UNL A   1      41.263  25.352  26.181  1.00  0.00     0.040 A 
ATOM     54  F   UNL A   1      40.053  25.534  28.182  1.00  0.00    -0.206 F 
ATOM     55  C   UNL A   1      42.154  25.888  25.255  1.00  0.00     0.006 A 
ENDBRANCH  27  48
BRANCH  39  56
ATOM     56  C   UNL A   1      44.080  27.386  34.015  1.00  0.00     0.057 A 
ATOM     57  C   UNL A   1      45.395  27.868  34.003  1.00  0.00     0.134 A 
ATOM     58  C   UNL A   1      43.844  26.152  34.632  1.00  0.00     0.134 A 
ATOM     59  F   UNL A   1      45.686  29.037  33.413  1.00  0.00    -0.206 F 
ATOM     60  C   UNL A   1      46.445  27.130  34.555  1.00  0.00     0.040 A 
ATOM     61  C   UNL A   1      44.882  25.417  35.207  1.00  0.00     0.040 A 
ATOM     62  F   UNL A   1      42.605  25.641  34.682  1.00  0.00    -0.206 F 
ATOM     63  C   UNL A   1      46.187  25.902  35.161  1.00  0.00     0.006 A 
ENDBRANCH  39  56
ENDBRANCH  13  14
ENDBRANCH   6   8
ENDBRANCH   3   4
ENDBRANCH   2   3
ENDBRANCH   1   2
BRANCH   1  64
ATOM     64  C   UNL A   1      32.868  29.888  25.890  1.00  0.00     0.116 C 
BRANCH  64  65
ATOM     65  N   UNL A   1      33.006  28.404  26.044  1.00  0.00    -0.356 N 
ATOM     66  C   UNL A   1      32.995  27.153  25.545  1.00  0.00     0.223 C 
ATOM     67  H   UNL A   1      33.207  28.278  27.000  1.00  0.00     0.163 HD
ATOM     68  O   UNL A   1      33.402  26.393  26.463  1.00  0.00    -0.275 OA
BRANCH  66  69
ATOM     69  C   UNL A   1      32.709  26.376  24.162  1.00  0.00     0.091 C 
ATOM     70  C   UNL A   1      31.205  26.106  23.933  1.00  0.00     0.014 C 
ATOM     71  C   UNL A   1      33.608  25.625  23.069  1.00  0.00     0.091 C 
ATOM     72  C   UNL A   1      30.775  26.547  22.520  1.00  0.00     0.001 C 
ATOM     73  C   UNL A   1      33.207  26.259  21.684  1.00  0.00     0.014 C 
ATOM     74  C   UNL A   1      31.701  26.099  21.381  1.00  0.00     0.001 C 
BRANCH  71  75
ATOM     75  C   UNL A   1      33.409  24.104  22.723  1.00  0.00     0.228 C 
ATOM     76  O   UNL A   1      33.320  23.704  21.555  1.00  0.00    -0.274 OA
ATOM     77  N   UNL A   1      33.601  23.101  23.648  1.00  0.00    -0.325 N 
ATOM     78  H   UNL A   1      33.907  22.254  23.247  1.00  0.00     0.169 HD
BRANCH  77  79
ATOM     79  C   UNL A   1      33.451  23.033  25.046  1.00  0.00     0.054 A 
ATOM     80  C   UNL A   1      32.144  22.919  25.541  1.00  0.00     0.027 A 
ATOM     81  C   UNL A   1      34.484  23.134  25.978  1.00  0.00     0.063 A 
ATOM     82  C   UNL A   1      31.906  22.692  26.902  1.00  0.00     0.002 A 
ATOM     83  C   UNL A   1      34.259  22.819  27.332  1.00  0.00     0.016 A 
ATOM     84  C   UNL A   1      32.970  22.578  27.789  1.00  0.00     0.001 A 
BRANCH  81  85
ATOM     85  C   UNL A   1      35.829  23.607  25.632  1.00  0.00     0.256 C 
ATOM     86  O   UNL A   1      35.967  24.816  25.443  1.00  0.00    -0.269 OA
ATOM     87  N   UNL A   1      36.908  22.727  25.700  1.00  0.00    -0.335 N 
ATOM     88  C   UNL A   1      38.114  23.348  26.135  1.00  0.00     0.141 C 
ATOM     89  C   UNL A   1      37.104  21.507  24.887  1.00  0.00     0.141 C 
ATOM     90  C   UNL A   1      39.139  22.414  26.729  1.00  0.00     0.138 C 
ATOM     91  C   UNL A   1      38.371  20.633  25.267  1.00  0.00     0.138 C 
ATOM     92  N   UNL A   1      39.521  21.465  25.692  1.00  0.00    -0.368 N 
BRANCH  92  93
ATOM     93  C   UNL A   1      40.778  20.947  26.017  1.00  0.00     0.037 A 
ATOM     94  C   UNL A   1      41.950  21.716  25.911  1.00  0.00     0.029 A 
ATOM     95  C   UNL A   1      40.904  19.552  26.118  1.00  0.00     0.029 A 
ATOM     96  C   UNL A   1      43.204  21.099  25.853  1.00  0.00     0.041 A 
ATOM     97  C   UNL A   1      42.156  18.935  26.080  1.00  0.00     0.041 A 
ATOM     98  C   UNL A   1      43.294  19.715  25.931  1.00  0.00     0.123 A 
ATOM     99  F   UNL A   1      44.491  19.122  25.827  1.00  0.00    -0.207 F 
ENDBRANCH  92  93
ENDBRANCH  81  85
ENDBRANCH  77  79
ENDBRANCH  71  75
ENDBRANCH  66  69
ENDBRANCH  64  65
ENDBRANCH   1  64
TORSDOF 15
ENDMDL
MODEL 3
REMARK VINA RESULT:     -12.6      4.181     10.670
REMARK SMILES O=C(NCCCCNC(=O)[C@@H]1CCCC[C@@H]1C(=O)Nc1ccccc1C(=O)N1CCN(c2ccc(F)cc2)CC1)c1ccc(-c2c3nc(c(-c4c(F)cccc4F)c4ccc([nH]4)c(-c4c(F)cccc4F)c4nc(c(-c5c(F)cccc5F)c5ccc2[nH]5)C=C4)C=C3)cc1
REMARK SMILES IDX 6 1 5 2 4 3 3 4 1 5 2 6 41 8 42 9 94 10 43 11 93 12 44 13
REMARK SMILES IDX 45 14 46 15 87 16 47 17 92 18 86 19 88 20 48 21 91 22 85 23
REMARK SMILES IDX 84 24 49 26 75 27 58 28 74 29 59 30 62 31 73 32 89 33 60 34
REMARK SMILES IDX 61 35 72 37 90 38 63 39 50 40 51 41 56 42 52 43 53 44 55 45
REMARK SMILES IDX 57 46 54 47 76 48 77 49 82 50 78 51 79 52 81 53 83 54 80 55
REMARK SMILES IDX 64 56 65 57 70 58 66 59 67 60 69 61 71 62 68 63 7 64 8 65
REMARK SMILES IDX 9 66 10 68 11 69 12 70 16 71 13 72 15 73 14 74 17 75 18 76
REMARK SMILES IDX 19 77 20 79 21 80 25 81 22 82 24 83 23 84 26 85 27 86 28 87
REMARK SMILES IDX 29 88 40 89 30 90 39 91 31 92 32 93 33 94 38 95 34 96 37 97
REMARK SMILES IDX 35 98 36 99
REMARK H PARENT 3 7 88 25 62 36 8 67 19 78
REMARK Flexibility Score: inf
ROOT
ATOM      1  C   UNL A   1      38.968  23.242  26.092  1.00  0.00     0.023 C 
ENDROOT
BRANCH   1   2
ATOM      2  C   UNL A   1      39.086  21.746  25.693  1.00  0.00     0.023 C 
BRANCH   2   3
ATOM      3  C   UNL A   1      39.549  20.666  26.686  1.00  0.00     0.116 C 
BRANCH   3   4
ATOM      4  N   UNL A   1      40.326  19.557  26.119  1.00  0.00    -0.352 N 
ATOM      5  O   UNL A   1      42.174  18.307  25.675  1.00  0.00    -0.269 OA
ATOM      6  C   UNL A   1      41.703  19.357  26.076  1.00  0.00     0.251 C 
ATOM      7  H   UNL A   1      39.791  18.845  25.702  1.00  0.00     0.163 HD
BRANCH   6   8
ATOM      8  C   UNL A   1      42.609  20.481  26.418  1.00  0.00     0.039 A 
ATOM      9  C   UNL A   1      42.610  21.031  27.693  1.00  0.00     0.014 A 
ATOM     10  C   UNL A   1      43.340  21.091  25.390  1.00  0.00     0.014 A 
ATOM     11  C   UNL A   1      43.064  22.332  27.862  1.00  0.00     0.010 A 
ATOM     12  C   UNL A   1      43.900  22.357  25.595  1.00  0.00     0.010 A 
ATOM     13  C   UNL A   1      43.671  23.031  26.802  1.00  0.00    -0.014 A 
BRANCH  13  14
ATOM     14  C   UNL A   1      43.995  24.472  26.979  1.00  0.00     0.031 A 
ATOM     15  C   UNL A   1      42.979  25.437  27.546  1.00  0.00     0.074 A 
ATOM     16  C   UNL A   1      45.251  24.889  26.730  1.00  0.00     0.049 A 
ATOM     17  N   UNL A   1      43.118  26.710  27.828  1.00  0.00    -0.248 NA
ATOM     18  C   UNL A   1      41.632  24.915  27.828  1.00  0.00     0.031 C 
ATOM     19  C   UNL A   1      46.317  24.048  26.179  1.00  0.00     0.029 A 
ATOM     20  N   UNL A   1      45.857  26.099  26.944  1.00  0.00    -0.354 N 
ATOM     21  C   UNL A   1      41.880  27.142  28.293  1.00  0.00     0.074 A 
ATOM     22  C   UNL A   1      40.991  26.002  28.237  1.00  0.00     0.031 C 
ATOM     23  C   UNL A   1      47.460  24.745  26.163  1.00  0.00     0.029 A 
ATOM     24  C   UNL A   1      47.195  26.100  26.635  1.00  0.00     0.049 A 
ATOM     25  H   UNL A   1      45.380  26.890  27.285  1.00  0.00     0.167 HD
ATOM     26  C   UNL A   1      41.520  28.374  28.732  1.00  0.00     0.037 A 
ATOM     27  C   UNL A   1      48.109  27.084  26.707  1.00  0.00     0.037 A 
ATOM     28  C   UNL A   1      42.416  29.500  28.810  1.00  0.00     0.049 A 
ATOM     29  C   UNL A   1      47.687  28.430  27.213  1.00  0.00     0.074 A 
ATOM     30  C   UNL A   1      42.150  30.790  29.237  1.00  0.00     0.029 A 
ATOM     31  N   UNL A   1      43.758  29.465  28.460  1.00  0.00    -0.354 N 
ATOM     32  N   UNL A   1      46.508  28.821  27.629  1.00  0.00    -0.248 NA
ATOM     33  C   UNL A   1      48.720  29.474  27.251  1.00  0.00     0.031 C 
ATOM     34  C   UNL A   1      43.324  31.543  29.117  1.00  0.00     0.029 A 
ATOM     35  C   UNL A   1      44.331  30.712  28.657  1.00  0.00     0.049 A 
ATOM     36  H   UNL A   1      44.233  28.673  28.123  1.00  0.00     0.167 HD
ATOM     37  C   UNL A   1      46.652  30.157  27.975  1.00  0.00     0.074 A 
ATOM     38  C   UNL A   1      48.044  30.496  27.756  1.00  0.00     0.031 C 
ATOM     39  C   UNL A   1      45.715  31.030  28.418  1.00  0.00     0.037 A 
BRANCH  26  40
ATOM     40  C   UNL A   1      40.091  28.581  29.156  1.00  0.00     0.057 A 
ATOM     41  C   UNL A   1      39.670  28.360  30.474  1.00  0.00     0.134 A 
ATOM     42  C   UNL A   1      39.140  29.071  28.251  1.00  0.00     0.134 A 
ATOM     43  F   UNL A   1      40.525  27.882  31.390  1.00  0.00    -0.206 F 
ATOM     44  C   UNL A   1      38.354  28.606  30.872  1.00  0.00     0.040 A 
ATOM     45  C   UNL A   1      37.827  29.341  28.642  1.00  0.00     0.040 A 
ATOM     46  F   UNL A   1      39.477  29.313  26.975  1.00  0.00    -0.206 F 
ATOM     47  C   UNL A   1      37.429  29.106  29.957  1.00  0.00     0.006 A 
ENDBRANCH  26  40
BRANCH  27  48
ATOM     48  C   UNL A   1      49.502  26.822  26.268  1.00  0.00     0.057 A 
ATOM     49  C   UNL A   1      49.899  27.015  24.942  1.00  0.00     0.134 A 
ATOM     50  C   UNL A   1      50.478  26.400  27.180  1.00  0.00     0.134 A 
ATOM     51  F   UNL A   1      49.006  27.401  24.019  1.00  0.00    -0.206 F 
ATOM     52  C   UNL A   1      51.216  26.795  24.535  1.00  0.00     0.040 A 
ATOM     53  C   UNL A   1      51.804  26.207  26.795  1.00  0.00     0.040 A 
ATOM     54  F   UNL A   1      50.163  26.206  28.470  1.00  0.00    -0.206 F 
ATOM     55  C   UNL A   1      52.175  26.399  25.466  1.00  0.00     0.006 A 
ENDBRANCH  27  48
BRANCH  39  56
ATOM     56  C   UNL A   1      46.179  32.428  28.692  1.00  0.00     0.057 A 
ATOM     57  C   UNL A   1      46.650  32.808  29.957  1.00  0.00     0.134 A 
ATOM     58  C   UNL A   1      46.148  33.402  27.689  1.00  0.00     0.134 A 
ATOM     59  F   UNL A   1      46.688  31.921  30.962  1.00  0.00    -0.206 F 
ATOM     60  C   UNL A   1      47.044  34.121  30.221  1.00  0.00     0.040 A 
ATOM     61  C   UNL A   1      46.561  34.713  27.936  1.00  0.00     0.040 A 
ATOM     62  F   UNL A   1      45.715  33.099  26.457  1.00  0.00    -0.206 F 
ATOM     63  C   UNL A   1      47.002  35.076  29.208  1.00  0.00     0.006 A 
ENDBRANCH  39  56
ENDBRANCH  13  14
ENDBRANCH   6   8
ENDBRANCH   3   4
ENDBRANCH   2   3
ENDBRANCH   1   2
BRANCH   1  64
ATOM     64  C   UNL A   1      37.573  23.899  26.133  1.00  0.00     0.116 C 
BRANCH  64  65
ATOM     65  N   UNL A   1      36.770  23.721  24.880  1.00  0.00    -0.356 N 
ATOM     66  C   UNL A   1      35.618  23.453  24.237  1.00  0.00     0.223 C 
ATOM     67  H   UNL A   1      37.416  23.885  24.155  1.00  0.00     0.163 HD
ATOM     68  O   UNL A   1      35.822  23.685  23.016  1.00  0.00    -0.275 OA
BRANCH  66  69
ATOM     69  C   UNL A   1      34.098  23.020  24.552  1.00  0.00     0.091 C 
ATOM     70  C   UNL A   1      33.427  22.297  23.363  1.00  0.00     0.014 C 
ATOM     71  C   UNL A   1      33.039  23.339  25.712  1.00  0.00     0.091 C 
ATOM     72  C   UNL A   1      32.754  20.988  23.822  1.00  0.00     0.001 C 
ATOM     73  C   UNL A   1      32.532  21.938  26.220  1.00  0.00     0.014 C 
ATOM     74  C   UNL A   1      31.895  21.100  25.089  1.00  0.00     0.001 C 
BRANCH  71  75
ATOM     75  C   UNL A   1      31.652  24.021  25.415  1.00  0.00     0.228 C 
ATOM     76  O   UNL A   1      30.595  23.591  25.894  1.00  0.00    -0.274 OA
ATOM     77  N   UNL A   1      31.547  25.275  24.853  1.00  0.00    -0.325 N 
ATOM     78  H   UNL A   1      30.741  25.764  25.140  1.00  0.00     0.169 HD
BRANCH  77  79
ATOM     79  C   UNL A   1      32.351  26.004  23.956  1.00  0.00     0.054 A 
ATOM     80  C   UNL A   1      32.345  25.589  22.616  1.00  0.00     0.027 A 
ATOM     81  C   UNL A   1      33.199  27.057  24.298  1.00  0.00     0.063 A 
ATOM     82  C   UNL A   1      32.990  26.341  21.626  1.00  0.00     0.002 A 
ATOM     83  C   UNL A   1      33.774  27.865  23.299  1.00  0.00     0.016 A 
ATOM     84  C   UNL A   1      33.652  27.516  21.961  1.00  0.00     0.001 A 
BRANCH  81  85
ATOM     85  C   UNL A   1      33.576  27.361  25.683  1.00  0.00     0.256 C 
ATOM     86  O   UNL A   1      34.123  26.464  26.325  1.00  0.00    -0.269 OA
ATOM     87  N   UNL A   1      33.468  28.669  26.155  1.00  0.00    -0.335 N 
ATOM     88  C   UNL A   1      34.501  29.022  27.071  1.00  0.00     0.141 C 
ATOM     89  C   UNL A   1      32.224  29.455  26.299  1.00  0.00     0.141 C 
ATOM     90  C   UNL A   1      34.763  30.502  27.203  1.00  0.00     0.138 C 
ATOM     91  C   UNL A   1      32.421  30.962  26.751  1.00  0.00     0.138 C 
ATOM     92  N   UNL A   1      33.544  31.120  27.705  1.00  0.00    -0.368 N 
BRANCH  92  93
ATOM     93  C   UNL A   1      33.887  32.334  28.309  1.00  0.00     0.037 A 
ATOM     94  C   UNL A   1      34.657  32.390  29.482  1.00  0.00     0.029 A 
ATOM     95  C   UNL A   1      33.168  33.479  27.928  1.00  0.00     0.029 A 
ATOM     96  C   UNL A   1      34.661  33.541  30.278  1.00  0.00     0.041 A 
ATOM     97  C   UNL A   1      33.185  34.635  28.711  1.00  0.00     0.041 A 
ATOM     98  C   UNL A   1      33.921  34.649  29.888  1.00  0.00     0.123 A 
ATOM     99  F   UNL A   1      33.886  35.733  30.674  1.00  0.00    -0.207 F 
ENDBRANCH  92  93
ENDBRANCH  81  85
ENDBRANCH  77  79
ENDBRANCH  71  75
ENDBRANCH  66  69
ENDBRANCH  64  65
ENDBRANCH   1  64
TORSDOF 15
ENDMDL
