MODEL 1
REMARK VINA RESULT:     -11.9      0.000      0.000
REMARK SMILES CCc1cc2c(C)cc(=O)oc2cc1O[C@H](C)C(=O)NCCCCNC(=O)c1ccc(-c2c3nc(c(-c4c(F)cccc4F)c4ccc([nH]4)c(-c4c(F)cccc4F)c4nc(c(-c5c(F)cccc5F)c5ccc2[nH]5)C=C4)C=C3)cc1
REMARK SMILES IDX 22 1 21 2 20 3 18 4 19 5 16 7 17 8 15 9 14 10 3 11 4 12 5 13
REMARK SMILES IDX 13 14 6 15 12 16 7 17 8 18 11 19 9 20 10 21 2 22 1 23 23 24
REMARK SMILES IDX 24 25 25 26 26 27 27 29 28 30 29 31 81 32 30 33 80 34 31 35
REMARK SMILES IDX 32 36 33 37 74 38 34 39 79 40 73 41 75 42 35 43 78 44 72 45
REMARK SMILES IDX 71 46 36 48 62 49 45 50 61 51 46 52 49 53 60 54 76 55 47 56
REMARK SMILES IDX 48 57 59 59 77 60 50 61 37 62 38 63 43 64 39 65 40 66 42 67
REMARK SMILES IDX 44 68 41 69 63 70 64 71 69 72 65 73 66 74 68 75 70 76 67 77
REMARK SMILES IDX 51 78 52 79 57 80 53 81 54 82 56 83 58 84 55 85
REMARK H PARENT 20 6 25 28 75 47 49 58
REMARK Flexibility Score: inf
ROOT
ATOM      1  C   UNL A   1      36.729  19.450  24.894  1.00  0.00     0.023 C 
ENDROOT
BRANCH   1   2
ATOM      2  C   UNL A   1      35.508  20.360  24.981  1.00  0.00     0.116 C 
BRANCH   2   3
ATOM      3  N   UNL A   1      34.314  19.576  25.230  1.00  0.00    -0.353 N 
ATOM      4  C   UNL A   1      33.023  19.873  24.911  1.00  0.00     0.260 C 
ATOM      5  O   UNL A   1      32.138  19.097  25.282  1.00  0.00    -0.271 OA
ATOM      6  H   UNL A   1      34.455  18.717  25.689  1.00  0.00     0.163 HD
BRANCH   4   7
ATOM      7  C   UNL A   1      32.686  21.139  24.095  1.00  0.00     0.258 C 
ATOM      8  C   UNL A   1      32.169  20.676  22.722  1.00  0.00     0.064 C 
BRANCH   7   9
ATOM      9  O   UNL A   1      31.764  22.111  24.583  1.00  0.00    -0.480 OA
BRANCH   9  10
ATOM     10  C   UNL A   1      32.065  23.442  24.668  1.00  0.00     0.127 A 
ATOM     11  C   UNL A   1      32.393  23.917  25.955  1.00  0.00    -0.005 A 
ATOM     12  C   UNL A   1      32.911  25.224  26.104  1.00  0.00     0.019 A 
ATOM     13  C   UNL A   1      33.099  26.067  25.005  1.00  0.00     0.021 A 
ATOM     14  C   UNL A   1      32.153  24.317  23.588  1.00  0.00     0.094 A 
ATOM     15  C   UNL A   1      33.670  27.417  25.093  1.00  0.00    -0.033 A 
ATOM     16  C   UNL A   1      32.716  25.583  23.761  1.00  0.00     0.142 A 
ATOM     17  C   UNL A   1      33.912  28.050  26.429  1.00  0.00     0.045 C 
ATOM     18  C   UNL A   1      33.953  28.058  23.949  1.00  0.00     0.098 A 
ATOM     19  O   UNL A   1      32.950  26.319  22.582  1.00  0.00    -0.423 OA
ATOM     20  C   UNL A   1      33.685  27.490  22.619  1.00  0.00     0.336 A 
ATOM     21  O   UNL A   1      34.076  28.056  21.605  1.00  0.00    -0.246 OA
BRANCH  11  22
ATOM     22  C   UNL A   1      32.229  23.055  27.193  1.00  0.00     0.036 C 
ATOM     23  C   UNL A   1      33.535  22.405  27.642  1.00  0.00     0.009 C 
ENDBRANCH  11  22
ENDBRANCH   9  10
ENDBRANCH   7   9
ENDBRANCH   4   7
ENDBRANCH   2   3
ENDBRANCH   1   2
BRANCH   1  24
ATOM     24  C   UNL A   1      38.046  20.196  24.671  1.00  0.00     0.023 C 
BRANCH  24  25
ATOM     25  C   UNL A   1      38.940  20.280  25.903  1.00  0.00     0.116 C 
BRANCH  25  26
ATOM     26  N   UNL A   1      40.037  19.324  25.854  1.00  0.00    -0.352 N 
ATOM     27  C   UNL A   1      41.376  19.538  26.056  1.00  0.00     0.251 C 
ATOM     28  H   UNL A   1      39.782  18.396  25.647  1.00  0.00     0.163 HD
ATOM     29  O   UNL A   1      42.194  18.663  25.787  1.00  0.00    -0.269 OA
BRANCH  27  30
ATOM     30  C   UNL A   1      41.831  20.843  26.577  1.00  0.00     0.039 A 
ATOM     31  C   UNL A   1      42.264  21.819  25.678  1.00  0.00     0.014 A 
ATOM     32  C   UNL A   1      41.804  21.107  27.949  1.00  0.00     0.014 A 
ATOM     33  C   UNL A   1      42.608  23.086  26.152  1.00  0.00     0.010 A 
ATOM     34  C   UNL A   1      42.067  22.392  28.409  1.00  0.00     0.010 A 
ATOM     35  C   UNL A   1      42.477  23.393  27.517  1.00  0.00    -0.014 A 
BRANCH  35  36
ATOM     36  C   UNL A   1      42.762  24.757  28.029  1.00  0.00     0.031 A 
ATOM     37  C   UNL A   1      44.162  25.138  28.424  1.00  0.00     0.074 A 
ATOM     38  C   UNL A   1      41.751  25.632  28.196  1.00  0.00     0.049 A 
ATOM     39  N   UNL A   1      44.599  26.258  28.942  1.00  0.00    -0.248 NA
ATOM     40  C   UNL A   1      45.205  24.118  28.235  1.00  0.00     0.031 C 
ATOM     41  C   UNL A   1      40.343  25.365  27.897  1.00  0.00     0.029 A 
ATOM     42  N   UNL A   1      41.751  26.920  28.669  1.00  0.00    -0.354 N 
ATOM     43  C   UNL A   1      45.960  26.072  29.151  1.00  0.00     0.074 A 
ATOM     44  C   UNL A   1      46.266  24.713  28.760  1.00  0.00     0.031 C 
ATOM     45  C   UNL A   1      39.621  26.464  28.168  1.00  0.00     0.029 A 
ATOM     46  C   UNL A   1      40.505  27.496  28.700  1.00  0.00     0.049 A 
ATOM     47  H   UNL A   1      42.568  27.388  28.958  1.00  0.00     0.167 HD
ATOM     48  C   UNL A   1      46.876  26.959  29.605  1.00  0.00     0.037 A 
ATOM     49  C   UNL A   1      40.116  28.714  29.119  1.00  0.00     0.037 A 
ATOM     50  C   UNL A   1      46.570  28.314  29.980  1.00  0.00     0.049 A 
ATOM     51  C   UNL A   1      41.150  29.675  29.639  1.00  0.00     0.074 A 
ATOM     52  C   UNL A   1      47.436  29.309  30.399  1.00  0.00     0.029 A 
ATOM     53  N   UNL A   1      45.296  28.863  29.991  1.00  0.00    -0.354 N 
ATOM     54  N   UNL A   1      42.445  29.512  29.760  1.00  0.00    -0.248 NA
ATOM     55  C   UNL A   1      40.669  30.994  30.076  1.00  0.00     0.031 C 
ATOM     56  C   UNL A   1      46.681  30.442  30.715  1.00  0.00     0.029 A 
ATOM     57  C   UNL A   1      45.350  30.174  30.435  1.00  0.00     0.049 A 
ATOM     58  H   UNL A   1      44.475  28.390  29.723  1.00  0.00     0.167 HD
ATOM     59  C   UNL A   1      42.937  30.713  30.256  1.00  0.00     0.074 A 
ATOM     60  C   UNL A   1      41.802  31.600  30.398  1.00  0.00     0.031 C 
ATOM     61  C   UNL A   1      44.212  31.050  30.565  1.00  0.00     0.037 A 
BRANCH  48  62
ATOM     62  C   UNL A   1      48.298  26.489  29.721  1.00  0.00     0.057 A 
ATOM     63  C   UNL A   1      49.229  26.685  28.691  1.00  0.00     0.134 A 
ATOM     64  C   UNL A   1      48.752  25.862  30.889  1.00  0.00     0.134 A 
ATOM     65  F   UNL A   1      48.859  27.269  27.541  1.00  0.00    -0.206 F 
ATOM     66  C   UNL A   1      50.550  26.250  28.808  1.00  0.00     0.040 A 
ATOM     67  C   UNL A   1      50.078  25.449  31.028  1.00  0.00     0.040 A 
ATOM     68  F   UNL A   1      47.918  25.649  31.916  1.00  0.00    -0.206 F 
ATOM     69  C   UNL A   1      50.980  25.636  29.982  1.00  0.00     0.006 A 
ENDBRANCH  48  62
BRANCH  49  70
ATOM     70  C   UNL A   1      38.684  29.106  29.049  1.00  0.00     0.057 A 
ATOM     71  C   UNL A   1      38.126  29.597  27.863  1.00  0.00     0.134 A 
ATOM     72  C   UNL A   1      37.844  29.013  30.165  1.00  0.00     0.134 A 
ATOM     73  F   UNL A   1      38.883  29.728  26.764  1.00  0.00    -0.206 F 
ATOM     74  C   UNL A   1      36.792  30.003  27.794  1.00  0.00     0.040 A 
ATOM     75  C   UNL A   1      36.501  29.387  30.104  1.00  0.00     0.040 A 
ATOM     76  F   UNL A   1      38.315  28.543  31.330  1.00  0.00    -0.206 F 
ATOM     77  C   UNL A   1      35.974  29.894  28.917  1.00  0.00     0.006 A 
ENDBRANCH  49  70
BRANCH  61  78
ATOM     78  C   UNL A   1      44.458  32.451  31.047  1.00  0.00     0.057 A 
ATOM     79  C   UNL A   1      44.704  33.509  30.164  1.00  0.00     0.134 A 
ATOM     80  C   UNL A   1      44.407  32.750  32.415  1.00  0.00     0.134 A 
ATOM     81  F   UNL A   1      44.778  33.289  28.842  1.00  0.00    -0.206 F 
ATOM     82  C   UNL A   1      44.918  34.810  30.625  1.00  0.00     0.040 A 
ATOM     83  C   UNL A   1      44.588  34.051  32.886  1.00  0.00     0.040 A 
ATOM     84  F   UNL A   1      44.165  31.786  33.316  1.00  0.00    -0.206 F 
ATOM     85  C   UNL A   1      44.852  35.085  31.989  1.00  0.00     0.006 A 
ENDBRANCH  61  78
ENDBRANCH  35  36
ENDBRANCH  27  30
ENDBRANCH  25  26
ENDBRANCH  24  25
ENDBRANCH   1  24
TORSDOF 14
ENDMDL
MODEL 2
REMARK VINA RESULT:     -11.7      4.339      9.338
REMARK SMILES CCc1cc2c(C)cc(=O)oc2cc1O[C@H](C)C(=O)NCCCCNC(=O)c1ccc(-c2c3nc(c(-c4c(F)cccc4F)c4ccc([nH]4)c(-c4c(F)cccc4F)c4nc(c(-c5c(F)cccc5F)c5ccc2[nH]5)C=C4)C=C3)cc1
REMARK SMILES IDX 22 1 21 2 20 3 18 4 19 5 16 7 17 8 15 9 14 10 3 11 4 12 5 13
REMARK SMILES IDX 13 14 6 15 12 16 7 17 8 18 11 19 9 20 10 21 2 22 1 23 23 24
REMARK SMILES IDX 24 25 25 26 26 27 27 29 28 30 29 31 81 32 30 33 80 34 31 35
REMARK SMILES IDX 32 36 33 37 74 38 34 39 79 40 73 41 75 42 35 43 78 44 72 45
REMARK SMILES IDX 71 46 36 48 62 49 45 50 61 51 46 52 49 53 60 54 76 55 47 56
REMARK SMILES IDX 48 57 59 59 77 60 50 61 37 62 38 63 43 64 39 65 40 66 42 67
REMARK SMILES IDX 44 68 41 69 63 70 64 71 69 72 65 73 66 74 68 75 70 76 67 77
REMARK SMILES IDX 51 78 52 79 57 80 53 81 54 82 56 83 58 84 55 85
REMARK H PARENT 20 6 25 28 75 47 49 58
REMARK Flexibility Score: inf
ROOT
ATOM      1  C   UNL A   1      31.693  30.192  26.784  1.00  0.00     0.023 C 
ENDROOT
BRANCH   1   2
ATOM      2  C   UNL A   1      32.018  29.611  25.413  1.00  0.00     0.116 C 
BRANCH   2   3
ATOM      3  N   UNL A   1      31.085  30.110  24.421  1.00  0.00    -0.353 N 
ATOM      4  C   UNL A   1      30.247  29.402  23.612  1.00  0.00     0.260 C 
ATOM      5  O   UNL A   1      29.582  30.021  22.777  1.00  0.00    -0.271 OA
ATOM      6  H   UNL A   1      31.054  31.088  24.318  1.00  0.00     0.163 HD
BRANCH   4   7
ATOM      7  C   UNL A   1      30.127  27.869  23.755  1.00  0.00     0.258 C 
ATOM      8  C   UNL A   1      28.669  27.493  23.440  1.00  0.00     0.064 C 
BRANCH   7   9
ATOM      9  O   UNL A   1      30.958  26.989  23.003  1.00  0.00    -0.480 OA
BRANCH   9  10
ATOM     10  C   UNL A   1      31.815  26.097  23.587  1.00  0.00     0.127 A 
ATOM     11  C   UNL A   1      33.182  26.268  23.281  1.00  0.00    -0.005 A 
ATOM     12  C   UNL A   1      34.153  25.527  23.993  1.00  0.00     0.019 A 
ATOM     13  C   UNL A   1      33.792  24.618  24.991  1.00  0.00     0.021 A 
ATOM     14  C   UNL A   1      31.451  25.117  24.506  1.00  0.00     0.094 A 
ATOM     15  C   UNL A   1      34.756  23.852  25.792  1.00  0.00    -0.033 A 
ATOM     16  C   UNL A   1      32.436  24.439  25.228  1.00  0.00     0.142 A 
ATOM     17  C   UNL A   1      36.212  23.865  25.438  1.00  0.00     0.045 C 
ATOM     18  C   UNL A   1      34.291  23.140  26.829  1.00  0.00     0.098 A 
ATOM     19  O   UNL A   1      31.974  23.616  26.275  1.00  0.00    -0.423 OA
ATOM     20  C   UNL A   1      32.865  23.062  27.178  1.00  0.00     0.336 A 
ATOM     21  O   UNL A   1      32.500  22.506  28.207  1.00  0.00    -0.246 OA
BRANCH  11  22
ATOM     22  C   UNL A   1      33.649  27.246  22.219  1.00  0.00     0.036 C 
ATOM     23  C   UNL A   1      34.101  28.584  22.800  1.00  0.00     0.009 C 
ENDBRANCH  11  22
ENDBRANCH   9  10
ENDBRANCH   7   9
ENDBRANCH   4   7
ENDBRANCH   2   3
ENDBRANCH   1   2
BRANCH   1  24
ATOM     24  C   UNL A   1      31.512  31.712  26.789  1.00  0.00     0.023 C 
BRANCH  24  25
ATOM     25  C   UNL A   1      32.802  32.500  26.984  1.00  0.00     0.116 C 
BRANCH  25  26
ATOM     26  N   UNL A   1      32.553  33.852  27.465  1.00  0.00    -0.352 N 
ATOM     27  C   UNL A   1      33.132  34.511  28.519  1.00  0.00     0.251 C 
ATOM     28  H   UNL A   1      31.877  34.363  26.965  1.00  0.00     0.163 HD
ATOM     29  O   UNL A   1      32.672  35.579  28.913  1.00  0.00    -0.269 OA
BRANCH  27  30
ATOM     30  C   UNL A   1      34.301  33.912  29.195  1.00  0.00     0.039 A 
ATOM     31  C   UNL A   1      34.093  32.975  30.208  1.00  0.00     0.014 A 
ATOM     32  C   UNL A   1      35.598  34.259  28.806  1.00  0.00     0.014 A 
ATOM     33  C   UNL A   1      35.189  32.336  30.789  1.00  0.00     0.010 A 
ATOM     34  C   UNL A   1      36.683  33.562  29.327  1.00  0.00     0.010 A 
ATOM     35  C   UNL A   1      36.491  32.597  30.327  1.00  0.00    -0.014 A 
BRANCH  35  36
ATOM     36  C   UNL A   1      37.662  31.870  30.877  1.00  0.00     0.031 A 
ATOM     37  C   UNL A   1      38.201  32.223  32.235  1.00  0.00     0.074 A 
ATOM     38  C   UNL A   1      38.277  30.934  30.127  1.00  0.00     0.049 A 
ATOM     39  N   UNL A   1      39.245  31.742  32.861  1.00  0.00    -0.248 NA
ATOM     40  C   UNL A   1      37.488  33.274  32.979  1.00  0.00     0.031 C 
ATOM     41  C   UNL A   1      37.882  30.536  28.775  1.00  0.00     0.029 A 
ATOM     42  N   UNL A   1      39.375  30.154  30.394  1.00  0.00    -0.354 N 
ATOM     43  C   UNL A   1      39.319  32.438  34.061  1.00  0.00     0.074 A 
ATOM     44  C   UNL A   1      38.252  33.414  34.051  1.00  0.00     0.031 C 
ATOM     45  C   UNL A   1      38.706  29.570  28.342  1.00  0.00     0.029 A 
ATOM     46  C   UNL A   1      39.713  29.310  29.365  1.00  0.00     0.049 A 
ATOM     47  H   UNL A   1      39.872  30.196  31.243  1.00  0.00     0.167 HD
ATOM     48  C   UNL A   1      40.183  32.263  35.089  1.00  0.00     0.037 A 
ATOM     49  C   UNL A   1      40.728  28.432  29.254  1.00  0.00     0.037 A 
ATOM     50  C   UNL A   1      41.235  31.281  35.101  1.00  0.00     0.049 A 
ATOM     51  C   UNL A   1      41.688  28.272  30.402  1.00  0.00     0.074 A 
ATOM     52  C   UNL A   1      42.128  30.987  36.117  1.00  0.00     0.029 A 
ATOM     53  N   UNL A   1      41.543  30.439  34.043  1.00  0.00    -0.354 N 
ATOM     54  N   UNL A   1      41.701  28.882  31.561  1.00  0.00    -0.248 NA
ATOM     55  C   UNL A   1      42.771  27.293  30.227  1.00  0.00     0.031 C 
ATOM     56  C   UNL A   1      43.010  30.005  35.654  1.00  0.00     0.029 A 
ATOM     57  C   UNL A   1      42.629  29.644  34.371  1.00  0.00     0.049 A 
ATOM     58  H   UNL A   1      41.060  30.410  33.184  1.00  0.00     0.167 HD
ATOM     59  C   UNL A   1      42.771  28.343  32.265  1.00  0.00     0.074 A 
ATOM     60  C   UNL A   1      43.372  27.344  31.407  1.00  0.00     0.031 C 
ATOM     61  C   UNL A   1      43.213  28.647  33.509  1.00  0.00     0.037 A 
BRANCH  48  62
ATOM     62  C   UNL A   1      40.026  33.156  36.287  1.00  0.00     0.057 A 
ATOM     63  C   UNL A   1      40.739  34.356  36.414  1.00  0.00     0.134 A 
ATOM     64  C   UNL A   1      39.126  32.830  37.310  1.00  0.00     0.134 A 
ATOM     65  F   UNL A   1      41.626  34.724  35.476  1.00  0.00    -0.206 F 
ATOM     66  C   UNL A   1      40.585  35.183  37.529  1.00  0.00     0.040 A 
ATOM     67  C   UNL A   1      38.942  33.664  38.414  1.00  0.00     0.040 A 
ATOM     68  F   UNL A   1      38.405  31.701  37.250  1.00  0.00    -0.206 F 
ATOM     69  C   UNL A   1      39.679  34.841  38.529  1.00  0.00     0.006 A 
ENDBRANCH  48  62
BRANCH  49  70
ATOM     70  C   UNL A   1      40.882  27.622  28.018  1.00  0.00     0.057 A 
ATOM     71  C   UNL A   1      40.288  26.360  27.902  1.00  0.00     0.134 A 
ATOM     72  C   UNL A   1      41.636  28.081  26.931  1.00  0.00     0.134 A 
ATOM     73  F   UNL A   1      39.568  25.857  28.916  1.00  0.00    -0.206 F 
ATOM     74  C   UNL A   1      40.455  25.574  26.760  1.00  0.00     0.040 A 
ATOM     75  C   UNL A   1      41.788  27.319  25.772  1.00  0.00     0.040 A 
ATOM     76  F   UNL A   1      42.225  29.284  26.976  1.00  0.00    -0.206 F 
ATOM     77  C   UNL A   1      41.204  26.056  25.689  1.00  0.00     0.006 A 
ENDBRANCH  49  70
BRANCH  61  78
ATOM     78  C   UNL A   1      44.380  27.862  34.036  1.00  0.00     0.057 A 
ATOM     79  C   UNL A   1      44.215  26.638  34.698  1.00  0.00     0.134 A 
ATOM     80  C   UNL A   1      45.690  28.321  33.844  1.00  0.00     0.134 A 
ATOM     81  F   UNL A   1      42.988  26.148  34.926  1.00  0.00    -0.206 F 
ATOM     82  C   UNL A   1      45.310  25.913  35.172  1.00  0.00     0.040 A 
ATOM     83  C   UNL A   1      46.793  27.589  34.285  1.00  0.00     0.040 A 
ATOM     84  F   UNL A   1      45.921  29.481  33.209  1.00  0.00    -0.206 F 
ATOM     85  C   UNL A   1      46.604  26.384  34.958  1.00  0.00     0.006 A 
ENDBRANCH  61  78
ENDBRANCH  35  36
ENDBRANCH  27  30
ENDBRANCH  25  26
ENDBRANCH  24  25
ENDBRANCH   1  24
TORSDOF 14
ENDMDL
MODEL 3
REMARK VINA RESULT:     -11.7      0.411      6.181
REMARK SMILES CCc1cc2c(C)cc(=O)oc2cc1O[C@H](C)C(=O)NCCCCNC(=O)c1ccc(-c2c3nc(c(-c4c(F)cccc4F)c4ccc([nH]4)c(-c4c(F)cccc4F)c4nc(c(-c5c(F)cccc5F)c5ccc2[nH]5)C=C4)C=C3)cc1
REMARK SMILES IDX 22 1 21 2 20 3 18 4 19 5 16 7 17 8 15 9 14 10 3 11 4 12 5 13
REMARK SMILES IDX 13 14 6 15 12 16 7 17 8 18 11 19 9 20 10 21 2 22 1 23 23 24
REMARK SMILES IDX 24 25 25 26 26 27 27 29 28 30 29 31 81 32 30 33 80 34 31 35
REMARK SMILES IDX 32 36 33 37 74 38 34 39 79 40 73 41 75 42 35 43 78 44 72 45
REMARK SMILES IDX 71 46 36 48 62 49 45 50 61 51 46 52 49 53 60 54 76 55 47 56
REMARK SMILES IDX 48 57 59 59 77 60 50 61 37 62 38 63 43 64 39 65 40 66 42 67
REMARK SMILES IDX 44 68 41 69 63 70 64 71 69 72 65 73 66 74 68 75 70 76 67 77
REMARK SMILES IDX 51 78 52 79 57 80 53 81 54 82 56 83 58 84 55 85
REMARK H PARENT 20 6 25 28 75 47 49 58
REMARK Flexibility Score: inf
ROOT
ATOM      1  C   UNL A   1      36.527  21.312  24.590  1.00  0.00     0.023 C 
ENDROOT
BRANCH   1   2
ATOM      2  C   UNL A   1      35.379  21.472  25.581  1.00  0.00     0.116 C 
BRANCH   2   3
ATOM      3  N   UNL A   1      34.575  20.266  25.618  1.00  0.00    -0.353 N 
ATOM      4  C   UNL A   1      33.399  20.010  24.980  1.00  0.00     0.260 C 
ATOM      5  O   UNL A   1      32.834  18.937  25.206  1.00  0.00    -0.271 OA
ATOM      6  H   UNL A   1      34.925  19.536  26.178  1.00  0.00     0.163 HD
BRANCH   4   7
ATOM      7  C   UNL A   1      32.804  21.034  23.989  1.00  0.00     0.258 C 
ATOM      8  C   UNL A   1      32.216  20.242  22.808  1.00  0.00     0.064 C 
BRANCH   7   9
ATOM      9  O   UNL A   1      31.811  21.971  24.400  1.00  0.00    -0.480 OA
BRANCH   9  10
ATOM     10  C   UNL A   1      32.064  23.308  24.536  1.00  0.00     0.127 A 
ATOM     11  C   UNL A   1      32.278  23.762  25.855  1.00  0.00    -0.005 A 
ATOM     12  C   UNL A   1      32.744  25.079  26.071  1.00  0.00     0.019 A 
ATOM     13  C   UNL A   1      32.989  25.953  25.008  1.00  0.00     0.021 A 
ATOM     14  C   UNL A   1      32.207  24.210  23.485  1.00  0.00     0.094 A 
ATOM     15  C   UNL A   1      33.511  27.316  25.168  1.00  0.00    -0.033 A 
ATOM     16  C   UNL A   1      32.716  25.487  23.728  1.00  0.00     0.142 A 
ATOM     17  C   UNL A   1      33.630  27.924  26.532  1.00  0.00     0.045 C 
ATOM     18  C   UNL A   1      33.860  27.992  24.064  1.00  0.00     0.098 A 
ATOM     19  O   UNL A   1      33.017  26.258  22.586  1.00  0.00    -0.423 OA
ATOM     20  C   UNL A   1      33.711  27.449  22.705  1.00  0.00     0.336 A 
ATOM     21  O   UNL A   1      34.161  28.049  21.737  1.00  0.00    -0.246 OA
BRANCH  11  22
ATOM     22  C   UNL A   1      32.047  22.866  27.057  1.00  0.00     0.036 C 
ATOM     23  C   UNL A   1      33.279  22.736  27.949  1.00  0.00     0.009 C 
ENDBRANCH  11  22
ENDBRANCH   9  10
ENDBRANCH   7   9
ENDBRANCH   4   7
ENDBRANCH   2   3
ENDBRANCH   1   2
BRANCH   1  24
ATOM     24  C   UNL A   1      37.492  20.176  24.932  1.00  0.00     0.023 C 
BRANCH  24  25
ATOM     25  C   UNL A   1      38.773  20.623  25.628  1.00  0.00     0.116 C 
BRANCH  25  26
ATOM     26  N   UNL A   1      39.754  19.551  25.715  1.00  0.00    -0.352 N 
ATOM     27  C   UNL A   1      41.080  19.624  26.059  1.00  0.00     0.251 C 
ATOM     28  H   UNL A   1      39.421  18.651  25.497  1.00  0.00     0.163 HD
ATOM     29  O   UNL A   1      41.819  18.657  25.896  1.00  0.00    -0.269 OA
BRANCH  27  30
ATOM     30  C   UNL A   1      41.619  20.886  26.606  1.00  0.00     0.039 A 
ATOM     31  C   UNL A   1      42.159  21.829  25.730  1.00  0.00     0.014 A 
ATOM     32  C   UNL A   1      41.565  21.143  27.978  1.00  0.00     0.014 A 
ATOM     33  C   UNL A   1      42.587  23.061  26.226  1.00  0.00     0.010 A 
ATOM     34  C   UNL A   1      41.914  22.401  28.458  1.00  0.00     0.010 A 
ATOM     35  C   UNL A   1      42.433  23.371  27.588  1.00  0.00    -0.014 A 
BRANCH  35  36
ATOM     36  C   UNL A   1      42.808  24.705  28.120  1.00  0.00     0.031 A 
ATOM     37  C   UNL A   1      41.756  25.757  28.331  1.00  0.00     0.074 A 
ATOM     38  C   UNL A   1      44.105  24.988  28.356  1.00  0.00     0.049 A 
ATOM     39  N   UNL A   1      41.893  26.996  28.733  1.00  0.00    -0.248 NA
ATOM     40  C   UNL A   1      40.367  25.377  28.025  1.00  0.00     0.031 C 
ATOM     41  C   UNL A   1      45.224  24.069  28.145  1.00  0.00     0.029 A 
ATOM     42  N   UNL A   1      44.700  26.136  28.817  1.00  0.00    -0.354 N 
ATOM     43  C   UNL A   1      40.616  27.542  28.717  1.00  0.00     0.074 A 
ATOM     44  C   UNL A   1      39.726  26.522  28.209  1.00  0.00     0.031 C 
ATOM     45  C   UNL A   1      46.366  24.679  28.500  1.00  0.00     0.029 A 
ATOM     46  C   UNL A   1      46.066  26.043  28.921  1.00  0.00     0.049 A 
ATOM     47  H   UNL A   1      44.195  26.948  29.051  1.00  0.00     0.167 HD
ATOM     48  C   UNL A   1      40.217  28.774  29.111  1.00  0.00     0.037 A 
ATOM     49  C   UNL A   1      46.976  26.958  29.304  1.00  0.00     0.037 A 
ATOM     50  C   UNL A   1      41.105  29.782  29.628  1.00  0.00     0.049 A 
ATOM     51  C   UNL A   1      46.510  28.328  29.717  1.00  0.00     0.074 A 
ATOM     52  C   UNL A   1      40.791  31.043  30.107  1.00  0.00     0.029 A 
ATOM     53  N   UNL A   1      42.482  29.649  29.725  1.00  0.00    -0.354 N 
ATOM     54  N   UNL A   1      45.291  28.806  29.769  1.00  0.00    -0.248 NA
ATOM     55  C   UNL A   1      47.547  29.283  30.132  1.00  0.00     0.031 C 
ATOM     56  C   UNL A   1      41.983  31.692  30.444  1.00  0.00     0.029 A 
ATOM     57  C   UNL A   1      43.035  30.814  30.232  1.00  0.00     0.049 A 
ATOM     58  H   UNL A   1      42.991  28.845  29.472  1.00  0.00     0.167 HD
ATOM     59  C   UNL A   1      45.411  30.105  30.250  1.00  0.00     0.074 A 
ATOM     60  C   UNL A   1      46.820  30.332  30.489  1.00  0.00     0.031 C 
ATOM     61  C   UNL A   1      44.441  31.024  30.473  1.00  0.00     0.037 A 
BRANCH  48  62
ATOM     62  C   UNL A   1      38.755  29.100  28.996  1.00  0.00     0.057 A 
ATOM     63  C   UNL A   1      37.887  29.001  30.092  1.00  0.00     0.134 A 
ATOM     64  C   UNL A   1      38.214  29.549  27.784  1.00  0.00     0.134 A 
ATOM     65  F   UNL A   1      38.336  28.567  31.280  1.00  0.00    -0.206 F 
ATOM     66  C   UNL A   1      36.530  29.309  29.979  1.00  0.00     0.040 A 
ATOM     67  C   UNL A   1      36.865  29.888  27.668  1.00  0.00     0.040 A 
ATOM     68  F   UNL A   1      38.989  29.674  26.697  1.00  0.00    -0.206 F 
ATOM     69  C   UNL A   1      36.017  29.761  28.766  1.00  0.00     0.006 A 
ENDBRANCH  48  62
BRANCH  49  70
ATOM     70  C   UNL A   1      48.420  26.608  29.333  1.00  0.00     0.057 A 
ATOM     71  C   UNL A   1      49.260  26.916  28.257  1.00  0.00     0.134 A 
ATOM     72  C   UNL A   1      48.991  25.946  30.427  1.00  0.00     0.134 A 
ATOM     73  F   UNL A   1      48.770  27.533  27.172  1.00  0.00    -0.206 F 
ATOM     74  C   UNL A   1      50.610  26.559  28.256  1.00  0.00     0.040 A 
ATOM     75  C   UNL A   1      50.345  25.609  30.453  1.00  0.00     0.040 A 
ATOM     76  F   UNL A   1      48.242  25.629  31.493  1.00  0.00    -0.206 F 
ATOM     77  C   UNL A   1      51.157  25.908  29.359  1.00  0.00     0.006 A 
ENDBRANCH  49  70
BRANCH  61  78
ATOM     78  C   UNL A   1      44.864  32.347  31.044  1.00  0.00     0.057 A 
ATOM     79  C   UNL A   1      45.210  33.432  30.228  1.00  0.00     0.134 A 
ATOM     80  C   UNL A   1      44.888  32.548  32.430  1.00  0.00     0.134 A 
ATOM     81  F   UNL A   1      45.219  33.304  28.893  1.00  0.00    -0.206 F 
ATOM     82  C   UNL A   1      45.589  34.661  30.772  1.00  0.00     0.040 A 
ATOM     83  C   UNL A   1      45.235  33.780  32.985  1.00  0.00     0.040 A 
ATOM     84  F   UNL A   1      44.558  31.554  33.270  1.00  0.00    -0.206 F 
ATOM     85  C   UNL A   1      45.594  34.840  32.154  1.00  0.00     0.006 A 
ENDBRANCH  61  78
ENDBRANCH  35  36
ENDBRANCH  27  30
ENDBRANCH  25  26
ENDBRANCH  24  25
ENDBRANCH   1  24
TORSDOF 14
ENDMDL
