MODEL 1
REMARK VINA RESULT:     -11.5      0.000      0.000
REMARK SMILES CC(=O)Cn1c(C(=O)NCCCCNC(=O)c2ccc(-c3c4nc(c(-c5c(F)cccc5F)c5ccc([nH]5)c(-c5c(F)cccc5F)c5nc(c(-c6c(F)cccc6F)c6ccc3[nH]6)C=C5)C=C4)cc2)nc2cccnc21
REMARK SMILES IDX 11 1 10 2 9 3 7 4 8 5 6 7 5 8 77 9 71 10 72 11 76 12 73 13
REMARK SMILES IDX 75 14 74 15 4 16 2 17 1 18 3 19 12 20 13 21 14 22 15 23
REMARK SMILES IDX 16 25 17 26 18 27 70 28 19 29 69 30 20 31 21 32 22 33 63 34
REMARK SMILES IDX 23 35 68 36 62 37 64 38 24 39 67 40 61 41 60 42 25 44 51 45
REMARK SMILES IDX 34 46 50 47 35 48 38 49 49 50 65 51 36 52 37 53 48 55 66 56
REMARK SMILES IDX 39 57 26 58 27 59 32 60 28 61 29 62 31 63 33 64 30 65 52 66
REMARK SMILES IDX 53 67 58 68 54 69 55 70 57 71 59 72 56 73 40 74 41 75 46 76
REMARK SMILES IDX 42 77 43 78 45 79 47 80 44 81
REMARK H PARENT 9 6 14 24 64 43 38 54
REMARK Flexibility Score: inf
ROOT
ATOM      1  C   UNL A   1      33.854  27.748  25.829  1.00  0.00     0.023 C 
ENDROOT
BRANCH   1   2
ATOM      2  C   UNL A   1      32.445  27.371  25.361  1.00  0.00     0.116 C 
BRANCH   2   3
ATOM      3  N   UNL A   1      32.469  26.895  23.996  1.00  0.00    -0.349 N 
ATOM      4  C   UNL A   1      32.939  25.806  23.312  1.00  0.00     0.287 C 
ATOM      5  O   UNL A   1      32.594  25.843  22.122  1.00  0.00    -0.266 OA
ATOM      6  H   UNL A   1      32.023  27.531  23.390  1.00  0.00     0.163 HD
BRANCH   4   7
ATOM      7  C   UNL A   1      33.750  24.687  23.822  1.00  0.00     0.201 A 
ATOM      8  N   UNL A   1      33.831  23.983  25.019  1.00  0.00    -0.297 N 
ATOM      9  C   UNL A   1      34.870  23.078  24.915  1.00  0.00     0.160 A 
ATOM     10  N   UNL A   1      34.763  24.296  23.039  1.00  0.00    -0.222 NA
ATOM     11  C   UNL A   1      35.468  23.340  23.702  1.00  0.00     0.109 A 
ATOM     12  N   UNL A   1      35.264  22.180  25.843  1.00  0.00    -0.237 NA
ATOM     13  C   UNL A   1      36.640  22.649  23.379  1.00  0.00     0.034 A 
ATOM     14  C   UNL A   1      36.381  21.507  25.478  1.00  0.00     0.113 A 
ATOM     15  C   UNL A   1      37.099  21.707  24.304  1.00  0.00     0.022 A 
BRANCH   8  16
ATOM     16  C   UNL A   1      33.145  24.135  26.284  1.00  0.00     0.201 C 
BRANCH  16  17
ATOM     17  C   UNL A   1      31.754  23.564  26.365  1.00  0.00     0.149 C 
ATOM     18  C   UNL A   1      31.204  22.716  25.248  1.00  0.00     0.089 C 
ATOM     19  O   UNL A   1      31.074  23.763  27.377  1.00  0.00    -0.298 OA
ENDBRANCH  16  17
ENDBRANCH   8  16
ENDBRANCH   4   7
ENDBRANCH   2   3
ENDBRANCH   1   2
BRANCH   1  20
ATOM     20  C   UNL A   1      33.931  28.568  27.123  1.00  0.00     0.023 C 
BRANCH  20  21
ATOM     21  C   UNL A   1      35.238  29.328  27.277  1.00  0.00     0.116 C 
BRANCH  21  22
ATOM     22  N   UNL A   1      35.347  30.002  28.569  1.00  0.00    -0.352 N 
ATOM     23  C   UNL A   1      36.352  29.867  29.512  1.00  0.00     0.251 C 
ATOM     24  H   UNL A   1      34.621  30.626  28.796  1.00  0.00     0.163 HD
ATOM     25  O   UNL A   1      36.232  30.249  30.651  1.00  0.00    -0.269 OA
BRANCH  23  26
ATOM     26  C   UNL A   1      37.591  29.211  29.061  1.00  0.00     0.039 A 
ATOM     27  C   UNL A   1      38.260  29.692  27.936  1.00  0.00     0.014 A 
ATOM     28  C   UNL A   1      38.136  28.220  29.876  1.00  0.00     0.014 A 
ATOM     29  C   UNL A   1      39.548  29.236  27.689  1.00  0.00     0.010 A 
ATOM     30  C   UNL A   1      39.449  27.849  29.686  1.00  0.00     0.010 A 
ATOM     31  C   UNL A   1      40.154  28.342  28.586  1.00  0.00    -0.014 A 
BRANCH  31  32
ATOM     32  C   UNL A   1      41.562  28.000  28.414  1.00  0.00     0.031 A 
ATOM     33  C   UNL A   1      41.855  26.735  27.675  1.00  0.00     0.074 A 
ATOM     34  C   UNL A   1      42.567  28.837  28.733  1.00  0.00     0.049 A 
ATOM     35  N   UNL A   1      42.399  25.654  28.132  1.00  0.00    -0.248 NA
ATOM     36  C   UNL A   1      41.433  26.638  26.270  1.00  0.00     0.031 C 
ATOM     37  C   UNL A   1      42.496  30.234  29.172  1.00  0.00     0.029 A 
ATOM     38  N   UNL A   1      43.906  28.607  28.652  1.00  0.00    -0.354 N 
ATOM     39  C   UNL A   1      42.552  24.797  27.041  1.00  0.00     0.074 A 
ATOM     40  C   UNL A   1      41.823  25.401  25.954  1.00  0.00     0.031 C 
ATOM     41  C   UNL A   1      43.728  30.785  29.120  1.00  0.00     0.029 A 
ATOM     42  C   UNL A   1      44.687  29.737  28.824  1.00  0.00     0.049 A 
ATOM     43  H   UNL A   1      44.286  27.715  28.484  1.00  0.00     0.167 HD
ATOM     44  C   UNL A   1      43.432  23.755  27.068  1.00  0.00     0.037 A 
ATOM     45  C   UNL A   1      46.032  29.817  28.727  1.00  0.00     0.037 A 
ATOM     46  C   UNL A   1      43.835  23.446  28.416  1.00  0.00     0.049 A 
ATOM     47  C   UNL A   1      46.579  28.453  28.908  1.00  0.00     0.074 A 
ATOM     48  C   UNL A   1      43.186  23.040  29.566  1.00  0.00     0.029 A 
ATOM     49  N   UNL A   1      45.075  23.869  28.828  1.00  0.00    -0.354 N 
ATOM     50  N   UNL A   1      46.529  27.795  30.032  1.00  0.00    -0.248 NA
ATOM     51  C   UNL A   1      46.798  27.640  27.722  1.00  0.00     0.031 C 
ATOM     52  C   UNL A   1      43.867  23.710  30.627  1.00  0.00     0.029 A 
ATOM     53  C   UNL A   1      44.911  24.443  30.060  1.00  0.00     0.049 A 
ATOM     54  H   UNL A   1      45.920  23.777  28.331  1.00  0.00     0.167 HD
ATOM     55  C   UNL A   1      46.289  26.479  29.667  1.00  0.00     0.074 A 
ATOM     56  C   UNL A   1      46.574  26.427  28.235  1.00  0.00     0.031 C 
ATOM     57  C   UNL A   1      45.621  25.623  30.497  1.00  0.00     0.037 A 
BRANCH  44  58
ATOM     58  C   UNL A   1      44.217  23.243  25.879  1.00  0.00     0.057 A 
ATOM     59  C   UNL A   1      45.189  23.992  25.188  1.00  0.00     0.134 A 
ATOM     60  C   UNL A   1      44.240  21.857  25.616  1.00  0.00     0.134 A 
ATOM     61  F   UNL A   1      45.334  25.310  25.359  1.00  0.00    -0.206 F 
ATOM     62  C   UNL A   1      46.144  23.405  24.350  1.00  0.00     0.040 A 
ATOM     63  C   UNL A   1      45.222  21.255  24.821  1.00  0.00     0.040 A 
ATOM     64  F   UNL A   1      43.361  21.029  26.203  1.00  0.00    -0.206 F 
ATOM     65  C   UNL A   1      46.190  22.029  24.195  1.00  0.00     0.006 A 
ENDBRANCH  44  58
BRANCH  45  66
ATOM     66  C   UNL A   1      46.831  30.967  28.267  1.00  0.00     0.057 A 
ATOM     67  C   UNL A   1      47.515  31.783  29.186  1.00  0.00     0.134 A 
ATOM     68  C   UNL A   1      46.756  31.440  26.953  1.00  0.00     0.134 A 
ATOM     69  F   UNL A   1      47.575  31.458  30.487  1.00  0.00    -0.206 F 
ATOM     70  C   UNL A   1      48.092  33.002  28.822  1.00  0.00     0.040 A 
ATOM     71  C   UNL A   1      47.326  32.662  26.574  1.00  0.00     0.040 A 
ATOM     72  F   UNL A   1      46.088  30.749  26.019  1.00  0.00    -0.206 F 
ATOM     73  C   UNL A   1      47.989  33.450  27.511  1.00  0.00     0.006 A 
ENDBRANCH  45  66
BRANCH  57  74
ATOM     74  C   UNL A   1      45.377  26.069  31.912  1.00  0.00     0.057 A 
ATOM     75  C   UNL A   1      46.278  25.690  32.910  1.00  0.00     0.134 A 
ATOM     76  C   UNL A   1      44.208  26.725  32.329  1.00  0.00     0.134 A 
ATOM     77  F   UNL A   1      47.387  25.003  32.594  1.00  0.00    -0.206 F 
ATOM     78  C   UNL A   1      46.040  25.962  34.260  1.00  0.00     0.040 A 
ATOM     79  C   UNL A   1      43.972  27.032  33.672  1.00  0.00     0.040 A 
ATOM     80  F   UNL A   1      43.239  27.032  31.460  1.00  0.00    -0.206 F 
ATOM     81  C   UNL A   1      44.888  26.645  34.644  1.00  0.00     0.006 A 
ENDBRANCH  57  74
ENDBRANCH  31  32
ENDBRANCH  23  26
ENDBRANCH  21  22
ENDBRANCH  20  21
ENDBRANCH   1  20
TORSDOF 13
ENDMDL
MODEL 2
REMARK VINA RESULT:     -11.4      3.683      6.307
REMARK SMILES CC(=O)Cn1c(C(=O)NCCCCNC(=O)c2ccc(-c3c4nc(c(-c5c(F)cccc5F)c5ccc([nH]5)c(-c5c(F)cccc5F)c5nc(c(-c6c(F)cccc6F)c6ccc3[nH]6)C=C5)C=C4)cc2)nc2cccnc21
REMARK SMILES IDX 11 1 10 2 9 3 7 4 8 5 6 7 5 8 77 9 71 10 72 11 76 12 73 13
REMARK SMILES IDX 75 14 74 15 4 16 2 17 1 18 3 19 12 20 13 21 14 22 15 23
REMARK SMILES IDX 16 25 17 26 18 27 70 28 19 29 69 30 20 31 21 32 22 33 63 34
REMARK SMILES IDX 23 35 68 36 62 37 64 38 24 39 67 40 61 41 60 42 25 44 51 45
REMARK SMILES IDX 34 46 50 47 35 48 38 49 49 50 65 51 36 52 37 53 48 55 66 56
REMARK SMILES IDX 39 57 26 58 27 59 32 60 28 61 29 62 31 63 33 64 30 65 52 66
REMARK SMILES IDX 53 67 58 68 54 69 55 70 57 71 59 72 56 73 40 74 41 75 46 76
REMARK SMILES IDX 42 77 43 78 45 79 47 80 44 81
REMARK H PARENT 9 6 14 24 64 43 38 54
REMARK Flexibility Score: inf
ROOT
ATOM      1  C   UNL A   1      38.034  30.957  33.732  1.00  0.00     0.023 C 
ENDROOT
BRANCH   1   2
ATOM      2  C   UNL A   1      37.580  31.863  34.881  1.00  0.00     0.116 C 
BRANCH   2   3
ATOM      3  N   UNL A   1      37.966  33.235  34.636  1.00  0.00    -0.349 N 
ATOM      4  C   UNL A   1      37.755  34.190  33.677  1.00  0.00     0.287 C 
ATOM      5  O   UNL A   1      38.251  35.275  34.011  1.00  0.00    -0.266 OA
ATOM      6  H   UNL A   1      38.542  33.577  35.358  1.00  0.00     0.163 HD
BRANCH   4   7
ATOM      7  C   UNL A   1      37.047  34.054  32.392  1.00  0.00     0.201 A 
ATOM      8  N   UNL A   1      35.719  33.934  31.997  1.00  0.00    -0.297 N 
ATOM      9  C   UNL A   1      35.693  33.750  30.628  1.00  0.00     0.160 A 
ATOM     10  N   UNL A   1      37.821  33.857  31.318  1.00  0.00    -0.222 NA
ATOM     11  C   UNL A   1      37.012  33.643  30.246  1.00  0.00     0.109 A 
ATOM     12  N   UNL A   1      34.602  33.622  29.844  1.00  0.00    -0.237 NA
ATOM     13  C   UNL A   1      37.291  33.326  28.912  1.00  0.00     0.034 A 
ATOM     14  C   UNL A   1      34.914  33.351  28.554  1.00  0.00     0.113 A 
ATOM     15  C   UNL A   1      36.199  33.178  28.051  1.00  0.00     0.022 A 
BRANCH   8  16
ATOM     16  C   UNL A   1      34.486  33.845  32.749  1.00  0.00     0.201 C 
BRANCH  16  17
ATOM     17  C   UNL A   1      33.620  35.077  32.765  1.00  0.00     0.149 C 
ATOM     18  C   UNL A   1      34.204  36.423  33.105  1.00  0.00     0.089 C 
ATOM     19  O   UNL A   1      32.427  34.984  32.458  1.00  0.00    -0.298 OA
ENDBRANCH  16  17
ENDBRANCH   8  16
ENDBRANCH   4   7
ENDBRANCH   2   3
ENDBRANCH   1   2
BRANCH   1  20
ATOM     20  C   UNL A   1      36.925  30.458  32.797  1.00  0.00     0.023 C 
BRANCH  20  21
ATOM     21  C   UNL A   1      37.370  30.337  31.348  1.00  0.00     0.116 C 
BRANCH  21  22
ATOM     22  N   UNL A   1      36.251  30.118  30.434  1.00  0.00    -0.352 N 
ATOM     23  C   UNL A   1      36.302  29.665  29.126  1.00  0.00     0.251 C 
ATOM     24  H   UNL A   1      35.355  30.315  30.790  1.00  0.00     0.163 HD
ATOM     25  O   UNL A   1      35.371  29.766  28.365  1.00  0.00    -0.269 OA
BRANCH  23  26
ATOM     26  C   UNL A   1      37.571  29.057  28.693  1.00  0.00     0.039 A 
ATOM     27  C   UNL A   1      38.313  29.653  27.675  1.00  0.00     0.014 A 
ATOM     28  C   UNL A   1      38.063  27.982  29.432  1.00  0.00     0.014 A 
ATOM     29  C   UNL A   1      39.617  29.222  27.468  1.00  0.00     0.010 A 
ATOM     30  C   UNL A   1      39.388  27.629  29.294  1.00  0.00     0.010 A 
ATOM     31  C   UNL A   1      40.164  28.236  28.304  1.00  0.00    -0.014 A 
BRANCH  31  32
ATOM     32  C   UNL A   1      41.582  27.909  28.193  1.00  0.00     0.031 A 
ATOM     33  C   UNL A   1      41.921  26.646  27.471  1.00  0.00     0.074 A 
ATOM     34  C   UNL A   1      42.563  28.759  28.552  1.00  0.00     0.049 A 
ATOM     35  N   UNL A   1      42.457  25.573  27.954  1.00  0.00    -0.248 NA
ATOM     36  C   UNL A   1      41.560  26.540  26.050  1.00  0.00     0.031 C 
ATOM     37  C   UNL A   1      42.457  30.156  28.983  1.00  0.00     0.029 A 
ATOM     38  N   UNL A   1      43.906  28.545  28.528  1.00  0.00    -0.354 N 
ATOM     39  C   UNL A   1      42.666  24.714  26.874  1.00  0.00     0.074 A 
ATOM     40  C   UNL A   1      41.977  25.307  25.755  1.00  0.00     0.031 C 
ATOM     41  C   UNL A   1      43.684  30.721  28.981  1.00  0.00     0.029 A 
ATOM     42  C   UNL A   1      44.667  29.684  28.729  1.00  0.00     0.049 A 
ATOM     43  H   UNL A   1      44.303  27.656  28.379  1.00  0.00     0.167 HD
ATOM     44  C   UNL A   1      43.557  23.683  26.941  1.00  0.00     0.037 A 
ATOM     45  C   UNL A   1      46.014  29.779  28.689  1.00  0.00     0.037 A 
ATOM     46  C   UNL A   1      43.905  23.382  28.306  1.00  0.00     0.049 A 
ATOM     47  C   UNL A   1      46.568  28.422  28.897  1.00  0.00     0.074 A 
ATOM     48  C   UNL A   1      43.213  22.971  29.429  1.00  0.00     0.029 A 
ATOM     49  N   UNL A   1      45.122  23.821  28.769  1.00  0.00    -0.354 N 
ATOM     50  N   UNL A   1      46.478  27.767  30.021  1.00  0.00    -0.248 NA
ATOM     51  C   UNL A   1      46.847  27.609  27.725  1.00  0.00     0.031 C 
ATOM     52  C   UNL A   1      43.841  23.653  30.516  1.00  0.00     0.029 A 
ATOM     53  C   UNL A   1      44.899  24.397  29.991  1.00  0.00     0.049 A 
ATOM     54  H   UNL A   1      45.988  23.737  28.308  1.00  0.00     0.167 HD
ATOM     55  C   UNL A   1      46.269  26.447  29.650  1.00  0.00     0.074 A 
ATOM     56  C   UNL A   1      46.615  26.395  28.232  1.00  0.00     0.031 C 
ATOM     57  C   UNL A   1      45.577  25.585  30.454  1.00  0.00     0.037 A 
BRANCH  44  58
ATOM     58  C   UNL A   1      44.397  23.176  25.788  1.00  0.00     0.057 A 
ATOM     59  C   UNL A   1      45.382  23.938  25.130  1.00  0.00     0.134 A 
ATOM     60  C   UNL A   1      44.455  21.789  25.538  1.00  0.00     0.134 A 
ATOM     61  F   UNL A   1      45.496  25.260  25.297  1.00  0.00    -0.206 F 
ATOM     62  C   UNL A   1      46.380  23.363  24.335  1.00  0.00     0.040 A 
ATOM     63  C   UNL A   1      45.479  21.200  24.786  1.00  0.00     0.040 A 
ATOM     64  F   UNL A   1      43.569  20.950  26.096  1.00  0.00    -0.206 F 
ATOM     65  C   UNL A   1      46.457  21.987  24.194  1.00  0.00     0.006 A 
ENDBRANCH  44  58
BRANCH  45  66
ATOM     66  C   UNL A   1      46.818  30.938  28.260  1.00  0.00     0.057 A 
ATOM     67  C   UNL A   1      47.484  31.742  29.202  1.00  0.00     0.134 A 
ATOM     68  C   UNL A   1      46.766  31.428  26.952  1.00  0.00     0.134 A 
ATOM     69  F   UNL A   1      47.520  31.399  30.499  1.00  0.00    -0.206 F 
ATOM     70  C   UNL A   1      48.064  32.967  28.865  1.00  0.00     0.040 A 
ATOM     71  C   UNL A   1      47.339  32.657  26.599  1.00  0.00     0.040 A 
ATOM     72  F   UNL A   1      46.116  30.748  25.996  1.00  0.00    -0.206 F 
ATOM     73  C   UNL A   1      47.984  33.433  27.559  1.00  0.00     0.006 A 
ENDBRANCH  45  66
BRANCH  57  74
ATOM     74  C   UNL A   1      45.267  26.033  31.856  1.00  0.00     0.057 A 
ATOM     75  C   UNL A   1      46.131  25.669  32.892  1.00  0.00     0.134 A 
ATOM     76  C   UNL A   1      44.074  26.674  32.221  1.00  0.00     0.134 A 
ATOM     77  F   UNL A   1      47.261  24.995  32.625  1.00  0.00    -0.206 F 
ATOM     78  C   UNL A   1      45.832  25.941  34.230  1.00  0.00     0.040 A 
ATOM     79  C   UNL A   1      43.777  26.982  33.552  1.00  0.00     0.040 A 
ATOM     80  F   UNL A   1      43.138  26.966  31.311  1.00  0.00    -0.206 F 
ATOM     81  C   UNL A   1      44.657  26.610  34.562  1.00  0.00     0.006 A 
ENDBRANCH  57  74
ENDBRANCH  31  32
ENDBRANCH  23  26
ENDBRANCH  21  22
ENDBRANCH  20  21
ENDBRANCH   1  20
TORSDOF 13
ENDMDL
MODEL 3
REMARK VINA RESULT:     -11.3      1.950      6.462
REMARK SMILES CC(=O)Cn1c(C(=O)NCCCCNC(=O)c2ccc(-c3c4nc(c(-c5c(F)cccc5F)c5ccc([nH]5)c(-c5c(F)cccc5F)c5nc(c(-c6c(F)cccc6F)c6ccc3[nH]6)C=C5)C=C4)cc2)nc2cccnc21
REMARK SMILES IDX 11 1 10 2 9 3 7 4 8 5 6 7 5 8 77 9 71 10 72 11 76 12 73 13
REMARK SMILES IDX 75 14 74 15 4 16 2 17 1 18 3 19 12 20 13 21 14 22 15 23
REMARK SMILES IDX 16 25 17 26 18 27 70 28 19 29 69 30 20 31 21 32 22 33 63 34
REMARK SMILES IDX 23 35 68 36 62 37 64 38 24 39 67 40 61 41 60 42 25 44 51 45
REMARK SMILES IDX 34 46 50 47 35 48 38 49 49 50 65 51 36 52 37 53 48 55 66 56
REMARK SMILES IDX 39 57 26 58 27 59 32 60 28 61 29 62 31 63 33 64 30 65 52 66
REMARK SMILES IDX 53 67 58 68 54 69 55 70 57 71 59 72 56 73 40 74 41 75 46 76
REMARK SMILES IDX 42 77 43 78 45 79 47 80 44 81
REMARK H PARENT 9 6 14 24 64 43 38 54
REMARK Flexibility Score: inf
ROOT
ATOM      1  C   UNL A   1      33.611  28.155  25.976  1.00  0.00     0.023 C 
ENDROOT
BRANCH   1   2
ATOM      2  C   UNL A   1      32.107  27.995  25.729  1.00  0.00     0.116 C 
BRANCH   2   3
ATOM      3  N   UNL A   1      31.645  26.708  26.200  1.00  0.00    -0.349 N 
ATOM      4  C   UNL A   1      32.048  25.401  26.130  1.00  0.00     0.287 C 
ATOM      5  O   UNL A   1      31.318  24.672  26.817  1.00  0.00    -0.266 OA
ATOM      6  H   UNL A   1      30.807  26.796  26.711  1.00  0.00     0.163 HD
BRANCH   4   7
ATOM      7  C   UNL A   1      33.179  24.832  25.377  1.00  0.00     0.201 A 
ATOM      8  N   UNL A   1      33.405  24.454  24.058  1.00  0.00    -0.297 N 
ATOM      9  C   UNL A   1      34.666  23.895  23.981  1.00  0.00     0.160 A 
ATOM     10  N   UNL A   1      34.227  24.436  26.110  1.00  0.00    -0.222 NA
ATOM     11  C   UNL A   1      35.124  23.840  25.279  1.00  0.00     0.109 A 
ATOM     12  N   UNL A   1      35.285  23.430  22.876  1.00  0.00    -0.237 NA
ATOM     13  C   UNL A   1      36.344  23.199  25.524  1.00  0.00     0.034 A 
ATOM     14  C   UNL A   1      36.477  22.849  23.149  1.00  0.00     0.113 A 
ATOM     15  C   UNL A   1      37.030  22.693  24.416  1.00  0.00     0.022 A 
BRANCH   8  16
ATOM     16  C   UNL A   1      32.547  24.436  22.892  1.00  0.00     0.201 C 
BRANCH  16  17
ATOM     17  C   UNL A   1      32.497  25.701  22.077  1.00  0.00     0.149 C 
ATOM     18  C   UNL A   1      31.400  26.710  22.289  1.00  0.00     0.089 C 
ATOM     19  O   UNL A   1      33.390  25.928  21.253  1.00  0.00    -0.298 OA
ENDBRANCH  16  17
ENDBRANCH   8  16
ENDBRANCH   4   7
ENDBRANCH   2   3
ENDBRANCH   1   2
BRANCH   1  20
ATOM     20  C   UNL A   1      34.004  28.762  27.329  1.00  0.00     0.023 C 
BRANCH  20  21
ATOM     21  C   UNL A   1      35.035  29.873  27.212  1.00  0.00     0.116 C 
BRANCH  21  22
ATOM     22  N   UNL A   1      34.636  31.087  27.921  1.00  0.00    -0.352 N 
ATOM     23  C   UNL A   1      35.120  31.561  29.129  1.00  0.00     0.251 C 
ATOM     24  H   UNL A   1      33.942  31.633  27.488  1.00  0.00     0.163 HD
ATOM     25  O   UNL A   1      34.555  32.416  29.766  1.00  0.00    -0.269 OA
BRANCH  23  26
ATOM     26  C   UNL A   1      36.368  30.952  29.619  1.00  0.00     0.039 A 
ATOM     27  C   UNL A   1      36.330  29.717  30.265  1.00  0.00     0.014 A 
ATOM     28  C   UNL A   1      37.571  31.569  29.275  1.00  0.00     0.014 A 
ATOM     29  C   UNL A   1      37.528  29.046  30.477  1.00  0.00     0.010 A 
ATOM     30  C   UNL A   1      38.743  30.855  29.393  1.00  0.00     0.010 A 
ATOM     31  C   UNL A   1      38.728  29.600  30.006  1.00  0.00    -0.014 A 
BRANCH  31  32
ATOM     32  C   UNL A   1      39.956  28.815  30.079  1.00  0.00     0.031 A 
ATOM     33  C   UNL A   1      40.593  28.696  31.425  1.00  0.00     0.074 A 
ATOM     34  C   UNL A   1      40.421  28.079  29.052  1.00  0.00     0.049 A 
ATOM     35  N   UNL A   1      41.734  29.170  31.810  1.00  0.00    -0.248 NA
ATOM     36  C   UNL A   1      39.839  28.025  32.494  1.00  0.00     0.031 C 
ATOM     37  C   UNL A   1      39.790  27.804  27.758  1.00  0.00     0.029 A 
ATOM     38  N   UNL A   1      41.566  27.346  28.998  1.00  0.00    -0.354 N 
ATOM     39  C   UNL A   1      41.932  28.714  33.115  1.00  0.00     0.074 A 
ATOM     40  C   UNL A   1      40.680  28.128  33.526  1.00  0.00     0.031 C 
ATOM     41  C   UNL A   1      40.458  26.808  27.134  1.00  0.00     0.029 A 
ATOM     42  C   UNL A   1      41.655  26.511  27.898  1.00  0.00     0.049 A 
ATOM     43  H   UNL A   1      42.271  27.404  29.683  1.00  0.00     0.167 HD
ATOM     44  C   UNL A   1      43.172  28.680  33.680  1.00  0.00     0.037 A 
ATOM     45  C   UNL A   1      42.640  25.627  27.626  1.00  0.00     0.037 A 
ATOM     46  C   UNL A   1      44.102  29.503  32.950  1.00  0.00     0.049 A 
ATOM     47  C   UNL A   1      43.837  26.034  28.397  1.00  0.00     0.074 A 
ATOM     48  C   UNL A   1      44.188  30.845  32.636  1.00  0.00     0.029 A 
ATOM     49  N   UNL A   1      44.997  28.877  32.118  1.00  0.00    -0.354 N 
ATOM     50  N   UNL A   1      44.515  27.122  28.160  1.00  0.00    -0.248 NA
ATOM     51  C   UNL A   1      44.031  25.455  29.716  1.00  0.00     0.031 C 
ATOM     52  C   UNL A   1      44.733  30.879  31.317  1.00  0.00     0.029 A 
ATOM     53  C   UNL A   1      44.985  29.561  30.932  1.00  0.00     0.049 A 
ATOM     54  H   UNL A   1      45.543  28.087  32.334  1.00  0.00     0.167 HD
ATOM     55  C   UNL A   1      44.885  27.593  29.412  1.00  0.00     0.074 A 
ATOM     56  C   UNL A   1      44.655  26.472  30.319  1.00  0.00     0.031 C 
ATOM     57  C   UNL A   1      45.081  28.927  29.638  1.00  0.00     0.037 A 
BRANCH  44  58
ATOM     58  C   UNL A   1      43.656  27.637  34.665  1.00  0.00     0.057 A 
ATOM     59  C   UNL A   1      43.855  26.279  34.349  1.00  0.00     0.134 A 
ATOM     60  C   UNL A   1      44.249  28.056  35.874  1.00  0.00     0.134 A 
ATOM     61  F   UNL A   1      43.400  25.732  33.216  1.00  0.00    -0.206 F 
ATOM     62  C   UNL A   1      44.630  25.422  35.139  1.00  0.00     0.040 A 
ATOM     63  C   UNL A   1      45.067  27.221  36.644  1.00  0.00     0.040 A 
ATOM     64  F   UNL A   1      44.128  29.324  36.298  1.00  0.00    -0.206 F 
ATOM     65  C   UNL A   1      45.273  25.901  36.268  1.00  0.00     0.006 A 
ENDBRANCH  44  58
BRANCH  45  66
ATOM     66  C   UNL A   1      42.519  24.341  26.916  1.00  0.00     0.057 A 
ATOM     67  C   UNL A   1      42.103  23.180  27.594  1.00  0.00     0.134 A 
ATOM     68  C   UNL A   1      43.026  24.159  25.626  1.00  0.00     0.134 A 
ATOM     69  F   UNL A   1      41.676  23.238  28.864  1.00  0.00    -0.206 F 
ATOM     70  C   UNL A   1      42.190  21.908  27.023  1.00  0.00     0.040 A 
ATOM     71  C   UNL A   1      43.123  22.889  25.042  1.00  0.00     0.040 A 
ATOM     72  F   UNL A   1      43.484  25.203  24.922  1.00  0.00    -0.206 F 
ATOM     73  C   UNL A   1      42.712  21.759  25.744  1.00  0.00     0.006 A 
ENDBRANCH  45  66
BRANCH  57  74
ATOM     74  C   UNL A   1      45.132  29.839  28.444  1.00  0.00     0.057 A 
ATOM     75  C   UNL A   1      46.374  30.183  27.904  1.00  0.00     0.134 A 
ATOM     76  C   UNL A   1      44.009  30.497  27.920  1.00  0.00     0.134 A 
ATOM     77  F   UNL A   1      47.500  29.642  28.398  1.00  0.00    -0.206 F 
ATOM     78  C   UNL A   1      46.497  31.125  26.880  1.00  0.00     0.040 A 
ATOM     79  C   UNL A   1      44.114  31.418  26.873  1.00  0.00     0.040 A 
ATOM     80  F   UNL A   1      42.793  30.313  28.443  1.00  0.00    -0.206 F 
ATOM     81  C   UNL A   1      45.363  31.738  26.353  1.00  0.00     0.006 A 
ENDBRANCH  57  74
ENDBRANCH  31  32
ENDBRANCH  23  26
ENDBRANCH  21  22
ENDBRANCH  20  21
ENDBRANCH   1  20
TORSDOF 13
ENDMDL
