MODEL 1
REMARK VINA RESULT:     -14.2      0.000      0.000
REMARK SMILES O=C(NCCCCNC(=O)[C@@H](Cc1c[nH]c2ccccc12)NC(=O)c1ccc(F)cc1F)c1ccc(-c2c3nc(c(-c4c(F)cccc4F)c4ccc([nH]4)c(-c4c(F)cccc4F)c4nc(c(-c5c(F)cccc5F)c5ccc2[nH]5)C=C4)C=C3)cc1
REMARK SMILES IDX 5 1 4 2 3 3 1 4 2 5 33 7 34 8 86 9 35 10 85 11 36 12 37 13
REMARK SMILES IDX 38 14 79 15 39 16 84 17 78 18 80 19 40 20 83 21 77 22 76 23
REMARK SMILES IDX 41 25 67 26 50 27 66 28 51 29 54 30 65 31 81 32 52 33 53 34
REMARK SMILES IDX 64 36 82 37 55 38 42 39 43 40 48 41 44 42 45 43 47 44 49 45
REMARK SMILES IDX 46 46 68 47 69 48 74 49 70 50 71 51 73 52 75 53 72 54 56 55
REMARK SMILES IDX 57 56 62 57 58 58 59 59 61 60 63 61 60 62 6 63 7 64 8 65
REMARK SMILES IDX 9 66 10 68 11 69 12 70 13 71 14 72 21 73 15 74 16 75 20 76
REMARK SMILES IDX 17 78 19 79 18 80 22 81 23 82 24 84 25 85 26 86 31 87 27 88
REMARK SMILES IDX 30 89 32 90 28 91 29 92
REMARK H PARENT 3 6 80 24 54 35 8 67 15 77 22 83
REMARK Flexibility Score: inf
ROOT
ATOM      1  C   UNL A   1      31.363  31.602  26.613  1.00  0.00     0.023 C 
ENDROOT
BRANCH   1   2
ATOM      2  C   UNL A   1      32.357  32.759  26.516  1.00  0.00     0.116 C 
BRANCH   2   3
ATOM      3  N   UNL A   1      32.135  33.914  27.384  1.00  0.00    -0.352 N 
ATOM      4  O   UNL A   1      32.777  35.348  29.051  1.00  0.00    -0.269 OA
ATOM      5  C   UNL A   1      33.007  34.373  28.351  1.00  0.00     0.251 C 
ATOM      6  H   UNL A   1      31.290  34.406  27.270  1.00  0.00     0.163 HD
BRANCH   5   7
ATOM      7  C   UNL A   1      34.229  33.571  28.528  1.00  0.00     0.039 A 
ATOM      8  C   UNL A   1      34.082  32.213  28.814  1.00  0.00     0.014 A 
ATOM      9  C   UNL A   1      35.431  34.241  28.759  1.00  0.00     0.014 A 
ATOM     10  C   UNL A   1      35.081  31.578  29.536  1.00  0.00     0.010 A 
ATOM     11  C   UNL A   1      36.480  33.556  29.370  1.00  0.00     0.010 A 
ATOM     12  C   UNL A   1      36.295  32.235  29.809  1.00  0.00    -0.014 A 
BRANCH  12  13
ATOM     13  C   UNL A   1      37.393  31.504  30.486  1.00  0.00     0.031 A 
ATOM     14  C   UNL A   1      37.704  31.706  31.943  1.00  0.00     0.074 A 
ATOM     15  C   UNL A   1      38.131  30.658  29.742  1.00  0.00     0.049 A 
ATOM     16  N   UNL A   1      38.715  31.248  32.639  1.00  0.00    -0.248 NA
ATOM     17  C   UNL A   1      36.772  32.538  32.720  1.00  0.00     0.031 C 
ATOM     18  C   UNL A   1      37.907  30.377  28.321  1.00  0.00     0.029 A 
ATOM     19  N   UNL A   1      39.206  29.879  30.068  1.00  0.00    -0.354 N 
ATOM     20  C   UNL A   1      38.564  31.764  33.921  1.00  0.00     0.074 A 
ATOM     21  C   UNL A   1      37.368  32.579  33.906  1.00  0.00     0.031 C 
ATOM     22  C   UNL A   1      38.782  29.453  27.911  1.00  0.00     0.029 A 
ATOM     23  C   UNL A   1      39.694  29.159  29.007  1.00  0.00     0.049 A 
ATOM     24  H   UNL A   1      39.593  29.840  30.973  1.00  0.00     0.167 HD
ATOM     25  C   UNL A   1      39.362  31.574  35.002  1.00  0.00     0.037 A 
ATOM     26  C   UNL A   1      40.784  28.381  28.902  1.00  0.00     0.037 A 
ATOM     27  C   UNL A   1      40.543  30.744  34.994  1.00  0.00     0.049 A 
ATOM     28  C   UNL A   1      41.670  28.221  30.094  1.00  0.00     0.074 A 
ATOM     29  C   UNL A   1      41.412  30.469  36.035  1.00  0.00     0.029 A 
ATOM     30  N   UNL A   1      41.020  30.054  33.887  1.00  0.00    -0.354 N 
ATOM     31  N   UNL A   1      41.534  28.736  31.292  1.00  0.00    -0.248 NA
ATOM     32  C   UNL A   1      42.864  27.389  29.921  1.00  0.00     0.031 C 
ATOM     33  C   UNL A   1      42.440  29.654  35.547  1.00  0.00     0.029 A 
ATOM     34  C   UNL A   1      42.181  29.371  34.214  1.00  0.00     0.049 A 
ATOM     35  H   UNL A   1      40.596  30.051  32.998  1.00  0.00     0.167 HD
ATOM     36  C   UNL A   1      42.618  28.279  32.024  1.00  0.00     0.074 A 
ATOM     37  C   UNL A   1      43.394  27.435  31.136  1.00  0.00     0.031 C 
ATOM     38  C   UNL A   1      42.941  28.538  33.315  1.00  0.00     0.037 A 
BRANCH  25  39
ATOM     39  C   UNL A   1      39.009  32.294  36.276  1.00  0.00     0.057 A 
ATOM     40  C   UNL A   1      38.130  31.717  37.203  1.00  0.00     0.134 A 
ATOM     41  C   UNL A   1      39.491  33.578  36.566  1.00  0.00     0.134 A 
ATOM     42  F   UNL A   1      37.619  30.496  36.988  1.00  0.00    -0.206 F 
ATOM     43  C   UNL A   1      37.741  32.388  38.366  1.00  0.00     0.040 A 
ATOM     44  C   UNL A   1      39.130  34.249  37.739  1.00  0.00     0.040 A 
ATOM     45  F   UNL A   1      40.340  34.191  35.728  1.00  0.00    -0.206 F 
ATOM     46  C   UNL A   1      38.247  33.656  38.639  1.00  0.00     0.006 A 
ENDBRANCH  25  39
BRANCH  26  47
ATOM     47  C   UNL A   1      41.064  27.716  27.608  1.00  0.00     0.057 A 
ATOM     48  C   UNL A   1      40.636  26.406  27.350  1.00  0.00     0.134 A 
ATOM     49  C   UNL A   1      41.866  28.336  26.647  1.00  0.00     0.134 A 
ATOM     50  F   UNL A   1      39.882  25.750  28.247  1.00  0.00    -0.206 F 
ATOM     51  C   UNL A   1      41.030  25.722  26.200  1.00  0.00     0.040 A 
ATOM     52  C   UNL A   1      42.246  27.674  25.479  1.00  0.00     0.040 A 
ATOM     53  F   UNL A   1      42.300  29.590  26.839  1.00  0.00    -0.206 F 
ATOM     54  C   UNL A   1      41.838  26.358  25.260  1.00  0.00     0.006 A 
ENDBRANCH  26  47
BRANCH  38  55
ATOM     55  C   UNL A   1      44.173  27.874  33.852  1.00  0.00     0.057 A 
ATOM     56  C   UNL A   1      44.098  26.601  34.434  1.00  0.00     0.134 A 
ATOM     57  C   UNL A   1      45.423  28.506  33.832  1.00  0.00     0.134 A 
ATOM     58  F   UNL A   1      42.930  25.945  34.489  1.00  0.00    -0.206 F 
ATOM     59  C   UNL A   1      45.221  25.986  34.987  1.00  0.00     0.040 A 
ATOM     60  C   UNL A   1      46.558  27.888  34.358  1.00  0.00     0.040 A 
ATOM     61  F   UNL A   1      45.562  29.717  33.273  1.00  0.00    -0.206 F 
ATOM     62  C   UNL A   1      46.457  26.628  34.945  1.00  0.00     0.006 A 
ENDBRANCH  38  55
ENDBRANCH  12  13
ENDBRANCH   5   7
ENDBRANCH   2   3
ENDBRANCH   1   2
BRANCH   1  63
ATOM     63  C   UNL A   1      31.914  29.983  26.566  1.00  0.00     0.023 C 
BRANCH  63  64
ATOM     64  C   UNL A   1      33.430  28.820  25.482  1.00  0.00     0.116 C 
BRANCH  64  65
ATOM     65  N   UNL A   1      33.895  28.840  23.937  1.00  0.00    -0.354 N 
ATOM     66  C   UNL A   1      33.787  27.970  22.892  1.00  0.00     0.242 C 
ATOM     67  H   UNL A   1      34.362  29.671  23.693  1.00  0.00     0.163 HD
ATOM     68  O   UNL A   1      34.389  28.286  21.856  1.00  0.00    -0.273 OA
BRANCH  66  69
ATOM     69  C   UNL A   1      32.961  26.656  22.912  1.00  0.00     0.176 C 
BRANCH  69  70
ATOM     70  C   UNL A   1      31.577  26.630  22.208  1.00  0.00     0.072 C 
BRANCH  70  71
ATOM     71  C   UNL A   1      30.464  26.682  23.190  1.00  0.00    -0.020 A 
ATOM     72  C   UNL A   1      29.599  25.657  23.565  1.00  0.00     0.087 A 
ATOM     73  C   UNL A   1      29.900  27.908  23.581  1.00  0.00     0.003 A 
ATOM     74  N   UNL A   1      28.321  26.103  23.900  1.00  0.00    -0.361 N 
ATOM     75  C   UNL A   1      28.211  27.444  23.648  1.00  0.00     0.046 A 
ATOM     76  C   UNL A   1      30.359  29.653  23.351  1.00  0.00     0.010 A 
ATOM     77  H   UNL A   1      27.603  25.536  24.264  1.00  0.00     0.166 HD
ATOM     78  C   UNL A   1      26.925  28.674  23.355  1.00  0.00     0.026 A 
ATOM     79  C   UNL A   1      29.080  30.880  23.041  1.00  0.00     0.001 A 
ATOM     80  C   UNL A   1      27.370  30.393  23.061  1.00  0.00     0.002 A 
ENDBRANCH  70  71
ENDBRANCH  69  70
BRANCH  69  81
ATOM     81  N   UNL A   1      33.843  25.533  22.546  1.00  0.00    -0.340 N 
ATOM     82  C   UNL A   1      34.103  24.388  23.260  1.00  0.00     0.254 C 
ATOM     83  H   UNL A   1      34.305  25.613  21.680  1.00  0.00     0.164 HD
ATOM     84  O   UNL A   1      35.062  23.680  22.977  1.00  0.00    -0.269 OA
BRANCH  82  85
ATOM     85  C   UNL A   1      33.176  23.991  24.333  1.00  0.00     0.075 A 
ATOM     86  C   UNL A   1      32.221  22.993  24.088  1.00  0.00     0.020 A 
ATOM     87  C   UNL A   1      33.242  24.603  25.584  1.00  0.00     0.138 A 
ATOM     88  C   UNL A   1      31.284  22.679  25.070  1.00  0.00     0.040 A 
ATOM     89  C   UNL A   1      32.323  24.274  26.575  1.00  0.00     0.079 A 
ATOM     90  F   UNL A   1      34.163  25.541  25.849  1.00  0.00    -0.206 F 
ATOM     91  C   UNL A   1      31.341  23.327  26.301  1.00  0.00     0.126 A 
ATOM     92  F   UNL A   1      30.430  23.031  27.237  1.00  0.00    -0.207 F 
ENDBRANCH  82  85
ENDBRANCH  69  81
ENDBRANCH  66  69
ENDBRANCH  64  65
ENDBRANCH  63  64
ENDBRANCH   1  63
TORSDOF 15
ENDMDL
MODEL 2
REMARK VINA RESULT:     -14.1      0.583      6.001
REMARK SMILES O=C(NCCCCNC(=O)[C@@H](Cc1c[nH]c2ccccc12)NC(=O)c1ccc(F)cc1F)c1ccc(-c2c3nc(c(-c4c(F)cccc4F)c4ccc([nH]4)c(-c4c(F)cccc4F)c4nc(c(-c5c(F)cccc5F)c5ccc2[nH]5)C=C4)C=C3)cc1
REMARK SMILES IDX 5 1 4 2 3 3 1 4 2 5 33 7 34 8 86 9 35 10 85 11 36 12 37 13
REMARK SMILES IDX 38 14 79 15 39 16 84 17 78 18 80 19 40 20 83 21 77 22 76 23
REMARK SMILES IDX 41 25 67 26 50 27 66 28 51 29 54 30 65 31 81 32 52 33 53 34
REMARK SMILES IDX 64 36 82 37 55 38 42 39 43 40 48 41 44 42 45 43 47 44 49 45
REMARK SMILES IDX 46 46 68 47 69 48 74 49 70 50 71 51 73 52 75 53 72 54 56 55
REMARK SMILES IDX 57 56 62 57 58 58 59 59 61 60 63 61 60 62 6 63 7 64 8 65
REMARK SMILES IDX 9 66 10 68 11 69 12 70 13 71 14 72 21 73 15 74 16 75 20 76
REMARK SMILES IDX 17 78 19 79 18 80 22 81 23 82 24 84 25 85 26 86 31 87 27 88
REMARK SMILES IDX 30 89 32 90 28 91 29 92
REMARK H PARENT 3 6 80 24 54 35 8 67 15 77 22 83
REMARK Flexibility Score: inf
ROOT
ATOM      1  C   UNL A   1      31.424  31.360  26.811  1.00  0.00     0.023 C 
ENDROOT
BRANCH   1   2
ATOM      2  C   UNL A   1      32.228  32.615  26.474  1.00  0.00     0.116 C 
BRANCH   2   3
ATOM      3  N   UNL A   1      32.026  33.792  27.316  1.00  0.00    -0.352 N 
ATOM      4  O   UNL A   1      32.703  35.263  28.936  1.00  0.00    -0.269 OA
ATOM      5  C   UNL A   1      32.916  34.269  28.258  1.00  0.00     0.251 C 
ATOM      6  H   UNL A   1      31.183  34.287  27.202  1.00  0.00     0.163 HD
BRANCH   5   7
ATOM      7  C   UNL A   1      34.136  33.464  28.436  1.00  0.00     0.039 A 
ATOM      8  C   UNL A   1      34.032  32.274  29.157  1.00  0.00     0.014 A 
ATOM      9  C   UNL A   1      35.370  34.073  28.205  1.00  0.00     0.014 A 
ATOM     10  C   UNL A   1      35.150  31.811  29.833  1.00  0.00     0.010 A 
ATOM     11  C   UNL A   1      36.513  33.525  28.783  1.00  0.00     0.010 A 
ATOM     12  C   UNL A   1      36.404  32.421  29.643  1.00  0.00    -0.014 A 
BRANCH  12  13
ATOM     13  C   UNL A   1      37.609  31.845  30.288  1.00  0.00     0.031 A 
ATOM     14  C   UNL A   1      38.457  30.807  29.606  1.00  0.00     0.074 A 
ATOM     15  C   UNL A   1      37.913  32.264  31.530  1.00  0.00     0.049 A 
ATOM     16  N   UNL A   1      39.453  30.109  30.093  1.00  0.00    -0.248 NA
ATOM     17  C   UNL A   1      38.143  30.499  28.202  1.00  0.00     0.031 C 
ATOM     18  C   UNL A   1      37.165  33.277  32.280  1.00  0.00     0.029 A 
ATOM     19  N   UNL A   1      38.924  31.904  32.379  1.00  0.00    -0.354 N 
ATOM     20  C   UNL A   1      39.860  29.256  29.074  1.00  0.00     0.074 A 
ATOM     21  C   UNL A   1      38.997  29.516  27.941  1.00  0.00     0.031 C 
ATOM     22  C   UNL A   1      37.770  33.494  33.452  1.00  0.00     0.029 A 
ATOM     23  C   UNL A   1      38.880  32.562  33.582  1.00  0.00     0.049 A 
ATOM     24  H   UNL A   1      39.613  31.239  32.150  1.00  0.00     0.167 HD
ATOM     25  C   UNL A   1      40.859  28.339  29.095  1.00  0.00     0.037 A 
ATOM     26  C   UNL A   1      39.616  32.405  34.694  1.00  0.00     0.037 A 
ATOM     27  C   UNL A   1      41.716  28.109  30.234  1.00  0.00     0.049 A 
ATOM     28  C   UNL A   1      40.683  31.359  34.708  1.00  0.00     0.074 A 
ATOM     29  C   UNL A   1      42.768  27.218  30.358  1.00  0.00     0.029 A 
ATOM     30  N   UNL A   1      41.618  28.777  31.448  1.00  0.00    -0.354 N 
ATOM     31  N   UNL A   1      41.041  30.539  33.749  1.00  0.00    -0.248 NA
ATOM     32  C   UNL A   1      41.439  31.204  35.955  1.00  0.00     0.031 C 
ATOM     33  C   UNL A   1      43.274  27.312  31.659  1.00  0.00     0.029 A 
ATOM     34  C   UNL A   1      42.576  28.305  32.331  1.00  0.00     0.049 A 
ATOM     35  H   UNL A   1      40.963  29.484  31.652  1.00  0.00     0.167 HD
ATOM     36  C   UNL A   1      42.074  29.777  34.270  1.00  0.00     0.074 A 
ATOM     37  C   UNL A   1      42.293  30.245  35.626  1.00  0.00     0.031 C 
ATOM     38  C   UNL A   1      42.776  28.781  33.679  1.00  0.00     0.037 A 
BRANCH  25  39
ATOM     39  C   UNL A   1      41.068  27.492  27.868  1.00  0.00     0.057 A 
ATOM     40  C   UNL A   1      40.451  26.238  27.752  1.00  0.00     0.134 A 
ATOM     41  C   UNL A   1      41.918  27.884  26.825  1.00  0.00     0.134 A 
ATOM     42  F   UNL A   1      39.633  25.790  28.716  1.00  0.00    -0.206 F 
ATOM     43  C   UNL A   1      40.674  25.407  26.651  1.00  0.00     0.040 A 
ATOM     44  C   UNL A   1      42.128  27.073  25.706  1.00  0.00     0.040 A 
ATOM     45  F   UNL A   1      42.539  29.072  26.865  1.00  0.00    -0.206 F 
ATOM     46  C   UNL A   1      41.510  25.827  25.620  1.00  0.00     0.006 A 
ENDBRANCH  25  39
BRANCH  26  47
ATOM     47  C   UNL A   1      39.340  33.274  35.862  1.00  0.00     0.057 A 
ATOM     48  C   UNL A   1      39.978  34.512  36.022  1.00  0.00     0.134 A 
ATOM     49  C   UNL A   1      38.517  32.830  36.900  1.00  0.00     0.134 A 
ATOM     50  F   UNL A   1      40.798  34.979  35.068  1.00  0.00    -0.206 F 
ATOM     51  C   UNL A   1      39.839  35.259  37.191  1.00  0.00     0.040 A 
ATOM     52  C   UNL A   1      38.348  33.580  38.065  1.00  0.00     0.040 A 
ATOM     53  F   UNL A   1      37.878  31.656  36.799  1.00  0.00    -0.206 F 
ATOM     54  C   UNL A   1      39.021  34.791  38.218  1.00  0.00     0.006 A 
ENDBRANCH  26  47
BRANCH  38  55
ATOM     55  C   UNL A   1      43.870  28.149  34.486  1.00  0.00     0.057 A 
ATOM     56  C   UNL A   1      43.622  26.992  35.236  1.00  0.00     0.134 A 
ATOM     57  C   UNL A   1      45.153  28.706  34.556  1.00  0.00     0.134 A 
ATOM     58  F   UNL A   1      42.412  26.413  35.217  1.00  0.00    -0.206 F 
ATOM     59  C   UNL A   1      44.609  26.418  36.037  1.00  0.00     0.040 A 
ATOM     60  C   UNL A   1      46.156  28.124  35.332  1.00  0.00     0.040 A 
ATOM     61  F   UNL A   1      45.457  29.803  33.847  1.00  0.00    -0.206 F 
ATOM     62  C   UNL A   1      45.883  26.981  36.081  1.00  0.00     0.006 A 
ENDBRANCH  38  55
ENDBRANCH  12  13
ENDBRANCH   5   7
ENDBRANCH   2   3
ENDBRANCH   1   2
BRANCH   1  63
ATOM     63  C   UNL A   1      32.177  29.824  26.809  1.00  0.00     0.023 C 
BRANCH  63  64
ATOM     64  C   UNL A   1      33.627  28.734  25.571  1.00  0.00     0.116 C 
BRANCH  64  65
ATOM     65  N   UNL A   1      33.979  28.826  23.999  1.00  0.00    -0.354 N 
ATOM     66  C   UNL A   1      33.795  28.005  22.926  1.00  0.00     0.242 C 
ATOM     67  H   UNL A   1      34.429  29.668  23.760  1.00  0.00     0.163 HD
ATOM     68  O   UNL A   1      34.321  28.369  21.864  1.00  0.00    -0.273 OA
BRANCH  66  69
ATOM     69  C   UNL A   1      32.971  26.690  22.945  1.00  0.00     0.176 C 
BRANCH  69  70
ATOM     70  C   UNL A   1      31.594  26.659  22.226  1.00  0.00     0.072 C 
BRANCH  70  71
ATOM     71  C   UNL A   1      30.471  26.667  23.199  1.00  0.00    -0.020 A 
ATOM     72  C   UNL A   1      29.598  25.629  23.515  1.00  0.00     0.087 A 
ATOM     73  C   UNL A   1      29.907  27.876  23.642  1.00  0.00     0.003 A 
ATOM     74  N   UNL A   1      28.319  26.063  23.858  1.00  0.00    -0.361 N 
ATOM     75  C   UNL A   1      28.216  27.416  23.669  1.00  0.00     0.046 A 
ATOM     76  C   UNL A   1      30.374  29.628  23.500  1.00  0.00     0.010 A 
ATOM     77  H   UNL A   1      27.595  25.482  24.187  1.00  0.00     0.166 HD
ATOM     78  C   UNL A   1      26.937  28.663  23.421  1.00  0.00     0.026 A 
ATOM     79  C   UNL A   1      29.103  30.873  23.236  1.00  0.00     0.001 A 
ATOM     80  C   UNL A   1      27.391  30.392  23.214  1.00  0.00     0.002 A 
ENDBRANCH  70  71
ENDBRANCH  69  70
BRANCH  69  81
ATOM     81  N   UNL A   1      33.858  25.566  22.594  1.00  0.00    -0.340 N 
ATOM     82  C   UNL A   1      34.094  24.416  23.307  1.00  0.00     0.254 C 
ATOM     83  H   UNL A   1      34.342  25.651  21.742  1.00  0.00     0.164 HD
ATOM     84  O   UNL A   1      35.058  23.706  23.045  1.00  0.00    -0.269 OA
BRANCH  82  85
ATOM     85  C   UNL A   1      33.139  24.015  24.353  1.00  0.00     0.075 A 
ATOM     86  C   UNL A   1      32.190  23.019  24.078  1.00  0.00     0.020 A 
ATOM     87  C   UNL A   1      33.170  24.622  25.608  1.00  0.00     0.138 A 
ATOM     88  C   UNL A   1      31.226  22.702  25.033  1.00  0.00     0.040 A 
ATOM     89  C   UNL A   1      32.224  24.290  26.572  1.00  0.00     0.079 A 
ATOM     90  F   UNL A   1      34.084  25.558  25.902  1.00  0.00    -0.206 F 
ATOM     91  C   UNL A   1      31.250  23.344  26.268  1.00  0.00     0.126 A 
ATOM     92  F   UNL A   1      30.313  23.046  27.177  1.00  0.00    -0.207 F 
ENDBRANCH  82  85
ENDBRANCH  69  81
ENDBRANCH  66  69
ENDBRANCH  64  65
ENDBRANCH  63  64
ENDBRANCH   1  63
TORSDOF 15
ENDMDL
MODEL 3
REMARK VINA RESULT:     -13.9      4.596      8.772
REMARK SMILES O=C(NCCCCNC(=O)[C@@H](Cc1c[nH]c2ccccc12)NC(=O)c1ccc(F)cc1F)c1ccc(-c2c3nc(c(-c4c(F)cccc4F)c4ccc([nH]4)c(-c4c(F)cccc4F)c4nc(c(-c5c(F)cccc5F)c5ccc2[nH]5)C=C4)C=C3)cc1
REMARK SMILES IDX 5 1 4 2 3 3 1 4 2 5 33 7 34 8 86 9 35 10 85 11 36 12 37 13
REMARK SMILES IDX 38 14 79 15 39 16 84 17 78 18 80 19 40 20 83 21 77 22 76 23
REMARK SMILES IDX 41 25 67 26 50 27 66 28 51 29 54 30 65 31 81 32 52 33 53 34
REMARK SMILES IDX 64 36 82 37 55 38 42 39 43 40 48 41 44 42 45 43 47 44 49 45
REMARK SMILES IDX 46 46 68 47 69 48 74 49 70 50 71 51 73 52 75 53 72 54 56 55
REMARK SMILES IDX 57 56 62 57 58 58 59 59 61 60 63 61 60 62 6 63 7 64 8 65
REMARK SMILES IDX 9 66 10 68 11 69 12 70 13 71 14 72 21 73 15 74 16 75 20 76
REMARK SMILES IDX 17 78 19 79 18 80 22 81 23 82 24 84 25 85 26 86 31 87 27 88
REMARK SMILES IDX 30 89 32 90 28 91 29 92
REMARK H PARENT 3 6 80 24 54 35 8 67 15 77 22 83
REMARK Flexibility Score: inf
ROOT
ATOM      1  C   UNL A   1      37.951  19.860  24.723  1.00  0.00     0.023 C 
ENDROOT
BRANCH   1   2
ATOM      2  C   UNL A   1      38.846  19.601  25.934  1.00  0.00     0.116 C 
BRANCH   2   3
ATOM      3  N   UNL A   1      40.145  18.977  25.693  1.00  0.00    -0.352 N 
ATOM      4  O   UNL A   1      42.433  18.958  25.792  1.00  0.00    -0.269 OA
ATOM      5  C   UNL A   1      41.373  19.524  26.011  1.00  0.00     0.251 C 
ATOM      6  H   UNL A   1      40.145  18.090  25.266  1.00  0.00     0.163 HD
BRANCH   5   7
ATOM      7  C   UNL A   1      41.327  20.876  26.593  1.00  0.00     0.039 A 
ATOM      8  C   UNL A   1      41.262  21.960  25.717  1.00  0.00     0.014 A 
ATOM      9  C   UNL A   1      41.706  21.035  27.926  1.00  0.00     0.014 A 
ATOM     10  C   UNL A   1      41.789  23.174  26.128  1.00  0.00     0.010 A 
ATOM     11  C   UNL A   1      42.112  22.292  28.368  1.00  0.00     0.010 A 
ATOM     12  C   UNL A   1      42.206  23.359  27.460  1.00  0.00    -0.014 A 
BRANCH  12  13
ATOM     13  C   UNL A   1      42.663  24.696  27.910  1.00  0.00     0.031 A 
ATOM     14  C   UNL A   1      41.698  25.755  28.367  1.00  0.00     0.074 A 
ATOM     15  C   UNL A   1      43.985  24.948  27.875  1.00  0.00     0.049 A 
ATOM     16  N   UNL A   1      41.932  27.011  28.654  1.00  0.00    -0.248 NA
ATOM     17  C   UNL A   1      40.287  25.363  28.508  1.00  0.00     0.031 C 
ATOM     18  C   UNL A   1      45.011  23.987  27.461  1.00  0.00     0.029 A 
ATOM     19  N   UNL A   1      44.695  26.073  28.192  1.00  0.00    -0.354 N 
ATOM     20  C   UNL A   1      40.700  27.569  28.972  1.00  0.00     0.074 A 
ATOM     21  C   UNL A   1      39.716  26.516  28.834  1.00  0.00     0.031 C 
ATOM     22  C   UNL A   1      46.218  24.544  27.598  1.00  0.00     0.029 A 
ATOM     23  C   UNL A   1      46.046  25.931  28.004  1.00  0.00     0.049 A 
ATOM     24  H   UNL A   1      44.278  26.902  28.522  1.00  0.00     0.167 HD
ATOM     25  C   UNL A   1      40.424  28.846  29.338  1.00  0.00     0.037 A 
ATOM     26  C   UNL A   1      47.043  26.826  28.096  1.00  0.00     0.037 A 
ATOM     27  C   UNL A   1      41.427  29.875  29.482  1.00  0.00     0.049 A 
ATOM     28  C   UNL A   1      46.710  28.237  28.459  1.00  0.00     0.074 A 
ATOM     29  C   UNL A   1      41.261  31.195  29.863  1.00  0.00     0.029 A 
ATOM     30  N   UNL A   1      42.785  29.697  29.251  1.00  0.00    -0.354 N 
ATOM     31  N   UNL A   1      45.539  28.760  28.730  1.00  0.00    -0.248 NA
ATOM     32  C   UNL A   1      47.828  29.185  28.516  1.00  0.00     0.031 C 
ATOM     33  C   UNL A   1      42.508  31.827  29.815  1.00  0.00     0.029 A 
ATOM     34  C   UNL A   1      43.464  30.886  29.461  1.00  0.00     0.049 A 
ATOM     35  H   UNL A   1      43.204  28.849  28.977  1.00  0.00     0.167 HD
ATOM     36  C   UNL A   1      45.777  30.097  29.004  1.00  0.00     0.074 A 
ATOM     37  C   UNL A   1      47.208  30.299  28.880  1.00  0.00     0.031 C 
ATOM     38  C   UNL A   1      44.889  31.069  29.329  1.00  0.00     0.037 A 
BRANCH  25  39
ATOM     39  C   UNL A   1      38.985  29.219  29.579  1.00  0.00     0.057 A 
ATOM     40  C   UNL A   1      38.425  29.110  30.859  1.00  0.00     0.134 A 
ATOM     41  C   UNL A   1      38.137  29.631  28.543  1.00  0.00     0.134 A 
ATOM     42  F   UNL A   1      39.172  28.711  31.899  1.00  0.00    -0.206 F 
ATOM     43  C   UNL A   1      37.078  29.394  31.100  1.00  0.00     0.040 A 
ATOM     44  C   UNL A   1      36.794  29.944  28.776  1.00  0.00     0.040 A 
ATOM     45  F   UNL A   1      38.604  29.762  27.293  1.00  0.00    -0.206 F 
ATOM     46  C   UNL A   1      36.259  29.818  30.057  1.00  0.00     0.006 A 
ENDBRANCH  25  39
BRANCH  26  47
ATOM     47  C   UNL A   1      48.431  26.379  27.833  1.00  0.00     0.057 A 
ATOM     48  C   UNL A   1      48.990  26.443  26.549  1.00  0.00     0.134 A 
ATOM     49  C   UNL A   1      49.186  25.771  28.839  1.00  0.00     0.134 A 
ATOM     50  F   UNL A   1      48.302  26.995  25.537  1.00  0.00    -0.206 F 
ATOM     51  C   UNL A   1      50.235  25.882  26.267  1.00  0.00     0.040 A 
ATOM     52  C   UNL A   1      50.444  25.229  28.577  1.00  0.00     0.040 A 
ATOM     53  F   UNL A   1      48.703  25.687  30.087  1.00  0.00    -0.206 F 
ATOM     54  C   UNL A   1      50.966  25.271  27.284  1.00  0.00     0.006 A 
ENDBRANCH  26  47
BRANCH  38  55
ATOM     55  C   UNL A   1      45.447  32.433  29.602  1.00  0.00     0.057 A 
ATOM     56  C   UNL A   1      45.861  32.786  30.894  1.00  0.00     0.134 A 
ATOM     57  C   UNL A   1      45.537  33.409  28.602  1.00  0.00     0.134 A 
ATOM     58  F   UNL A   1      45.795  31.898  31.896  1.00  0.00    -0.206 F 
ATOM     59  C   UNL A   1      46.333  34.066  31.182  1.00  0.00     0.040 A 
ATOM     60  C   UNL A   1      46.034  34.684  28.874  1.00  0.00     0.040 A 
ATOM     61  F   UNL A   1      45.173  33.127  27.343  1.00  0.00    -0.206 F 
ATOM     62  C   UNL A   1      46.426  35.018  30.169  1.00  0.00     0.006 A 
ENDBRANCH  38  55
ENDBRANCH  12  13
ENDBRANCH   5   7
ENDBRANCH   2   3
ENDBRANCH   1   2
BRANCH   1  63
ATOM     63  C   UNL A   1      37.053  21.311  24.606  1.00  0.00     0.023 C 
BRANCH  63  64
ATOM     64  C   UNL A   1      35.926  22.630  25.954  1.00  0.00     0.116 C 
BRANCH  64  65
ATOM     65  N   UNL A   1      34.869  22.311  27.130  1.00  0.00    -0.354 N 
ATOM     66  C   UNL A   1      33.537  22.540  27.309  1.00  0.00     0.242 C 
ATOM     67  H   UNL A   1      35.280  21.845  27.893  1.00  0.00     0.163 HD
ATOM     68  O   UNL A   1      33.079  22.253  28.425  1.00  0.00    -0.273 OA
BRANCH  66  69
ATOM     69  C   UNL A   1      32.578  23.100  26.225  1.00  0.00     0.176 C 
BRANCH  69  70
ATOM     70  C   UNL A   1      31.603  22.124  25.510  1.00  0.00     0.072 C 
BRANCH  70  71
ATOM     71  C   UNL A   1      32.078  21.781  24.144  1.00  0.00    -0.020 A 
ATOM     72  C   UNL A   1      31.540  22.175  22.922  1.00  0.00     0.087 A 
ATOM     73  C   UNL A   1      32.920  20.677  23.927  1.00  0.00     0.003 A 
ATOM     74  N   UNL A   1      31.694  21.223  21.915  1.00  0.00    -0.361 N 
ATOM     75  C   UNL A   1      32.232  20.076  22.432  1.00  0.00     0.046 A 
ATOM     76  C   UNL A   1      33.866  19.563  25.010  1.00  0.00     0.010 A 
ATOM     77  H   UNL A   1      31.450  21.357  20.970  1.00  0.00     0.166 HD
ATOM     78  C   UNL A   1      32.345  18.321  22.028  1.00  0.00     0.026 A 
ATOM     79  C   UNL A   1      33.966  17.810  24.620  1.00  0.00     0.001 A 
ATOM     80  C   UNL A   1      33.223  17.197  23.125  1.00  0.00     0.002 A 
ENDBRANCH  70  71
ENDBRANCH  69  70
BRANCH  69  81
ATOM     81  N   UNL A   1      31.934  24.321  26.741  1.00  0.00    -0.340 N 
ATOM     82  C   UNL A   1      31.892  25.568  26.167  1.00  0.00     0.254 C 
ATOM     83  H   UNL A   1      31.477  24.232  27.609  1.00  0.00     0.164 HD
ATOM     84  O   UNL A   1      31.575  26.550  26.828  1.00  0.00    -0.269 OA
BRANCH  82  85
ATOM     85  C   UNL A   1      32.174  25.701  24.728  1.00  0.00     0.075 A 
ATOM     86  C   UNL A   1      31.111  25.833  23.823  1.00  0.00     0.020 A 
ATOM     87  C   UNL A   1      33.489  25.691  24.264  1.00  0.00     0.138 A 
ATOM     88  C   UNL A   1      31.369  25.867  22.455  1.00  0.00     0.040 A 
ATOM     89  C   UNL A   1      33.751  25.749  22.899  1.00  0.00     0.079 A 
ATOM     90  F   UNL A   1      34.523  25.592  25.112  1.00  0.00    -0.206 F 
ATOM     91  C   UNL A   1      32.686  25.819  22.007  1.00  0.00     0.126 A 
ATOM     92  F   UNL A   1      32.928  25.838  20.689  1.00  0.00    -0.207 F 
ENDBRANCH  82  85
ENDBRANCH  69  81
ENDBRANCH  66  69
ENDBRANCH  64  65
ENDBRANCH  63  64
ENDBRANCH   1  63
TORSDOF 15
ENDMDL
