MODEL 1
REMARK VINA RESULT:     -12.4      0.000      0.000
REMARK SMILES CN(C)S(=O)(=O)c1ccc(-n2c(CCC(=O)NCCCCNC(=O)c3ccc(-c4c5nc(c(-c6c(F)cccc6F)c6ccc([nH]6)c(-c6c(F)cccc6F)c6nc(c(-c7c(F)cccc7F)c7ccc4[nH]7)C=C6)C=C5)cc3)ccc2-c2ccc(F)cc2)cc1
REMARK SMILES IDX 18 1 17 2 15 3 16 4 14 6 13 7 12 8 11 9 81 10 79 11 80 12
REMARK SMILES IDX 10 13 7 14 8 15 90 16 9 17 89 18 4 19 5 20 6 21 2 22 1 23
REMARK SMILES IDX 3 24 82 25 83 26 88 27 84 28 87 29 85 30 86 31 19 32 20 33
REMARK SMILES IDX 21 34 22 35 23 36 24 38 25 39 26 40 78 41 27 42 77 43 28 44
REMARK SMILES IDX 29 45 30 46 71 47 31 48 76 49 70 50 72 51 32 52 75 53 69 54
REMARK SMILES IDX 68 55 33 57 59 58 42 59 58 60 43 61 46 62 57 63 73 64 44 65
REMARK SMILES IDX 45 66 56 68 74 69 47 70 34 71 35 72 40 73 36 74 37 75 39 76
REMARK SMILES IDX 41 77 38 78 60 79 61 80 66 81 62 82 63 83 65 84 67 85 64 86
REMARK SMILES IDX 48 87 49 88 54 89 50 90 51 91 53 92 55 93 52 94
REMARK H PARENT 17 5 22 37 72 56 46 67
REMARK Flexibility Score: inf
ROOT
ATOM      1  C   UNL A   1      31.335  29.078  25.178  1.00  0.00     0.116 C 
ENDROOT
BRANCH   1   2
ATOM      2  N   UNL A   1      31.020  28.593  23.847  1.00  0.00    -0.356 N 
ATOM      3  C   UNL A   1      30.725  27.318  23.457  1.00  0.00     0.220 C 
ATOM      4  O   UNL A   1      30.652  27.082  22.250  1.00  0.00    -0.275 OA
ATOM      5  H   UNL A   1      31.019  29.271  23.133  1.00  0.00     0.163 HD
BRANCH   3   6
ATOM      6  C   UNL A   1      30.502  26.217  24.487  1.00  0.00     0.106 C 
BRANCH   6   7
ATOM      7  C   UNL A   1      31.197  24.866  24.202  1.00  0.00     0.064 C 
BRANCH   7   8
ATOM      8  C   UNL A   1      32.683  24.843  24.530  1.00  0.00     0.024 A 
ATOM      9  N   UNL A   1      33.525  23.738  24.846  1.00  0.00    -0.314 N 
ATOM     10  C   UNL A   1      34.821  24.273  25.076  1.00  0.00     0.053 A 
ATOM     11  C   UNL A   1      33.437  26.001  24.630  1.00  0.00     0.024 A 
ATOM     12  C   UNL A   1      34.742  25.653  24.976  1.00  0.00     0.029 A 
BRANCH   9  13
ATOM     13  C   UNL A   1      33.183  22.324  24.804  1.00  0.00     0.046 A 
ATOM     14  C   UNL A   1      32.790  19.524  24.570  1.00  0.00     0.082 A 
ATOM     15  C   UNL A   1      33.075  20.085  25.814  1.00  0.00     0.024 A 
ATOM     16  C   UNL A   1      32.654  20.345  23.463  1.00  0.00     0.024 A 
ATOM     17  C   UNL A   1      33.265  21.483  25.927  1.00  0.00     0.028 A 
ATOM     18  C   UNL A   1      32.840  21.716  23.593  1.00  0.00     0.028 A 
BRANCH  14  19
ATOM     19  S   UNL A   1      32.560  17.795  24.269  1.00  0.00     0.242 S 
ATOM     20  O   UNL A   1      32.103  17.658  22.899  1.00  0.00    -0.207 OA
ATOM     21  O   UNL A   1      31.774  17.294  25.374  1.00  0.00    -0.207 OA
BRANCH  19  22
ATOM     22  N   UNL A   1      34.105  17.063  24.338  1.00  0.00    -0.204 NA
ATOM     23  C   UNL A   1      34.136  15.970  25.346  1.00  0.00     0.124 C 
ATOM     24  C   UNL A   1      34.627  16.585  23.036  1.00  0.00     0.124 C 
ENDBRANCH  19  22
ENDBRANCH  14  19
ENDBRANCH   9  13
BRANCH  10  25
ATOM     25  C   UNL A   1      36.115  23.564  25.132  1.00  0.00    -0.001 A 
ATOM     26  C   UNL A   1      36.378  22.442  24.337  1.00  0.00     0.013 A 
ATOM     27  C   UNL A   1      37.040  23.896  26.125  1.00  0.00     0.013 A 
ATOM     28  C   UNL A   1      37.546  21.693  24.537  1.00  0.00     0.040 A 
ATOM     29  C   UNL A   1      38.192  23.145  26.348  1.00  0.00     0.040 A 
ATOM     30  C   UNL A   1      38.437  22.045  25.546  1.00  0.00     0.123 A 
ATOM     31  F   UNL A   1      39.538  21.312  25.753  1.00  0.00    -0.207 F 
ENDBRANCH  10  25
ENDBRANCH   7   8
ENDBRANCH   6   7
ENDBRANCH   3   6
ENDBRANCH   1   2
BRANCH   1  32
ATOM     32  C   UNL A   1      32.839  29.156  25.352  1.00  0.00     0.023 C 
BRANCH  32  33
ATOM     33  C   UNL A   1      33.331  29.087  26.795  1.00  0.00     0.023 C 
BRANCH  33  34
ATOM     34  C   UNL A   1      34.837  29.255  26.900  1.00  0.00     0.116 C 
BRANCH  34  35
ATOM     35  N   UNL A   1      35.290  30.558  27.397  1.00  0.00    -0.352 N 
ATOM     36  C   UNL A   1      36.473  30.872  28.033  1.00  0.00     0.251 C 
ATOM     37  H   UNL A   1      34.667  31.307  27.260  1.00  0.00     0.163 HD
ATOM     38  O   UNL A   1      36.675  31.968  28.513  1.00  0.00    -0.269 OA
BRANCH  36  39
ATOM     39  C   UNL A   1      37.464  29.795  28.158  1.00  0.00     0.039 A 
ATOM     40  C   UNL A   1      38.541  29.756  27.271  1.00  0.00     0.014 A 
ATOM     41  C   UNL A   1      37.387  28.948  29.263  1.00  0.00     0.014 A 
ATOM     42  C   UNL A   1      39.616  28.931  27.568  1.00  0.00     0.010 A 
ATOM     43  C   UNL A   1      38.501  28.231  29.627  1.00  0.00     0.010 A 
ATOM     44  C   UNL A   1      39.611  28.216  28.774  1.00  0.00    -0.014 A 
BRANCH  44  45
ATOM     45  C   UNL A   1      40.795  27.443  29.188  1.00  0.00     0.031 A 
ATOM     46  C   UNL A   1      41.113  26.265  28.268  1.00  0.00     0.074 A 
ATOM     47  C   UNL A   1      41.442  27.944  30.280  1.00  0.00     0.049 A 
ATOM     48  N   UNL A   1      41.765  25.171  28.516  1.00  0.00    -0.248 NA
ATOM     49  C   UNL A   1      40.566  26.264  26.883  1.00  0.00     0.031 C 
ATOM     50  C   UNL A   1      40.962  29.115  31.045  1.00  0.00     0.029 A 
ATOM     51  N   UNL A   1      42.597  27.626  30.957  1.00  0.00    -0.354 N 
ATOM     52  C   UNL A   1      41.864  24.448  27.309  1.00  0.00     0.074 A 
ATOM     53  C   UNL A   1      41.000  25.107  26.375  1.00  0.00     0.031 C 
ATOM     54  C   UNL A   1      41.779  29.387  32.073  1.00  0.00     0.029 A 
ATOM     55  C   UNL A   1      42.860  28.429  32.095  1.00  0.00     0.049 A 
ATOM     56  H   UNL A   1      43.195  26.897  30.674  1.00  0.00     0.167 HD
ATOM     57  C   UNL A   1      42.758  23.432  27.118  1.00  0.00     0.037 A 
ATOM     58  C   UNL A   1      43.840  28.312  33.039  1.00  0.00     0.037 A 
ATOM     59  C   UNL A   1      43.522  23.223  28.303  1.00  0.00     0.049 A 
ATOM     60  C   UNL A   1      44.674  27.175  32.616  1.00  0.00     0.074 A 
ATOM     61  C   UNL A   1      43.236  22.659  29.518  1.00  0.00     0.029 A 
ATOM     62  N   UNL A   1      44.698  23.925  28.408  1.00  0.00    -0.354 N 
ATOM     63  N   UNL A   1      45.527  27.200  31.636  1.00  0.00    -0.248 NA
ATOM     64  C   UNL A   1      44.436  25.865  33.233  1.00  0.00     0.031 C 
ATOM     65  C   UNL A   1      44.035  23.381  30.432  1.00  0.00     0.029 A 
ATOM     66  C   UNL A   1      44.864  24.263  29.729  1.00  0.00     0.049 A 
ATOM     67  H   UNL A   1      45.311  24.145  27.669  1.00  0.00     0.167 HD
ATOM     68  C   UNL A   1      45.664  25.865  31.323  1.00  0.00     0.074 A 
ATOM     69  C   UNL A   1      45.241  25.118  32.483  1.00  0.00     0.031 C 
ATOM     70  C   UNL A   1      45.613  25.464  30.027  1.00  0.00     0.037 A 
BRANCH  57  71
ATOM     71  C   UNL A   1      43.216  22.715  25.875  1.00  0.00     0.057 A 
ATOM     72  C   UNL A   1      43.277  21.300  25.897  1.00  0.00     0.134 A 
ATOM     73  C   UNL A   1      43.880  23.330  24.808  1.00  0.00     0.134 A 
ATOM     74  F   UNL A   1      42.640  20.595  26.845  1.00  0.00    -0.206 F 
ATOM     75  C   UNL A   1      44.046  20.560  24.995  1.00  0.00     0.040 A 
ATOM     76  C   UNL A   1      44.617  22.591  23.869  1.00  0.00     0.040 A 
ATOM     77  F   UNL A   1      43.917  24.662  24.680  1.00  0.00    -0.206 F 
ATOM     78  C   UNL A   1      44.736  21.210  23.983  1.00  0.00     0.006 A 
ENDBRANCH  57  71
BRANCH  58  79
ATOM     79  C   UNL A   1      44.104  28.945  34.382  1.00  0.00     0.057 A 
ATOM     80  C   UNL A   1      43.370  28.731  35.554  1.00  0.00     0.134 A 
ATOM     81  C   UNL A   1      45.207  29.820  34.554  1.00  0.00     0.134 A 
ATOM     82  F   UNL A   1      42.190  28.104  35.542  1.00  0.00    -0.206 F 
ATOM     83  C   UNL A   1      43.789  29.204  36.812  1.00  0.00     0.040 A 
ATOM     84  C   UNL A   1      45.639  30.295  35.796  1.00  0.00     0.040 A 
ATOM     85  F   UNL A   1      45.926  30.264  33.516  1.00  0.00    -0.206 F 
ATOM     86  C   UNL A   1      44.945  29.960  36.942  1.00  0.00     0.006 A 
ENDBRANCH  58  79
BRANCH  70  87
ATOM     87  C   UNL A   1      45.981  26.548  29.038  1.00  0.00     0.057 A 
ATOM     88  C   UNL A   1      47.313  26.960  28.909  1.00  0.00     0.134 A 
ATOM     89  C   UNL A   1      45.042  27.288  28.302  1.00  0.00     0.134 A 
ATOM     90  F   UNL A   1      48.285  26.309  29.568  1.00  0.00    -0.206 F 
ATOM     91  C   UNL A   1      47.683  28.051  28.112  1.00  0.00     0.040 A 
ATOM     92  C   UNL A   1      45.395  28.370  27.489  1.00  0.00     0.040 A 
ATOM     93  F   UNL A   1      43.745  26.991  28.360  1.00  0.00    -0.206 F 
ATOM     94  C   UNL A   1      46.722  28.763  27.401  1.00  0.00     0.006 A 
ENDBRANCH  70  87
ENDBRANCH  44  45
ENDBRANCH  36  39
ENDBRANCH  34  35
ENDBRANCH  33  34
ENDBRANCH  32  33
ENDBRANCH   1  32
TORSDOF 17
ENDMDL
MODEL 2
REMARK VINA RESULT:     -11.1      2.973      7.517
REMARK SMILES CN(C)S(=O)(=O)c1ccc(-n2c(CCC(=O)NCCCCNC(=O)c3ccc(-c4c5nc(c(-c6c(F)cccc6F)c6ccc([nH]6)c(-c6c(F)cccc6F)c6nc(c(-c7c(F)cccc7F)c7ccc4[nH]7)C=C6)C=C5)cc3)ccc2-c2ccc(F)cc2)cc1
REMARK SMILES IDX 18 1 17 2 15 3 16 4 14 6 13 7 12 8 11 9 81 10 79 11 80 12
REMARK SMILES IDX 10 13 7 14 8 15 90 16 9 17 89 18 4 19 5 20 6 21 2 22 1 23
REMARK SMILES IDX 3 24 82 25 83 26 88 27 84 28 87 29 85 30 86 31 19 32 20 33
REMARK SMILES IDX 21 34 22 35 23 36 24 38 25 39 26 40 78 41 27 42 77 43 28 44
REMARK SMILES IDX 29 45 30 46 71 47 31 48 76 49 70 50 72 51 32 52 75 53 69 54
REMARK SMILES IDX 68 55 33 57 59 58 42 59 58 60 43 61 46 62 57 63 73 64 44 65
REMARK SMILES IDX 45 66 56 68 74 69 47 70 34 71 35 72 40 73 36 74 37 75 39 76
REMARK SMILES IDX 41 77 38 78 60 79 61 80 66 81 62 82 63 83 65 84 67 85 64 86
REMARK SMILES IDX 48 87 49 88 54 89 50 90 51 91 53 92 55 93 52 94
REMARK H PARENT 17 5 22 37 72 56 46 67
REMARK Flexibility Score: inf
ROOT
ATOM      1  C   UNL A   1      31.111  28.958  24.974  1.00  0.00     0.116 C 
ENDROOT
BRANCH   1   2
ATOM      2  N   UNL A   1      30.996  28.343  23.665  1.00  0.00    -0.356 N 
ATOM      3  C   UNL A   1      30.798  27.027  23.361  1.00  0.00     0.220 C 
ATOM      4  O   UNL A   1      30.898  26.682  22.182  1.00  0.00    -0.275 OA
ATOM      5  H   UNL A   1      31.069  28.956  22.897  1.00  0.00     0.163 HD
BRANCH   3   6
ATOM      6  C   UNL A   1      30.475  26.012  24.451  1.00  0.00     0.106 C 
BRANCH   6   7
ATOM      7  C   UNL A   1      31.155  24.630  24.319  1.00  0.00     0.064 C 
BRANCH   7   8
ATOM      8  C   UNL A   1      32.643  24.630  24.636  1.00  0.00     0.024 A 
ATOM      9  N   UNL A   1      33.507  23.537  24.933  1.00  0.00    -0.314 N 
ATOM     10  C   UNL A   1      34.795  24.093  25.160  1.00  0.00     0.053 A 
ATOM     11  C   UNL A   1      33.377  25.801  24.743  1.00  0.00     0.024 A 
ATOM     12  C   UNL A   1      34.691  25.473  25.076  1.00  0.00     0.029 A 
BRANCH   9  13
ATOM     13  C   UNL A   1      33.190  22.117  24.878  1.00  0.00     0.046 A 
ATOM     14  C   UNL A   1      32.848  19.313  24.619  1.00  0.00     0.082 A 
ATOM     15  C   UNL A   1      33.118  19.869  25.869  1.00  0.00     0.024 A 
ATOM     16  C   UNL A   1      32.703  20.141  23.518  1.00  0.00     0.024 A 
ATOM     17  C   UNL A   1      33.282  21.269  25.995  1.00  0.00     0.028 A 
ATOM     18  C   UNL A   1      32.864  21.514  23.661  1.00  0.00     0.028 A 
BRANCH  14  19
ATOM     19  S   UNL A   1      32.650  17.583  24.303  1.00  0.00     0.242 S 
ATOM     20  O   UNL A   1      32.959  17.368  22.902  1.00  0.00    -0.207 OA
ATOM     21  O   UNL A   1      31.362  17.218  24.850  1.00  0.00    -0.207 OA
BRANCH  19  22
ATOM     22  N   UNL A   1      33.860  16.767  25.196  1.00  0.00    -0.204 NA
ATOM     23  C   UNL A   1      33.417  15.399  25.573  1.00  0.00     0.124 C 
ATOM     24  C   UNL A   1      35.192  16.723  24.545  1.00  0.00     0.124 C 
ENDBRANCH  19  22
ENDBRANCH  14  19
ENDBRANCH   9  13
BRANCH  10  25
ATOM     25  C   UNL A   1      36.102  23.407  25.199  1.00  0.00    -0.001 A 
ATOM     26  C   UNL A   1      36.323  22.198  24.528  1.00  0.00     0.013 A 
ATOM     27  C   UNL A   1      37.096  23.866  26.067  1.00  0.00     0.013 A 
ATOM     28  C   UNL A   1      37.515  21.488  24.725  1.00  0.00     0.040 A 
ATOM     29  C   UNL A   1      38.275  23.157  26.288  1.00  0.00     0.040 A 
ATOM     30  C   UNL A   1      38.476  21.969  25.609  1.00  0.00     0.123 A 
ATOM     31  F   UNL A   1      39.603  21.276  25.815  1.00  0.00    -0.207 F 
ENDBRANCH  10  25
ENDBRANCH   7   8
ENDBRANCH   6   7
ENDBRANCH   3   6
ENDBRANCH   1   2
BRANCH   1  32
ATOM     32  C   UNL A   1      32.541  29.411  25.203  1.00  0.00     0.023 C 
BRANCH  32  33
ATOM     33  C   UNL A   1      33.136  29.029  26.555  1.00  0.00     0.023 C 
BRANCH  33  34
ATOM     34  C   UNL A   1      33.886  30.181  27.202  1.00  0.00     0.116 C 
BRANCH  34  35
ATOM     35  N   UNL A   1      33.124  31.426  27.340  1.00  0.00    -0.352 N 
ATOM     36  C   UNL A   1      33.464  32.570  28.032  1.00  0.00     0.251 C 
ATOM     37  H   UNL A   1      32.255  31.448  26.879  1.00  0.00     0.163 HD
ATOM     38  O   UNL A   1      32.686  33.490  28.177  1.00  0.00    -0.269 OA
BRANCH  36  39
ATOM     39  C   UNL A   1      34.800  32.603  28.642  1.00  0.00     0.039 A 
ATOM     40  C   UNL A   1      35.063  31.789  29.745  1.00  0.00     0.014 A 
ATOM     41  C   UNL A   1      35.807  33.320  27.998  1.00  0.00     0.014 A 
ATOM     42  C   UNL A   1      36.382  31.602  30.131  1.00  0.00     0.010 A 
ATOM     43  C   UNL A   1      37.117  33.036  28.294  1.00  0.00     0.010 A 
ATOM     44  C   UNL A   1      37.404  32.183  29.367  1.00  0.00    -0.014 A 
BRANCH  44  45
ATOM     45  C   UNL A   1      38.817  31.889  29.663  1.00  0.00     0.031 A 
ATOM     46  C   UNL A   1      39.477  32.913  30.585  1.00  0.00     0.074 A 
ATOM     47  C   UNL A   1      39.277  30.725  29.120  1.00  0.00     0.049 A 
ATOM     48  N   UNL A   1      40.731  33.221  30.719  1.00  0.00    -0.248 NA
ATOM     49  C   UNL A   1      38.615  33.779  31.435  1.00  0.00     0.031 C 
ATOM     50  C   UNL A   1      38.463  29.861  28.237  1.00  0.00     0.029 A 
ATOM     51  N   UNL A   1      40.455  30.018  29.189  1.00  0.00    -0.354 N 
ATOM     52  C   UNL A   1      40.831  34.161  31.767  1.00  0.00     0.074 A 
ATOM     53  C   UNL A   1      39.490  34.558  32.079  1.00  0.00     0.031 C 
ATOM     54  C   UNL A   1      39.161  28.788  27.837  1.00  0.00     0.029 A 
ATOM     55  C   UNL A   1      40.491  28.841  28.400  1.00  0.00     0.049 A 
ATOM     56  H   UNL A   1      41.216  30.308  29.742  1.00  0.00     0.167 HD
ATOM     57  C   UNL A   1      42.006  34.448  32.402  1.00  0.00     0.037 A 
ATOM     58  C   UNL A   1      41.526  27.986  28.153  1.00  0.00     0.037 A 
ATOM     59  C   UNL A   1      43.069  33.687  31.834  1.00  0.00     0.049 A 
ATOM     60  C   UNL A   1      42.661  28.486  28.946  1.00  0.00     0.074 A 
ATOM     61  C   UNL A   1      43.759  33.772  30.654  1.00  0.00     0.029 A 
ATOM     62  N   UNL A   1      43.327  32.467  32.409  1.00  0.00    -0.354 N 
ATOM     63  N   UNL A   1      42.780  28.366  30.235  1.00  0.00    -0.248 NA
ATOM     64  C   UNL A   1      43.670  29.315  28.278  1.00  0.00     0.031 C 
ATOM     65  C   UNL A   1      44.087  32.433  30.347  1.00  0.00     0.029 A 
ATOM     66  C   UNL A   1      43.699  31.605  31.406  1.00  0.00     0.049 A 
ATOM     67  H   UNL A   1      43.258  32.249  33.367  1.00  0.00     0.167 HD
ATOM     68  C   UNL A   1      43.675  29.366  30.548  1.00  0.00     0.074 A 
ATOM     69  C   UNL A   1      44.389  29.683  29.334  1.00  0.00     0.031 C 
ATOM     70  C   UNL A   1      43.426  30.197  31.593  1.00  0.00     0.037 A 
BRANCH  57  71
ATOM     71  C   UNL A   1      42.305  35.190  33.679  1.00  0.00     0.057 A 
ATOM     72  C   UNL A   1      43.159  36.319  33.618  1.00  0.00     0.134 A 
ATOM     73  C   UNL A   1      42.066  34.684  34.961  1.00  0.00     0.134 A 
ATOM     74  F   UNL A   1      43.426  36.922  32.449  1.00  0.00    -0.206 F 
ATOM     75  C   UNL A   1      43.824  36.828  34.737  1.00  0.00     0.040 A 
ATOM     76  C   UNL A   1      42.694  35.218  36.098  1.00  0.00     0.040 A 
ATOM     77  F   UNL A   1      41.295  33.608  35.157  1.00  0.00    -0.206 F 
ATOM     78  C   UNL A   1      43.605  36.264  35.984  1.00  0.00     0.006 A 
ENDBRANCH  57  71
BRANCH  58  79
ATOM     79  C   UNL A   1      41.760  26.848  27.192  1.00  0.00     0.057 A 
ATOM     80  C   UNL A   1      42.321  26.949  25.913  1.00  0.00     0.134 A 
ATOM     81  C   UNL A   1      41.440  25.519  27.568  1.00  0.00     0.134 A 
ATOM     82  F   UNL A   1      42.497  28.131  25.313  1.00  0.00    -0.206 F 
ATOM     83  C   UNL A   1      42.685  25.824  25.150  1.00  0.00     0.040 A 
ATOM     84  C   UNL A   1      41.798  24.390  26.824  1.00  0.00     0.040 A 
ATOM     85  F   UNL A   1      40.754  25.245  28.684  1.00  0.00    -0.206 F 
ATOM     86  C   UNL A   1      42.456  24.539  25.619  1.00  0.00     0.006 A 
ENDBRANCH  58  79
BRANCH  70  87
ATOM     87  C   UNL A   1      42.508  29.603  32.639  1.00  0.00     0.057 A 
ATOM     88  C   UNL A   1      42.974  28.593  33.491  1.00  0.00     0.134 A 
ATOM     89  C   UNL A   1      41.142  29.906  32.745  1.00  0.00     0.134 A 
ATOM     90  F   UNL A   1      44.268  28.238  33.469  1.00  0.00    -0.206 F 
ATOM     91  C   UNL A   1      42.127  27.917  34.379  1.00  0.00     0.040 A 
ATOM     92  C   UNL A   1      40.285  29.252  33.637  1.00  0.00     0.040 A 
ATOM     93  F   UNL A   1      40.590  30.841  31.974  1.00  0.00    -0.206 F 
ATOM     94  C   UNL A   1      40.776  28.243  34.452  1.00  0.00     0.006 A 
ENDBRANCH  70  87
ENDBRANCH  44  45
ENDBRANCH  36  39
ENDBRANCH  34  35
ENDBRANCH  33  34
ENDBRANCH  32  33
ENDBRANCH   1  32
TORSDOF 17
ENDMDL
MODEL 3
REMARK VINA RESULT:     -11.1      5.959     11.325
REMARK SMILES CN(C)S(=O)(=O)c1ccc(-n2c(CCC(=O)NCCCCNC(=O)c3ccc(-c4c5nc(c(-c6c(F)cccc6F)c6ccc([nH]6)c(-c6c(F)cccc6F)c6nc(c(-c7c(F)cccc7F)c7ccc4[nH]7)C=C6)C=C5)cc3)ccc2-c2ccc(F)cc2)cc1
REMARK SMILES IDX 18 1 17 2 15 3 16 4 14 6 13 7 12 8 11 9 81 10 79 11 80 12
REMARK SMILES IDX 10 13 7 14 8 15 90 16 9 17 89 18 4 19 5 20 6 21 2 22 1 23
REMARK SMILES IDX 3 24 82 25 83 26 88 27 84 28 87 29 85 30 86 31 19 32 20 33
REMARK SMILES IDX 21 34 22 35 23 36 24 38 25 39 26 40 78 41 27 42 77 43 28 44
REMARK SMILES IDX 29 45 30 46 71 47 31 48 76 49 70 50 72 51 32 52 75 53 69 54
REMARK SMILES IDX 68 55 33 57 59 58 42 59 58 60 43 61 46 62 57 63 73 64 44 65
REMARK SMILES IDX 45 66 56 68 74 69 47 70 34 71 35 72 40 73 36 74 37 75 39 76
REMARK SMILES IDX 41 77 38 78 60 79 61 80 66 81 62 82 63 83 65 84 67 85 64 86
REMARK SMILES IDX 48 87 49 88 54 89 50 90 51 91 53 92 55 93 52 94
REMARK H PARENT 17 5 22 37 72 56 46 67
REMARK Flexibility Score: inf
ROOT
ATOM      1  C   UNL A   1      42.976  28.018  36.652  1.00  0.00     0.116 C 
ENDROOT
BRANCH   1   2
ATOM      2  N   UNL A   1      42.153  29.173  36.341  1.00  0.00    -0.356 N 
ATOM      3  C   UNL A   1      41.532  29.480  35.164  1.00  0.00     0.220 C 
ATOM      4  O   UNL A   1      41.017  30.594  35.053  1.00  0.00    -0.275 OA
ATOM      5  H   UNL A   1      42.026  29.817  37.075  1.00  0.00     0.163 HD
BRANCH   3   6
ATOM      6  C   UNL A   1      41.487  28.476  34.018  1.00  0.00     0.106 C 
BRANCH   6   7
ATOM      7  C   UNL A   1      41.994  28.982  32.649  1.00  0.00     0.064 C 
BRANCH   7   8
ATOM      8  C   UNL A   1      41.003  28.802  31.507  1.00  0.00     0.024 A 
ATOM      9  N   UNL A   1      39.711  29.374  31.329  1.00  0.00    -0.314 N 
ATOM     10  C   UNL A   1      39.213  28.866  30.099  1.00  0.00     0.053 A 
ATOM     11  C   UNL A   1      41.241  27.937  30.452  1.00  0.00     0.024 A 
ATOM     12  C   UNL A   1      40.139  27.967  29.596  1.00  0.00     0.029 A 
BRANCH   9  13
ATOM     13  C   UNL A   1      39.070  30.389  32.154  1.00  0.00     0.046 A 
ATOM     14  C   UNL A   1      37.651  32.440  33.504  1.00  0.00     0.082 A 
ATOM     15  C   UNL A   1      37.400  31.103  33.809  1.00  0.00     0.024 A 
ATOM     16  C   UNL A   1      38.627  32.759  32.575  1.00  0.00     0.024 A 
ATOM     17  C   UNL A   1      38.114  30.083  33.138  1.00  0.00     0.028 A 
ATOM     18  C   UNL A   1      39.321  31.744  31.927  1.00  0.00     0.028 A 
BRANCH  14  19
ATOM     19  S   UNL A   1      36.817  33.819  34.236  1.00  0.00     0.242 S 
ATOM     20  O   UNL A   1      37.723  34.951  34.168  1.00  0.00    -0.207 OA
ATOM     21  O   UNL A   1      36.298  33.351  35.502  1.00  0.00    -0.207 OA
BRANCH  19  22
ATOM     22  N   UNL A   1      35.491  34.199  33.224  1.00  0.00    -0.204 NA
ATOM     23  C   UNL A   1      34.358  33.264  33.451  1.00  0.00     0.124 C 
ATOM     24  C   UNL A   1      35.029  35.606  33.303  1.00  0.00     0.124 C 
ENDBRANCH  19  22
ENDBRANCH  14  19
ENDBRANCH   9  13
BRANCH  10  25
ATOM     25  C   UNL A   1      38.078  29.357  29.291  1.00  0.00    -0.001 A 
ATOM     26  C   UNL A   1      36.778  29.421  29.805  1.00  0.00     0.013 A 
ATOM     27  C   UNL A   1      38.257  29.596  27.926  1.00  0.00     0.013 A 
ATOM     28  C   UNL A   1      35.700  29.727  28.963  1.00  0.00     0.040 A 
ATOM     29  C   UNL A   1      37.190  29.878  27.075  1.00  0.00     0.040 A 
ATOM     30  C   UNL A   1      35.914  29.944  27.605  1.00  0.00     0.123 A 
ATOM     31  F   UNL A   1      34.879  30.210  26.798  1.00  0.00    -0.207 F 
ENDBRANCH  10  25
ENDBRANCH   7   8
ENDBRANCH   6   7
ENDBRANCH   3   6
ENDBRANCH   1   2
BRANCH   1  32
ATOM     32  C   UNL A   1      44.356  28.475  37.086  1.00  0.00     0.023 C 
BRANCH  32  33
ATOM     33  C   UNL A   1      45.307  28.841  35.950  1.00  0.00     0.023 C 
BRANCH  33  34
ATOM     34  C   UNL A   1      46.550  27.969  35.935  1.00  0.00     0.116 C 
BRANCH  34  35
ATOM     35  N   UNL A   1      46.448  26.718  36.693  1.00  0.00    -0.352 N 
ATOM     36  C   UNL A   1      45.951  25.500  36.278  1.00  0.00     0.251 C 
ATOM     37  H   UNL A   1      46.776  26.752  37.620  1.00  0.00     0.163 HD
ATOM     38  O   UNL A   1      45.802  24.571  37.045  1.00  0.00    -0.269 OA
BRANCH  36  39
ATOM     39  C   UNL A   1      45.551  25.391  34.869  1.00  0.00     0.039 A 
ATOM     40  C   UNL A   1      44.226  25.654  34.517  1.00  0.00     0.014 A 
ATOM     41  C   UNL A   1      46.544  25.194  33.911  1.00  0.00     0.014 A 
ATOM     42  C   UNL A   1      43.920  25.839  33.177  1.00  0.00     0.010 A 
ATOM     43  C   UNL A   1      46.271  25.503  32.601  1.00  0.00     0.010 A 
ATOM     44  C   UNL A   1      44.957  25.817  32.234  1.00  0.00    -0.014 A 
BRANCH  44  45
ATOM     45  C   UNL A   1      44.690  26.149  30.823  1.00  0.00     0.031 A 
ATOM     46  C   UNL A   1      44.899  27.626  30.490  1.00  0.00     0.074 A 
ATOM     47  C   UNL A   1      44.368  25.078  30.042  1.00  0.00     0.049 A 
ATOM     48  N   UNL A   1      44.388  28.340  29.534  1.00  0.00    -0.248 NA
ATOM     49  C   UNL A   1      45.744  28.456  31.391  1.00  0.00     0.031 C 
ATOM     50  C   UNL A   1      44.212  23.704  30.569  1.00  0.00     0.029 A 
ATOM     51  N   UNL A   1      44.128  24.888  28.701  1.00  0.00    -0.354 N 
ATOM     52  C   UNL A   1      44.969  29.624  29.603  1.00  0.00     0.074 A 
ATOM     53  C   UNL A   1      45.694  29.671  30.838  1.00  0.00     0.031 C 
ATOM     54  C   UNL A   1      43.883  22.848  29.591  1.00  0.00     0.029 A 
ATOM     55  C   UNL A   1      43.780  23.563  28.339  1.00  0.00     0.049 A 
ATOM     56  H   UNL A   1      44.192  25.617  28.043  1.00  0.00     0.167 HD
ATOM     57  C   UNL A   1      44.926  30.519  28.570  1.00  0.00     0.037 A 
ATOM     58  C   UNL A   1      43.375  23.064  27.135  1.00  0.00     0.037 A 
ATOM     59  C   UNL A   1      44.206  29.965  27.472  1.00  0.00     0.049 A 
ATOM     60  C   UNL A   1      43.422  24.194  26.193  1.00  0.00     0.074 A 
ATOM     61  C   UNL A   1      42.876  29.732  27.241  1.00  0.00     0.029 A 
ATOM     62  N   UNL A   1      44.943  29.278  26.538  1.00  0.00    -0.354 N 
ATOM     63  N   UNL A   1      44.509  24.703  25.693  1.00  0.00    -0.248 NA
ATOM     64  C   UNL A   1      42.177  24.912  25.898  1.00  0.00     0.031 C 
ATOM     65  C   UNL A   1      42.863  28.576  26.429  1.00  0.00     0.029 A 
ATOM     66  C   UNL A   1      44.176  28.229  26.093  1.00  0.00     0.049 A 
ATOM     67  H   UNL A   1      45.855  29.498  26.241  1.00  0.00     0.167 HD
ATOM     68  C   UNL A   1      44.103  25.963  25.312  1.00  0.00     0.074 A 
ATOM     69  C   UNL A   1      42.667  25.917  25.177  1.00  0.00     0.031 C 
ATOM     70  C   UNL A   1      44.862  27.044  25.627  1.00  0.00     0.037 A 
BRANCH  57  71
ATOM     71  C   UNL A   1      45.675  31.801  28.318  1.00  0.00     0.057 A 
ATOM     72  C   UNL A   1      44.939  32.944  27.917  1.00  0.00     0.134 A 
ATOM     73  C   UNL A   1      47.060  31.886  28.145  1.00  0.00     0.134 A 
ATOM     74  F   UNL A   1      43.607  33.000  28.077  1.00  0.00    -0.206 F 
ATOM     75  C   UNL A   1      45.527  34.037  27.276  1.00  0.00     0.040 A 
ATOM     76  C   UNL A   1      47.666  33.001  27.544  1.00  0.00     0.040 A 
ATOM     77  F   UNL A   1      47.870  30.869  28.464  1.00  0.00    -0.206 F 
ATOM     78  C   UNL A   1      46.897  34.061  27.071  1.00  0.00     0.006 A 
ENDBRANCH  57  71
BRANCH  58  79
ATOM     79  C   UNL A   1      42.782  21.758  26.669  1.00  0.00     0.057 A 
ATOM     80  C   UNL A   1      43.382  20.844  25.794  1.00  0.00     0.134 A 
ATOM     81  C   UNL A   1      41.518  21.334  27.153  1.00  0.00     0.134 A 
ATOM     82  F   UNL A   1      44.471  21.159  25.086  1.00  0.00    -0.206 F 
ATOM     83  C   UNL A   1      42.857  19.560  25.555  1.00  0.00     0.040 A 
ATOM     84  C   UNL A   1      40.984  20.061  26.930  1.00  0.00     0.040 A 
ATOM     85  F   UNL A   1      40.729  22.142  27.872  1.00  0.00    -0.206 F 
ATOM     86  C   UNL A   1      41.671  19.152  26.151  1.00  0.00     0.006 A 
ENDBRANCH  58  79
BRANCH  70  87
ATOM     87  C   UNL A   1      46.323  26.719  25.851  1.00  0.00     0.057 A 
ATOM     88  C   UNL A   1      47.232  26.798  24.788  1.00  0.00     0.134 A 
ATOM     89  C   UNL A   1      46.835  26.207  27.052  1.00  0.00     0.134 A 
ATOM     90  F   UNL A   1      46.837  27.282  23.601  1.00  0.00    -0.206 F 
ATOM     91  C   UNL A   1      48.562  26.375  24.911  1.00  0.00     0.040 A 
ATOM     92  C   UNL A   1      48.164  25.794  27.198  1.00  0.00     0.040 A 
ATOM     93  F   UNL A   1      46.056  26.076  28.124  1.00  0.00    -0.206 F 
ATOM     94  C   UNL A   1      49.032  25.867  26.119  1.00  0.00     0.006 A 
ENDBRANCH  70  87
ENDBRANCH  44  45
ENDBRANCH  36  39
ENDBRANCH  34  35
ENDBRANCH  33  34
ENDBRANCH  32  33
ENDBRANCH   1  32
TORSDOF 17
ENDMDL
