MODEL 1
REMARK VINA RESULT:     -11.7      0.000      0.000
REMARK SMILES Cc1ccc(S(C)(=O)=O)cc1C(=O)NCCOCC(=O)NCCCCNC(=O)c1ccc(-c2c3nc(c(-c4c(F)cccc4F)c4ccc([nH]4)c(-c4c(F)cccc4F)c4nc(c(-c5c(F)cccc5F)c5ccc2[nH]5)C=C4)C=C3)cc1
REMARK SMILES IDX 19 1 20 2 21 3 18 5 17 6 16 7 15 8 14 9 12 10 13 11 11 13
REMARK SMILES IDX 1 14 2 15 3 16 4 17 10 18 5 19 6 20 7 21 8 22 9 23 22 24
REMARK SMILES IDX 23 25 24 26 25 27 26 28 27 29 28 31 29 32 30 33 82 34 31 35
REMARK SMILES IDX 81 36 32 37 33 38 34 39 75 40 35 41 80 42 74 43 76 44 36 45
REMARK SMILES IDX 79 46 73 47 72 48 37 50 63 51 46 52 62 53 47 54 50 55 61 56
REMARK SMILES IDX 77 57 48 58 49 59 60 61 78 62 51 63 38 64 39 65 44 66 40 67
REMARK SMILES IDX 41 68 43 69 45 70 42 71 64 72 65 73 70 74 66 75 67 76 69 77
REMARK SMILES IDX 71 78 68 79 52 80 53 81 58 82 54 83 55 84 57 85 59 86 56 87
REMARK H PARENT 21 4 14 12 26 30 76 49 50 60
REMARK Flexibility Score: inf
ROOT
ATOM      1  C   UNL A   1      34.312  22.661  26.903  1.00  0.00     0.245 C 
ATOM      2  O   UNL A   1      33.941  21.930  27.821  1.00  0.00    -0.272 OA
ATOM      3  N   UNL A   1      35.631  22.645  26.555  1.00  0.00    -0.354 N 
ATOM      4  H   UNL A   1      36.207  22.064  27.101  1.00  0.00     0.163 HD
ENDROOT
BRANCH   1   5
ATOM      5  C   UNL A   1      33.322  23.559  26.145  1.00  0.00     0.260 C 
BRANCH   5   6
ATOM      6  O   UNL A   1      32.334  24.262  26.880  1.00  0.00    -0.370 OA
BRANCH   6   7
ATOM      7  C   UNL A   1      31.005  23.737  26.782  1.00  0.00     0.182 C 
BRANCH   7   8
ATOM      8  C   UNL A   1      30.031  24.569  25.922  1.00  0.00     0.144 C 
BRANCH   8   9
ATOM      9  N   UNL A   1      30.470  24.646  24.540  1.00  0.00    -0.350 N 
ATOM     10  C   UNL A   1      30.734  25.618  23.621  1.00  0.00     0.251 C 
ATOM     11  O   UNL A   1      31.097  25.190  22.520  1.00  0.00    -0.269 OA
ATOM     12  H   UNL A   1      30.619  23.748  24.162  1.00  0.00     0.163 HD
BRANCH  10  13
ATOM     13  C   UNL A   1      30.713  27.107  23.803  1.00  0.00     0.044 A 
ATOM     14  C   UNL A   1      32.543  27.459  25.597  1.00  0.00     0.045 C 
ATOM     15  C   UNL A   1      31.511  27.931  24.622  1.00  0.00    -0.038 A 
ATOM     16  C   UNL A   1      31.294  29.333  24.621  1.00  0.00     0.005 A 
ATOM     17  C   UNL A   1      30.218  29.906  23.951  1.00  0.00     0.020 A 
ATOM     18  C   UNL A   1      29.618  27.715  23.137  1.00  0.00     0.034 A 
ATOM     19  C   UNL A   1      29.349  29.079  23.259  1.00  0.00     0.067 A 
BRANCH  19  20
ATOM     20  S   UNL A   1      27.842  29.760  22.610  1.00  0.00     0.175 S 
ATOM     21  C   UNL A   1      27.715  31.328  23.440  1.00  0.00     0.163 C 
ATOM     22  O   UNL A   1      28.065  30.005  21.198  1.00  0.00    -0.224 OA
ATOM     23  O   UNL A   1      26.740  28.936  23.063  1.00  0.00    -0.224 OA
ENDBRANCH  19  20
ENDBRANCH  10  13
ENDBRANCH   8   9
ENDBRANCH   7   8
ENDBRANCH   6   7
ENDBRANCH   5   6
ENDBRANCH   1   5
BRANCH   3  24
ATOM     24  C   UNL A   1      36.302  23.367  25.490  1.00  0.00     0.116 C 
BRANCH  24  25
ATOM     25  C   UNL A   1      37.758  23.707  25.826  1.00  0.00     0.023 C 
BRANCH  25  26
ATOM     26  C   UNL A   1      38.735  22.525  25.833  1.00  0.00     0.023 C 
BRANCH  26  27
ATOM     27  C   UNL A   1      39.707  22.488  27.006  1.00  0.00     0.116 C 
BRANCH  27  28
ATOM     28  N   UNL A   1      41.063  22.926  26.695  1.00  0.00    -0.352 N 
ATOM     29  C   UNL A   1      41.569  24.212  26.591  1.00  0.00     0.251 C 
ATOM     30  H   UNL A   1      41.712  22.205  26.537  1.00  0.00     0.163 HD
ATOM     31  O   UNL A   1      42.740  24.381  26.262  1.00  0.00    -0.269 OA
BRANCH  29  32
ATOM     32  C   UNL A   1      40.753  25.373  27.029  1.00  0.00     0.039 A 
ATOM     33  C   UNL A   1      40.829  26.541  26.260  1.00  0.00     0.014 A 
ATOM     34  C   UNL A   1      40.140  25.401  28.279  1.00  0.00     0.014 A 
ATOM     35  C   UNL A   1      40.579  27.770  26.862  1.00  0.00     0.010 A 
ATOM     36  C   UNL A   1      39.985  26.620  28.910  1.00  0.00     0.010 A 
ATOM     37  C   UNL A   1      40.300  27.797  28.225  1.00  0.00    -0.014 A 
BRANCH  37  38
ATOM     38  C   UNL A   1      40.480  28.982  29.052  1.00  0.00     0.031 A 
ATOM     39  C   UNL A   1      39.421  30.000  29.145  1.00  0.00     0.074 A 
ATOM     40  C   UNL A   1      41.592  29.079  29.818  1.00  0.00     0.049 A 
ATOM     41  N   UNL A   1      39.594  31.159  29.681  1.00  0.00    -0.248 NA
ATOM     42  C   UNL A   1      38.089  29.825  28.571  1.00  0.00     0.031 C 
ATOM     43  C   UNL A   1      41.840  29.990  30.933  1.00  0.00     0.029 A 
ATOM     44  N   UNL A   1      42.847  28.507  29.557  1.00  0.00    -0.354 N 
ATOM     45  C   UNL A   1      38.361  31.743  29.803  1.00  0.00     0.074 A 
ATOM     46  C   UNL A   1      37.488  30.950  28.975  1.00  0.00     0.031 C 
ATOM     47  C   UNL A   1      43.165  30.162  31.061  1.00  0.00     0.029 A 
ATOM     48  C   UNL A   1      43.792  29.492  29.936  1.00  0.00     0.049 A 
ATOM     49  H   UNL A   1      43.032  27.613  29.189  1.00  0.00     0.167 HD
ATOM     50  C   UNL A   1      38.208  32.751  30.703  1.00  0.00     0.037 A 
ATOM     51  C   UNL A   1      44.569  30.102  28.993  1.00  0.00     0.037 A 
ATOM     52  C   UNL A   1      39.503  33.309  31.096  1.00  0.00     0.049 A 
ATOM     53  C   UNL A   1      44.356  31.600  28.866  1.00  0.00     0.074 A 
ATOM     54  C   UNL A   1      40.288  33.302  32.235  1.00  0.00     0.029 A 
ATOM     55  N   UNL A   1      40.301  33.832  30.091  1.00  0.00    -0.354 N 
ATOM     56  N   UNL A   1      43.487  32.289  29.553  1.00  0.00    -0.248 NA
ATOM     57  C   UNL A   1      45.053  32.420  27.872  1.00  0.00     0.031 C 
ATOM     58  C   UNL A   1      41.597  33.755  31.868  1.00  0.00     0.029 A 
ATOM     59  C   UNL A   1      41.589  34.075  30.522  1.00  0.00     0.049 A 
ATOM     60  H   UNL A   1      39.987  34.009  29.175  1.00  0.00     0.167 HD
ATOM     61  C   UNL A   1      43.448  33.574  29.080  1.00  0.00     0.074 A 
ATOM     62  C   UNL A   1      44.451  33.611  28.031  1.00  0.00     0.031 C 
ATOM     63  C   UNL A   1      42.569  34.513  29.540  1.00  0.00     0.037 A 
BRANCH  50  64
ATOM     64  C   UNL A   1      36.887  33.165  31.310  1.00  0.00     0.057 A 
ATOM     65  C   UNL A   1      36.534  32.735  32.603  1.00  0.00     0.134 A 
ATOM     66  C   UNL A   1      35.867  33.869  30.635  1.00  0.00     0.134 A 
ATOM     67  F   UNL A   1      37.386  32.026  33.359  1.00  0.00    -0.206 F 
ATOM     68  C   UNL A   1      35.278  32.991  33.175  1.00  0.00     0.040 A 
ATOM     69  C   UNL A   1      34.630  34.179  31.216  1.00  0.00     0.040 A 
ATOM     70  F   UNL A   1      35.974  34.240  29.355  1.00  0.00    -0.206 F 
ATOM     71  C   UNL A   1      34.326  33.728  32.488  1.00  0.00     0.006 A 
ENDBRANCH  50  64
BRANCH  51  72
ATOM     72  C   UNL A   1      44.940  29.189  27.879  1.00  0.00     0.057 A 
ATOM     73  C   UNL A   1      45.956  28.239  28.095  1.00  0.00     0.134 A 
ATOM     74  C   UNL A   1      44.100  28.982  26.782  1.00  0.00     0.134 A 
ATOM     75  F   UNL A   1      46.800  28.376  29.131  1.00  0.00    -0.206 F 
ATOM     76  C   UNL A   1      46.051  27.072  27.333  1.00  0.00     0.040 A 
ATOM     77  C   UNL A   1      44.201  27.827  25.997  1.00  0.00     0.040 A 
ATOM     78  F   UNL A   1      43.094  29.827  26.521  1.00  0.00    -0.206 F 
ATOM     79  C   UNL A   1      45.148  26.849  26.300  1.00  0.00     0.006 A 
ENDBRANCH  51  72
BRANCH  63  80
ATOM     80  C   UNL A   1      42.554  35.928  29.033  1.00  0.00     0.057 A 
ATOM     81  C   UNL A   1      41.840  36.308  27.887  1.00  0.00     0.134 A 
ATOM     82  C   UNL A   1      43.345  36.938  29.618  1.00  0.00     0.134 A 
ATOM     83  F   UNL A   1      41.101  35.417  27.209  1.00  0.00    -0.206 F 
ATOM     84  C   UNL A   1      41.871  37.615  27.384  1.00  0.00     0.040 A 
ATOM     85  C   UNL A   1      43.423  38.232  29.097  1.00  0.00     0.040 A 
ATOM     86  F   UNL A   1      44.053  36.717  30.735  1.00  0.00    -0.206 F 
ATOM     87  C   UNL A   1      42.673  38.579  27.982  1.00  0.00     0.006 A 
ENDBRANCH  63  80
ENDBRANCH  37  38
ENDBRANCH  29  32
ENDBRANCH  27  28
ENDBRANCH  26  27
ENDBRANCH  25  26
ENDBRANCH  24  25
ENDBRANCH   3  24
TORSDOF 17
ENDMDL
MODEL 2
REMARK VINA RESULT:     -11.4      4.205      9.623
REMARK SMILES Cc1ccc(S(C)(=O)=O)cc1C(=O)NCCOCC(=O)NCCCCNC(=O)c1ccc(-c2c3nc(c(-c4c(F)cccc4F)c4ccc([nH]4)c(-c4c(F)cccc4F)c4nc(c(-c5c(F)cccc5F)c5ccc2[nH]5)C=C4)C=C3)cc1
REMARK SMILES IDX 19 1 20 2 21 3 18 5 17 6 16 7 15 8 14 9 12 10 13 11 11 13
REMARK SMILES IDX 1 14 2 15 3 16 4 17 10 18 5 19 6 20 7 21 8 22 9 23 22 24
REMARK SMILES IDX 23 25 24 26 25 27 26 28 27 29 28 31 29 32 30 33 82 34 31 35
REMARK SMILES IDX 81 36 32 37 33 38 34 39 75 40 35 41 80 42 74 43 76 44 36 45
REMARK SMILES IDX 79 46 73 47 72 48 37 50 63 51 46 52 62 53 47 54 50 55 61 56
REMARK SMILES IDX 77 57 48 58 49 59 60 61 78 62 51 63 38 64 39 65 44 66 40 67
REMARK SMILES IDX 41 68 43 69 45 70 42 71 64 72 65 73 70 74 66 75 67 76 69 77
REMARK SMILES IDX 71 78 68 79 52 80 53 81 58 82 54 83 55 84 57 85 59 86 56 87
REMARK H PARENT 21 4 14 12 26 30 76 49 50 60
REMARK Flexibility Score: inf
ROOT
ATOM      1  C   UNL A   1      32.740  28.586  24.397  1.00  0.00     0.245 C 
ATOM      2  O   UNL A   1      32.572  29.277  23.392  1.00  0.00    -0.272 OA
ATOM      3  N   UNL A   1      33.786  28.883  25.220  1.00  0.00    -0.354 N 
ATOM      4  H   UNL A   1      34.364  29.622  24.923  1.00  0.00     0.163 HD
ENDROOT
BRANCH   1   5
ATOM      5  C   UNL A   1      31.791  27.427  24.739  1.00  0.00     0.260 C 
BRANCH   5   6
ATOM      6  O   UNL A   1      31.829  26.253  23.944  1.00  0.00    -0.370 OA
BRANCH   6   7
ATOM      7  C   UNL A   1      32.344  25.086  24.594  1.00  0.00     0.182 C 
BRANCH   7   8
ATOM      8  C   UNL A   1      31.279  24.128  25.166  1.00  0.00     0.144 C 
BRANCH   8   9
ATOM      9  N   UNL A   1      31.669  23.609  26.464  1.00  0.00    -0.350 N 
ATOM     10  C   UNL A   1      32.542  22.684  26.958  1.00  0.00     0.251 C 
ATOM     11  O   UNL A   1      32.525  22.576  28.189  1.00  0.00    -0.269 OA
ATOM     12  H   UNL A   1      31.165  24.044  27.190  1.00  0.00     0.163 HD
BRANCH  10  13
ATOM     13  C   UNL A   1      33.548  21.857  26.212  1.00  0.00     0.044 A 
ATOM     14  C   UNL A   1      35.500  23.527  25.907  1.00  0.00     0.045 C 
ATOM     15  C   UNL A   1      34.849  22.186  25.780  1.00  0.00    -0.038 A 
ATOM     16  C   UNL A   1      35.616  21.218  25.081  1.00  0.00     0.005 A 
ATOM     17  C   UNL A   1      35.069  20.006  24.676  1.00  0.00     0.020 A 
ATOM     18  C   UNL A   1      33.011  20.618  25.778  1.00  0.00     0.034 A 
ATOM     19  C   UNL A   1      33.744  19.739  24.978  1.00  0.00     0.067 A 
BRANCH  19  20
ATOM     20  S   UNL A   1      32.963  18.315  24.259  1.00  0.00     0.175 S 
ATOM     21  C   UNL A   1      34.331  17.234  23.913  1.00  0.00     0.163 C 
ATOM     22  O   UNL A   1      32.152  17.710  25.298  1.00  0.00    -0.224 OA
ATOM     23  O   UNL A   1      32.385  18.707  22.990  1.00  0.00    -0.224 OA
ENDBRANCH  19  20
ENDBRANCH  10  13
ENDBRANCH   8   9
ENDBRANCH   7   8
ENDBRANCH   6   7
ENDBRANCH   5   6
ENDBRANCH   1   5
BRANCH   3  24
ATOM     24  C   UNL A   1      34.165  28.260  26.474  1.00  0.00     0.116 C 
BRANCH  24  25
ATOM     25  C   UNL A   1      33.877  29.146  27.691  1.00  0.00     0.023 C 
BRANCH  25  26
ATOM     26  C   UNL A   1      33.657  30.634  27.397  1.00  0.00     0.023 C 
BRANCH  26  27
ATOM     27  C   UNL A   1      34.909  31.503  27.456  1.00  0.00     0.116 C 
BRANCH  27  28
ATOM     28  N   UNL A   1      35.310  31.915  28.796  1.00  0.00    -0.352 N 
ATOM     29  C   UNL A   1      36.142  31.275  29.700  1.00  0.00     0.251 C 
ATOM     30  H   UNL A   1      34.935  32.771  29.103  1.00  0.00     0.163 HD
ATOM     31  O   UNL A   1      36.318  31.758  30.815  1.00  0.00    -0.269 OA
BRANCH  29  32
ATOM     32  C   UNL A   1      36.945  30.101  29.272  1.00  0.00     0.039 A 
ATOM     33  C   UNL A   1      37.043  29.027  30.166  1.00  0.00     0.014 A 
ATOM     34  C   UNL A   1      37.775  30.154  28.156  1.00  0.00     0.014 A 
ATOM     35  C   UNL A   1      38.157  28.195  30.112  1.00  0.00     0.010 A 
ATOM     36  C   UNL A   1      38.930  29.396  28.155  1.00  0.00     0.010 A 
ATOM     37  C   UNL A   1      39.159  28.487  29.192  1.00  0.00    -0.014 A 
BRANCH  37  38
ATOM     38  C   UNL A   1      40.530  28.019  29.333  1.00  0.00     0.031 A 
ATOM     39  C   UNL A   1      40.926  26.693  28.830  1.00  0.00     0.074 A 
ATOM     40  C   UNL A   1      41.459  28.866  29.835  1.00  0.00     0.049 A 
ATOM     41  N   UNL A   1      42.055  26.136  29.106  1.00  0.00    -0.248 NA
ATOM     42  C   UNL A   1      40.047  25.844  28.029  1.00  0.00     0.031 C 
ATOM     43  C   UNL A   1      42.914  28.741  29.781  1.00  0.00     0.029 A 
ATOM     44  N   UNL A   1      41.239  29.918  30.737  1.00  0.00    -0.354 N 
ATOM     45  C   UNL A   1      42.180  25.038  28.297  1.00  0.00     0.074 A 
ATOM     46  C   UNL A   1      40.861  24.816  27.761  1.00  0.00     0.031 C 
ATOM     47  C   UNL A   1      43.443  29.428  30.805  1.00  0.00     0.029 A 
ATOM     48  C   UNL A   1      42.337  29.880  31.630  1.00  0.00     0.049 A 
ATOM     49  H   UNL A   1      40.483  30.548  30.748  1.00  0.00     0.167 HD
ATOM     50  C   UNL A   1      43.423  24.532  28.077  1.00  0.00     0.037 A 
ATOM     51  C   UNL A   1      42.150  29.546  32.941  1.00  0.00     0.037 A 
ATOM     52  C   UNL A   1      44.374  25.015  29.081  1.00  0.00     0.049 A 
ATOM     53  C   UNL A   1      42.862  28.280  33.383  1.00  0.00     0.074 A 
ATOM     54  C   UNL A   1      45.451  25.882  29.099  1.00  0.00     0.029 A 
ATOM     55  N   UNL A   1      44.093  24.735  30.409  1.00  0.00    -0.354 N 
ATOM     56  N   UNL A   1      43.578  27.517  32.603  1.00  0.00    -0.248 NA
ATOM     57  C   UNL A   1      42.737  27.727  34.733  1.00  0.00     0.031 C 
ATOM     58  C   UNL A   1      45.753  26.178  30.469  1.00  0.00     0.029 A 
ATOM     59  C   UNL A   1      44.889  25.456  31.273  1.00  0.00     0.049 A 
ATOM     60  H   UNL A   1      43.404  24.095  30.702  1.00  0.00     0.167 HD
ATOM     61  C   UNL A   1      43.942  26.384  33.281  1.00  0.00     0.074 A 
ATOM     62  C   UNL A   1      43.397  26.563  34.615  1.00  0.00     0.031 C 
ATOM     63  C   UNL A   1      44.622  25.352  32.700  1.00  0.00     0.037 A 
BRANCH  50  64
ATOM     64  C   UNL A   1      43.806  23.682  26.888  1.00  0.00     0.057 A 
ATOM     65  C   UNL A   1      44.491  24.252  25.799  1.00  0.00     0.134 A 
ATOM     66  C   UNL A   1      43.418  22.339  26.691  1.00  0.00     0.134 A 
ATOM     67  F   UNL A   1      44.897  25.529  25.821  1.00  0.00    -0.206 F 
ATOM     68  C   UNL A   1      44.772  23.542  24.621  1.00  0.00     0.040 A 
ATOM     69  C   UNL A   1      43.742  21.604  25.543  1.00  0.00     0.040 A 
ATOM     70  F   UNL A   1      42.648  21.677  27.561  1.00  0.00    -0.206 F 
ATOM     71  C   UNL A   1      44.411  22.209  24.494  1.00  0.00     0.006 A 
ENDBRANCH  50  64
BRANCH  51  72
ATOM     72  C   UNL A   1      40.848  30.030  33.475  1.00  0.00     0.057 A 
ATOM     73  C   UNL A   1      40.730  31.386  33.833  1.00  0.00     0.134 A 
ATOM     74  C   UNL A   1      39.663  29.316  33.293  1.00  0.00     0.134 A 
ATOM     75  F   UNL A   1      41.830  32.133  34.025  1.00  0.00    -0.206 F 
ATOM     76  C   UNL A   1      39.492  32.032  33.883  1.00  0.00     0.040 A 
ATOM     77  C   UNL A   1      38.415  29.948  33.362  1.00  0.00     0.040 A 
ATOM     78  F   UNL A   1      39.689  28.027  32.928  1.00  0.00    -0.206 F 
ATOM     79  C   UNL A   1      38.331  31.317  33.613  1.00  0.00     0.006 A 
ENDBRANCH  51  72
BRANCH  63  80
ATOM     80  C   UNL A   1      45.041  24.125  33.462  1.00  0.00     0.057 A 
ATOM     81  C   UNL A   1      44.220  22.993  33.572  1.00  0.00     0.134 A 
ATOM     82  C   UNL A   1      46.239  24.081  34.201  1.00  0.00     0.134 A 
ATOM     83  F   UNL A   1      43.026  22.946  32.962  1.00  0.00    -0.206 F 
ATOM     84  C   UNL A   1      44.588  21.872  34.328  1.00  0.00     0.040 A 
ATOM     85  C   UNL A   1      46.595  22.989  34.999  1.00  0.00     0.040 A 
ATOM     86  F   UNL A   1      47.129  25.084  34.161  1.00  0.00    -0.206 F 
ATOM     87  C   UNL A   1      45.773  21.872  35.053  1.00  0.00     0.006 A 
ENDBRANCH  63  80
ENDBRANCH  37  38
ENDBRANCH  29  32
ENDBRANCH  27  28
ENDBRANCH  26  27
ENDBRANCH  25  26
ENDBRANCH  24  25
ENDBRANCH   3  24
TORSDOF 17
ENDMDL
MODEL 3
REMARK VINA RESULT:     -11.2      3.641      8.441
REMARK SMILES Cc1ccc(S(C)(=O)=O)cc1C(=O)NCCOCC(=O)NCCCCNC(=O)c1ccc(-c2c3nc(c(-c4c(F)cccc4F)c4ccc([nH]4)c(-c4c(F)cccc4F)c4nc(c(-c5c(F)cccc5F)c5ccc2[nH]5)C=C4)C=C3)cc1
REMARK SMILES IDX 19 1 20 2 21 3 18 5 17 6 16 7 15 8 14 9 12 10 13 11 11 13
REMARK SMILES IDX 1 14 2 15 3 16 4 17 10 18 5 19 6 20 7 21 8 22 9 23 22 24
REMARK SMILES IDX 23 25 24 26 25 27 26 28 27 29 28 31 29 32 30 33 82 34 31 35
REMARK SMILES IDX 81 36 32 37 33 38 34 39 75 40 35 41 80 42 74 43 76 44 36 45
REMARK SMILES IDX 79 46 73 47 72 48 37 50 63 51 46 52 62 53 47 54 50 55 61 56
REMARK SMILES IDX 77 57 48 58 49 59 60 61 78 62 51 63 38 64 39 65 44 66 40 67
REMARK SMILES IDX 41 68 43 69 45 70 42 71 64 72 65 73 70 74 66 75 67 76 69 77
REMARK SMILES IDX 71 78 68 79 52 80 53 81 58 82 54 83 55 84 57 85 59 86 56 87
REMARK H PARENT 21 4 14 12 26 30 76 49 50 60
REMARK Flexibility Score: inf
ROOT
ATOM      1  C   UNL A   1      32.356  27.915  27.305  1.00  0.00     0.245 C 
ATOM      2  O   UNL A   1      31.341  27.857  28.000  1.00  0.00    -0.272 OA
ATOM      3  N   UNL A   1      33.365  28.744  27.700  1.00  0.00    -0.354 N 
ATOM      4  H   UNL A   1      33.186  29.274  28.510  1.00  0.00     0.163 HD
ENDROOT
BRANCH   1   5
ATOM      5  C   UNL A   1      32.505  27.065  26.034  1.00  0.00     0.260 C 
BRANCH   5   6
ATOM      6  O   UNL A   1      33.157  25.809  26.122  1.00  0.00    -0.370 OA
BRANCH   6   7
ATOM      7  C   UNL A   1      34.359  25.685  25.353  1.00  0.00     0.182 C 
BRANCH   7   8
ATOM      8  C   UNL A   1      34.325  24.607  24.250  1.00  0.00     0.144 C 
BRANCH   8   9
ATOM      9  N   UNL A   1      34.025  25.181  22.951  1.00  0.00    -0.350 N 
ATOM     10  C   UNL A   1      32.955  25.749  22.324  1.00  0.00     0.251 C 
ATOM     11  O   UNL A   1      33.178  26.106  21.162  1.00  0.00    -0.269 OA
ATOM     12  H   UNL A   1      34.811  25.154  22.358  1.00  0.00     0.163 HD
BRANCH  10  13
ATOM     13  C   UNL A   1      31.598  26.056  22.885  1.00  0.00     0.044 A 
ATOM     14  C   UNL A   1      30.697  23.696  23.442  1.00  0.00     0.045 C 
ATOM     15  C   UNL A   1      30.618  25.190  23.410  1.00  0.00    -0.038 A 
ATOM     16  C   UNL A   1      29.394  25.729  23.885  1.00  0.00     0.005 A 
ATOM     17  C   UNL A   1      29.069  27.070  23.709  1.00  0.00     0.020 A 
ATOM     18  C   UNL A   1      31.238  27.416  22.708  1.00  0.00     0.034 A 
ATOM     19  C   UNL A   1      29.976  27.895  23.064  1.00  0.00     0.067 A 
BRANCH  19  20
ATOM     20  S   UNL A   1      29.478  29.539  22.612  1.00  0.00     0.175 S 
ATOM     21  C   UNL A   1      27.702  29.438  22.604  1.00  0.00     0.163 C 
ATOM     22  O   UNL A   1      29.882  30.415  23.696  1.00  0.00    -0.224 OA
ATOM     23  O   UNL A   1      29.907  29.785  21.251  1.00  0.00    -0.224 OA
ENDBRANCH  19  20
ENDBRANCH  10  13
ENDBRANCH   8   9
ENDBRANCH   7   8
ENDBRANCH   6   7
ENDBRANCH   5   6
ENDBRANCH   1   5
BRANCH   3  24
ATOM     24  C   UNL A   1      34.664  28.952  27.091  1.00  0.00     0.116 C 
BRANCH  24  25
ATOM     25  C   UNL A   1      35.266  30.322  27.425  1.00  0.00     0.023 C 
BRANCH  25  26
ATOM     26  C   UNL A   1      34.288  31.363  27.982  1.00  0.00     0.023 C 
BRANCH  26  27
ATOM     27  C   UNL A   1      34.930  32.627  28.542  1.00  0.00     0.116 C 
BRANCH  27  28
ATOM     28  N   UNL A   1      34.040  33.472  29.329  1.00  0.00    -0.352 N 
ATOM     29  C   UNL A   1      34.171  33.908  30.638  1.00  0.00     0.251 C 
ATOM     30  H   UNL A   1      33.229  33.777  28.864  1.00  0.00     0.163 HD
ATOM     31  O   UNL A   1      33.278  34.578  31.150  1.00  0.00    -0.269 OA
BRANCH  29  32
ATOM     32  C   UNL A   1      35.450  33.708  31.366  1.00  0.00     0.039 A 
ATOM     33  C   UNL A   1      36.553  34.464  30.951  1.00  0.00     0.014 A 
ATOM     34  C   UNL A   1      35.628  32.642  32.244  1.00  0.00     0.014 A 
ATOM     35  C   UNL A   1      37.837  33.970  31.163  1.00  0.00     0.010 A 
ATOM     36  C   UNL A   1      36.890  32.097  32.373  1.00  0.00     0.010 A 
ATOM     37  C   UNL A   1      37.976  32.714  31.746  1.00  0.00    -0.014 A 
BRANCH  37  38
ATOM     38  C   UNL A   1      39.173  31.898  31.603  1.00  0.00     0.031 A 
ATOM     39  C   UNL A   1      39.117  30.596  30.918  1.00  0.00     0.074 A 
ATOM     40  C   UNL A   1      40.359  32.405  32.013  1.00  0.00     0.049 A 
ATOM     41  N   UNL A   1      40.078  29.739  30.940  1.00  0.00    -0.248 NA
ATOM     42  C   UNL A   1      37.934  30.116  30.206  1.00  0.00     0.031 C 
ATOM     43  C   UNL A   1      41.702  31.923  31.696  1.00  0.00     0.029 A 
ATOM     44  N   UNL A   1      40.566  33.345  33.034  1.00  0.00    -0.354 N 
ATOM     45  C   UNL A   1      39.782  28.766  30.022  1.00  0.00     0.074 A 
ATOM     46  C   UNL A   1      38.390  28.962  29.705  1.00  0.00     0.031 C 
ATOM     47  C   UNL A   1      42.538  32.307  32.672  1.00  0.00     0.029 A 
ATOM     48  C   UNL A   1      41.728  32.908  33.715  1.00  0.00     0.049 A 
ATOM     49  H   UNL A   1      40.020  34.139  33.235  1.00  0.00     0.167 HD
ATOM     50  C   UNL A   1      40.795  27.996  29.544  1.00  0.00     0.037 A 
ATOM     51  C   UNL A   1      41.645  32.457  35.002  1.00  0.00     0.037 A 
ATOM     52  C   UNL A   1      41.974  28.079  30.408  1.00  0.00     0.049 A 
ATOM     53  C   UNL A   1      42.040  31.003  35.193  1.00  0.00     0.074 A 
ATOM     54  C   UNL A   1      43.239  28.633  30.320  1.00  0.00     0.029 A 
ATOM     55  N   UNL A   1      41.820  27.701  31.733  1.00  0.00    -0.354 N 
ATOM     56  N   UNL A   1      42.402  30.197  34.233  1.00  0.00    -0.248 NA
ATOM     57  C   UNL A   1      41.962  30.321  36.487  1.00  0.00     0.031 C 
ATOM     58  C   UNL A   1      43.802  28.653  31.638  1.00  0.00     0.029 A 
ATOM     59  C   UNL A   1      42.897  28.072  32.509  1.00  0.00     0.049 A 
ATOM     60  H   UNL A   1      41.032  27.224  32.079  1.00  0.00     0.167 HD
ATOM     61  C   UNL A   1      42.536  28.928  34.729  1.00  0.00     0.074 A 
ATOM     62  C   UNL A   1      42.256  29.056  36.147  1.00  0.00     0.031 C 
ATOM     63  C   UNL A   1      42.818  27.846  33.945  1.00  0.00     0.037 A 
BRANCH  50  64
ATOM     64  C   UNL A   1      40.757  27.246  28.232  1.00  0.00     0.057 A 
ATOM     65  C   UNL A   1      40.032  26.045  28.121  1.00  0.00     0.134 A 
ATOM     66  C   UNL A   1      41.512  27.576  27.086  1.00  0.00     0.134 A 
ATOM     67  F   UNL A   1      39.292  25.581  29.138  1.00  0.00    -0.206 F 
ATOM     68  C   UNL A   1      40.052  25.248  26.966  1.00  0.00     0.040 A 
ATOM     69  C   UNL A   1      41.496  26.818  25.907  1.00  0.00     0.040 A 
ATOM     70  F   UNL A   1      42.361  28.609  27.055  1.00  0.00    -0.206 F 
ATOM     71  C   UNL A   1      40.773  25.640  25.848  1.00  0.00     0.006 A 
ENDBRANCH  50  64
BRANCH  51  72
ATOM     72  C   UNL A   1      40.615  33.179  35.796  1.00  0.00     0.057 A 
ATOM     73  C   UNL A   1      39.337  32.602  35.926  1.00  0.00     0.134 A 
ATOM     74  C   UNL A   1      40.951  34.186  36.703  1.00  0.00     0.134 A 
ATOM     75  F   UNL A   1      38.947  31.628  35.087  1.00  0.00    -0.206 F 
ATOM     76  C   UNL A   1      38.486  32.922  36.986  1.00  0.00     0.040 A 
ATOM     77  C   UNL A   1      40.097  34.531  37.756  1.00  0.00     0.040 A 
ATOM     78  F   UNL A   1      42.157  34.770  36.661  1.00  0.00    -0.206 F 
ATOM     79  C   UNL A   1      38.882  33.868  37.925  1.00  0.00     0.006 A 
ENDBRANCH  51  72
BRANCH  63  80
ATOM     80  C   UNL A   1      42.991  26.461  34.504  1.00  0.00     0.057 A 
ATOM     81  C   UNL A   1      44.216  25.780  34.459  1.00  0.00     0.134 A 
ATOM     82  C   UNL A   1      41.904  25.722  35.012  1.00  0.00     0.134 A 
ATOM     83  F   UNL A   1      45.308  26.360  33.939  1.00  0.00    -0.206 F 
ATOM     84  C   UNL A   1      44.362  24.469  34.930  1.00  0.00     0.040 A 
ATOM     85  C   UNL A   1      42.025  24.397  35.439  1.00  0.00     0.040 A 
ATOM     86  F   UNL A   1      40.683  26.263  35.139  1.00  0.00    -0.206 F 
ATOM     87  C   UNL A   1      43.263  23.769  35.412  1.00  0.00     0.006 A 
ENDBRANCH  63  80
ENDBRANCH  37  38
ENDBRANCH  29  32
ENDBRANCH  27  28
ENDBRANCH  26  27
ENDBRANCH  25  26
ENDBRANCH  24  25
ENDBRANCH   3  24
TORSDOF 17
ENDMDL
