MODEL 1
REMARK VINA RESULT:     -11.4      0.000      0.000
REMARK SMILES O=C(NCCCCNC(=O)c1cc(Br)ccc1NC(=O)c1ccc(Br)s1)c1ccc(-c2c3nc(c(-c4c(F)cccc4F)c4ccc([nH]4)c(-c4c(F)cccc4F)c4nc(c(-c5c(F)cccc5F)c5ccc2[nH]5)C=C4)C=C3)cc1
REMARK SMILES IDX 5 1 4 2 3 3 1 4 2 5 27 7 28 8 80 9 29 10 79 11 30 12 31 13
REMARK SMILES IDX 32 14 73 15 33 16 78 17 72 18 74 19 34 20 77 21 71 22 70 23
REMARK SMILES IDX 35 25 61 26 44 27 60 28 45 29 48 30 59 31 75 32 46 33 47 34
REMARK SMILES IDX 58 36 76 37 49 38 36 39 37 40 42 41 38 42 39 43 41 44 43 45
REMARK SMILES IDX 40 46 62 47 63 48 68 49 64 50 65 51 67 52 69 53 66 54 50 55
REMARK SMILES IDX 51 56 56 57 52 58 53 59 55 60 57 61 54 62 6 63 7 64 8 65
REMARK SMILES IDX 9 66 10 68 11 69 12 70 17 71 13 72 16 73 14 74 15 75 18 76
REMARK SMILES IDX 19 77 20 79 21 80 22 81 26 82 23 83 24 84 25 85
REMARK H PARENT 3 6 74 24 48 35 8 67 18 78
REMARK Flexibility Score: inf
ROOT
ATOM      1  C   UNL A   1      37.870  20.329  24.953  1.00  0.00     0.023 C 
ENDROOT
BRANCH   1   2
ATOM      2  C   UNL A   1      38.919  20.317  26.056  1.00  0.00     0.116 C 
BRANCH   2   3
ATOM      3  N   UNL A   1      40.025  19.405  25.804  1.00  0.00    -0.352 N 
ATOM      4  O   UNL A   1      42.189  18.773  25.626  1.00  0.00    -0.269 OA
ATOM      5  C   UNL A   1      41.373  19.621  25.976  1.00  0.00     0.251 C 
ATOM      6  H   UNL A   1      39.776  18.514  25.464  1.00  0.00     0.163 HD
BRANCH   5   7
ATOM      7  C   UNL A   1      41.836  20.902  26.551  1.00  0.00     0.039 A 
ATOM      8  C   UNL A   1      41.897  21.073  27.935  1.00  0.00     0.014 A 
ATOM      9  C   UNL A   1      42.179  21.955  25.697  1.00  0.00     0.014 A 
ATOM     10  C   UNL A   1      42.140  22.336  28.460  1.00  0.00     0.010 A 
ATOM     11  C   UNL A   1      42.515  23.203  26.231  1.00  0.00     0.010 A 
ATOM     12  C   UNL A   1      42.461  23.413  27.616  1.00  0.00    -0.014 A 
BRANCH  12  13
ATOM     13  C   UNL A   1      42.791  24.723  28.232  1.00  0.00     0.031 A 
ATOM     14  C   UNL A   1      44.209  25.114  28.542  1.00  0.00     0.074 A 
ATOM     15  C   UNL A   1      41.786  25.597  28.441  1.00  0.00     0.049 A 
ATOM     16  N   UNL A   1      44.663  26.255  28.999  1.00  0.00    -0.248 NA
ATOM     17  C   UNL A   1      45.251  24.101  28.320  1.00  0.00     0.031 C 
ATOM     18  C   UNL A   1      40.368  25.320  28.198  1.00  0.00     0.029 A 
ATOM     19  N   UNL A   1      41.803  26.901  28.863  1.00  0.00    -0.354 N 
ATOM     20  C   UNL A   1      46.037  26.095  29.132  1.00  0.00     0.074 A 
ATOM     21  C   UNL A   1      46.341  24.738  28.728  1.00  0.00     0.031 C 
ATOM     22  C   UNL A   1      39.660  26.438  28.411  1.00  0.00     0.029 A 
ATOM     23  C   UNL A   1      40.563  27.492  28.856  1.00  0.00     0.049 A 
ATOM     24  H   UNL A   1      42.622  27.368  29.144  1.00  0.00     0.167 HD
ATOM     25  C   UNL A   1      46.957  26.999  29.544  1.00  0.00     0.037 A 
ATOM     26  C   UNL A   1      40.191  28.745  29.172  1.00  0.00     0.037 A 
ATOM     27  C   UNL A   1      46.653  28.353  29.930  1.00  0.00     0.049 A 
ATOM     28  C   UNL A   1      41.235  29.728  29.606  1.00  0.00     0.074 A 
ATOM     29  C   UNL A   1      47.520  29.346  30.354  1.00  0.00     0.029 A 
ATOM     30  N   UNL A   1      45.383  28.909  29.932  1.00  0.00    -0.354 N 
ATOM     31  N   UNL A   1      42.530  29.560  29.715  1.00  0.00    -0.248 NA
ATOM     32  C   UNL A   1      40.766  31.073  29.966  1.00  0.00     0.031 C 
ATOM     33  C   UNL A   1      46.771  30.493  30.638  1.00  0.00     0.029 A 
ATOM     34  C   UNL A   1      45.442  30.225  30.359  1.00  0.00     0.049 A 
ATOM     35  H   UNL A   1      44.559  28.436  29.669  1.00  0.00     0.167 HD
ATOM     36  C   UNL A   1      43.032  30.774  30.160  1.00  0.00     0.074 A 
ATOM     37  C   UNL A   1      41.905  31.680  30.265  1.00  0.00     0.031 C 
ATOM     38  C   UNL A   1      44.308  31.105  30.470  1.00  0.00     0.037 A 
BRANCH  25  39
ATOM     39  C   UNL A   1      48.390  26.558  29.606  1.00  0.00     0.057 A 
ATOM     40  C   UNL A   1      49.283  26.811  28.557  1.00  0.00     0.134 A 
ATOM     41  C   UNL A   1      48.899  25.934  30.752  1.00  0.00     0.134 A 
ATOM     42  F   UNL A   1      48.857  27.396  27.428  1.00  0.00    -0.206 F 
ATOM     43  C   UNL A   1      50.630  26.453  28.643  1.00  0.00     0.040 A 
ATOM     44  C   UNL A   1      50.247  25.588  30.858  1.00  0.00     0.040 A 
ATOM     45  F   UNL A   1      48.097  25.669  31.795  1.00  0.00    -0.206 F 
ATOM     46  C   UNL A   1      51.117  25.847  29.801  1.00  0.00     0.006 A 
ENDBRANCH  25  39
BRANCH  26  47
ATOM     47  C   UNL A   1      38.761  29.129  29.091  1.00  0.00     0.057 A 
ATOM     48  C   UNL A   1      38.193  29.562  27.888  1.00  0.00     0.134 A 
ATOM     49  C   UNL A   1      37.928  29.060  30.213  1.00  0.00     0.134 A 
ATOM     50  F   UNL A   1      38.947  29.664  26.784  1.00  0.00    -0.206 F 
ATOM     51  C   UNL A   1      36.849  29.925  27.806  1.00  0.00     0.040 A 
ATOM     52  C   UNL A   1      36.575  29.395  30.140  1.00  0.00     0.040 A 
ATOM     53  F   UNL A   1      38.412  28.643  31.393  1.00  0.00    -0.206 F 
ATOM     54  C   UNL A   1      36.034  29.835  28.934  1.00  0.00     0.006 A 
ENDBRANCH  26  47
BRANCH  38  55
ATOM     55  C   UNL A   1      44.538  32.505  30.952  1.00  0.00     0.057 A 
ATOM     56  C   UNL A   1      44.518  32.819  32.317  1.00  0.00     0.134 A 
ATOM     57  C   UNL A   1      44.782  33.545  30.048  1.00  0.00     0.134 A 
ATOM     58  F   UNL A   1      44.275  31.866  33.230  1.00  0.00    -0.206 F 
ATOM     59  C   UNL A   1      44.704  34.127  32.765  1.00  0.00     0.040 A 
ATOM     60  C   UNL A   1      44.989  34.854  30.486  1.00  0.00     0.040 A 
ATOM     61  F   UNL A   1      44.817  33.307  28.728  1.00  0.00    -0.206 F 
ATOM     62  C   UNL A   1      44.943  35.149  31.847  1.00  0.00     0.006 A 
ENDBRANCH  38  55
ENDBRANCH  12  13
ENDBRANCH   5   7
ENDBRANCH   2   3
ENDBRANCH   1   2
BRANCH   1  63
ATOM     63  C   UNL A   1      37.494  21.708  24.421  1.00  0.00     0.023 C 
BRANCH  63  64
ATOM     64  C   UNL A   1      36.057  22.140  24.699  1.00  0.00     0.116 C 
BRANCH  64  65
ATOM     65  N   UNL A   1      35.697  22.043  26.108  1.00  0.00    -0.352 N 
ATOM     66  C   UNL A   1      34.606  21.426  26.677  1.00  0.00     0.253 C 
ATOM     67  H   UNL A   1      36.317  22.477  26.737  1.00  0.00     0.163 HD
ATOM     68  O   UNL A   1      34.345  21.566  27.865  1.00  0.00    -0.269 OA
BRANCH  66  69
ATOM     69  C   UNL A   1      33.699  20.651  25.808  1.00  0.00     0.064 A 
ATOM     70  C   UNL A   1      34.181  19.450  25.266  1.00  0.00     0.031 A 
ATOM     71  C   UNL A   1      32.440  21.175  25.450  1.00  0.00     0.054 A 
ATOM     72  C   UNL A   1      33.475  18.837  24.242  1.00  0.00     0.018 A 
ATOM     73  C   UNL A   1      31.800  20.579  24.362  1.00  0.00     0.028 A 
ATOM     74  Br  UNL A   1      34.152  17.270  23.439  1.00  0.00    -0.051 Br
ATOM     75  C   UNL A   1      32.309  19.418  23.762  1.00  0.00     0.018 A 
BRANCH  71  76
ATOM     76  N   UNL A   1      31.919  22.270  26.181  1.00  0.00    -0.321 N 
ATOM     77  C   UNL A   1      31.978  23.641  26.029  1.00  0.00     0.265 C 
ATOM     78  H   UNL A   1      31.402  21.992  26.971  1.00  0.00     0.170 HD
ATOM     79  O   UNL A   1      31.517  24.330  26.941  1.00  0.00    -0.268 OA
BRANCH  77  80
ATOM     80  C   UNL A   1      32.520  24.224  24.823  1.00  0.00     0.093 A 
ATOM     81  C   UNL A   1      33.761  24.800  24.603  1.00  0.00     0.027 A 
ATOM     82  S   UNL A   1      31.566  24.219  23.398  1.00  0.00    -0.123 S 
ATOM     83  C   UNL A   1      33.872  25.347  23.288  1.00  0.00     0.028 A 
ATOM     84  C   UNL A   1      32.737  25.107  22.556  1.00  0.00     0.071 A 
ATOM     85  Br  UNL A   1      32.493  25.703  20.798  1.00  0.00    -0.039 Br
ENDBRANCH  77  80
ENDBRANCH  71  76
ENDBRANCH  66  69
ENDBRANCH  64  65
ENDBRANCH  63  64
ENDBRANCH   1  63
TORSDOF 13
ENDMDL
MODEL 2
REMARK VINA RESULT:     -11.3      4.797      9.585
REMARK SMILES O=C(NCCCCNC(=O)c1cc(Br)ccc1NC(=O)c1ccc(Br)s1)c1ccc(-c2c3nc(c(-c4c(F)cccc4F)c4ccc([nH]4)c(-c4c(F)cccc4F)c4nc(c(-c5c(F)cccc5F)c5ccc2[nH]5)C=C4)C=C3)cc1
REMARK SMILES IDX 5 1 4 2 3 3 1 4 2 5 27 7 28 8 80 9 29 10 79 11 30 12 31 13
REMARK SMILES IDX 32 14 73 15 33 16 78 17 72 18 74 19 34 20 77 21 71 22 70 23
REMARK SMILES IDX 35 25 61 26 44 27 60 28 45 29 48 30 59 31 75 32 46 33 47 34
REMARK SMILES IDX 58 36 76 37 49 38 36 39 37 40 42 41 38 42 39 43 41 44 43 45
REMARK SMILES IDX 40 46 62 47 63 48 68 49 64 50 65 51 67 52 69 53 66 54 50 55
REMARK SMILES IDX 51 56 56 57 52 58 53 59 55 60 57 61 54 62 6 63 7 64 8 65
REMARK SMILES IDX 9 66 10 68 11 69 12 70 17 71 13 72 16 73 14 74 15 75 18 76
REMARK SMILES IDX 19 77 20 79 21 80 22 81 26 82 23 83 24 84 25 85
REMARK H PARENT 3 6 74 24 48 35 8 67 18 78
REMARK Flexibility Score: inf
ROOT
ATOM      1  C   UNL A   1      31.564  31.422  26.793  1.00  0.00     0.023 C 
ENDROOT
BRANCH   1   2
ATOM      2  C   UNL A   1      32.571  32.533  26.529  1.00  0.00     0.116 C 
BRANCH   2   3
ATOM      3  N   UNL A   1      32.286  33.765  27.249  1.00  0.00    -0.352 N 
ATOM      4  O   UNL A   1      32.541  35.325  28.867  1.00  0.00    -0.269 OA
ATOM      5  C   UNL A   1      32.969  34.319  28.309  1.00  0.00     0.251 C 
ATOM      6  H   UNL A   1      31.500  34.271  26.937  1.00  0.00     0.163 HD
BRANCH   5   7
ATOM      7  C   UNL A   1      34.204  33.669  28.795  1.00  0.00     0.039 A 
ATOM      8  C   UNL A   1      34.139  32.466  29.500  1.00  0.00     0.014 A 
ATOM      9  C   UNL A   1      35.439  34.288  28.575  1.00  0.00     0.014 A 
ATOM     10  C   UNL A   1      35.279  31.971  30.120  1.00  0.00     0.010 A 
ATOM     11  C   UNL A   1      36.602  33.737  29.123  1.00  0.00     0.010 A 
ATOM     12  C   UNL A   1      36.525  32.594  29.932  1.00  0.00    -0.014 A 
BRANCH  12  13
ATOM     13  C   UNL A   1      37.726  31.980  30.552  1.00  0.00     0.031 A 
ATOM     14  C   UNL A   1      38.132  32.296  31.964  1.00  0.00     0.074 A 
ATOM     15  C   UNL A   1      38.409  31.062  29.840  1.00  0.00     0.049 A 
ATOM     16  N   UNL A   1      39.104  31.776  32.674  1.00  0.00    -0.248 NA
ATOM     17  C   UNL A   1      37.363  33.330  32.671  1.00  0.00     0.031 C 
ATOM     18  C   UNL A   1      38.119  30.689  28.453  1.00  0.00     0.029 A 
ATOM     19  N   UNL A   1      39.455  30.250  30.191  1.00  0.00    -0.354 N 
ATOM     20  C   UNL A   1      39.071  32.424  33.902  1.00  0.00     0.074 A 
ATOM     21  C   UNL A   1      37.997  33.394  33.835  1.00  0.00     0.031 C 
ATOM     22  C   UNL A   1      38.921  29.678  28.093  1.00  0.00     0.029 A 
ATOM     23  C   UNL A   1      39.816  29.368  29.201  1.00  0.00     0.049 A 
ATOM     24  H   UNL A   1      39.904  30.294  31.065  1.00  0.00     0.167 HD
ATOM     25  C   UNL A   1      39.858  32.222  34.986  1.00  0.00     0.037 A 
ATOM     26  C   UNL A   1      40.763  28.414  29.185  1.00  0.00     0.037 A 
ATOM     27  C   UNL A   1      40.915  31.245  35.054  1.00  0.00     0.049 A 
ATOM     28  C   UNL A   1      41.606  28.200  30.406  1.00  0.00     0.074 A 
ATOM     29  C   UNL A   1      41.761  30.961  36.112  1.00  0.00     0.029 A 
ATOM     30  N   UNL A   1      41.266  30.387  34.024  1.00  0.00    -0.354 N 
ATOM     31  N   UNL A   1      41.551  28.817  31.562  1.00  0.00    -0.248 NA
ATOM     32  C   UNL A   1      42.642  27.164  30.320  1.00  0.00     0.031 C 
ATOM     33  C   UNL A   1      42.641  29.950  35.713  1.00  0.00     0.029 A 
ATOM     34  C   UNL A   1      42.322  29.580  34.418  1.00  0.00     0.049 A 
ATOM     35  H   UNL A   1      40.830  30.355  33.141  1.00  0.00     0.167 HD
ATOM     36  C   UNL A   1      42.549  28.248  32.339  1.00  0.00     0.074 A 
ATOM     37  C   UNL A   1      43.166  27.211  31.536  1.00  0.00     0.031 C 
ATOM     38  C   UNL A   1      42.931  28.565  33.600  1.00  0.00     0.037 A 
BRANCH  25  39
ATOM     39  C   UNL A   1      39.614  33.076  36.194  1.00  0.00     0.057 A 
ATOM     40  C   UNL A   1      40.278  34.296  36.378  1.00  0.00     0.134 A 
ATOM     41  C   UNL A   1      38.656  32.711  37.148  1.00  0.00     0.134 A 
ATOM     42  F   UNL A   1      41.214  34.698  35.506  1.00  0.00    -0.206 F 
ATOM     43  C   UNL A   1      40.004  35.117  37.474  1.00  0.00     0.040 A 
ATOM     44  C   UNL A   1      38.359  33.533  38.238  1.00  0.00     0.040 A 
ATOM     45  F   UNL A   1      37.980  31.559  37.027  1.00  0.00    -0.206 F 
ATOM     46  C   UNL A   1      39.035  34.740  38.403  1.00  0.00     0.006 A 
ENDBRANCH  25  39
BRANCH  26  47
ATOM     47  C   UNL A   1      40.961  27.595  27.965  1.00  0.00     0.057 A 
ATOM     48  C   UNL A   1      40.322  26.361  27.808  1.00  0.00     0.134 A 
ATOM     49  C   UNL A   1      41.784  28.036  26.922  1.00  0.00     0.134 A 
ATOM     50  F   UNL A   1      39.534  25.880  28.780  1.00  0.00    -0.206 F 
ATOM     51  C   UNL A   1      40.504  25.587  26.661  1.00  0.00     0.040 A 
ATOM     52  C   UNL A   1      41.955  27.284  25.759  1.00  0.00     0.040 A 
ATOM     53  F   UNL A   1      42.417  29.216  27.010  1.00  0.00    -0.206 F 
ATOM     54  C   UNL A   1      41.318  26.052  25.630  1.00  0.00     0.006 A 
ENDBRANCH  26  47
BRANCH  38  55
ATOM     55  C   UNL A   1      44.070  27.778  34.172  1.00  0.00     0.057 A 
ATOM     56  C   UNL A   1      45.392  28.225  34.066  1.00  0.00     0.134 A 
ATOM     57  C   UNL A   1      43.844  26.566  34.834  1.00  0.00     0.134 A 
ATOM     58  F   UNL A   1      45.672  29.373  33.429  1.00  0.00    -0.206 F 
ATOM     59  C   UNL A   1      46.456  27.479  34.574  1.00  0.00     0.040 A 
ATOM     60  C   UNL A   1      44.898  25.821  35.364  1.00  0.00     0.040 A 
ATOM     61  F   UNL A   1      42.599  26.086  34.972  1.00  0.00    -0.206 F 
ATOM     62  C   UNL A   1      46.209  26.273  35.228  1.00  0.00     0.006 A 
ENDBRANCH  38  55
ENDBRANCH  12  13
ENDBRANCH   5   7
ENDBRANCH   2   3
ENDBRANCH   1   2
BRANCH   1  63
ATOM     63  C   UNL A   1      32.159  30.092  27.242  1.00  0.00     0.023 C 
BRANCH  63  64
ATOM     64  C   UNL A   1      32.166  28.994  26.182  1.00  0.00     0.116 C 
BRANCH  64  65
ATOM     65  N   UNL A   1      33.126  29.242  25.114  1.00  0.00    -0.352 N 
ATOM     66  C   UNL A   1      32.932  29.187  23.753  1.00  0.00     0.253 C 
ATOM     67  H   UNL A   1      34.035  29.481  25.405  1.00  0.00     0.163 HD
ATOM     68  O   UNL A   1      33.874  29.259  22.973  1.00  0.00    -0.269 OA
BRANCH  66  69
ATOM     69  C   UNL A   1      31.567  28.955  23.242  1.00  0.00     0.064 A 
ATOM     70  C   UNL A   1      30.620  29.974  23.424  1.00  0.00     0.031 A 
ATOM     71  C   UNL A   1      31.215  27.702  22.701  1.00  0.00     0.054 A 
ATOM     72  C   UNL A   1      29.278  29.698  23.210  1.00  0.00     0.018 A 
ATOM     73  C   UNL A   1      29.851  27.433  22.578  1.00  0.00     0.028 A 
ATOM     74  Br  UNL A   1      27.979  31.028  23.535  1.00  0.00    -0.051 Br
ATOM     75  C   UNL A   1      28.887  28.421  22.827  1.00  0.00     0.018 A 
BRANCH  71  76
ATOM     76  N   UNL A   1      32.242  26.795  22.346  1.00  0.00    -0.321 N 
ATOM     77  C   UNL A   1      32.872  25.754  23.000  1.00  0.00     0.265 C 
ATOM     78  H   UNL A   1      32.582  26.937  21.433  1.00  0.00     0.170 HD
ATOM     79  O   UNL A   1      33.843  25.241  22.440  1.00  0.00    -0.268 OA
BRANCH  77  80
ATOM     80  C   UNL A   1      32.371  25.271  24.267  1.00  0.00     0.093 A 
ATOM     81  C   UNL A   1      32.815  25.542  25.551  1.00  0.00     0.027 A 
ATOM     82  S   UNL A   1      31.011  24.228  24.277  1.00  0.00    -0.123 S 
ATOM     83  C   UNL A   1      32.106  24.786  26.534  1.00  0.00     0.028 A 
ATOM     84  C   UNL A   1      31.119  24.027  25.955  1.00  0.00     0.071 A 
ATOM     85  Br  UNL A   1      30.000  22.875  26.917  1.00  0.00    -0.039 Br
ENDBRANCH  77  80
ENDBRANCH  71  76
ENDBRANCH  66  69
ENDBRANCH  64  65
ENDBRANCH  63  64
ENDBRANCH   1  63
TORSDOF 13
ENDMDL
MODEL 3
REMARK VINA RESULT:     -11.3      1.430      2.165
REMARK SMILES O=C(NCCCCNC(=O)c1cc(Br)ccc1NC(=O)c1ccc(Br)s1)c1ccc(-c2c3nc(c(-c4c(F)cccc4F)c4ccc([nH]4)c(-c4c(F)cccc4F)c4nc(c(-c5c(F)cccc5F)c5ccc2[nH]5)C=C4)C=C3)cc1
REMARK SMILES IDX 5 1 4 2 3 3 1 4 2 5 27 7 28 8 80 9 29 10 79 11 30 12 31 13
REMARK SMILES IDX 32 14 73 15 33 16 78 17 72 18 74 19 34 20 77 21 71 22 70 23
REMARK SMILES IDX 35 25 61 26 44 27 60 28 45 29 48 30 59 31 75 32 46 33 47 34
REMARK SMILES IDX 58 36 76 37 49 38 36 39 37 40 42 41 38 42 39 43 41 44 43 45
REMARK SMILES IDX 40 46 62 47 63 48 68 49 64 50 65 51 67 52 69 53 66 54 50 55
REMARK SMILES IDX 51 56 56 57 52 58 53 59 55 60 57 61 54 62 6 63 7 64 8 65
REMARK SMILES IDX 9 66 10 68 11 69 12 70 17 71 13 72 16 73 14 74 15 75 18 76
REMARK SMILES IDX 19 77 20 79 21 80 22 81 26 82 23 83 24 84 25 85
REMARK H PARENT 3 6 74 24 48 35 8 67 18 78
REMARK Flexibility Score: inf
ROOT
ATOM      1  C   UNL A   1      37.746  20.174  24.740  1.00  0.00     0.023 C 
ENDROOT
BRANCH   1   2
ATOM      2  C   UNL A   1      38.845  20.401  25.768  1.00  0.00     0.116 C 
BRANCH   2   3
ATOM      3  N   UNL A   1      39.918  19.419  25.705  1.00  0.00    -0.352 N 
ATOM      4  O   UNL A   1      42.046  18.666  25.844  1.00  0.00    -0.269 OA
ATOM      5  C   UNL A   1      41.243  19.572  26.045  1.00  0.00     0.251 C 
ATOM      6  H   UNL A   1      39.663  18.527  25.375  1.00  0.00     0.163 HD
BRANCH   5   7
ATOM      7  C   UNL A   1      41.702  20.854  26.620  1.00  0.00     0.039 A 
ATOM      8  C   UNL A   1      41.687  21.054  28.002  1.00  0.00     0.014 A 
ATOM      9  C   UNL A   1      42.119  21.880  25.766  1.00  0.00     0.014 A 
ATOM     10  C   UNL A   1      41.929  22.323  28.514  1.00  0.00     0.010 A 
ATOM     11  C   UNL A   1      42.454  23.132  26.294  1.00  0.00     0.010 A 
ATOM     12  C   UNL A   1      42.325  23.374  27.669  1.00  0.00    -0.014 A 
BRANCH  12  13
ATOM     13  C   UNL A   1      42.649  24.689  28.276  1.00  0.00     0.031 A 
ATOM     14  C   UNL A   1      44.063  25.077  28.608  1.00  0.00     0.074 A 
ATOM     15  C   UNL A   1      41.645  25.570  28.456  1.00  0.00     0.049 A 
ATOM     16  N   UNL A   1      44.514  26.220  29.061  1.00  0.00    -0.248 NA
ATOM     17  C   UNL A   1      45.104  24.056  28.417  1.00  0.00     0.031 C 
ATOM     18  C   UNL A   1      40.230  25.297  28.190  1.00  0.00     0.029 A 
ATOM     19  N   UNL A   1      41.660  26.878  28.864  1.00  0.00    -0.354 N 
ATOM     20  C   UNL A   1      45.884  26.055  29.221  1.00  0.00     0.074 A 
ATOM     21  C   UNL A   1      46.190  24.692  28.838  1.00  0.00     0.031 C 
ATOM     22  C   UNL A   1      39.524  26.420  28.377  1.00  0.00     0.029 A 
ATOM     23  C   UNL A   1      40.424  27.475  28.827  1.00  0.00     0.049 A 
ATOM     24  H   UNL A   1      42.476  27.344  29.155  1.00  0.00     0.167 HD
ATOM     25  C   UNL A   1      46.802  26.960  29.640  1.00  0.00     0.037 A 
ATOM     26  C   UNL A   1      40.052  28.733  29.123  1.00  0.00     0.037 A 
ATOM     27  C   UNL A   1      46.497  28.320  30.005  1.00  0.00     0.049 A 
ATOM     28  C   UNL A   1      41.092  29.716  29.565  1.00  0.00     0.074 A 
ATOM     29  C   UNL A   1      47.361  29.313  30.434  1.00  0.00     0.029 A 
ATOM     30  N   UNL A   1      45.229  28.881  29.978  1.00  0.00    -0.354 N 
ATOM     31  N   UNL A   1      42.385  29.543  29.699  1.00  0.00    -0.248 NA
ATOM     32  C   UNL A   1      40.624  31.067  29.901  1.00  0.00     0.031 C 
ATOM     33  C   UNL A   1      46.612  30.467  30.691  1.00  0.00     0.029 A 
ATOM     34  C   UNL A   1      45.287  30.202  30.391  1.00  0.00     0.049 A 
ATOM     35  H   UNL A   1      44.409  28.409  29.705  1.00  0.00     0.167 HD
ATOM     36  C   UNL A   1      42.884  30.759  30.141  1.00  0.00     0.074 A 
ATOM     37  C   UNL A   1      41.760  31.672  30.214  1.00  0.00     0.031 C 
ATOM     38  C   UNL A   1      44.156  31.089  30.470  1.00  0.00     0.037 A 
BRANCH  25  39
ATOM     39  C   UNL A   1      48.230  26.512  29.733  1.00  0.00     0.057 A 
ATOM     40  C   UNL A   1      48.727  25.871  30.875  1.00  0.00     0.134 A 
ATOM     41  C   UNL A   1      49.100  26.661  28.646  1.00  0.00     0.134 A 
ATOM     42  F   UNL A   1      47.948  25.707  31.955  1.00  0.00    -0.206 F 
ATOM     43  C   UNL A   1      50.041  25.402  30.936  1.00  0.00     0.040 A 
ATOM     44  C   UNL A   1      50.411  26.179  28.687  1.00  0.00     0.040 A 
ATOM     45  F   UNL A   1      48.686  27.261  27.520  1.00  0.00    -0.206 F 
ATOM     46  C   UNL A   1      50.884  25.548  29.835  1.00  0.00     0.006 A 
ENDBRANCH  25  39
BRANCH  26  47
ATOM     47  C   UNL A   1      38.626  29.123  29.011  1.00  0.00     0.057 A 
ATOM     48  C   UNL A   1      37.770  29.067  30.116  1.00  0.00     0.134 A 
ATOM     49  C   UNL A   1      38.091  29.574  27.799  1.00  0.00     0.134 A 
ATOM     50  F   UNL A   1      38.222  28.628  31.299  1.00  0.00    -0.206 F 
ATOM     51  C   UNL A   1      36.427  29.434  30.016  1.00  0.00     0.040 A 
ATOM     52  C   UNL A   1      36.757  29.969  27.691  1.00  0.00     0.040 A 
ATOM     53  F   UNL A   1      38.865  29.659  26.706  1.00  0.00    -0.206 F 
ATOM     54  C   UNL A   1      35.920  29.893  28.801  1.00  0.00     0.006 A 
ENDBRANCH  26  47
BRANCH  38  55
ATOM     55  C   UNL A   1      44.384  32.493  30.941  1.00  0.00     0.057 A 
ATOM     56  C   UNL A   1      44.318  32.826  32.300  1.00  0.00     0.134 A 
ATOM     57  C   UNL A   1      44.671  33.517  30.032  1.00  0.00     0.134 A 
ATOM     58  F   UNL A   1      44.031  31.889  33.216  1.00  0.00    -0.206 F 
ATOM     59  C   UNL A   1      44.503  34.138  32.736  1.00  0.00     0.040 A 
ATOM     60  C   UNL A   1      44.877  34.829  30.459  1.00  0.00     0.040 A 
ATOM     61  F   UNL A   1      44.751  33.260  28.718  1.00  0.00    -0.206 F 
ATOM     62  C   UNL A   1      44.785  35.144  31.813  1.00  0.00     0.006 A 
ENDBRANCH  38  55
ENDBRANCH  12  13
ENDBRANCH   5   7
ENDBRANCH   2   3
ENDBRANCH   1   2
BRANCH   1  63
ATOM     63  C   UNL A   1      36.365  20.690  25.132  1.00  0.00     0.023 C 
BRANCH  63  64
ATOM     64  C   UNL A   1      36.340  22.106  25.701  1.00  0.00     0.116 C 
BRANCH  64  65
ATOM     65  N   UNL A   1      35.307  22.293  26.712  1.00  0.00    -0.352 N 
ATOM     66  C   UNL A   1      34.016  22.741  26.551  1.00  0.00     0.253 C 
ATOM     67  H   UNL A   1      35.567  22.068  27.635  1.00  0.00     0.163 HD
ATOM     68  O   UNL A   1      33.310  23.005  27.516  1.00  0.00    -0.269 OA
BRANCH  66  69
ATOM     69  C   UNL A   1      33.517  22.981  25.183  1.00  0.00     0.064 A 
ATOM     70  C   UNL A   1      32.965  21.894  24.490  1.00  0.00     0.031 A 
ATOM     71  C   UNL A   1      33.706  24.235  24.568  1.00  0.00     0.054 A 
ATOM     72  C   UNL A   1      32.737  22.004  23.126  1.00  0.00     0.018 A 
ATOM     73  C   UNL A   1      33.546  24.284  23.182  1.00  0.00     0.028 A 
ATOM     74  Br  UNL A   1      32.078  20.525  22.158  1.00  0.00    -0.051 Br
ATOM     75  C   UNL A   1      33.063  23.181  22.464  1.00  0.00     0.018 A 
BRANCH  71  76
ATOM     76  N   UNL A   1      34.068  25.345  25.370  1.00  0.00    -0.321 N 
ATOM     77  C   UNL A   1      33.529  26.601  25.570  1.00  0.00     0.265 C 
ATOM     78  H   UNL A   1      34.881  25.186  25.901  1.00  0.00     0.170 HD
ATOM     79  O   UNL A   1      34.184  27.393  26.251  1.00  0.00    -0.268 OA
BRANCH  77  80
ATOM     80  C   UNL A   1      32.231  26.938  25.033  1.00  0.00     0.093 A 
ATOM     81  C   UNL A   1      31.033  26.248  25.122  1.00  0.00     0.027 A 
ATOM     82  S   UNL A   1      32.049  28.408  24.169  1.00  0.00    -0.123 S 
ATOM     83  C   UNL A   1      29.995  26.877  24.368  1.00  0.00     0.028 A 
ATOM     84  C   UNL A   1      30.438  28.043  23.796  1.00  0.00     0.071 A 
ATOM     85  Br  UNL A   1      29.375  29.129  22.702  1.00  0.00    -0.039 Br
ENDBRANCH  77  80
ENDBRANCH  71  76
ENDBRANCH  66  69
ENDBRANCH  64  65
ENDBRANCH  63  64
ENDBRANCH   1  63
TORSDOF 13
ENDMDL
