MODEL 1
REMARK VINA RESULT:     -12.3      0.000      0.000
REMARK SMILES COc1cccc([C@@H]2C[N@@H+](Cc3nccn3C)C[C@H]2C(=O)NCCCCNC(=O)c2ccc(-c3c4nc(c(-c5c(F)cccc5F)c5ccc([nH]5)c(-c5c(F)cccc5F)c5nc(c(-c6c(F)cccc6F)c6ccc3[nH]6)C=C5)C=C4)cc2)c1
REMARK SMILES IDX 24 1 23 2 22 3 20 4 21 5 19 7 8 8 9 9 10 10 18 11 7 13 3 14
REMARK SMILES IDX 4 15 84 16 5 17 6 18 2 19 1 20 11 21 12 22 13 23 16 24 14 25
REMARK SMILES IDX 15 26 17 27 25 28 26 29 27 30 28 31 29 33 30 34 31 35 83 36
REMARK SMILES IDX 32 37 82 38 33 39 34 40 35 41 76 42 36 43 81 44 75 45 77 46
REMARK SMILES IDX 37 47 80 48 74 49 73 50 38 52 64 53 47 54 63 55 48 56 51 57
REMARK SMILES IDX 62 58 78 59 49 60 50 61 61 63 79 64 52 65 39 66 40 67 45 68
REMARK SMILES IDX 41 69 42 70 44 71 46 72 43 73 65 74 66 75 71 76 67 77 68 78
REMARK SMILES IDX 70 79 72 80 69 81 53 82 54 83 59 84 55 85 56 86 58 87 60 88
REMARK SMILES IDX 57 89
REMARK H PARENT 22 6 10 12 27 32 77 51 51 62
REMARK Flexibility Score: inf
ROOT
ATOM      1  C   UNL A   1      32.210  30.297  26.919  1.00  0.00     0.023 C 
ENDROOT
BRANCH   1   2
ATOM      2  C   UNL A   1      33.620  29.843  26.510  1.00  0.00     0.116 C 
BRANCH   2   3
ATOM      3  N   UNL A   1      33.685  29.299  25.155  1.00  0.00    -0.356 N 
ATOM      4  C   UNL A   1      32.822  28.924  24.183  1.00  0.00     0.229 C 
ATOM      5  O   UNL A   1      33.222  29.241  23.049  1.00  0.00    -0.275 OA
ATOM      6  H   UNL A   1      34.618  29.168  24.871  1.00  0.00     0.163 HD
BRANCH   4   7
ATOM      7  C   UNL A   1      31.505  28.138  24.256  1.00  0.00     0.146 C 
ATOM      8  C   UNL A   1      30.528  28.205  23.084  1.00  0.00     0.092 C 
ATOM      9  C   UNL A   1      29.531  27.071  23.413  1.00  0.00     0.271 C 
ATOM     10  N   UNL A   1      30.262  26.067  24.203  1.00  0.00    -0.327 N 
ATOM     11  C   UNL A   1      31.494  26.687  24.715  1.00  0.00     0.277 C 
ATOM     12  H   UNL A   1      29.719  25.790  25.020  1.00  0.00     0.348 HD
BRANCH   8  13
ATOM     13  C   UNL A   1      29.805  29.538  22.968  1.00  0.00    -0.035 A 
ATOM     14  C   UNL A   1      28.452  31.107  21.660  1.00  0.00     0.119 A 
ATOM     15  C   UNL A   1      28.535  32.024  22.704  1.00  0.00     0.046 A 
ATOM     16  C   UNL A   1      29.086  29.874  21.799  1.00  0.00     0.050 A 
ATOM     17  C   UNL A   1      29.230  31.709  23.874  1.00  0.00     0.004 A 
ATOM     18  C   UNL A   1      29.865  30.472  24.006  1.00  0.00     0.004 A 
BRANCH  14  19
ATOM     19  O   UNL A   1      27.754  31.525  20.561  1.00  0.00    -0.497 OA
ATOM     20  C   UNL A   1      27.655  32.932  20.362  1.00  0.00     0.278 C 
ENDBRANCH  14  19
ENDBRANCH   8  13
BRANCH  10  21
ATOM     21  C   UNL A   1      30.396  24.770  23.524  1.00  0.00     0.339 C 
BRANCH  21  22
ATOM     22  C   UNL A   1      31.813  24.295  23.445  1.00  0.00     0.164 A 
ATOM     23  N   UNL A   1      32.372  23.446  24.292  1.00  0.00    -0.236 NA
ATOM     24  N   UNL A   1      32.648  24.524  22.383  1.00  0.00    -0.333 N 
ATOM     25  C   UNL A   1      33.468  22.950  23.656  1.00  0.00     0.131 A 
ATOM     26  C   UNL A   1      33.611  23.559  22.438  1.00  0.00     0.107 A 
ATOM     27  C   UNL A   1      32.531  25.544  21.370  1.00  0.00     0.151 C 
ENDBRANCH  21  22
ENDBRANCH  10  21
ENDBRANCH   4   7
ENDBRANCH   2   3
ENDBRANCH   1   2
BRANCH   1  28
ATOM     28  C   UNL A   1      31.908  31.808  26.884  1.00  0.00     0.023 C 
BRANCH  28  29
ATOM     29  C   UNL A   1      32.960  32.817  27.344  1.00  0.00     0.116 C 
BRANCH  29  30
ATOM     30  N   UNL A   1      32.468  34.139  27.705  1.00  0.00    -0.352 N 
ATOM     31  C   UNL A   1      32.981  35.068  28.590  1.00  0.00     0.251 C 
ATOM     32  H   UNL A   1      31.642  34.414  27.246  1.00  0.00     0.163 HD
ATOM     33  O   UNL A   1      32.443  36.150  28.742  1.00  0.00    -0.269 OA
BRANCH  31  34
ATOM     34  C   UNL A   1      34.153  34.694  29.404  1.00  0.00     0.039 A 
ATOM     35  C   UNL A   1      33.942  34.076  30.639  1.00  0.00     0.014 A 
ATOM     36  C   UNL A   1      35.435  34.814  28.874  1.00  0.00     0.014 A 
ATOM     37  C   UNL A   1      35.016  33.461  31.285  1.00  0.00     0.010 A 
ATOM     38  C   UNL A   1      36.472  34.103  29.459  1.00  0.00     0.010 A 
ATOM     39  C   UNL A   1      36.277  33.411  30.666  1.00  0.00    -0.014 A 
BRANCH  39  40
ATOM     40  C   UNL A   1      37.405  32.646  31.259  1.00  0.00     0.031 A 
ATOM     41  C   UNL A   1      37.958  33.054  32.598  1.00  0.00     0.074 A 
ATOM     42  C   UNL A   1      37.995  31.652  30.562  1.00  0.00     0.049 A 
ATOM     43  N   UNL A   1      39.006  32.598  33.237  1.00  0.00    -0.248 NA
ATOM     44  C   UNL A   1      37.276  34.162  33.286  1.00  0.00     0.031 C 
ATOM     45  C   UNL A   1      37.621  31.211  29.216  1.00  0.00     0.029 A 
ATOM     46  N   UNL A   1      39.046  30.832  30.894  1.00  0.00    -0.354 N 
ATOM     47  C   UNL A   1      39.127  33.392  34.370  1.00  0.00     0.074 A 
ATOM     48  C   UNL A   1      38.098  34.404  34.292  1.00  0.00     0.031 C 
ATOM     49  C   UNL A   1      38.395  30.174  28.858  1.00  0.00     0.029 A 
ATOM     50  C   UNL A   1      39.343  29.895  29.932  1.00  0.00     0.049 A 
ATOM     51  H   UNL A   1      39.541  30.907  31.741  1.00  0.00     0.167 HD
ATOM     52  C   UNL A   1      39.987  33.266  35.409  1.00  0.00     0.037 A 
ATOM     53  C   UNL A   1      40.267  28.916  29.926  1.00  0.00     0.037 A 
ATOM     54  C   UNL A   1      40.954  32.210  35.526  1.00  0.00     0.049 A 
ATOM     55  C   UNL A   1      41.161  28.745  31.124  1.00  0.00     0.074 A 
ATOM     56  C   UNL A   1      41.811  31.935  36.576  1.00  0.00     0.029 A 
ATOM     57  N   UNL A   1      41.178  31.240  34.560  1.00  0.00    -0.354 N 
ATOM     58  N   UNL A   1      41.213  29.456  32.224  1.00  0.00    -0.248 NA
ATOM     59  C   UNL A   1      42.118  27.630  31.084  1.00  0.00     0.031 C 
ATOM     60  C   UNL A   1      42.567  30.808  36.238  1.00  0.00     0.029 A 
ATOM     61  C   UNL A   1      42.159  30.365  34.989  1.00  0.00     0.049 A 
ATOM     62  H   UNL A   1      40.707  31.183  33.697  1.00  0.00     0.167 HD
ATOM     63  C   UNL A   1      42.186  28.861  33.017  1.00  0.00     0.074 A 
ATOM     64  C   UNL A   1      42.686  27.719  32.279  1.00  0.00     0.031 C 
ATOM     65  C   UNL A   1      42.630  29.227  34.244  1.00  0.00     0.037 A 
BRANCH  52  66
ATOM     66  C   UNL A   1      39.882  34.280  36.510  1.00  0.00     0.057 A 
ATOM     67  C   UNL A   1      39.049  34.079  37.621  1.00  0.00     0.134 A 
ATOM     68  C   UNL A   1      40.613  35.473  36.459  1.00  0.00     0.134 A 
ATOM     69  F   UNL A   1      38.308  32.964  37.721  1.00  0.00    -0.206 F 
ATOM     70  C   UNL A   1      38.912  35.047  38.617  1.00  0.00     0.040 A 
ATOM     71  C   UNL A   1      40.508  36.435  37.467  1.00  0.00     0.040 A 
ATOM     72  F   UNL A   1      41.434  35.726  35.429  1.00  0.00    -0.206 F 
ATOM     73  C   UNL A   1      39.648  36.227  38.543  1.00  0.00     0.006 A 
ENDBRANCH  52  66
BRANCH  53  74
ATOM     74  C   UNL A   1      40.361  27.977  28.777  1.00  0.00     0.057 A 
ATOM     75  C   UNL A   1      41.150  28.285  27.662  1.00  0.00     0.134 A 
ATOM     76  C   UNL A   1      39.654  26.770  28.752  1.00  0.00     0.134 A 
ATOM     77  F   UNL A   1      41.836  29.437  27.620  1.00  0.00    -0.206 F 
ATOM     78  C   UNL A   1      41.215  27.440  26.553  1.00  0.00     0.040 A 
ATOM     79  C   UNL A   1      39.728  25.903  27.657  1.00  0.00     0.040 A 
ATOM     80  F   UNL A   1      38.887  26.411  29.791  1.00  0.00    -0.206 F 
ATOM     81  C   UNL A   1      40.503  26.243  26.551  1.00  0.00     0.006 A 
ENDBRANCH  53  74
BRANCH  65  82
ATOM     82  C   UNL A   1      43.684  28.368  34.876  1.00  0.00     0.057 A 
ATOM     83  C   UNL A   1      45.048  28.614  34.681  1.00  0.00     0.134 A 
ATOM     84  C   UNL A   1      43.328  27.313  35.724  1.00  0.00     0.134 A 
ATOM     85  F   UNL A   1      45.451  29.604  33.869  1.00  0.00    -0.206 F 
ATOM     86  C   UNL A   1      46.024  27.827  35.294  1.00  0.00     0.040 A 
ATOM     87  C   UNL A   1      44.294  26.534  36.361  1.00  0.00     0.040 A 
ATOM     88  F   UNL A   1      42.037  27.031  35.958  1.00  0.00    -0.206 F 
ATOM     89  C   UNL A   1      45.647  26.788  36.143  1.00  0.00     0.006 A 
ENDBRANCH  65  82
ENDBRANCH  39  40
ENDBRANCH  31  34
ENDBRANCH  29  30
ENDBRANCH  28  29
ENDBRANCH   1  28
TORSDOF 15
ENDMDL
MODEL 2
REMARK VINA RESULT:     -12.2      1.269      1.991
REMARK SMILES COc1cccc([C@@H]2C[N@@H+](Cc3nccn3C)C[C@H]2C(=O)NCCCCNC(=O)c2ccc(-c3c4nc(c(-c5c(F)cccc5F)c5ccc([nH]5)c(-c5c(F)cccc5F)c5nc(c(-c6c(F)cccc6F)c6ccc3[nH]6)C=C5)C=C4)cc2)c1
REMARK SMILES IDX 24 1 23 2 22 3 20 4 21 5 19 7 8 8 9 9 10 10 18 11 7 13 3 14
REMARK SMILES IDX 4 15 84 16 5 17 6 18 2 19 1 20 11 21 12 22 13 23 16 24 14 25
REMARK SMILES IDX 15 26 17 27 25 28 26 29 27 30 28 31 29 33 30 34 31 35 83 36
REMARK SMILES IDX 32 37 82 38 33 39 34 40 35 41 76 42 36 43 81 44 75 45 77 46
REMARK SMILES IDX 37 47 80 48 74 49 73 50 38 52 64 53 47 54 63 55 48 56 51 57
REMARK SMILES IDX 62 58 78 59 49 60 50 61 61 63 79 64 52 65 39 66 40 67 45 68
REMARK SMILES IDX 41 69 42 70 44 71 46 72 43 73 65 74 66 75 71 76 67 77 68 78
REMARK SMILES IDX 70 79 72 80 69 81 53 82 54 83 59 84 55 85 56 86 58 87 60 88
REMARK SMILES IDX 57 89
REMARK H PARENT 22 6 10 12 27 32 77 51 51 62
REMARK Flexibility Score: inf
ROOT
ATOM      1  C   UNL A   1      31.579  30.545  26.149  1.00  0.00     0.023 C 
ENDROOT
BRANCH   1   2
ATOM      2  C   UNL A   1      32.954  29.886  26.333  1.00  0.00     0.116 C 
BRANCH   2   3
ATOM      3  N   UNL A   1      33.603  29.531  25.072  1.00  0.00    -0.356 N 
ATOM      4  C   UNL A   1      33.295  28.850  23.944  1.00  0.00     0.229 C 
ATOM      5  O   UNL A   1      33.754  29.394  22.924  1.00  0.00    -0.275 OA
ATOM      6  H   UNL A   1      34.519  29.888  25.033  1.00  0.00     0.163 HD
BRANCH   4   7
ATOM      7  C   UNL A   1      32.552  27.522  23.742  1.00  0.00     0.146 C 
ATOM      8  C   UNL A   1      31.633  27.355  22.535  1.00  0.00     0.092 C 
ATOM      9  C   UNL A   1      31.349  25.836  22.536  1.00  0.00     0.271 C 
ATOM     10  N   UNL A   1      32.512  25.178  23.155  1.00  0.00    -0.327 N 
ATOM     11  C   UNL A   1      33.285  26.195  23.884  1.00  0.00     0.277 C 
ATOM     12  H   UNL A   1      32.210  24.495  23.848  1.00  0.00     0.348 HD
BRANCH   8  13
ATOM     13  C   UNL A   1      30.336  28.142  22.643  1.00  0.00    -0.035 A 
ATOM     14  C   UNL A   1      29.093  30.229  22.330  1.00  0.00     0.119 A 
ATOM     15  C   UNL A   1      27.976  29.634  22.910  1.00  0.00     0.046 A 
ATOM     16  C   UNL A   1      30.261  29.481  22.201  1.00  0.00     0.050 A 
ATOM     17  C   UNL A   1      28.023  28.307  23.343  1.00  0.00     0.004 A 
ATOM     18  C   UNL A   1      29.199  27.563  23.213  1.00  0.00     0.004 A 
BRANCH  14  19
ATOM     19  O   UNL A   1      28.936  31.534  21.951  1.00  0.00    -0.497 OA
ATOM     20  C   UNL A   1      28.209  31.769  20.748  1.00  0.00     0.278 C 
ENDBRANCH  14  19
ENDBRANCH   8  13
BRANCH  10  21
ATOM     21  C   UNL A   1      33.253  24.306  22.232  1.00  0.00     0.339 C 
BRANCH  21  22
ATOM     22  C   UNL A   1      34.003  23.217  22.934  1.00  0.00     0.164 A 
ATOM     23  N   UNL A   1      35.321  23.157  23.040  1.00  0.00    -0.236 NA
ATOM     24  N   UNL A   1      33.421  22.256  23.718  1.00  0.00    -0.333 N 
ATOM     25  C   UNL A   1      35.574  22.309  24.074  1.00  0.00     0.131 A 
ATOM     26  C   UNL A   1      34.398  21.797  24.552  1.00  0.00     0.107 A 
ATOM     27  C   UNL A   1      32.043  21.829  23.716  1.00  0.00     0.151 C 
ENDBRANCH  21  22
ENDBRANCH  10  21
ENDBRANCH   4   7
ENDBRANCH   2   3
ENDBRANCH   1   2
BRANCH   1  28
ATOM     28  C   UNL A   1      31.337  31.900  26.846  1.00  0.00     0.023 C 
BRANCH  28  29
ATOM     29  C   UNL A   1      32.307  33.061  26.633  1.00  0.00     0.116 C 
BRANCH  29  30
ATOM     30  N   UNL A   1      32.258  34.128  27.624  1.00  0.00    -0.352 N 
ATOM     31  C   UNL A   1      33.178  34.484  28.593  1.00  0.00     0.251 C 
ATOM     32  H   UNL A   1      31.445  34.681  27.599  1.00  0.00     0.163 HD
ATOM     33  O   UNL A   1      32.978  35.438  29.322  1.00  0.00    -0.269 OA
BRANCH  31  34
ATOM     34  C   UNL A   1      34.373  33.639  28.775  1.00  0.00     0.039 A 
ATOM     35  C   UNL A   1      35.634  34.218  28.621  1.00  0.00     0.014 A 
ATOM     36  C   UNL A   1      34.237  32.335  29.244  1.00  0.00     0.014 A 
ATOM     37  C   UNL A   1      36.761  33.524  29.063  1.00  0.00     0.010 A 
ATOM     38  C   UNL A   1      35.343  31.699  29.789  1.00  0.00     0.010 A 
ATOM     39  C   UNL A   1      36.618  32.287  29.714  1.00  0.00    -0.014 A 
BRANCH  39  40
ATOM     40  C   UNL A   1      37.780  31.587  30.321  1.00  0.00     0.031 A 
ATOM     41  C   UNL A   1      38.211  31.936  31.721  1.00  0.00     0.074 A 
ATOM     42  C   UNL A   1      38.506  30.713  29.593  1.00  0.00     0.049 A 
ATOM     43  N   UNL A   1      39.260  31.532  32.391  1.00  0.00    -0.248 NA
ATOM     44  C   UNL A   1      37.382  32.916  32.442  1.00  0.00     0.031 C 
ATOM     45  C   UNL A   1      38.256  30.348  28.196  1.00  0.00     0.029 A 
ATOM     46  N   UNL A   1      39.612  29.972  29.931  1.00  0.00    -0.354 N 
ATOM     47  C   UNL A   1      39.235  32.240  33.586  1.00  0.00     0.074 A 
ATOM     48  C   UNL A   1      38.117  33.153  33.516  1.00  0.00     0.031 C 
ATOM     49  C   UNL A   1      39.150  29.421  27.814  1.00  0.00     0.029 A 
ATOM     50  C   UNL A   1      40.056  29.148  28.924  1.00  0.00     0.049 A 
ATOM     51  H   UNL A   1      40.046  30.025  30.813  1.00  0.00     0.167 HD
ATOM     52  C   UNL A   1      40.040  32.112  34.667  1.00  0.00     0.037 A 
ATOM     53  C   UNL A   1      41.072  28.264  28.906  1.00  0.00     0.037 A 
ATOM     54  C   UNL A   1      41.099  31.147  34.769  1.00  0.00     0.049 A 
ATOM     55  C   UNL A   1      41.906  28.082  30.145  1.00  0.00     0.074 A 
ATOM     56  C   UNL A   1      41.916  30.871  35.850  1.00  0.00     0.029 A 
ATOM     57  N   UNL A   1      41.474  30.283  33.751  1.00  0.00    -0.354 N 
ATOM     58  N   UNL A   1      41.823  28.704  31.296  1.00  0.00    -0.248 NA
ATOM     59  C   UNL A   1      42.970  27.070  30.085  1.00  0.00     0.031 C 
ATOM     60  C   UNL A   1      42.799  29.851  35.479  1.00  0.00     0.029 A 
ATOM     61  C   UNL A   1      42.511  29.473  34.177  1.00  0.00     0.049 A 
ATOM     62  H   UNL A   1      41.063  30.251  32.856  1.00  0.00     0.167 HD
ATOM     63  C   UNL A   1      42.802  28.142  32.105  1.00  0.00     0.074 A 
ATOM     64  C   UNL A   1      43.455  27.116  31.318  1.00  0.00     0.031 C 
ATOM     65  C   UNL A   1      43.135  28.448  33.382  1.00  0.00     0.037 A 
BRANCH  52  66
ATOM     66  C   UNL A   1      39.772  33.020  35.832  1.00  0.00     0.057 A 
ATOM     67  C   UNL A   1      38.837  32.689  36.824  1.00  0.00     0.134 A 
ATOM     68  C   UNL A   1      40.444  34.241  35.960  1.00  0.00     0.134 A 
ATOM     69  F   UNL A   1      38.146  31.541  36.750  1.00  0.00    -0.206 F 
ATOM     70  C   UNL A   1      38.550  33.559  37.877  1.00  0.00     0.040 A 
ATOM     71  C   UNL A   1      40.187  35.105  37.027  1.00  0.00     0.040 A 
ATOM     72  F   UNL A   1      41.355  34.617  35.050  1.00  0.00    -0.206 F 
ATOM     73  C   UNL A   1      39.230  34.770  37.982  1.00  0.00     0.006 A 
ENDBRANCH  52  66
BRANCH  53  74
ATOM     74  C   UNL A   1      41.325  27.433  27.700  1.00  0.00     0.057 A 
ATOM     75  C   UNL A   1      40.763  26.157  27.576  1.00  0.00     0.134 A 
ATOM     76  C   UNL A   1      42.146  27.878  26.658  1.00  0.00     0.134 A 
ATOM     77  F   UNL A   1      39.982  25.668  28.552  1.00  0.00    -0.206 F 
ATOM     78  C   UNL A   1      41.026  25.342  26.475  1.00  0.00     0.040 A 
ATOM     79  C   UNL A   1      42.400  27.081  25.537  1.00  0.00     0.040 A 
ATOM     80  F   UNL A   1      42.709  29.094  26.709  1.00  0.00    -0.206 F 
ATOM     81  C   UNL A   1      41.846  25.806  25.449  1.00  0.00     0.006 A 
ENDBRANCH  53  74
BRANCH  65  82
ATOM     82  C   UNL A   1      44.230  27.645  34.016  1.00  0.00     0.057 A 
ATOM     83  C   UNL A   1      45.569  28.049  33.956  1.00  0.00     0.134 A 
ATOM     84  C   UNL A   1      43.934  26.480  34.733  1.00  0.00     0.134 A 
ATOM     85  F   UNL A   1      45.917  29.151  33.274  1.00  0.00    -0.206 F 
ATOM     86  C   UNL A   1      46.580  27.311  34.572  1.00  0.00     0.040 A 
ATOM     87  C   UNL A   1      44.934  25.745  35.373  1.00  0.00     0.040 A 
ATOM     88  F   UNL A   1      42.670  26.043  34.835  1.00  0.00    -0.206 F 
ATOM     89  C   UNL A   1      46.262  26.159  35.289  1.00  0.00     0.006 A 
ENDBRANCH  65  82
ENDBRANCH  39  40
ENDBRANCH  31  34
ENDBRANCH  29  30
ENDBRANCH  28  29
ENDBRANCH   1  28
TORSDOF 15
ENDMDL
MODEL 3
REMARK VINA RESULT:     -12.1      5.494     10.769
REMARK SMILES COc1cccc([C@@H]2C[N@@H+](Cc3nccn3C)C[C@H]2C(=O)NCCCCNC(=O)c2ccc(-c3c4nc(c(-c5c(F)cccc5F)c5ccc([nH]5)c(-c5c(F)cccc5F)c5nc(c(-c6c(F)cccc6F)c6ccc3[nH]6)C=C5)C=C4)cc2)c1
REMARK SMILES IDX 24 1 23 2 22 3 20 4 21 5 19 7 8 8 9 9 10 10 18 11 7 13 3 14
REMARK SMILES IDX 4 15 84 16 5 17 6 18 2 19 1 20 11 21 12 22 13 23 16 24 14 25
REMARK SMILES IDX 15 26 17 27 25 28 26 29 27 30 28 31 29 33 30 34 31 35 83 36
REMARK SMILES IDX 32 37 82 38 33 39 34 40 35 41 76 42 36 43 81 44 75 45 77 46
REMARK SMILES IDX 37 47 80 48 74 49 73 50 38 52 64 53 47 54 63 55 48 56 51 57
REMARK SMILES IDX 62 58 78 59 49 60 50 61 61 63 79 64 52 65 39 66 40 67 45 68
REMARK SMILES IDX 41 69 42 70 44 71 46 72 43 73 65 74 66 75 71 76 67 77 68 78
REMARK SMILES IDX 70 79 72 80 69 81 53 82 54 83 59 84 55 85 56 86 58 87 60 88
REMARK SMILES IDX 57 89
REMARK H PARENT 22 6 10 12 27 32 77 51 51 62
REMARK Flexibility Score: inf
ROOT
ATOM      1  C   UNL A   1      37.090  21.561  24.466  1.00  0.00     0.023 C 
ENDROOT
BRANCH   1   2
ATOM      2  C   UNL A   1      36.974  22.788  25.384  1.00  0.00     0.116 C 
BRANCH   2   3
ATOM      3  N   UNL A   1      35.942  22.651  26.410  1.00  0.00    -0.356 N 
ATOM      4  C   UNL A   1      34.607  22.437  26.464  1.00  0.00     0.229 C 
ATOM      5  O   UNL A   1      34.288  21.682  27.400  1.00  0.00    -0.275 OA
ATOM      6  H   UNL A   1      36.324  22.741  27.312  1.00  0.00     0.163 HD
BRANCH   4   7
ATOM      7  C   UNL A   1      33.460  23.015  25.623  1.00  0.00     0.146 C 
ATOM      8  C   UNL A   1      32.153  22.235  25.504  1.00  0.00     0.092 C 
ATOM      9  C   UNL A   1      31.200  23.271  24.866  1.00  0.00     0.271 C 
ATOM     10  N   UNL A   1      31.674  24.604  25.273  1.00  0.00    -0.327 N 
ATOM     11  C   UNL A   1      33.054  24.475  25.767  1.00  0.00     0.277 C 
ATOM     12  H   UNL A   1      31.714  25.231  24.470  1.00  0.00     0.348 HD
BRANCH   8  13
ATOM     13  C   UNL A   1      32.259  20.995  24.631  1.00  0.00    -0.035 A 
ATOM     14  C   UNL A   1      32.681  18.592  24.406  1.00  0.00     0.119 A 
ATOM     15  C   UNL A   1      32.541  18.713  23.026  1.00  0.00     0.046 A 
ATOM     16  C   UNL A   1      32.540  19.732  25.196  1.00  0.00     0.050 A 
ATOM     17  C   UNL A   1      32.252  19.950  22.446  1.00  0.00     0.004 A 
ATOM     18  C   UNL A   1      32.113  21.089  23.244  1.00  0.00     0.004 A 
BRANCH  14  19
ATOM     19  O   UNL A   1      32.972  17.337  24.862  1.00  0.00    -0.497 OA
ATOM     20  C   UNL A   1      34.300  16.867  24.644  1.00  0.00     0.278 C 
ENDBRANCH  14  19
ENDBRANCH   8  13
BRANCH  10  21
ATOM     21  C   UNL A   1      30.721  25.330  26.126  1.00  0.00     0.339 C 
BRANCH  21  22
ATOM     22  C   UNL A   1      30.999  26.800  26.191  1.00  0.00     0.164 A 
ATOM     23  N   UNL A   1      31.428  27.438  27.268  1.00  0.00    -0.236 NA
ATOM     24  N   UNL A   1      31.033  27.631  25.102  1.00  0.00    -0.333 N 
ATOM     25  C   UNL A   1      31.958  28.610  26.821  1.00  0.00     0.131 A 
ATOM     26  C   UNL A   1      31.784  28.710  25.467  1.00  0.00     0.107 A 
ATOM     27  C   UNL A   1      30.442  27.413  23.805  1.00  0.00     0.151 C 
ENDBRANCH  21  22
ENDBRANCH  10  21
ENDBRANCH   4   7
ENDBRANCH   2   3
ENDBRANCH   1   2
BRANCH   1  28
ATOM     28  C   UNL A   1      37.797  20.312  25.028  1.00  0.00     0.023 C 
BRANCH  28  29
ATOM     29  C   UNL A   1      39.130  20.444  25.763  1.00  0.00     0.116 C 
BRANCH  29  30
ATOM     30  N   UNL A   1      40.012  19.286  25.708  1.00  0.00    -0.352 N 
ATOM     31  C   UNL A   1      41.352  19.173  26.027  1.00  0.00     0.251 C 
ATOM     32  H   UNL A   1      39.588  18.456  25.395  1.00  0.00     0.163 HD
ATOM     33  O   UNL A   1      41.925  18.102  25.946  1.00  0.00    -0.269 OA
BRANCH  31  34
ATOM     34  C   UNL A   1      42.094  20.394  26.396  1.00  0.00     0.039 A 
ATOM     35  C   UNL A   1      42.605  21.202  25.377  1.00  0.00     0.014 A 
ATOM     36  C   UNL A   1      42.142  20.804  27.726  1.00  0.00     0.014 A 
ATOM     37  C   UNL A   1      43.051  22.487  25.687  1.00  0.00     0.010 A 
ATOM     38  C   UNL A   1      42.475  22.120  28.011  1.00  0.00     0.010 A 
ATOM     39  C   UNL A   1      42.926  22.982  26.996  1.00  0.00    -0.014 A 
BRANCH  39  40
ATOM     40  C   UNL A   1      43.260  24.391  27.332  1.00  0.00     0.031 A 
ATOM     41  C   UNL A   1      44.690  24.855  27.257  1.00  0.00     0.074 A 
ATOM     42  C   UNL A   1      42.306  25.226  27.794  1.00  0.00     0.049 A 
ATOM     43  N   UNL A   1      45.210  26.001  27.616  1.00  0.00    -0.248 NA
ATOM     44  C   UNL A   1      45.677  23.879  26.767  1.00  0.00     0.031 C 
ATOM     45  C   UNL A   1      40.897  24.883  28.003  1.00  0.00     0.029 A 
ATOM     46  N   UNL A   1      42.382  26.543  28.178  1.00  0.00    -0.354 N 
ATOM     47  C   UNL A   1      46.581  25.862  27.435  1.00  0.00     0.074 A 
ATOM     48  C   UNL A   1      46.818  24.500  27.011  1.00  0.00     0.031 C 
ATOM     49  C   UNL A   1      40.235  25.971  28.430  1.00  0.00     0.029 A 
ATOM     50  C   UNL A   1      41.175  27.081  28.556  1.00  0.00     0.049 A 
ATOM     51  H   UNL A   1      43.223  27.055  28.181  1.00  0.00     0.167 HD
ATOM     52  C   UNL A   1      47.554  26.794  27.563  1.00  0.00     0.037 A 
ATOM     53  C   UNL A   1      40.862  28.330  28.949  1.00  0.00     0.037 A 
ATOM     54  C   UNL A   1      47.309  28.168  27.902  1.00  0.00     0.049 A 
ATOM     55  C   UNL A   1      41.947  29.371  29.010  1.00  0.00     0.074 A 
ATOM     56  C   UNL A   1      48.209  29.216  27.969  1.00  0.00     0.029 A 
ATOM     57  N   UNL A   1      46.062  28.690  28.213  1.00  0.00    -0.354 N 
ATOM     58  N   UNL A   1      43.228  29.245  28.761  1.00  0.00    -0.248 NA
ATOM     59  C   UNL A   1      41.541  30.729  29.397  1.00  0.00     0.031 C 
ATOM     60  C   UNL A   1      47.509  30.369  28.340  1.00  0.00     0.029 A 
ATOM     61  C   UNL A   1      46.168  30.044  28.474  1.00  0.00     0.049 A 
ATOM     62  H   UNL A   1      45.224  28.172  28.243  1.00  0.00     0.167 HD
ATOM     63  C   UNL A   1      43.776  30.510  28.935  1.00  0.00     0.074 A 
ATOM     64  C   UNL A   1      42.685  31.393  29.293  1.00  0.00     0.031 C 
ATOM     65  C   UNL A   1      45.066  30.906  28.813  1.00  0.00     0.037 A 
BRANCH  52  66
ATOM     66  C   UNL A   1      48.963  26.353  27.295  1.00  0.00     0.057 A 
ATOM     67  C   UNL A   1      49.795  25.880  28.321  1.00  0.00     0.134 A 
ATOM     68  C   UNL A   1      49.501  26.411  26.004  1.00  0.00     0.134 A 
ATOM     69  F   UNL A   1      49.346  25.817  29.584  1.00  0.00    -0.206 F 
ATOM     70  C   UNL A   1      51.122  25.522  28.080  1.00  0.00     0.040 A 
ATOM     71  C   UNL A   1      50.818  26.025  25.746  1.00  0.00     0.040 A 
ATOM     72  F   UNL A   1      48.760  26.848  24.975  1.00  0.00    -0.206 F 
ATOM     73  C   UNL A   1      51.635  25.590  26.787  1.00  0.00     0.006 A 
ENDBRANCH  52  66
BRANCH  53  74
ATOM     74  C   UNL A   1      39.454  28.692  29.257  1.00  0.00     0.057 A 
ATOM     75  C   UNL A   1      38.608  29.196  28.262  1.00  0.00     0.134 A 
ATOM     76  C   UNL A   1      38.926  28.567  30.547  1.00  0.00     0.134 A 
ATOM     77  F   UNL A   1      39.063  29.356  27.010  1.00  0.00    -0.206 F 
ATOM     78  C   UNL A   1      37.298  29.587  28.539  1.00  0.00     0.040 A 
ATOM     79  C   UNL A   1      37.608  28.933  30.835  1.00  0.00     0.040 A 
ATOM     80  F   UNL A   1      39.679  28.083  31.545  1.00  0.00    -0.206 F 
ATOM     81  C   UNL A   1      36.794  29.453  29.831  1.00  0.00     0.006 A 
ENDBRANCH  53  74
BRANCH  65  82
ATOM     82  C   UNL A   1      45.361  32.358  29.038  1.00  0.00     0.057 A 
ATOM     83  C   UNL A   1      45.230  33.302  28.013  1.00  0.00     0.134 A 
ATOM     84  C   UNL A   1      45.736  32.820  30.305  1.00  0.00     0.134 A 
ATOM     85  F   UNL A   1      44.885  32.919  26.774  1.00  0.00    -0.206 F 
ATOM     86  C   UNL A   1      45.479  34.657  28.237  1.00  0.00     0.040 A 
ATOM     87  C   UNL A   1      45.966  34.175  30.546  1.00  0.00     0.040 A 
ATOM     88  F   UNL A   1      45.872  31.966  31.330  1.00  0.00    -0.206 F 
ATOM     89  C   UNL A   1      45.842  35.097  29.509  1.00  0.00     0.006 A 
ENDBRANCH  65  82
ENDBRANCH  39  40
ENDBRANCH  31  34
ENDBRANCH  29  30
ENDBRANCH  28  29
ENDBRANCH   1  28
TORSDOF 15
ENDMDL
