MODEL 1
REMARK VINA RESULT:     -12.3      0.000      0.000
REMARK SMILES CC[C@H]1SC[C@H](C(=O)NCCCCNC(=O)c2ccc(-c3c4nc(c(-c5c(F)cccc5F)c5ccc([nH]5)c(-c5c(F)cccc5F)c5nc(c(-c6c(F)cccc6F)c6ccc3[nH]6)C=C5)C=C4)cc2)N1C(=O)c1ccc(F)c(F)c1F
REMARK SMILES IDX 11 1 10 2 9 3 7 4 8 5 6 7 3 8 4 9 71 10 5 11 2 12 1 13 72 14
REMARK SMILES IDX 73 15 74 16 75 17 81 18 76 19 79 20 82 21 77 22 80 23 78 24
REMARK SMILES IDX 12 25 13 26 14 27 15 28 16 30 17 31 18 32 70 33 19 34 69 35
REMARK SMILES IDX 20 36 21 37 22 38 63 39 23 40 68 41 62 42 64 43 24 44 67 45
REMARK SMILES IDX 61 46 60 47 25 49 51 50 34 51 50 52 35 53 38 54 49 55 65 56
REMARK SMILES IDX 36 57 37 58 48 60 66 61 39 62 26 63 27 64 32 65 28 66 29 67
REMARK SMILES IDX 31 68 33 69 30 70 52 71 53 72 58 73 54 74 55 75 57 76 59 77
REMARK SMILES IDX 56 78 40 79 41 80 46 81 42 82 43 83 45 84 47 85 44 86
REMARK H PARENT 9 6 14 29 64 48 38 59
REMARK Flexibility Score: inf
ROOT
ATOM      1  C   UNL A   1      36.335  20.386  25.106  1.00  0.00     0.023 C 
ENDROOT
BRANCH   1   2
ATOM      2  C   UNL A   1      36.093  21.758  25.738  1.00  0.00     0.116 C 
BRANCH   2   3
ATOM      3  N   UNL A   1      35.190  21.697  26.876  1.00  0.00    -0.354 N 
ATOM      4  C   UNL A   1      34.021  22.368  27.112  1.00  0.00     0.243 C 
ATOM      5  O   UNL A   1      33.500  22.240  28.223  1.00  0.00    -0.273 OA
ATOM      6  H   UNL A   1      35.462  21.074  27.588  1.00  0.00     0.163 HD
BRANCH   4   7
ATOM      7  C   UNL A   1      33.374  23.207  25.994  1.00  0.00     0.185 C 
ATOM      8  C   UNL A   1      33.231  23.107  23.550  1.00  0.00     0.144 C 
ATOM      9  S   UNL A   1      34.738  24.071  23.839  1.00  0.00    -0.134 SA
ATOM     10  N   UNL A   1      32.988  22.419  24.812  1.00  0.00    -0.314 N 
ATOM     11  C   UNL A   1      34.383  24.297  25.598  1.00  0.00     0.107 C 
BRANCH   8  12
ATOM     12  C   UNL A   1      32.040  24.031  23.212  1.00  0.00     0.033 C 
ATOM     13  C   UNL A   1      32.421  25.288  22.444  1.00  0.00     0.007 C 
ENDBRANCH   8  12
BRANCH  10  14
ATOM     14  C   UNL A   1      32.112  21.361  24.998  1.00  0.00     0.258 C 
ATOM     15  O   UNL A   1      31.035  21.499  25.575  1.00  0.00    -0.269 OA
BRANCH  14  16
ATOM     16  C   UNL A   1      32.398  20.010  24.475  1.00  0.00     0.079 A 
ATOM     17  C   UNL A   1      32.973  19.079  25.358  1.00  0.00     0.020 A 
ATOM     18  C   UNL A   1      32.242  19.678  23.132  1.00  0.00     0.174 A 
ATOM     19  C   UNL A   1      33.332  17.808  24.904  1.00  0.00     0.043 A 
ATOM     20  C   UNL A   1      32.587  18.408  22.685  1.00  0.00     0.195 A 
ATOM     21  F   UNL A   1      31.779  20.575  22.248  1.00  0.00    -0.203 F 
ATOM     22  C   UNL A   1      33.124  17.479  23.569  1.00  0.00     0.161 A 
ATOM     23  F   UNL A   1      32.405  18.078  21.398  1.00  0.00    -0.200 F 
ATOM     24  F   UNL A   1      33.460  16.256  23.138  1.00  0.00    -0.204 F 
ENDBRANCH  14  16
ENDBRANCH  10  14
ENDBRANCH   4   7
ENDBRANCH   2   3
ENDBRANCH   1   2
BRANCH   1  25
ATOM     25  C   UNL A   1      37.773  20.130  24.659  1.00  0.00     0.023 C 
BRANCH  25  26
ATOM     26  C   UNL A   1      38.822  20.311  25.747  1.00  0.00     0.116 C 
BRANCH  26  27
ATOM     27  N   UNL A   1      39.785  19.220  25.787  1.00  0.00    -0.352 N 
ATOM     28  C   UNL A   1      41.140  19.264  26.003  1.00  0.00     0.251 C 
ATOM     29  H   UNL A   1      39.411  18.322  25.637  1.00  0.00     0.163 HD
ATOM     30  O   UNL A   1      41.821  18.253  25.854  1.00  0.00    -0.269 OA
BRANCH  28  31
ATOM     31  C   UNL A   1      41.783  20.539  26.384  1.00  0.00     0.039 A 
ATOM     32  C   UNL A   1      42.231  21.395  25.375  1.00  0.00     0.014 A 
ATOM     33  C   UNL A   1      41.928  20.897  27.727  1.00  0.00     0.014 A 
ATOM     34  C   UNL A   1      42.760  22.642  25.711  1.00  0.00     0.010 A 
ATOM     35  C   UNL A   1      42.379  22.172  28.057  1.00  0.00     0.010 A 
ATOM     36  C   UNL A   1      42.800  23.058  27.053  1.00  0.00    -0.014 A 
BRANCH  36  37
ATOM     37  C   UNL A   1      43.261  24.420  27.420  1.00  0.00     0.031 A 
ATOM     38  C   UNL A   1      42.272  25.473  27.837  1.00  0.00     0.074 A 
ATOM     39  C   UNL A   1      44.566  24.731  27.305  1.00  0.00     0.049 A 
ATOM     40  N   UNL A   1      42.482  26.729  28.141  1.00  0.00    -0.248 NA
ATOM     41  C   UNL A   1      40.859  25.069  27.892  1.00  0.00     0.031 C 
ATOM     42  C   UNL A   1      45.616  23.818  26.848  1.00  0.00     0.029 A 
ATOM     43  N   UNL A   1      45.232  25.907  27.548  1.00  0.00    -0.354 N 
ATOM     44  C   UNL A   1      41.228  27.268  28.401  1.00  0.00     0.074 A 
ATOM     45  C   UNL A   1      40.261  26.217  28.171  1.00  0.00     0.031 C 
ATOM     46  C   UNL A   1      46.794  24.461  26.860  1.00  0.00     0.029 A 
ATOM     47  C   UNL A   1      46.580  25.840  27.288  1.00  0.00     0.049 A 
ATOM     48  H   UNL A   1      44.786  26.720  27.877  1.00  0.00     0.167 HD
ATOM     49  C   UNL A   1      40.914  28.519  28.816  1.00  0.00     0.037 A 
ATOM     50  C   UNL A   1      47.534  26.786  27.373  1.00  0.00     0.037 A 
ATOM     51  C   UNL A   1      41.883  29.555  29.064  1.00  0.00     0.049 A 
ATOM     52  C   UNL A   1      47.165  28.164  27.844  1.00  0.00     0.074 A 
ATOM     53  C   UNL A   1      41.674  30.826  29.568  1.00  0.00     0.029 A 
ATOM     54  N   UNL A   1      43.243  29.442  28.815  1.00  0.00    -0.354 N 
ATOM     55  N   UNL A   1      45.988  28.634  28.180  1.00  0.00    -0.248 NA
ATOM     56  C   UNL A   1      48.256  29.141  27.957  1.00  0.00     0.031 C 
ATOM     57  C   UNL A   1      42.898  31.504  29.568  1.00  0.00     0.029 A 
ATOM     58  C   UNL A   1      43.880  30.634  29.121  1.00  0.00     0.049 A 
ATOM     59  H   UNL A   1      43.689  28.635  28.472  1.00  0.00     0.167 HD
ATOM     60  C   UNL A   1      46.198  29.952  28.563  1.00  0.00     0.074 A 
ATOM     61  C   UNL A   1      47.620  30.201  28.436  1.00  0.00     0.031 C 
ATOM     62  C   UNL A   1      45.296  30.872  28.984  1.00  0.00     0.037 A 
BRANCH  49  63
ATOM     63  C   UNL A   1      39.459  28.837  29.014  1.00  0.00     0.057 A 
ATOM     64  C   UNL A   1      38.822  28.667  30.252  1.00  0.00     0.134 A 
ATOM     65  C   UNL A   1      38.689  29.340  27.958  1.00  0.00     0.134 A 
ATOM     66  F   UNL A   1      39.497  28.180  31.303  1.00  0.00    -0.206 F 
ATOM     67  C   UNL A   1      37.466  28.952  30.420  1.00  0.00     0.040 A 
ATOM     68  C   UNL A   1      37.340  29.658  28.122  1.00  0.00     0.040 A 
ATOM     69  F   UNL A   1      39.236  29.535  26.748  1.00  0.00    -0.206 F 
ATOM     70  C   UNL A   1      36.722  29.455  29.354  1.00  0.00     0.006 A 
ENDBRANCH  49  63
BRANCH  50  71
ATOM     71  C   UNL A   1      48.935  26.450  27.015  1.00  0.00     0.057 A 
ATOM     72  C   UNL A   1      49.812  25.901  27.957  1.00  0.00     0.134 A 
ATOM     73  C   UNL A   1      49.425  26.652  25.719  1.00  0.00     0.134 A 
ATOM     74  F   UNL A   1      49.408  25.698  29.219  1.00  0.00    -0.206 F 
ATOM     75  C   UNL A   1      51.129  25.577  27.627  1.00  0.00     0.040 A 
ATOM     76  C   UNL A   1      50.731  26.309  25.368  1.00  0.00     0.040 A 
ATOM     77  F   UNL A   1      48.630  27.168  24.768  1.00  0.00    -0.206 F 
ATOM     78  C   UNL A   1      51.589  25.775  26.326  1.00  0.00     0.006 A 
ENDBRANCH  50  71
BRANCH  62  79
ATOM     79  C   UNL A   1      45.820  32.229  29.359  1.00  0.00     0.057 A 
ATOM     80  C   UNL A   1      46.272  32.516  30.653  1.00  0.00     0.134 A 
ATOM     81  C   UNL A   1      45.906  33.250  28.403  1.00  0.00     0.134 A 
ATOM     82  F   UNL A   1      46.206  31.587  31.619  1.00  0.00    -0.206 F 
ATOM     83  C   UNL A   1      46.769  33.777  30.989  1.00  0.00     0.040 A 
ATOM     84  C   UNL A   1      46.428  34.505  28.719  1.00  0.00     0.040 A 
ATOM     85  F   UNL A   1      45.498  33.040  27.143  1.00  0.00    -0.206 F 
ATOM     86  C   UNL A   1      46.855  34.773  30.018  1.00  0.00     0.006 A 
ENDBRANCH  62  79
ENDBRANCH  36  37
ENDBRANCH  28  31
ENDBRANCH  26  27
ENDBRANCH  25  26
ENDBRANCH   1  25
TORSDOF 14
ENDMDL
MODEL 2
REMARK VINA RESULT:     -12.3      0.454      6.071
REMARK SMILES CC[C@H]1SC[C@H](C(=O)NCCCCNC(=O)c2ccc(-c3c4nc(c(-c5c(F)cccc5F)c5ccc([nH]5)c(-c5c(F)cccc5F)c5nc(c(-c6c(F)cccc6F)c6ccc3[nH]6)C=C5)C=C4)cc2)N1C(=O)c1ccc(F)c(F)c1F
REMARK SMILES IDX 11 1 10 2 9 3 7 4 8 5 6 7 3 8 4 9 71 10 5 11 2 12 1 13 72 14
REMARK SMILES IDX 73 15 74 16 75 17 81 18 76 19 79 20 82 21 77 22 80 23 78 24
REMARK SMILES IDX 12 25 13 26 14 27 15 28 16 30 17 31 18 32 70 33 19 34 69 35
REMARK SMILES IDX 20 36 21 37 22 38 63 39 23 40 68 41 62 42 64 43 24 44 67 45
REMARK SMILES IDX 61 46 60 47 25 49 51 50 34 51 50 52 35 53 38 54 49 55 65 56
REMARK SMILES IDX 36 57 37 58 48 60 66 61 39 62 26 63 27 64 32 65 28 66 29 67
REMARK SMILES IDX 31 68 33 69 30 70 52 71 53 72 58 73 54 74 55 75 57 76 59 77
REMARK SMILES IDX 56 78 40 79 41 80 46 81 42 82 43 83 45 84 47 85 44 86
REMARK H PARENT 9 6 14 29 64 48 38 59
REMARK Flexibility Score: inf
ROOT
ATOM      1  C   UNL A   1      36.348  20.330  25.007  1.00  0.00     0.023 C 
ENDROOT
BRANCH   1   2
ATOM      2  C   UNL A   1      36.183  21.687  25.694  1.00  0.00     0.116 C 
BRANCH   2   3
ATOM      3  N   UNL A   1      35.280  21.629  26.832  1.00  0.00    -0.354 N 
ATOM      4  C   UNL A   1      34.127  22.323  27.081  1.00  0.00     0.243 C 
ATOM      5  O   UNL A   1      33.606  22.191  28.191  1.00  0.00    -0.273 OA
ATOM      6  H   UNL A   1      35.540  20.990  27.535  1.00  0.00     0.163 HD
BRANCH   4   7
ATOM      7  C   UNL A   1      33.498  23.194  25.977  1.00  0.00     0.185 C 
ATOM      8  C   UNL A   1      33.320  23.115  23.534  1.00  0.00     0.144 C 
ATOM      9  S   UNL A   1      34.865  24.021  23.810  1.00  0.00    -0.134 SA
ATOM     10  N   UNL A   1      33.068  22.429  24.795  1.00  0.00    -0.314 N 
ATOM     11  C   UNL A   1      34.541  24.247  25.575  1.00  0.00     0.107 C 
BRANCH   8  12
ATOM     12  C   UNL A   1      32.160  24.085  23.219  1.00  0.00     0.033 C 
ATOM     13  C   UNL A   1      32.517  25.188  22.231  1.00  0.00     0.007 C 
ENDBRANCH   8  12
BRANCH  10  14
ATOM     14  C   UNL A   1      32.155  21.402  24.985  1.00  0.00     0.258 C 
ATOM     15  O   UNL A   1      31.072  21.586  25.537  1.00  0.00    -0.269 OA
BRANCH  14  16
ATOM     16  C   UNL A   1      32.409  20.032  24.498  1.00  0.00     0.079 A 
ATOM     17  C   UNL A   1      32.972  19.113  25.402  1.00  0.00     0.020 A 
ATOM     18  C   UNL A   1      32.235  19.667  23.165  1.00  0.00     0.174 A 
ATOM     19  C   UNL A   1      33.301  17.824  24.979  1.00  0.00     0.043 A 
ATOM     20  C   UNL A   1      32.549  18.378  22.751  1.00  0.00     0.195 A 
ATOM     21  F   UNL A   1      31.783  20.548  22.261  1.00  0.00    -0.203 F 
ATOM     22  C   UNL A   1      33.075  17.463  23.656  1.00  0.00     0.161 A 
ATOM     23  F   UNL A   1      32.350  18.017  21.475  1.00  0.00    -0.200 F 
ATOM     24  F   UNL A   1      33.382  16.222  23.256  1.00  0.00    -0.204 F 
ENDBRANCH  14  16
ENDBRANCH  10  14
ENDBRANCH   4   7
ENDBRANCH   2   3
ENDBRANCH   1   2
BRANCH   1  25
ATOM     25  C   UNL A   1      37.788  19.961  24.652  1.00  0.00     0.023 C 
BRANCH  25  26
ATOM     26  C   UNL A   1      38.801  20.208  25.760  1.00  0.00     0.116 C 
BRANCH  26  27
ATOM     27  N   UNL A   1      39.821  19.171  25.833  1.00  0.00    -0.352 N 
ATOM     28  C   UNL A   1      41.166  19.290  26.075  1.00  0.00     0.251 C 
ATOM     29  H   UNL A   1      39.498  18.253  25.687  1.00  0.00     0.163 HD
ATOM     30  O   UNL A   1      41.903  18.315  25.951  1.00  0.00    -0.269 OA
BRANCH  28  31
ATOM     31  C   UNL A   1      41.733  20.601  26.453  1.00  0.00     0.039 A 
ATOM     32  C   UNL A   1      42.184  21.456  25.444  1.00  0.00     0.014 A 
ATOM     33  C   UNL A   1      41.803  20.995  27.792  1.00  0.00     0.014 A 
ATOM     34  C   UNL A   1      42.639  22.734  25.773  1.00  0.00     0.010 A 
ATOM     35  C   UNL A   1      42.179  22.297  28.111  1.00  0.00     0.010 A 
ATOM     36  C   UNL A   1      42.602  23.179  27.105  1.00  0.00    -0.014 A 
BRANCH  36  37
ATOM     37  C   UNL A   1      42.983  24.569  27.460  1.00  0.00     0.031 A 
ATOM     38  C   UNL A   1      44.427  24.989  27.448  1.00  0.00     0.074 A 
ATOM     39  C   UNL A   1      42.035  25.434  27.867  1.00  0.00     0.049 A 
ATOM     40  N   UNL A   1      44.955  26.140  27.779  1.00  0.00    -0.248 NA
ATOM     41  C   UNL A   1      45.408  23.973  27.039  1.00  0.00     0.031 C 
ATOM     42  C   UNL A   1      40.607  25.129  27.985  1.00  0.00     0.029 A 
ATOM     43  N   UNL A   1      42.130  26.742  28.272  1.00  0.00    -0.354 N 
ATOM     44  C   UNL A   1      46.328  25.979  27.637  1.00  0.00     0.074 A 
ATOM     45  C   UNL A   1      46.553  24.606  27.241  1.00  0.00     0.031 C 
ATOM     46  C   UNL A   1      39.958  26.223  28.415  1.00  0.00     0.029 A 
ATOM     47  C   UNL A   1      40.925  27.293  28.639  1.00  0.00     0.049 A 
ATOM     48  H   UNL A   1      42.979  27.238  28.296  1.00  0.00     0.167 HD
ATOM     49  C   UNL A   1      47.309  26.899  27.803  1.00  0.00     0.037 A 
ATOM     50  C   UNL A   1      40.633  28.518  29.114  1.00  0.00     0.037 A 
ATOM     51  C   UNL A   1      47.077  28.270  28.177  1.00  0.00     0.049 A 
ATOM     52  C   UNL A   1      41.736  29.526  29.280  1.00  0.00     0.074 A 
ATOM     53  C   UNL A   1      47.994  29.300  28.286  1.00  0.00     0.029 A 
ATOM     54  N   UNL A   1      45.840  28.799  28.516  1.00  0.00    -0.354 N 
ATOM     55  N   UNL A   1      43.020  29.389  29.051  1.00  0.00    -0.248 NA
ATOM     56  C   UNL A   1      41.349  30.859  29.762  1.00  0.00     0.031 C 
ATOM     57  C   UNL A   1      47.323  30.437  28.748  1.00  0.00     0.029 A 
ATOM     58  C   UNL A   1      45.976  30.133  28.869  1.00  0.00     0.049 A 
ATOM     59  H   UNL A   1      44.991  28.301  28.506  1.00  0.00     0.167 HD
ATOM     60  C   UNL A   1      43.592  30.622  29.340  1.00  0.00     0.074 A 
ATOM     61  C   UNL A   1      42.511  31.498  29.743  1.00  0.00     0.031 C 
ATOM     62  C   UNL A   1      44.893  30.993  29.276  1.00  0.00     0.037 A 
BRANCH  49  63
ATOM     63  C   UNL A   1      48.726  26.445  27.591  1.00  0.00     0.057 A 
ATOM     64  C   UNL A   1      49.526  25.986  28.647  1.00  0.00     0.134 A 
ATOM     65  C   UNL A   1      49.291  26.447  26.310  1.00  0.00     0.134 A 
ATOM     66  F   UNL A   1      49.052  25.967  29.902  1.00  0.00    -0.206 F 
ATOM     67  C   UNL A   1      50.846  25.582  28.441  1.00  0.00     0.040 A 
ATOM     68  C   UNL A   1      50.599  26.015  26.086  1.00  0.00     0.040 A 
ATOM     69  F   UNL A   1      48.580  26.866  25.252  1.00  0.00    -0.206 F 
ATOM     70  C   UNL A   1      51.384  25.590  27.156  1.00  0.00     0.006 A 
ENDBRANCH  49  63
BRANCH  50  71
ATOM     71  C   UNL A   1      39.228  28.860  29.452  1.00  0.00     0.057 A 
ATOM     72  C   UNL A   1      38.712  28.625  30.730  1.00  0.00     0.134 A 
ATOM     73  C   UNL A   1      38.375  29.447  28.509  1.00  0.00     0.134 A 
ATOM     74  F   UNL A   1      39.474  28.050  31.671  1.00  0.00    -0.206 F 
ATOM     75  C   UNL A   1      37.394  28.949  31.057  1.00  0.00     0.040 A 
ATOM     76  C   UNL A   1      37.064  29.800  28.829  1.00  0.00     0.040 A 
ATOM     77  F   UNL A   1      38.814  29.706  27.268  1.00  0.00    -0.206 F 
ATOM     78  C   UNL A   1      36.568  29.545  30.106  1.00  0.00     0.006 A 
ENDBRANCH  50  71
BRANCH  62  79
ATOM     79  C   UNL A   1      45.222  32.416  29.628  1.00  0.00     0.057 A 
ATOM     80  C   UNL A   1      45.606  32.789  30.922  1.00  0.00     0.134 A 
ATOM     81  C   UNL A   1      45.187  33.419  28.650  1.00  0.00     0.134 A 
ATOM     82  F   UNL A   1      45.648  31.880  31.908  1.00  0.00    -0.206 F 
ATOM     83  C   UNL A   1      45.922  34.113  31.236  1.00  0.00     0.040 A 
ATOM     84  C   UNL A   1      45.528  34.739  28.945  1.00  0.00     0.040 A 
ATOM     85  F   UNL A   1      44.835  33.129  27.388  1.00  0.00    -0.206 F 
ATOM     86  C   UNL A   1      45.890  35.091  30.244  1.00  0.00     0.006 A 
ENDBRANCH  62  79
ENDBRANCH  36  37
ENDBRANCH  28  31
ENDBRANCH  26  27
ENDBRANCH  25  26
ENDBRANCH   1  25
TORSDOF 14
ENDMDL
MODEL 3
REMARK VINA RESULT:     -12.2      5.653      9.654
REMARK SMILES CC[C@H]1SC[C@H](C(=O)NCCCCNC(=O)c2ccc(-c3c4nc(c(-c5c(F)cccc5F)c5ccc([nH]5)c(-c5c(F)cccc5F)c5nc(c(-c6c(F)cccc6F)c6ccc3[nH]6)C=C5)C=C4)cc2)N1C(=O)c1ccc(F)c(F)c1F
REMARK SMILES IDX 11 1 10 2 9 3 7 4 8 5 6 7 3 8 4 9 71 10 5 11 2 12 1 13 72 14
REMARK SMILES IDX 73 15 74 16 75 17 81 18 76 19 79 20 82 21 77 22 80 23 78 24
REMARK SMILES IDX 12 25 13 26 14 27 15 28 16 30 17 31 18 32 70 33 19 34 69 35
REMARK SMILES IDX 20 36 21 37 22 38 63 39 23 40 68 41 62 42 64 43 24 44 67 45
REMARK SMILES IDX 61 46 60 47 25 49 51 50 34 51 50 52 35 53 38 54 49 55 65 56
REMARK SMILES IDX 36 57 37 58 48 60 66 61 39 62 26 63 27 64 32 65 28 66 29 67
REMARK SMILES IDX 31 68 33 69 30 70 52 71 53 72 58 73 54 74 55 75 57 76 59 77
REMARK SMILES IDX 56 78 40 79 41 80 46 81 42 82 43 83 45 84 47 85 44 86
REMARK H PARENT 9 6 14 29 64 48 38 59
REMARK Flexibility Score: inf
ROOT
ATOM      1  C   UNL A   1      31.446  30.447  25.551  1.00  0.00     0.023 C 
ENDROOT
BRANCH   1   2
ATOM      2  C   UNL A   1      32.788  29.716  25.594  1.00  0.00     0.116 C 
BRANCH   2   3
ATOM      3  N   UNL A   1      33.403  29.602  24.281  1.00  0.00    -0.354 N 
ATOM      4  C   UNL A   1      33.711  28.492  23.543  1.00  0.00     0.243 C 
ATOM      5  O   UNL A   1      34.357  28.654  22.505  1.00  0.00    -0.273 OA
ATOM      6  H   UNL A   1      33.634  30.460  23.856  1.00  0.00     0.163 HD
BRANCH   4   7
ATOM      7  C   UNL A   1      33.214  27.105  23.993  1.00  0.00     0.185 C 
ATOM      8  C   UNL A   1      31.226  26.202  25.106  1.00  0.00     0.144 C 
ATOM      9  S   UNL A   1      32.328  26.607  26.486  1.00  0.00    -0.134 SA
ATOM     10  N   UNL A   1      31.749  26.971  23.983  1.00  0.00    -0.314 N 
ATOM     11  C   UNL A   1      33.759  26.861  25.409  1.00  0.00     0.107 C 
BRANCH   8  12
ATOM     12  C   UNL A   1      31.277  24.693  24.783  1.00  0.00     0.033 C 
ATOM     13  C   UNL A   1      31.148  23.787  25.999  1.00  0.00     0.007 C 
ENDBRANCH   8  12
BRANCH  10  14
ATOM     14  C   UNL A   1      31.085  27.203  22.787  1.00  0.00     0.258 C 
ATOM     15  O   UNL A   1      31.338  26.565  21.767  1.00  0.00    -0.269 OA
BRANCH  14  16
ATOM     16  C   UNL A   1      30.004  28.200  22.675  1.00  0.00     0.079 A 
ATOM     17  C   UNL A   1      30.342  29.477  22.192  1.00  0.00     0.020 A 
ATOM     18  C   UNL A   1      28.715  27.964  23.146  1.00  0.00     0.174 A 
ATOM     19  C   UNL A   1      29.377  30.484  22.131  1.00  0.00     0.043 A 
ATOM     20  C   UNL A   1      27.752  28.964  23.071  1.00  0.00     0.195 A 
ATOM     21  F   UNL A   1      28.385  26.785  23.694  1.00  0.00    -0.203 F 
ATOM     22  C   UNL A   1      28.083  30.214  22.562  1.00  0.00     0.161 A 
ATOM     23  F   UNL A   1      26.502  28.724  23.494  1.00  0.00    -0.200 F 
ATOM     24  F   UNL A   1      27.157  31.180  22.492  1.00  0.00    -0.204 F 
ENDBRANCH  14  16
ENDBRANCH  10  14
ENDBRANCH   4   7
ENDBRANCH   2   3
ENDBRANCH   1   2
BRANCH   1  25
ATOM     25  C   UNL A   1      31.310  31.597  26.549  1.00  0.00     0.023 C 
BRANCH  25  26
ATOM     26  C   UNL A   1      32.623  32.252  26.951  1.00  0.00     0.116 C 
BRANCH  26  27
ATOM     27  N   UNL A   1      32.466  33.652  27.316  1.00  0.00    -0.352 N 
ATOM     28  C   UNL A   1      33.135  34.384  28.265  1.00  0.00     0.251 C 
ATOM     29  H   UNL A   1      31.781  34.145  26.809  1.00  0.00     0.163 HD
ATOM     30  O   UNL A   1      32.766  35.523  28.539  1.00  0.00    -0.269 OA
BRANCH  28  31
ATOM     31  C   UNL A   1      34.282  33.787  28.980  1.00  0.00     0.039 A 
ATOM     32  C   UNL A   1      34.038  32.819  29.956  1.00  0.00     0.014 A 
ATOM     33  C   UNL A   1      35.594  34.167  28.678  1.00  0.00     0.014 A 
ATOM     34  C   UNL A   1      35.110  32.179  30.579  1.00  0.00     0.010 A 
ATOM     35  C   UNL A   1      36.660  33.471  29.240  1.00  0.00     0.010 A 
ATOM     36  C   UNL A   1      36.430  32.470  30.196  1.00  0.00    -0.014 A 
BRANCH  36  37
ATOM     37  C   UNL A   1      37.578  31.727  30.773  1.00  0.00     0.031 A 
ATOM     38  C   UNL A   1      38.060  32.030  32.165  1.00  0.00     0.074 A 
ATOM     39  C   UNL A   1      38.235  30.829  30.014  1.00  0.00     0.049 A 
ATOM     40  N   UNL A   1      39.077  31.523  32.815  1.00  0.00    -0.248 NA
ATOM     41  C   UNL A   1      37.320  33.057  32.912  1.00  0.00     0.031 C 
ATOM     42  C   UNL A   1      37.907  30.493  28.627  1.00  0.00     0.029 A 
ATOM     43  N   UNL A   1      39.327  30.046  30.296  1.00  0.00    -0.354 N 
ATOM     44  C   UNL A   1      39.110  32.185  34.036  1.00  0.00     0.074 A 
ATOM     45  C   UNL A   1      38.044  33.163  34.016  1.00  0.00     0.031 C 
ATOM     46  C   UNL A   1      38.766  29.561  28.185  1.00  0.00     0.029 A 
ATOM     47  C   UNL A   1      39.727  29.261  29.242  1.00  0.00     0.049 A 
ATOM     48  H   UNL A   1      39.778  30.046  31.170  1.00  0.00     0.167 HD
ATOM     49  C   UNL A   1      39.941  31.980  35.087  1.00  0.00     0.037 A 
ATOM     50  C   UNL A   1      40.760  28.404  29.132  1.00  0.00     0.037 A 
ATOM     51  C   UNL A   1      40.988  30.991  35.109  1.00  0.00     0.049 A 
ATOM     52  C   UNL A   1      41.663  28.185  30.314  1.00  0.00     0.074 A 
ATOM     53  C   UNL A   1      41.825  30.647  36.155  1.00  0.00     0.029 A 
ATOM     54  N   UNL A   1      41.347  30.195  34.032  1.00  0.00    -0.354 N 
ATOM     55  N   UNL A   1      41.624  28.748  31.498  1.00  0.00    -0.248 NA
ATOM     56  C   UNL A   1      42.746  27.207  30.149  1.00  0.00     0.031 C 
ATOM     57  C   UNL A   1      42.730  29.686  35.693  1.00  0.00     0.029 A 
ATOM     58  C   UNL A   1      42.418  29.386  34.377  1.00  0.00     0.049 A 
ATOM     59  H   UNL A   1      40.906  30.204  33.152  1.00  0.00     0.167 HD
ATOM     60  C   UNL A   1      42.662  28.180  32.225  1.00  0.00     0.074 A 
ATOM     61  C   UNL A   1      43.300  27.213  31.354  1.00  0.00     0.031 C 
ATOM     62  C   UNL A   1      43.050  28.433  33.498  1.00  0.00     0.037 A 
BRANCH  49  63
ATOM     63  C   UNL A   1      39.757  32.855  36.294  1.00  0.00     0.057 A 
ATOM     64  C   UNL A   1      38.820  32.556  37.294  1.00  0.00     0.134 A 
ATOM     65  C   UNL A   1      40.541  34.001  36.471  1.00  0.00     0.134 A 
ATOM     66  F   UNL A   1      38.029  31.479  37.185  1.00  0.00    -0.206 F 
ATOM     67  C   UNL A   1      38.647  33.384  38.405  1.00  0.00     0.040 A 
ATOM     68  C   UNL A   1      40.400  34.821  37.592  1.00  0.00     0.040 A 
ATOM     69  F   UNL A   1      41.463  34.344  35.557  1.00  0.00    -0.206 F 
ATOM     70  C   UNL A   1      39.443  34.517  38.559  1.00  0.00     0.006 A 
ENDBRANCH  49  63
BRANCH  50  71
ATOM     71  C   UNL A   1      40.982  27.679  27.856  1.00  0.00     0.057 A 
ATOM     72  C   UNL A   1      41.746  28.240  26.828  1.00  0.00     0.134 A 
ATOM     73  C   UNL A   1      40.451  26.401  27.643  1.00  0.00     0.134 A 
ATOM     74  F   UNL A   1      42.267  29.467  26.965  1.00  0.00    -0.206 F 
ATOM     75  C   UNL A   1      41.965  27.562  25.627  1.00  0.00     0.040 A 
ATOM     76  C   UNL A   1      40.683  25.701  26.458  1.00  0.00     0.040 A 
ATOM     77  F   UNL A   1      39.717  25.805  28.595  1.00  0.00    -0.206 F 
ATOM     78  C   UNL A   1      41.437  26.285  25.443  1.00  0.00     0.006 A 
ENDBRANCH  50  71
BRANCH  62  79
ATOM     79  C   UNL A   1      44.206  27.639  34.037  1.00  0.00     0.057 A 
ATOM     80  C   UNL A   1      45.522  28.114  33.980  1.00  0.00     0.134 A 
ATOM     81  C   UNL A   1      43.992  26.400  34.654  1.00  0.00     0.134 A 
ATOM     82  F   UNL A   1      45.796  29.288  33.391  1.00  0.00    -0.206 F 
ATOM     83  C   UNL A   1      46.587  27.374  34.496  1.00  0.00     0.040 A 
ATOM     84  C   UNL A   1      45.045  25.664  35.200  1.00  0.00     0.040 A 
ATOM     85  F   UNL A   1      42.755  25.890  34.751  1.00  0.00    -0.206 F 
ATOM     86  C   UNL A   1      46.349  26.148  35.114  1.00  0.00     0.006 A 
ENDBRANCH  62  79
ENDBRANCH  36  37
ENDBRANCH  28  31
ENDBRANCH  26  27
ENDBRANCH  25  26
ENDBRANCH   1  25
TORSDOF 14
ENDMDL
