MODEL 1
REMARK VINA RESULT:     -12.5      0.000      0.000
REMARK SMILES O=C(NCCCCNC(=O)c1cccc(Nc2ccc([N+](=O)[O-])cc2)c1)c1ccc(-c2c3nc(c(-c4c(F)cccc4F)c4ccc([nH]4)c(-c4c(F)cccc4F)c4nc(c(-c5c(F)cccc5F)c5ccc2[nH]5)C=C4)C=C3)cc1
REMARK SMILES IDX 6 1 5 2 4 3 3 4 1 5 2 6 27 8 28 9 80 10 29 11 79 12 30 13
REMARK SMILES IDX 31 14 32 15 73 16 33 17 78 18 72 19 74 20 34 21 77 22 71 23
REMARK SMILES IDX 70 24 35 26 61 27 44 28 60 29 45 30 48 31 59 32 75 33 46 34
REMARK SMILES IDX 47 35 58 37 76 38 49 39 36 40 37 41 42 42 38 43 39 44 41 45
REMARK SMILES IDX 43 46 40 47 62 48 63 49 68 50 64 51 65 52 67 53 69 54 66 55
REMARK SMILES IDX 50 56 51 57 56 58 52 59 53 60 55 61 57 62 54 63 7 64 8 65
REMARK SMILES IDX 9 66 10 68 11 69 12 70 26 71 13 72 15 73 14 74 16 75 17 77
REMARK SMILES IDX 18 78 25 79 19 80 24 81 20 82 21 83 22 84 23 85
REMARK H PARENT 3 7 74 25 48 36 8 67 16 76
REMARK Flexibility Score: inf
ROOT
ATOM      1  C   UNL A   1      36.610  20.328  25.024  1.00  0.00     0.023 C 
ENDROOT
BRANCH   1   2
ATOM      2  C   UNL A   1      37.866  19.469  24.908  1.00  0.00     0.023 C 
BRANCH   2   3
ATOM      3  C   UNL A   1      39.073  19.972  25.689  1.00  0.00     0.116 C 
BRANCH   3   4
ATOM      4  N   UNL A   1      40.152  18.999  25.755  1.00  0.00    -0.352 N 
ATOM      5  O   UNL A   1      42.284  18.272  25.887  1.00  0.00    -0.269 OA
ATOM      6  C   UNL A   1      41.489  19.199  26.003  1.00  0.00     0.251 C 
ATOM      7  H   UNL A   1      39.887  18.064  25.602  1.00  0.00     0.163 HD
BRANCH   6   8
ATOM      8  C   UNL A   1      41.973  20.544  26.382  1.00  0.00     0.039 A 
ATOM      9  C   UNL A   1      42.113  20.898  27.725  1.00  0.00     0.014 A 
ATOM     10  C   UNL A   1      42.287  21.463  25.378  1.00  0.00     0.014 A 
ATOM     11  C   UNL A   1      42.421  22.210  28.064  1.00  0.00     0.010 A 
ATOM     12  C   UNL A   1      42.682  22.759  25.720  1.00  0.00     0.010 A 
ATOM     13  C   UNL A   1      42.722  23.152  27.067  1.00  0.00    -0.014 A 
BRANCH  13  14
ATOM     14  C   UNL A   1      43.138  24.520  27.463  1.00  0.00     0.031 A 
ATOM     15  C   UNL A   1      44.573  24.957  27.374  1.00  0.00     0.074 A 
ATOM     16  C   UNL A   1      42.192  25.386  27.875  1.00  0.00     0.049 A 
ATOM     17  N   UNL A   1      45.098  26.121  27.667  1.00  0.00    -0.248 NA
ATOM     18  C   UNL A   1      45.548  23.961  26.904  1.00  0.00     0.031 C 
ATOM     19  C   UNL A   1      40.766  25.072  28.007  1.00  0.00     0.029 A 
ATOM     20  N   UNL A   1      42.277  26.703  28.242  1.00  0.00    -0.354 N 
ATOM     21  C   UNL A   1      46.461  25.996  27.430  1.00  0.00     0.074 A 
ATOM     22  C   UNL A   1      46.688  24.634  26.994  1.00  0.00     0.031 C 
ATOM     23  C   UNL A   1      40.106  26.179  28.374  1.00  0.00     0.029 A 
ATOM     24  C   UNL A   1      41.065  27.260  28.566  1.00  0.00     0.049 A 
ATOM     25  H   UNL A   1      43.125  27.202  28.268  1.00  0.00     0.167 HD
ATOM     26  C   UNL A   1      47.430  26.935  27.557  1.00  0.00     0.037 A 
ATOM     27  C   UNL A   1      40.758  28.501  28.986  1.00  0.00     0.037 A 
ATOM     28  C   UNL A   1      47.196  28.293  27.981  1.00  0.00     0.049 A 
ATOM     29  C   UNL A   1      41.856  29.509  29.150  1.00  0.00     0.074 A 
ATOM     30  C   UNL A   1      48.111  29.324  28.117  1.00  0.00     0.029 A 
ATOM     31  N   UNL A   1      45.959  28.807  28.338  1.00  0.00    -0.354 N 
ATOM     32  N   UNL A   1      43.137  29.379  28.903  1.00  0.00    -0.248 NA
ATOM     33  C   UNL A   1      41.468  30.830  29.657  1.00  0.00     0.031 C 
ATOM     34  C   UNL A   1      47.434  30.450  28.594  1.00  0.00     0.029 A 
ATOM     35  C   UNL A   1      46.091  30.135  28.714  1.00  0.00     0.049 A 
ATOM     36  H   UNL A   1      45.114  28.304  28.327  1.00  0.00     0.167 HD
ATOM     37  C   UNL A   1      43.706  30.607  29.211  1.00  0.00     0.074 A 
ATOM     38  C   UNL A   1      42.628  31.472  29.643  1.00  0.00     0.031 C 
ATOM     39  C   UNL A   1      45.007  30.982  29.144  1.00  0.00     0.037 A 
BRANCH  26  40
ATOM     40  C   UNL A   1      48.841  26.525  27.248  1.00  0.00     0.057 A 
ATOM     41  C   UNL A   1      49.690  25.997  28.230  1.00  0.00     0.134 A 
ATOM     42  C   UNL A   1      49.340  26.610  25.942  1.00  0.00     0.134 A 
ATOM     43  F   UNL A   1      49.278  25.898  29.503  1.00  0.00    -0.206 F 
ATOM     44  C   UNL A   1      50.989  25.583  27.926  1.00  0.00     0.040 A 
ATOM     45  C   UNL A   1      50.628  26.180  25.621  1.00  0.00     0.040 A 
ATOM     46  F   UNL A   1      48.578  27.100  24.953  1.00  0.00    -0.206 F 
ATOM     47  C   UNL A   1      51.459  25.667  26.616  1.00  0.00     0.006 A 
ENDBRANCH  26  40
BRANCH  27  48
ATOM     48  C   UNL A   1      39.347  28.849  29.284  1.00  0.00     0.057 A 
ATOM     49  C   UNL A   1      38.800  28.621  30.551  1.00  0.00     0.134 A 
ATOM     50  C   UNL A   1      38.521  29.432  28.316  1.00  0.00     0.134 A 
ATOM     51  F   UNL A   1      39.539  28.050  31.513  1.00  0.00    -0.206 F 
ATOM     52  C   UNL A   1      37.476  28.952  30.844  1.00  0.00     0.040 A 
ATOM     53  C   UNL A   1      37.204  29.793  28.603  1.00  0.00     0.040 A 
ATOM     54  F   UNL A   1      38.991  29.683  27.086  1.00  0.00    -0.206 F 
ATOM     55  C   UNL A   1      36.677  29.547  29.869  1.00  0.00     0.006 A 
ENDBRANCH  27  48
BRANCH  39  56
ATOM     56  C   UNL A   1      45.325  32.397  29.525  1.00  0.00     0.057 A 
ATOM     57  C   UNL A   1      45.627  32.754  30.845  1.00  0.00     0.134 A 
ATOM     58  C   UNL A   1      45.348  33.408  28.555  1.00  0.00     0.134 A 
ATOM     59  F   UNL A   1      45.604  31.834  31.820  1.00  0.00    -0.206 F 
ATOM     60  C   UNL A   1      45.919  34.074  31.192  1.00  0.00     0.040 A 
ATOM     61  C   UNL A   1      45.663  34.726  28.887  1.00  0.00     0.040 A 
ATOM     62  F   UNL A   1      45.074  33.129  27.273  1.00  0.00    -0.206 F 
ATOM     63  C   UNL A   1      45.943  35.063  30.210  1.00  0.00     0.006 A 
ENDBRANCH  39  56
ENDBRANCH  13  14
ENDBRANCH   6   8
ENDBRANCH   3   4
ENDBRANCH   2   3
ENDBRANCH   1   2
BRANCH   1  64
ATOM     64  C   UNL A   1      36.855  21.833  25.087  1.00  0.00     0.116 C 
BRANCH  64  65
ATOM     65  N   UNL A   1      36.038  22.491  26.093  1.00  0.00    -0.352 N 
ATOM     66  C   UNL A   1      34.774  23.010  25.978  1.00  0.00     0.251 C 
ATOM     67  H   UNL A   1      36.450  22.576  26.983  1.00  0.00     0.163 HD
ATOM     68  O   UNL A   1      34.287  23.668  26.891  1.00  0.00    -0.269 OA
BRANCH  66  69
ATOM     69  C   UNL A   1      34.002  22.786  24.740  1.00  0.00     0.041 A 
ATOM     70  C   UNL A   1      33.882  23.833  23.827  1.00  0.00     0.014 A 
ATOM     71  C   UNL A   1      33.391  21.550  24.497  1.00  0.00     0.039 A 
ATOM     72  C   UNL A   1      33.195  23.618  22.637  1.00  0.00     0.003 A 
ATOM     73  C   UNL A   1      32.705  21.318  23.301  1.00  0.00     0.039 A 
ATOM     74  C   UNL A   1      32.627  22.366  22.373  1.00  0.00     0.026 A 
BRANCH  73  75
ATOM     75  N   UNL A   1      32.165  20.041  23.067  1.00  0.00    -0.356 N 
ATOM     76  H   UNL A   1      31.423  20.017  22.422  1.00  0.00     0.167 HD
BRANCH  75  77
ATOM     77  C   UNL A   1      32.517  18.793  23.607  1.00  0.00     0.039 A 
ATOM     78  C   UNL A   1      33.115  17.840  22.771  1.00  0.00     0.033 A 
ATOM     79  C   UNL A   1      32.388  18.507  24.973  1.00  0.00     0.033 A 
ATOM     80  C   UNL A   1      33.609  16.640  23.289  1.00  0.00     0.088 A 
ATOM     81  C   UNL A   1      32.867  17.306  25.504  1.00  0.00     0.088 A 
ATOM     82  C   UNL A   1      33.494  16.383  24.660  1.00  0.00     0.269 A 
BRANCH  82  83
ATOM     83  N   UNL A   1      34.060  15.149  25.219  1.00  0.00     0.062 N 
ATOM     84  O   UNL A   1      33.277  14.228  25.493  1.00  0.00    -0.258 OA
ATOM     85  O   UNL A   1      35.288  15.098  25.376  1.00  0.00    -0.258 OA
ENDBRANCH  82  83
ENDBRANCH  75  77
ENDBRANCH  73  75
ENDBRANCH  66  69
ENDBRANCH  64  65
ENDBRANCH   1  64
TORSDOF 14
ENDMDL
MODEL 2
REMARK VINA RESULT:     -12.0      1.627      2.272
REMARK SMILES O=C(NCCCCNC(=O)c1cccc(Nc2ccc([N+](=O)[O-])cc2)c1)c1ccc(-c2c3nc(c(-c4c(F)cccc4F)c4ccc([nH]4)c(-c4c(F)cccc4F)c4nc(c(-c5c(F)cccc5F)c5ccc2[nH]5)C=C4)C=C3)cc1
REMARK SMILES IDX 6 1 5 2 4 3 3 4 1 5 2 6 27 8 28 9 80 10 29 11 79 12 30 13
REMARK SMILES IDX 31 14 32 15 73 16 33 17 78 18 72 19 74 20 34 21 77 22 71 23
REMARK SMILES IDX 70 24 35 26 61 27 44 28 60 29 45 30 48 31 59 32 75 33 46 34
REMARK SMILES IDX 47 35 58 37 76 38 49 39 36 40 37 41 42 42 38 43 39 44 41 45
REMARK SMILES IDX 43 46 40 47 62 48 63 49 68 50 64 51 65 52 67 53 69 54 66 55
REMARK SMILES IDX 50 56 51 57 56 58 52 59 53 60 55 61 57 62 54 63 7 64 8 65
REMARK SMILES IDX 9 66 10 68 11 69 12 70 26 71 13 72 15 73 14 74 16 75 17 77
REMARK SMILES IDX 18 78 25 79 19 80 24 81 20 82 21 83 22 84 23 85
REMARK H PARENT 3 7 74 25 48 36 8 67 16 76
REMARK Flexibility Score: inf
ROOT
ATOM      1  C   UNL A   1      38.855  22.332  26.341  1.00  0.00     0.023 C 
ENDROOT
BRANCH   1   2
ATOM      2  C   UNL A   1      39.147  21.047  25.570  1.00  0.00     0.023 C 
BRANCH   2   3
ATOM      3  C   UNL A   1      39.631  19.877  26.417  1.00  0.00     0.116 C 
BRANCH   3   4
ATOM      4  N   UNL A   1      40.831  19.250  25.886  1.00  0.00    -0.352 N 
ATOM      5  O   UNL A   1      42.973  19.131  25.185  1.00  0.00    -0.269 OA
ATOM      6  C   UNL A   1      42.106  19.755  25.789  1.00  0.00     0.251 C 
ATOM      7  H   UNL A   1      40.714  18.333  25.548  1.00  0.00     0.163 HD
BRANCH   6   8
ATOM      8  C   UNL A   1      42.424  21.069  26.388  1.00  0.00     0.039 A 
ATOM      9  C   UNL A   1      42.406  21.241  27.774  1.00  0.00     0.014 A 
ATOM     10  C   UNL A   1      42.740  22.141  25.551  1.00  0.00     0.014 A 
ATOM     11  C   UNL A   1      42.556  22.513  28.312  1.00  0.00     0.010 A 
ATOM     12  C   UNL A   1      42.978  23.404  26.100  1.00  0.00     0.010 A 
ATOM     13  C   UNL A   1      42.857  23.607  27.483  1.00  0.00    -0.014 A 
BRANCH  13  14
ATOM     14  C   UNL A   1      43.103  24.936  28.096  1.00  0.00     0.031 A 
ATOM     15  C   UNL A   1      44.488  25.373  28.482  1.00  0.00     0.074 A 
ATOM     16  C   UNL A   1      42.058  25.767  28.271  1.00  0.00     0.049 A 
ATOM     17  N   UNL A   1      44.874  26.507  29.013  1.00  0.00    -0.248 NA
ATOM     18  C   UNL A   1      45.582  24.417  28.250  1.00  0.00     0.031 C 
ATOM     19  C   UNL A   1      40.666  25.449  27.939  1.00  0.00     0.029 A 
ATOM     20  N   UNL A   1      41.999  27.049  28.752  1.00  0.00    -0.354 N 
ATOM     21  C   UNL A   1      46.247  26.397  29.191  1.00  0.00     0.074 A 
ATOM     22  C   UNL A   1      46.626  25.076  28.735  1.00  0.00     0.031 C 
ATOM     23  C   UNL A   1      39.902  26.523  28.177  1.00  0.00     0.029 A 
ATOM     24  C   UNL A   1      40.733  27.581  28.738  1.00  0.00     0.049 A 
ATOM     25  H   UNL A   1      42.789  27.541  29.074  1.00  0.00     0.167 HD
ATOM     26  C   UNL A   1      47.112  27.319  29.682  1.00  0.00     0.037 A 
ATOM     27  C   UNL A   1      40.287  28.783  29.144  1.00  0.00     0.037 A 
ATOM     28  C   UNL A   1      46.731  28.637  30.123  1.00  0.00     0.049 A 
ATOM     29  C   UNL A   1      41.262  29.770  29.714  1.00  0.00     0.074 A 
ATOM     30  C   UNL A   1      47.539  29.650  30.612  1.00  0.00     0.029 A 
ATOM     31  N   UNL A   1      45.433  29.124  30.129  1.00  0.00    -0.354 N 
ATOM     32  N   UNL A   1      42.560  29.657  29.857  1.00  0.00    -0.248 NA
ATOM     33  C   UNL A   1      40.709  31.045  30.185  1.00  0.00     0.031 C 
ATOM     34  C   UNL A   1      46.724  30.735  30.952  1.00  0.00     0.029 A 
ATOM     35  C   UNL A   1      45.415  30.416  30.634  1.00  0.00     0.049 A 
ATOM     36  H   UNL A   1      44.641  28.627  29.822  1.00  0.00     0.167 HD
ATOM     37  C   UNL A   1      42.982  30.852  30.421  1.00  0.00     0.074 A 
ATOM     38  C   UNL A   1      41.805  31.682  30.575  1.00  0.00     0.031 C 
ATOM     39  C   UNL A   1      44.234  31.227  30.782  1.00  0.00     0.037 A 
BRANCH  26  40
ATOM     40  C   UNL A   1      48.559  26.932  29.782  1.00  0.00     0.057 A 
ATOM     41  C   UNL A   1      49.482  27.253  28.779  1.00  0.00     0.134 A 
ATOM     42  C   UNL A   1      49.046  26.276  30.921  1.00  0.00     0.134 A 
ATOM     43  F   UNL A   1      49.080  27.871  27.658  1.00  0.00    -0.206 F 
ATOM     44  C   UNL A   1      50.834  26.922  28.897  1.00  0.00     0.040 A 
ATOM     45  C   UNL A   1      50.398  25.960  31.060  1.00  0.00     0.040 A 
ATOM     46  F   UNL A   1      48.217  25.946  31.923  1.00  0.00    -0.206 F 
ATOM     47  C   UNL A   1      51.297  26.280  30.044  1.00  0.00     0.006 A 
ENDBRANCH  26  40
BRANCH  27  48
ATOM     48  C   UNL A   1      38.845  29.109  29.028  1.00  0.00     0.057 A 
ATOM     49  C   UNL A   1      37.991  29.007  30.130  1.00  0.00     0.134 A 
ATOM     50  C   UNL A   1      38.292  29.549  27.819  1.00  0.00     0.134 A 
ATOM     51  F   UNL A   1      38.460  28.576  31.311  1.00  0.00    -0.206 F 
ATOM     52  C   UNL A   1      36.634  29.319  30.034  1.00  0.00     0.040 A 
ATOM     53  C   UNL A   1      36.944  29.890  27.714  1.00  0.00     0.040 A 
ATOM     54  F   UNL A   1      39.063  29.676  26.729  1.00  0.00    -0.206 F 
ATOM     55  C   UNL A   1      36.110  29.770  28.823  1.00  0.00     0.006 A 
ENDBRANCH  27  48
BRANCH  39  56
ATOM     56  C   UNL A   1      44.390  32.604  31.355  1.00  0.00     0.057 A 
ATOM     57  C   UNL A   1      44.609  33.721  30.539  1.00  0.00     0.134 A 
ATOM     58  C   UNL A   1      44.300  32.815  32.737  1.00  0.00     0.134 A 
ATOM     59  F   UNL A   1      44.721  33.581  29.210  1.00  0.00    -0.206 F 
ATOM     60  C   UNL A   1      44.756  34.999  31.081  1.00  0.00     0.040 A 
ATOM     61  C   UNL A   1      44.421  34.092  33.287  1.00  0.00     0.040 A 
ATOM     62  F   UNL A   1      44.086  31.787  33.571  1.00  0.00    -0.206 F 
ATOM     63  C   UNL A   1      44.656  35.187  32.458  1.00  0.00     0.006 A 
ENDBRANCH  39  56
ENDBRANCH  13  14
ENDBRANCH   6   8
ENDBRANCH   3   4
ENDBRANCH   2   3
ENDBRANCH   1   2
BRANCH   1  64
ATOM     64  C   UNL A   1      37.642  23.119  25.855  1.00  0.00     0.116 C 
BRANCH  64  65
ATOM     65  N   UNL A   1      37.570  23.196  24.405  1.00  0.00    -0.352 N 
ATOM     66  C   UNL A   1      36.471  23.130  23.587  1.00  0.00     0.251 C 
ATOM     67  H   UNL A   1      38.433  23.311  23.945  1.00  0.00     0.163 HD
ATOM     68  O   UNL A   1      36.606  23.060  22.370  1.00  0.00    -0.269 OA
BRANCH  66  69
ATOM     69  C   UNL A   1      35.120  23.128  24.179  1.00  0.00     0.041 A 
ATOM     70  C   UNL A   1      34.681  24.266  24.853  1.00  0.00     0.014 A 
ATOM     71  C   UNL A   1      34.301  21.996  24.076  1.00  0.00     0.039 A 
ATOM     72  C   UNL A   1      33.392  24.290  25.375  1.00  0.00     0.003 A 
ATOM     73  C   UNL A   1      33.000  22.010  24.587  1.00  0.00     0.039 A 
ATOM     74  C   UNL A   1      32.557  23.176  25.228  1.00  0.00     0.026 A 
BRANCH  73  75
ATOM     75  N   UNL A   1      32.188  20.877  24.402  1.00  0.00    -0.356 N 
ATOM     76  H   UNL A   1      31.277  21.068  24.083  1.00  0.00     0.167 HD
BRANCH  75  77
ATOM     77  C   UNL A   1      32.469  19.516  24.600  1.00  0.00     0.039 A 
ATOM     78  C   UNL A   1      32.734  18.712  23.483  1.00  0.00     0.033 A 
ATOM     79  C   UNL A   1      32.597  18.957  25.879  1.00  0.00     0.033 A 
ATOM     80  C   UNL A   1      33.154  17.388  23.634  1.00  0.00     0.088 A 
ATOM     81  C   UNL A   1      33.006  17.631  26.047  1.00  0.00     0.088 A 
ATOM     82  C   UNL A   1      33.301  16.855  24.920  1.00  0.00     0.269 A 
BRANCH  82  83
ATOM     83  N   UNL A   1      33.796  15.484  25.087  1.00  0.00     0.062 N 
ATOM     84  O   UNL A   1      35.020  15.321  25.190  1.00  0.00    -0.258 OA
ATOM     85  O   UNL A   1      32.960  14.570  25.124  1.00  0.00    -0.258 OA
ENDBRANCH  82  83
ENDBRANCH  75  77
ENDBRANCH  73  75
ENDBRANCH  66  69
ENDBRANCH  64  65
ENDBRANCH   1  64
TORSDOF 14
ENDMDL
MODEL 3
REMARK VINA RESULT:     -11.8      3.671      8.051
REMARK SMILES O=C(NCCCCNC(=O)c1cccc(Nc2ccc([N+](=O)[O-])cc2)c1)c1ccc(-c2c3nc(c(-c4c(F)cccc4F)c4ccc([nH]4)c(-c4c(F)cccc4F)c4nc(c(-c5c(F)cccc5F)c5ccc2[nH]5)C=C4)C=C3)cc1
REMARK SMILES IDX 6 1 5 2 4 3 3 4 1 5 2 6 27 8 28 9 80 10 29 11 79 12 30 13
REMARK SMILES IDX 31 14 32 15 73 16 33 17 78 18 72 19 74 20 34 21 77 22 71 23
REMARK SMILES IDX 70 24 35 26 61 27 44 28 60 29 45 30 48 31 59 32 75 33 46 34
REMARK SMILES IDX 47 35 58 37 76 38 49 39 36 40 37 41 42 42 38 43 39 44 41 45
REMARK SMILES IDX 43 46 40 47 62 48 63 49 68 50 64 51 65 52 67 53 69 54 66 55
REMARK SMILES IDX 50 56 51 57 56 58 52 59 53 60 55 61 57 62 54 63 7 64 8 65
REMARK SMILES IDX 9 66 10 68 11 69 12 70 26 71 13 72 15 73 14 74 16 75 17 77
REMARK SMILES IDX 18 78 25 79 19 80 24 81 20 82 21 83 22 84 23 85
REMARK H PARENT 3 7 74 25 48 36 8 67 16 76
REMARK Flexibility Score: inf
ROOT
ATOM      1  C   UNL A   1      32.637  26.620  25.641  1.00  0.00     0.023 C 
ENDROOT
BRANCH   1   2
ATOM      2  C   UNL A   1      33.190  28.020  25.390  1.00  0.00     0.023 C 
BRANCH   2   3
ATOM      3  C   UNL A   1      34.109  28.560  26.477  1.00  0.00     0.116 C 
BRANCH   3   4
ATOM      4  N   UNL A   1      33.853  29.957  26.795  1.00  0.00    -0.352 N 
ATOM      5  O   UNL A   1      34.130  31.925  27.863  1.00  0.00    -0.269 OA
ATOM      6  C   UNL A   1      34.570  30.811  27.599  1.00  0.00     0.251 C 
ATOM      7  H   UNL A   1      33.053  30.346  26.374  1.00  0.00     0.163 HD
BRANCH   6   8
ATOM      8  C   UNL A   1      35.861  30.372  28.171  1.00  0.00     0.039 A 
ATOM      9  C   UNL A   1      37.057  30.604  27.490  1.00  0.00     0.014 A 
ATOM     10  C   UNL A   1      35.871  29.716  29.405  1.00  0.00     0.014 A 
ATOM     11  C   UNL A   1      38.240  30.052  27.966  1.00  0.00     0.010 A 
ATOM     12  C   UNL A   1      37.076  29.237  29.926  1.00  0.00     0.010 A 
ATOM     13  C   UNL A   1      38.266  29.374  29.195  1.00  0.00    -0.014 A 
BRANCH  13  14
ATOM     14  C   UNL A   1      39.561  28.876  29.722  1.00  0.00     0.031 A 
ATOM     15  C   UNL A   1      40.188  29.478  30.948  1.00  0.00     0.074 A 
ATOM     16  C   UNL A   1      40.155  27.843  29.097  1.00  0.00     0.049 A 
ATOM     17  N   UNL A   1      41.307  29.148  31.546  1.00  0.00    -0.248 NA
ATOM     18  C   UNL A   1      39.476  30.596  31.585  1.00  0.00     0.031 C 
ATOM     19  C   UNL A   1      39.642  27.181  27.894  1.00  0.00     0.029 A 
ATOM     20  N   UNL A   1      41.304  27.155  29.389  1.00  0.00    -0.354 N 
ATOM     21  C   UNL A   1      41.440  30.023  32.617  1.00  0.00     0.074 A 
ATOM     22  C   UNL A   1      40.301  30.916  32.573  1.00  0.00     0.031 C 
ATOM     23  C   UNL A   1      40.444  26.153  27.583  1.00  0.00     0.029 A 
ATOM     24  C   UNL A   1      41.558  26.122  28.521  1.00  0.00     0.049 A 
ATOM     25  H   UNL A   1      41.888  27.378  30.149  1.00  0.00     0.167 HD
ATOM     26  C   UNL A   1      42.419  30.069  33.553  1.00  0.00     0.037 A 
ATOM     27  C   UNL A   1      42.584  25.252  28.475  1.00  0.00     0.037 A 
ATOM     28  C   UNL A   1      43.545  29.170  33.598  1.00  0.00     0.049 A 
ATOM     29  C   UNL A   1      43.670  25.349  29.505  1.00  0.00     0.074 A 
ATOM     30  C   UNL A   1      44.575  29.122  34.521  1.00  0.00     0.029 A 
ATOM     31  N   UNL A   1      43.788  28.161  32.677  1.00  0.00    -0.354 N 
ATOM     32  N   UNL A   1      43.770  26.170  30.522  1.00  0.00    -0.248 NA
ATOM     33  C   UNL A   1      44.787  24.405  29.376  1.00  0.00     0.031 C 
ATOM     34  C   UNL A   1      45.462  28.112  34.138  1.00  0.00     0.029 A 
ATOM     35  C   UNL A   1      44.963  27.500  33.000  1.00  0.00     0.049 A 
ATOM     36  H   UNL A   1      43.212  27.947  31.908  1.00  0.00     0.167 HD
ATOM     37  C   UNL A   1      44.954  25.832  31.163  1.00  0.00     0.074 A 
ATOM     38  C   UNL A   1      45.524  24.720  30.431  1.00  0.00     0.031 C 
ATOM     39  C   UNL A   1      45.517  26.396  32.259  1.00  0.00     0.037 A 
BRANCH  26  40
ATOM     40  C   UNL A   1      42.327  31.138  34.604  1.00  0.00     0.057 A 
ATOM     41  C   UNL A   1      42.887  32.408  34.418  1.00  0.00     0.134 A 
ATOM     42  C   UNL A   1      41.625  30.910  35.795  1.00  0.00     0.134 A 
ATOM     43  F   UNL A   1      43.583  32.688  33.305  1.00  0.00    -0.206 F 
ATOM     44  C   UNL A   1      42.766  33.408  35.385  1.00  0.00     0.040 A 
ATOM     45  C   UNL A   1      41.477  31.909  36.758  1.00  0.00     0.040 A 
ATOM     46  F   UNL A   1      41.058  29.718  36.033  1.00  0.00    -0.206 F 
ATOM     47  C   UNL A   1      42.052  33.162  36.557  1.00  0.00     0.006 A 
ENDBRANCH  26  40
BRANCH  27  48
ATOM     48  C   UNL A   1      42.627  24.221  27.410  1.00  0.00     0.057 A 
ATOM     49  C   UNL A   1      43.196  24.496  26.163  1.00  0.00     0.134 A 
ATOM     50  C   UNL A   1      42.117  22.934  27.620  1.00  0.00     0.134 A 
ATOM     51  F   UNL A   1      43.687  25.716  25.898  1.00  0.00    -0.206 F 
ATOM     52  C   UNL A   1      43.249  23.530  25.156  1.00  0.00     0.040 A 
ATOM     53  C   UNL A   1      42.187  21.951  26.633  1.00  0.00     0.040 A 
ATOM     54  F   UNL A   1      41.567  22.608  28.799  1.00  0.00    -0.206 F 
ATOM     55  C   UNL A   1      42.749  22.251  25.395  1.00  0.00     0.006 A 
ENDBRANCH  27  48
BRANCH  39  56
ATOM     56  C   UNL A   1      46.806  25.798  32.742  1.00  0.00     0.057 A 
ATOM     57  C   UNL A   1      48.043  26.199  32.224  1.00  0.00     0.134 A 
ATOM     58  C   UNL A   1      46.807  24.826  33.751  1.00  0.00     0.134 A 
ATOM     59  F   UNL A   1      48.106  27.113  31.244  1.00  0.00    -0.206 F 
ATOM     60  C   UNL A   1      49.237  25.636  32.676  1.00  0.00     0.040 A 
ATOM     61  C   UNL A   1      47.996  24.275  34.228  1.00  0.00     0.040 A 
ATOM     62  F   UNL A   1      45.655  24.404  34.292  1.00  0.00    -0.206 F 
ATOM     63  C   UNL A   1      49.216  24.675  33.685  1.00  0.00     0.006 A 
ENDBRANCH  39  56
ENDBRANCH  13  14
ENDBRANCH   6   8
ENDBRANCH   3   4
ENDBRANCH   2   3
ENDBRANCH   1   2
BRANCH   1  64
ATOM     64  C   UNL A   1      31.696  26.090  24.563  1.00  0.00     0.116 C 
BRANCH  64  65
ATOM     65  N   UNL A   1      32.252  26.214  23.226  1.00  0.00    -0.352 N 
ATOM     66  C   UNL A   1      33.165  25.413  22.589  1.00  0.00     0.251 C 
ATOM     67  H   UNL A   1      31.926  26.983  22.703  1.00  0.00     0.163 HD
ATOM     68  O   UNL A   1      33.641  25.750  21.510  1.00  0.00    -0.269 OA
BRANCH  66  69
ATOM     69  C   UNL A   1      33.588  24.147  23.216  1.00  0.00     0.041 A 
ATOM     70  C   UNL A   1      34.778  24.123  23.943  1.00  0.00     0.014 A 
ATOM     71  C   UNL A   1      32.815  22.988  23.071  1.00  0.00     0.039 A 
ATOM     72  C   UNL A   1      35.163  22.946  24.575  1.00  0.00     0.003 A 
ATOM     73  C   UNL A   1      33.185  21.801  23.709  1.00  0.00     0.039 A 
ATOM     74  C   UNL A   1      34.363  21.802  24.470  1.00  0.00     0.026 A 
BRANCH  73  75
ATOM     75  N   UNL A   1      32.345  20.679  23.593  1.00  0.00    -0.356 N 
ATOM     76  H   UNL A   1      31.474  20.856  23.170  1.00  0.00     0.167 HD
BRANCH  75  77
ATOM     77  C   UNL A   1      32.550  19.346  23.984  1.00  0.00     0.039 A 
ATOM     78  C   UNL A   1      32.903  18.404  23.009  1.00  0.00     0.033 A 
ATOM     79  C   UNL A   1      32.516  18.948  25.327  1.00  0.00     0.033 A 
ATOM     80  C   UNL A   1      33.252  17.099  23.365  1.00  0.00     0.088 A 
ATOM     81  C   UNL A   1      32.852  17.643  25.698  1.00  0.00     0.088 A 
ATOM     82  C   UNL A   1      33.237  16.726  24.714  1.00  0.00     0.269 A 
BRANCH  82  83
ATOM     83  N   UNL A   1      33.657  15.374  25.100  1.00  0.00     0.062 N 
ATOM     84  O   UNL A   1      32.772  14.523  25.272  1.00  0.00    -0.258 OA
ATOM     85  O   UNL A   1      34.871  15.160  25.222  1.00  0.00    -0.258 OA
ENDBRANCH  82  83
ENDBRANCH  75  77
ENDBRANCH  73  75
ENDBRANCH  66  69
ENDBRANCH  64  65
ENDBRANCH   1  64
TORSDOF 14
ENDMDL
