MODEL 1
REMARK VINA RESULT:     -12.2      0.000      0.000
REMARK SMILES CCNC(=O)c1cccc(-c2ccc(Cl)c(C(=O)NCCCCNC(=O)c3ccc(-c4c5nc(c(-c6c(F)cccc6F)c6ccc([nH]6)c(-c6c(F)cccc6F)c6nc(c(-c7c(F)cccc7F)c7ccc4[nH]7)C=C6)C=C5)cc3)c2)c1
REMARK SMILES IDX 21 1 20 2 19 3 17 4 18 5 16 7 11 8 12 9 81 10 13 11 14 12
REMARK SMILES IDX 15 13 10 14 6 15 7 16 82 17 8 18 9 19 4 20 3 21 5 23 2 24
REMARK SMILES IDX 1 25 22 26 23 27 24 28 25 29 26 31 27 32 28 33 80 34 29 35
REMARK SMILES IDX 79 36 30 37 31 38 32 39 73 40 33 41 78 42 72 43 74 44 34 45
REMARK SMILES IDX 77 46 71 47 70 48 35 50 61 51 44 52 60 53 45 54 48 55 59 56
REMARK SMILES IDX 75 57 46 58 47 59 58 61 76 62 49 63 36 64 37 65 42 66 38 67
REMARK SMILES IDX 39 68 41 69 43 70 40 71 62 72 63 73 68 74 64 75 65 76 67 77
REMARK SMILES IDX 69 78 66 79 50 80 51 81 56 82 52 83 53 84 55 85 57 86 54 87
REMARK H PARENT 19 6 3 22 24 30 74 49 48 60
REMARK Flexibility Score: inf
ROOT
ATOM      1  C   UNL A   1      31.794  30.230  26.857  1.00  0.00     0.023 C 
ENDROOT
BRANCH   1   2
ATOM      2  C   UNL A   1      33.123  29.526  26.625  1.00  0.00     0.116 C 
BRANCH   2   3
ATOM      3  N   UNL A   1      33.599  29.519  25.247  1.00  0.00    -0.352 N 
ATOM      4  C   UNL A   1      33.143  28.851  24.124  1.00  0.00     0.252 C 
ATOM      5  O   UNL A   1      33.642  29.137  23.039  1.00  0.00    -0.269 OA
ATOM      6  H   UNL A   1      34.384  30.091  25.087  1.00  0.00     0.163 HD
BRANCH   4   7
ATOM      7  C   UNL A   1      32.078  27.813  24.214  1.00  0.00     0.059 A 
ATOM      8  C   UNL A   1      31.569  25.417  24.370  1.00  0.00    -0.017 A 
ATOM      9  C   UNL A   1      30.228  25.705  24.095  1.00  0.00     0.010 A 
ATOM     10  C   UNL A   1      32.442  26.503  24.546  1.00  0.00     0.024 A 
ATOM     11  C   UNL A   1      29.806  27.027  23.922  1.00  0.00     0.022 A 
ATOM     12  C   UNL A   1      30.732  28.080  23.942  1.00  0.00     0.053 A 
ATOM     13  Cl  UNL A   1      30.121  29.651  23.568  1.00  0.00    -0.083 Cl
BRANCH   8  14
ATOM     14  C   UNL A   1      32.103  24.042  24.375  1.00  0.00    -0.018 A 
ATOM     15  C   UNL A   1      33.432  22.288  25.437  1.00  0.00     0.040 A 
ATOM     16  C   UNL A   1      33.287  21.475  24.312  1.00  0.00     0.014 A 
ATOM     17  C   UNL A   1      32.886  23.576  25.441  1.00  0.00     0.022 A 
ATOM     18  C   UNL A   1      32.539  21.927  23.228  1.00  0.00     0.001 A 
ATOM     19  C   UNL A   1      31.942  23.192  23.266  1.00  0.00     0.009 A 
BRANCH  15  20
ATOM     20  C   UNL A   1      34.234  21.800  26.581  1.00  0.00     0.251 C 
ATOM     21  N   UNL A   1      35.603  21.733  26.502  1.00  0.00    -0.352 N 
ATOM     22  H   UNL A   1      36.036  21.266  27.253  1.00  0.00     0.163 HD
ATOM     23  O   UNL A   1      33.663  21.453  27.611  1.00  0.00    -0.269 OA
BRANCH  21  24
ATOM     24  C   UNL A   1      36.517  22.240  25.490  1.00  0.00     0.112 C 
ATOM     25  C   UNL A   1      36.829  23.706  25.712  1.00  0.00     0.027 C 
ENDBRANCH  21  24
ENDBRANCH  15  20
ENDBRANCH   8  14
ENDBRANCH   4   7
ENDBRANCH   2   3
ENDBRANCH   1   2
BRANCH   1  26
ATOM     26  C   UNL A   1      31.763  31.733  26.620  1.00  0.00     0.023 C 
BRANCH  26  27
ATOM     27  C   UNL A   1      32.872  32.545  27.278  1.00  0.00     0.116 C 
BRANCH  27  28
ATOM     28  N   UNL A   1      32.489  33.906  27.627  1.00  0.00    -0.352 N 
ATOM     29  C   UNL A   1      33.040  34.773  28.544  1.00  0.00     0.251 C 
ATOM     30  H   UNL A   1      31.717  34.260  27.129  1.00  0.00     0.163 HD
ATOM     31  O   UNL A   1      32.527  35.867  28.741  1.00  0.00    -0.269 OA
BRANCH  29  32
ATOM     32  C   UNL A   1      34.223  34.365  29.334  1.00  0.00     0.039 A 
ATOM     33  C   UNL A   1      34.022  33.780  30.588  1.00  0.00     0.014 A 
ATOM     34  C   UNL A   1      35.517  34.525  28.836  1.00  0.00     0.014 A 
ATOM     35  C   UNL A   1      35.111  33.263  31.294  1.00  0.00     0.010 A 
ATOM     36  C   UNL A   1      36.590  33.938  29.500  1.00  0.00     0.010 A 
ATOM     37  C   UNL A   1      36.397  33.289  30.730  1.00  0.00    -0.014 A 
BRANCH  37  38
ATOM     38  C   UNL A   1      37.548  32.629  31.396  1.00  0.00     0.031 A 
ATOM     39  C   UNL A   1      38.244  31.472  30.735  1.00  0.00     0.074 A 
ATOM     40  C   UNL A   1      37.914  33.016  32.635  1.00  0.00     0.049 A 
ATOM     41  N   UNL A   1      39.200  30.708  31.197  1.00  0.00    -0.248 NA
ATOM     42  C   UNL A   1      37.782  31.108  29.386  1.00  0.00     0.031 C 
ATOM     43  C   UNL A   1      37.285  34.088  33.410  1.00  0.00     0.029 A 
ATOM     44  N   UNL A   1      38.896  32.538  33.468  1.00  0.00    -0.354 N 
ATOM     45  C   UNL A   1      39.438  29.762  30.209  1.00  0.00     0.074 A 
ATOM     46  C   UNL A   1      38.494  30.018  29.143  1.00  0.00     0.031 C 
ATOM     47  C   UNL A   1      37.911  34.201  34.592  1.00  0.00     0.029 A 
ATOM     48  C   UNL A   1      38.957  33.187  34.677  1.00  0.00     0.049 A 
ATOM     49  H   UNL A   1      39.499  31.801  33.221  1.00  0.00     0.167 HD
ATOM     50  C   UNL A   1      40.373  28.783  30.181  1.00  0.00     0.037 A 
ATOM     51  C   UNL A   1      39.761  32.984  35.738  1.00  0.00     0.037 A 
ATOM     52  C   UNL A   1      41.334  28.549  31.227  1.00  0.00     0.049 A 
ATOM     53  C   UNL A   1      40.798  31.898  35.678  1.00  0.00     0.074 A 
ATOM     54  C   UNL A   1      42.363  27.626  31.261  1.00  0.00     0.029 A 
ATOM     55  N   UNL A   1      41.382  29.248  32.424  1.00  0.00    -0.354 N 
ATOM     56  N   UNL A   1      41.056  31.054  34.709  1.00  0.00    -0.248 NA
ATOM     57  C   UNL A   1      41.659  31.738  36.858  1.00  0.00     0.031 C 
ATOM     58  C   UNL A   1      43.014  27.741  32.495  1.00  0.00     0.029 A 
ATOM     59  C   UNL A   1      42.415  28.766  33.210  1.00  0.00     0.049 A 
ATOM     60  H   UNL A   1      40.774  29.980  32.676  1.00  0.00     0.167 HD
ATOM     61  C   UNL A   1      42.123  30.283  35.150  1.00  0.00     0.074 A 
ATOM     62  C   UNL A   1      42.473  30.766  36.469  1.00  0.00     0.031 C 
ATOM     63  C   UNL A   1      42.756  29.264  34.518  1.00  0.00     0.037 A 
BRANCH  50  64
ATOM     64  C   UNL A   1      40.406  27.895  28.972  1.00  0.00     0.057 A 
ATOM     65  C   UNL A   1      41.190  28.204  27.852  1.00  0.00     0.134 A 
ATOM     66  C   UNL A   1      39.669  26.705  28.937  1.00  0.00     0.134 A 
ATOM     67  F   UNL A   1      41.909  29.335  27.818  1.00  0.00    -0.206 F 
ATOM     68  C   UNL A   1      41.217  27.375  26.729  1.00  0.00     0.040 A 
ATOM     69  C   UNL A   1      39.708  25.856  27.830  1.00  0.00     0.040 A 
ATOM     70  F   UNL A   1      38.902  26.347  29.978  1.00  0.00    -0.206 F 
ATOM     71  C   UNL A   1      40.479  26.194  26.719  1.00  0.00     0.006 A 
ENDBRANCH  50  64
BRANCH  51  72
ATOM     72  C   UNL A   1      39.638  33.846  36.940  1.00  0.00     0.057 A 
ATOM     73  C   UNL A   1      38.844  33.457  38.025  1.00  0.00     0.134 A 
ATOM     74  C   UNL A   1      40.299  35.076  37.032  1.00  0.00     0.134 A 
ATOM     75  F   UNL A   1      38.171  32.297  37.986  1.00  0.00    -0.206 F 
ATOM     76  C   UNL A   1      38.697  34.266  39.152  1.00  0.00     0.040 A 
ATOM     77  C   UNL A   1      40.179  35.886  38.163  1.00  0.00     0.040 A 
ATOM     78  F   UNL A   1      41.079  35.503  36.028  1.00  0.00    -0.206 F 
ATOM     79  C   UNL A   1      39.370  35.484  39.224  1.00  0.00     0.006 A 
ENDBRANCH  51  72
BRANCH  63  80
ATOM     80  C   UNL A   1      43.913  28.630  35.230  1.00  0.00     0.057 A 
ATOM     81  C   UNL A   1      43.742  27.533  36.083  1.00  0.00     0.134 A 
ATOM     82  C   UNL A   1      45.218  29.097  35.025  1.00  0.00     0.134 A 
ATOM     83  F   UNL A   1      42.517  27.048  36.331  1.00  0.00    -0.206 F 
ATOM     84  C   UNL A   1      44.829  26.934  36.724  1.00  0.00     0.040 A 
ATOM     85  C   UNL A   1      46.314  28.491  35.640  1.00  0.00     0.040 A 
ATOM     86  F   UNL A   1      45.448  30.138  34.212  1.00  0.00    -0.206 F 
ATOM     87  C   UNL A   1      46.119  27.409  36.497  1.00  0.00     0.006 A 
ENDBRANCH  63  80
ENDBRANCH  37  38
ENDBRANCH  29  32
ENDBRANCH  27  28
ENDBRANCH  26  27
ENDBRANCH   1  26
TORSDOF 14
ENDMDL
MODEL 2
REMARK VINA RESULT:     -12.2      4.281      9.277
REMARK SMILES CCNC(=O)c1cccc(-c2ccc(Cl)c(C(=O)NCCCCNC(=O)c3ccc(-c4c5nc(c(-c6c(F)cccc6F)c6ccc([nH]6)c(-c6c(F)cccc6F)c6nc(c(-c7c(F)cccc7F)c7ccc4[nH]7)C=C6)C=C5)cc3)c2)c1
REMARK SMILES IDX 21 1 20 2 19 3 17 4 18 5 16 7 11 8 12 9 81 10 13 11 14 12
REMARK SMILES IDX 15 13 10 14 6 15 7 16 82 17 8 18 9 19 4 20 3 21 5 23 2 24
REMARK SMILES IDX 1 25 22 26 23 27 24 28 25 29 26 31 27 32 28 33 80 34 29 35
REMARK SMILES IDX 79 36 30 37 31 38 32 39 73 40 33 41 78 42 72 43 74 44 34 45
REMARK SMILES IDX 77 46 71 47 70 48 35 50 61 51 44 52 60 53 45 54 48 55 59 56
REMARK SMILES IDX 75 57 46 58 47 59 58 61 76 62 49 63 36 64 37 65 42 66 38 67
REMARK SMILES IDX 39 68 41 69 43 70 40 71 62 72 63 73 68 74 64 75 65 76 67 77
REMARK SMILES IDX 69 78 66 79 50 80 51 81 56 82 52 83 53 84 55 85 57 86 54 87
REMARK H PARENT 19 6 3 22 24 30 74 49 48 60
REMARK Flexibility Score: inf
ROOT
ATOM      1  C   UNL A   1      37.101  21.451  24.414  1.00  0.00     0.023 C 
ENDROOT
BRANCH   1   2
ATOM      2  C   UNL A   1      36.824  22.542  25.437  1.00  0.00     0.116 C 
BRANCH   2   3
ATOM      3  N   UNL A   1      35.888  22.186  26.497  1.00  0.00    -0.352 N 
ATOM      4  C   UNL A   1      34.522  21.963  26.475  1.00  0.00     0.252 C 
ATOM      5  O   UNL A   1      33.992  21.529  27.494  1.00  0.00    -0.269 OA
ATOM      6  H   UNL A   1      36.300  22.088  27.385  1.00  0.00     0.163 HD
BRANCH   4   7
ATOM      7  C   UNL A   1      33.707  22.236  25.259  1.00  0.00     0.059 A 
ATOM      8  C   UNL A   1      32.406  23.895  24.001  1.00  0.00    -0.017 A 
ATOM      9  C   UNL A   1      31.913  22.866  23.193  1.00  0.00     0.010 A 
ATOM     10  C   UNL A   1      33.395  23.563  24.942  1.00  0.00     0.024 A 
ATOM     11  C   UNL A   1      32.338  21.547  23.383  1.00  0.00     0.022 A 
ATOM     12  C   UNL A   1      33.204  21.221  24.438  1.00  0.00     0.053 A 
ATOM     13  Cl  UNL A   1      33.541  19.543  24.668  1.00  0.00    -0.083 Cl
BRANCH   8  14
ATOM     14  C   UNL A   1      31.857  25.263  23.971  1.00  0.00    -0.018 A 
ATOM     15  C   UNL A   1      32.195  27.684  23.967  1.00  0.00     0.040 A 
ATOM     16  C   UNL A   1      30.821  27.892  24.099  1.00  0.00     0.014 A 
ATOM     17  C   UNL A   1      32.705  26.381  23.954  1.00  0.00     0.022 A 
ATOM     18  C   UNL A   1      29.961  26.798  24.149  1.00  0.00     0.001 A 
ATOM     19  C   UNL A   1      30.474  25.498  24.071  1.00  0.00     0.009 A 
BRANCH  15  20
ATOM     20  C   UNL A   1      33.100  28.853  23.921  1.00  0.00     0.251 C 
ATOM     21  N   UNL A   1      33.502  29.476  25.077  1.00  0.00    -0.352 N 
ATOM     22  H   UNL A   1      33.984  30.324  24.941  1.00  0.00     0.163 HD
ATOM     23  O   UNL A   1      33.495  29.267  22.835  1.00  0.00    -0.269 OA
BRANCH  21  24
ATOM     24  C   UNL A   1      33.332  29.087  26.468  1.00  0.00     0.112 C 
ATOM     25  C   UNL A   1      32.168  29.815  27.107  1.00  0.00     0.027 C 
ENDBRANCH  21  24
ENDBRANCH  15  20
ENDBRANCH   8  14
ENDBRANCH   4   7
ENDBRANCH   2   3
ENDBRANCH   1   2
BRANCH   1  26
ATOM     26  C   UNL A   1      37.842  20.217  24.909  1.00  0.00     0.023 C 
BRANCH  26  27
ATOM     27  C   UNL A   1      38.998  20.462  25.870  1.00  0.00     0.116 C 
BRANCH  27  28
ATOM     28  N   UNL A   1      40.067  19.477  25.779  1.00  0.00    -0.352 N 
ATOM     29  C   UNL A   1      41.407  19.596  26.078  1.00  0.00     0.251 C 
ATOM     30  H   UNL A   1      39.789  18.590  25.456  1.00  0.00     0.163 HD
ATOM     31  O   UNL A   1      42.168  18.660  25.871  1.00  0.00    -0.269 OA
BRANCH  29  32
ATOM     32  C   UNL A   1      41.941  20.873  26.602  1.00  0.00     0.039 A 
ATOM     33  C   UNL A   1      42.400  21.830  25.691  1.00  0.00     0.014 A 
ATOM     34  C   UNL A   1      41.962  21.143  27.971  1.00  0.00     0.014 A 
ATOM     35  C   UNL A   1      42.782  23.093  26.149  1.00  0.00     0.010 A 
ATOM     36  C   UNL A   1      42.264  22.426  28.416  1.00  0.00     0.010 A 
ATOM     37  C   UNL A   1      42.665  23.419  27.509  1.00  0.00    -0.014 A 
BRANCH  37  38
ATOM     38  C   UNL A   1      42.935  24.794  28.003  1.00  0.00     0.031 A 
ATOM     39  C   UNL A   1      44.327  25.195  28.401  1.00  0.00     0.074 A 
ATOM     40  C   UNL A   1      41.911  25.655  28.172  1.00  0.00     0.049 A 
ATOM     41  N   UNL A   1      44.743  26.312  28.942  1.00  0.00    -0.248 NA
ATOM     42  C   UNL A   1      45.388  24.197  28.191  1.00  0.00     0.031 C 
ATOM     43  C   UNL A   1      40.505  25.370  27.876  1.00  0.00     0.029 A 
ATOM     44  N   UNL A   1      41.894  26.941  28.652  1.00  0.00    -0.354 N 
ATOM     45  C   UNL A   1      46.104  26.143  29.156  1.00  0.00     0.074 A 
ATOM     46  C   UNL A   1      46.436  24.800  28.732  1.00  0.00     0.031 C 
ATOM     47  C   UNL A   1      39.767  26.456  28.158  1.00  0.00     0.029 A 
ATOM     48  C   UNL A   1      40.639  27.499  28.691  1.00  0.00     0.049 A 
ATOM     49  H   UNL A   1      42.705  27.419  28.939  1.00  0.00     0.167 HD
ATOM     50  C   UNL A   1      47.002  27.033  29.641  1.00  0.00     0.037 A 
ATOM     51  C   UNL A   1      40.234  28.711  29.114  1.00  0.00     0.037 A 
ATOM     52  C   UNL A   1      46.679  28.380  30.032  1.00  0.00     0.049 A 
ATOM     53  C   UNL A   1      41.252  29.685  29.638  1.00  0.00     0.074 A 
ATOM     54  C   UNL A   1      47.530  29.378  30.472  1.00  0.00     0.029 A 
ATOM     55  N   UNL A   1      45.401  28.917  30.029  1.00  0.00    -0.354 N 
ATOM     56  N   UNL A   1      42.547  29.534  29.772  1.00  0.00    -0.248 NA
ATOM     57  C   UNL A   1      40.753  30.999  30.066  1.00  0.00     0.031 C 
ATOM     58  C   UNL A   1      46.762  30.510  30.768  1.00  0.00     0.029 A 
ATOM     59  C   UNL A   1      45.438  30.228  30.473  1.00  0.00     0.049 A 
ATOM     60  H   UNL A   1      44.587  28.438  29.750  1.00  0.00     0.167 HD
ATOM     61  C   UNL A   1      43.020  30.740  30.273  1.00  0.00     0.074 A 
ATOM     62  C   UNL A   1      41.875  31.616  30.408  1.00  0.00     0.031 C 
ATOM     63  C   UNL A   1      44.290  31.090  30.593  1.00  0.00     0.037 A 
BRANCH  50  64
ATOM     64  C   UNL A   1      48.427  26.577  29.767  1.00  0.00     0.057 A 
ATOM     65  C   UNL A   1      49.365  26.804  28.751  1.00  0.00     0.134 A 
ATOM     66  C   UNL A   1      48.871  25.929  30.925  1.00  0.00     0.134 A 
ATOM     67  F   UNL A   1      48.999  27.409  27.611  1.00  0.00    -0.206 F 
ATOM     68  C   UNL A   1      50.689  26.378  28.872  1.00  0.00     0.040 A 
ATOM     69  C   UNL A   1      50.199  25.521  31.067  1.00  0.00     0.040 A 
ATOM     70  F   UNL A   1      48.026  25.685  31.938  1.00  0.00    -0.206 F 
ATOM     71  C   UNL A   1      51.110  25.739  30.036  1.00  0.00     0.006 A 
ENDBRANCH  50  64
BRANCH  51  72
ATOM     72  C   UNL A   1      38.800  29.086  29.035  1.00  0.00     0.057 A 
ATOM     73  C   UNL A   1      37.971  28.994  30.159  1.00  0.00     0.134 A 
ATOM     74  C   UNL A   1      38.223  29.534  27.841  1.00  0.00     0.134 A 
ATOM     75  F   UNL A   1      38.464  28.553  31.326  1.00  0.00    -0.206 F 
ATOM     76  C   UNL A   1      36.615  29.318  30.096  1.00  0.00     0.040 A 
ATOM     77  C   UNL A   1      36.874  29.883  27.770  1.00  0.00     0.040 A 
ATOM     78  F   UNL A   1      38.966  29.649  26.731  1.00  0.00    -0.206 F 
ATOM     79  C   UNL A   1      36.064  29.769  28.898  1.00  0.00     0.006 A 
ENDBRANCH  51  72
BRANCH  63  80
ATOM     80  C   UNL A   1      44.513  32.488  31.085  1.00  0.00     0.057 A 
ATOM     81  C   UNL A   1      44.754  33.551  30.206  1.00  0.00     0.134 A 
ATOM     82  C   UNL A   1      44.442  32.780  32.453  1.00  0.00     0.134 A 
ATOM     83  F   UNL A   1      44.846  33.333  28.886  1.00  0.00    -0.206 F 
ATOM     84  C   UNL A   1      44.937  34.854  30.673  1.00  0.00     0.040 A 
ATOM     85  C   UNL A   1      44.600  34.083  32.930  1.00  0.00     0.040 A 
ATOM     86  F   UNL A   1      44.206  31.808  33.346  1.00  0.00    -0.206 F 
ATOM     87  C   UNL A   1      44.853  35.123  32.038  1.00  0.00     0.006 A 
ENDBRANCH  63  80
ENDBRANCH  37  38
ENDBRANCH  29  32
ENDBRANCH  27  28
ENDBRANCH  26  27
ENDBRANCH   1  26
TORSDOF 14
ENDMDL
MODEL 3
REMARK VINA RESULT:     -12.2      1.150      6.204
REMARK SMILES CCNC(=O)c1cccc(-c2ccc(Cl)c(C(=O)NCCCCNC(=O)c3ccc(-c4c5nc(c(-c6c(F)cccc6F)c6ccc([nH]6)c(-c6c(F)cccc6F)c6nc(c(-c7c(F)cccc7F)c7ccc4[nH]7)C=C6)C=C5)cc3)c2)c1
REMARK SMILES IDX 21 1 20 2 19 3 17 4 18 5 16 7 11 8 12 9 81 10 13 11 14 12
REMARK SMILES IDX 15 13 10 14 6 15 7 16 82 17 8 18 9 19 4 20 3 21 5 23 2 24
REMARK SMILES IDX 1 25 22 26 23 27 24 28 25 29 26 31 27 32 28 33 80 34 29 35
REMARK SMILES IDX 79 36 30 37 31 38 32 39 73 40 33 41 78 42 72 43 74 44 34 45
REMARK SMILES IDX 77 46 71 47 70 48 35 50 61 51 44 52 60 53 45 54 48 55 59 56
REMARK SMILES IDX 75 57 46 58 47 59 58 61 76 62 49 63 36 64 37 65 42 66 38 67
REMARK SMILES IDX 39 68 41 69 43 70 40 71 62 72 63 73 68 74 64 75 65 76 67 77
REMARK SMILES IDX 69 78 66 79 50 80 51 81 56 82 52 83 53 84 55 85 57 86 54 87
REMARK H PARENT 19 6 3 22 24 30 74 49 48 60
REMARK Flexibility Score: inf
ROOT
ATOM      1  C   UNL A   1      31.709  30.212  26.803  1.00  0.00     0.023 C 
ENDROOT
BRANCH   1   2
ATOM      2  C   UNL A   1      33.047  29.540  26.535  1.00  0.00     0.116 C 
BRANCH   2   3
ATOM      3  N   UNL A   1      33.482  29.536  25.143  1.00  0.00    -0.352 N 
ATOM      4  C   UNL A   1      33.011  28.848  24.039  1.00  0.00     0.252 C 
ATOM      5  O   UNL A   1      33.470  29.139  22.938  1.00  0.00    -0.269 OA
ATOM      6  H   UNL A   1      34.246  30.128  24.956  1.00  0.00     0.163 HD
BRANCH   4   7
ATOM      7  C   UNL A   1      31.979  27.781  24.167  1.00  0.00     0.059 A 
ATOM      8  C   UNL A   1      31.540  25.372  24.339  1.00  0.00    -0.017 A 
ATOM      9  C   UNL A   1      30.183  25.624  24.115  1.00  0.00     0.010 A 
ATOM     10  C   UNL A   1      32.390  26.481  24.483  1.00  0.00     0.024 A 
ATOM     11  C   UNL A   1      29.720  26.934  23.960  1.00  0.00     0.022 A 
ATOM     12  C   UNL A   1      30.617  28.012  23.947  1.00  0.00     0.053 A 
ATOM     13  Cl  UNL A   1      29.950  29.566  23.598  1.00  0.00    -0.083 Cl
BRANCH   8  14
ATOM     14  C   UNL A   1      32.111  24.012  24.322  1.00  0.00    -0.018 A 
ATOM     15  C   UNL A   1      33.517  22.290  25.337  1.00  0.00     0.040 A 
ATOM     16  C   UNL A   1      33.361  21.478  24.213  1.00  0.00     0.014 A 
ATOM     17  C   UNL A   1      32.937  23.563  25.364  1.00  0.00     0.022 A 
ATOM     18  C   UNL A   1      32.572  21.915  23.153  1.00  0.00     0.001 A 
ATOM     19  C   UNL A   1      31.942  23.163  23.214  1.00  0.00     0.009 A 
BRANCH  15  20
ATOM     20  C   UNL A   1      34.363  21.819  26.456  1.00  0.00     0.251 C 
ATOM     21  N   UNL A   1      35.730  21.778  26.334  1.00  0.00    -0.352 N 
ATOM     22  H   UNL A   1      36.196  21.320  27.071  1.00  0.00     0.163 HD
ATOM     23  O   UNL A   1      33.832  21.464  27.504  1.00  0.00    -0.269 OA
BRANCH  21  24
ATOM     24  C   UNL A   1      36.602  22.300  25.293  1.00  0.00     0.112 C 
ATOM     25  C   UNL A   1      37.096  23.691  25.633  1.00  0.00     0.027 C 
ENDBRANCH  21  24
ENDBRANCH  15  20
ENDBRANCH   8  14
ENDBRANCH   4   7
ENDBRANCH   2   3
ENDBRANCH   1   2
BRANCH   1  26
ATOM     26  C   UNL A   1      31.646  31.720  26.601  1.00  0.00     0.023 C 
BRANCH  26  27
ATOM     27  C   UNL A   1      32.828  32.524  27.126  1.00  0.00     0.116 C 
BRANCH  27  28
ATOM     28  N   UNL A   1      32.478  33.849  27.616  1.00  0.00    -0.352 N 
ATOM     29  C   UNL A   1      33.104  34.640  28.554  1.00  0.00     0.251 C 
ATOM     30  H   UNL A   1      31.669  34.241  27.213  1.00  0.00     0.163 HD
ATOM     31  O   UNL A   1      32.613  35.712  28.881  1.00  0.00    -0.269 OA
BRANCH  29  32
ATOM     32  C   UNL A   1      34.348  34.173  29.208  1.00  0.00     0.039 A 
ATOM     33  C   UNL A   1      34.244  33.407  30.373  1.00  0.00     0.014 A 
ATOM     34  C   UNL A   1      35.602  34.457  28.667  1.00  0.00     0.014 A 
ATOM     35  C   UNL A   1      35.391  32.840  30.934  1.00  0.00     0.010 A 
ATOM     36  C   UNL A   1      36.733  33.826  29.178  1.00  0.00     0.010 A 
ATOM     37  C   UNL A   1      36.638  33.001  30.309  1.00  0.00    -0.014 A 
BRANCH  37  38
ATOM     38  C   UNL A   1      37.849  32.301  30.806  1.00  0.00     0.031 A 
ATOM     39  C   UNL A   1      38.612  32.848  31.980  1.00  0.00     0.074 A 
ATOM     40  C   UNL A   1      38.311  31.218  30.148  1.00  0.00     0.049 A 
ATOM     41  N   UNL A   1      39.741  32.436  32.497  1.00  0.00    -0.248 NA
ATOM     42  C   UNL A   1      38.047  34.035  32.639  1.00  0.00     0.031 C 
ATOM     43  C   UNL A   1      37.695  30.619  28.962  1.00  0.00     0.029 A 
ATOM     44  N   UNL A   1      39.418  30.438  30.375  1.00  0.00    -0.354 N 
ATOM     45  C   UNL A   1      40.030  33.322  33.525  1.00  0.00     0.074 A 
ATOM     46  C   UNL A   1      38.986  34.323  33.528  1.00  0.00     0.031 C 
ATOM     47  C   UNL A   1      38.418  29.554  28.581  1.00  0.00     0.029 A 
ATOM     48  C   UNL A   1      39.569  29.417  29.469  1.00  0.00     0.049 A 
ATOM     49  H   UNL A   1      40.044  30.595  31.118  1.00  0.00     0.167 HD
ATOM     50  C   UNL A   1      41.061  33.294  34.404  1.00  0.00     0.037 A 
ATOM     51  C   UNL A   1      40.528  28.479  29.361  1.00  0.00     0.037 A 
ATOM     52  C   UNL A   1      42.082  32.280  34.423  1.00  0.00     0.049 A 
ATOM     53  C   UNL A   1      41.656  28.462  30.355  1.00  0.00     0.074 A 
ATOM     54  C   UNL A   1      43.129  32.127  35.315  1.00  0.00     0.029 A 
ATOM     55  N   UNL A   1      42.183  31.245  33.506  1.00  0.00    -0.354 N 
ATOM     56  N   UNL A   1      41.880  29.268  31.363  1.00  0.00    -0.248 NA
ATOM     57  C   UNL A   1      42.662  27.403  30.197  1.00  0.00     0.031 C 
ATOM     58  C   UNL A   1      43.885  31.019  34.917  1.00  0.00     0.029 A 
ATOM     59  C   UNL A   1      43.283  30.458  33.801  1.00  0.00     0.049 A 
ATOM     60  H   UNL A   1      41.563  31.091  32.757  1.00  0.00     0.167 HD
ATOM     61  C   UNL A   1      43.035  28.799  31.976  1.00  0.00     0.074 A 
ATOM     62  C   UNL A   1      43.458  27.630  31.233  1.00  0.00     0.031 C 
ATOM     63  C   UNL A   1      43.686  29.292  33.057  1.00  0.00     0.037 A 
BRANCH  50  64
ATOM     64  C   UNL A   1      41.128  34.391  35.425  1.00  0.00     0.057 A 
ATOM     65  C   UNL A   1      40.479  34.286  36.663  1.00  0.00     0.134 A 
ATOM     66  C   UNL A   1      41.869  35.553  35.180  1.00  0.00     0.134 A 
ATOM     67  F   UNL A   1      39.742  33.204  36.954  1.00  0.00    -0.206 F 
ATOM     68  C   UNL A   1      40.543  35.310  37.610  1.00  0.00     0.040 A 
ATOM     69  C   UNL A   1      41.961  36.572  36.130  1.00  0.00     0.040 A 
ATOM     70  F   UNL A   1      42.519  35.716  34.018  1.00  0.00    -0.206 F 
ATOM     71  C   UNL A   1      41.291  36.455  37.346  1.00  0.00     0.006 A 
ENDBRANCH  50  64
BRANCH  51  72
ATOM     72  C   UNL A   1      40.453  27.458  28.286  1.00  0.00     0.057 A 
ATOM     73  C   UNL A   1      39.732  26.273  28.468  1.00  0.00     0.134 A 
ATOM     74  C   UNL A   1      41.104  27.635  27.059  1.00  0.00     0.134 A 
ATOM     75  F   UNL A   1      39.104  26.039  29.630  1.00  0.00    -0.206 F 
ATOM     76  C   UNL A   1      39.673  25.292  27.478  1.00  0.00     0.040 A 
ATOM     77  C   UNL A   1      41.035  26.673  26.051  1.00  0.00     0.040 A 
ATOM     78  F   UNL A   1      41.807  28.752  26.820  1.00  0.00    -0.206 F 
ATOM     79  C   UNL A   1      40.323  25.494  26.262  1.00  0.00     0.006 A 
ENDBRANCH  51  72
BRANCH  63  80
ATOM     80  C   UNL A   1      44.903  28.550  33.522  1.00  0.00     0.057 A 
ATOM     81  C   UNL A   1      44.816  27.482  34.423  1.00  0.00     0.134 A 
ATOM     82  C   UNL A   1      46.171  28.882  33.029  1.00  0.00     0.134 A 
ATOM     83  F   UNL A   1      43.633  27.124  34.941  1.00  0.00    -0.206 F 
ATOM     84  C   UNL A   1      45.953  26.782  34.832  1.00  0.00     0.040 A 
ATOM     85  C   UNL A   1      47.311  28.175  33.411  1.00  0.00     0.040 A 
ATOM     86  F   UNL A   1      46.319  29.890  32.156  1.00  0.00    -0.206 F 
ATOM     87  C   UNL A   1      47.203  27.124  34.320  1.00  0.00     0.006 A 
ENDBRANCH  63  80
ENDBRANCH  37  38
ENDBRANCH  29  32
ENDBRANCH  27  28
ENDBRANCH  26  27
ENDBRANCH   1  26
TORSDOF 14
ENDMDL
