MODEL 1
REMARK VINA RESULT:     -12.5      0.000      0.000
REMARK SMILES COc1ccccc1[C@@H]1CN(C(=O)c2cc(C(C)C)nc(N)n2)C[C@H]1C(=O)NCCCCNC(=O)c1ccc(-c2c3nc(c(-c4c(F)cccc4F)c4ccc([nH]4)c(-c4c(F)cccc4F)c4nc(c(-c5c(F)cccc5F)c5ccc2[nH]5)C=C4)C=C3)cc1
REMARK SMILES IDX 30 1 29 2 28 3 26 4 27 5 25 7 9 8 10 9 11 10 24 11 8 12 3 13
REMARK SMILES IDX 4 14 5 15 7 16 6 17 2 18 1 19 12 20 13 21 14 22 15 23 23 24
REMARK SMILES IDX 16 25 21 26 20 27 17 28 18 29 19 30 22 31 31 34 32 35 33 36
REMARK SMILES IDX 34 37 35 39 36 40 37 41 89 42 38 43 88 44 39 45 40 46 41 47
REMARK SMILES IDX 82 48 42 49 87 50 81 51 83 52 43 53 86 54 80 55 79 56 44 58
REMARK SMILES IDX 70 59 53 60 69 61 54 62 57 63 68 64 84 65 55 66 56 67 67 69
REMARK SMILES IDX 85 70 58 71 45 72 46 73 51 74 47 75 48 76 50 77 52 78 49 79
REMARK SMILES IDX 71 80 72 81 77 82 73 83 74 84 76 85 78 86 75 87 59 88 60 89
REMARK SMILES IDX 65 90 61 91 62 92 64 93 66 94 63 95
REMARK H PARENT 28 6 22 32 22 33 33 38 83 57 57 68
REMARK Flexibility Score: inf
ROOT
ATOM      1  C   UNL A   1      34.064  30.928  27.641  1.00  0.00     0.023 C 
ENDROOT
BRANCH   1   2
ATOM      2  C   UNL A   1      33.900  29.562  26.982  1.00  0.00     0.116 C 
BRANCH   2   3
ATOM      3  N   UNL A   1      32.716  28.886  27.472  1.00  0.00    -0.356 N 
ATOM      4  C   UNL A   1      32.000  27.860  26.951  1.00  0.00     0.225 C 
ATOM      5  O   UNL A   1      30.986  27.515  27.564  1.00  0.00    -0.275 OA
ATOM      6  H   UNL A   1      32.372  29.232  28.327  1.00  0.00     0.163 HD
BRANCH   4   7
ATOM      7  C   UNL A   1      32.410  27.135  25.685  1.00  0.00     0.107 C 
ATOM      8  C   UNL A   1      31.767  25.748  25.484  1.00  0.00     0.057 C 
ATOM      9  C   UNL A   1      31.589  25.635  23.969  1.00  0.00     0.129 C 
ATOM     10  N   UNL A   1      31.343  27.011  23.564  1.00  0.00    -0.336 N 
ATOM     11  C   UNL A   1      32.078  27.931  24.419  1.00  0.00     0.134 C 
BRANCH   8  12
ATOM     12  C   UNL A   1      32.444  24.581  26.165  1.00  0.00    -0.000 A 
ATOM     13  C   UNL A   1      31.793  23.631  26.966  1.00  0.00     0.122 A 
ATOM     14  C   UNL A   1      32.514  22.599  27.578  1.00  0.00     0.047 A 
ATOM     15  C   UNL A   1      33.895  22.505  27.413  1.00  0.00     0.004 A 
ATOM     16  C   UNL A   1      33.842  24.463  26.012  1.00  0.00     0.008 A 
ATOM     17  C   UNL A   1      34.562  23.447  26.639  1.00  0.00     0.001 A 
BRANCH  13  18
ATOM     18  O   UNL A   1      30.488  23.774  27.354  1.00  0.00    -0.496 OA
ATOM     19  C   UNL A   1      29.657  22.674  26.999  1.00  0.00     0.278 C 
ENDBRANCH  13  18
ENDBRANCH   8  12
BRANCH  10  20
ATOM     20  C   UNL A   1      30.620  27.469  22.473  1.00  0.00     0.272 C 
ATOM     21  O   UNL A   1      30.999  27.314  21.315  1.00  0.00    -0.267 OA
BRANCH  20  22
ATOM     22  C   UNL A   1      29.373  28.232  22.737  1.00  0.00     0.134 A 
ATOM     23  C   UNL A   1      29.347  29.583  22.468  1.00  0.00     0.058 A 
ATOM     24  N   UNL A   1      28.348  27.534  23.261  1.00  0.00    -0.208 NA
ATOM     25  C   UNL A   1      28.196  30.236  22.843  1.00  0.00     0.049 A 
ATOM     26  C   UNL A   1      27.261  28.244  23.538  1.00  0.00     0.220 A 
ATOM     27  N   UNL A   1      27.148  29.569  23.370  1.00  0.00    -0.218 NA
BRANCH  25  28
ATOM     28  C   UNL A   1      28.063  31.743  22.742  1.00  0.00     0.032 C 
ATOM     29  C   UNL A   1      29.160  32.449  23.545  1.00  0.00     0.014 C 
ATOM     30  C   UNL A   1      28.054  32.221  21.290  1.00  0.00     0.014 C 
ENDBRANCH  25  28
BRANCH  26  31
ATOM     31  N   UNL A   1      26.180  27.578  24.032  1.00  0.00    -0.368 N 
ATOM     32  H   UNL A   1      26.296  26.910  24.745  1.00  0.00     0.159 HD
ATOM     33  H   UNL A   1      25.281  27.765  23.674  1.00  0.00     0.159 HD
ENDBRANCH  26  31
ENDBRANCH  20  22
ENDBRANCH  10  20
ENDBRANCH   4   7
ENDBRANCH   2   3
ENDBRANCH   1   2
BRANCH   1  34
ATOM     34  C   UNL A   1      32.790  31.770  27.649  1.00  0.00     0.023 C 
BRANCH  34  35
ATOM     35  C   UNL A   1      32.934  33.129  26.982  1.00  0.00     0.116 C 
BRANCH  35  36
ATOM     36  N   UNL A   1      32.586  34.225  27.872  1.00  0.00    -0.352 N 
ATOM     37  C   UNL A   1      33.216  34.634  29.019  1.00  0.00     0.251 C 
ATOM     38  H   UNL A   1      31.790  34.744  27.615  1.00  0.00     0.163 HD
ATOM     39  O   UNL A   1      32.697  35.473  29.745  1.00  0.00    -0.269 OA
BRANCH  37  40
ATOM     40  C   UNL A   1      34.513  34.031  29.376  1.00  0.00     0.039 A 
ATOM     41  C   UNL A   1      34.579  33.183  30.480  1.00  0.00     0.014 A 
ATOM     42  C   UNL A   1      35.654  34.297  28.612  1.00  0.00     0.014 A 
ATOM     43  C   UNL A   1      35.790  32.574  30.801  1.00  0.00     0.010 A 
ATOM     44  C   UNL A   1      36.831  33.610  28.873  1.00  0.00     0.010 A 
ATOM     45  C   UNL A   1      36.921  32.770  29.991  1.00  0.00    -0.014 A 
BRANCH  45  46
ATOM     46  C   UNL A   1      38.219  32.148  30.341  1.00  0.00     0.031 A 
ATOM     47  C   UNL A   1      39.095  32.784  31.384  1.00  0.00     0.074 A 
ATOM     48  C   UNL A   1      38.615  31.029  29.707  1.00  0.00     0.049 A 
ATOM     49  N   UNL A   1      40.247  32.379  31.855  1.00  0.00    -0.248 NA
ATOM     50  C   UNL A   1      38.633  34.060  31.954  1.00  0.00     0.031 C 
ATOM     51  C   UNL A   1      37.876  30.352  28.640  1.00  0.00     0.029 A 
ATOM     52  N   UNL A   1      39.735  30.256  29.880  1.00  0.00    -0.354 N 
ATOM     53  C   UNL A   1      40.649  33.355  32.759  1.00  0.00     0.074 A 
ATOM     54  C   UNL A   1      39.656  34.405  32.718  1.00  0.00     0.031 C 
ATOM     55  C   UNL A   1      38.536  29.235  28.291  1.00  0.00     0.029 A 
ATOM     56  C   UNL A   1      39.757  29.138  29.083  1.00  0.00     0.049 A 
ATOM     57  H   UNL A   1      40.454  30.482  30.513  1.00  0.00     0.167 HD
ATOM     58  C   UNL A   1      41.730  33.364  33.574  1.00  0.00     0.037 A 
ATOM     59  C   UNL A   1      40.656  28.139  29.016  1.00  0.00     0.037 A 
ATOM     60  C   UNL A   1      42.699  32.303  33.626  1.00  0.00     0.049 A 
ATOM     61  C   UNL A   1      41.847  28.167  29.934  1.00  0.00     0.074 A 
ATOM     62  C   UNL A   1      43.799  32.178  34.458  1.00  0.00     0.029 A 
ATOM     63  N   UNL A   1      42.689  31.185  32.805  1.00  0.00    -0.354 N 
ATOM     64  N   UNL A   1      42.173  29.052  30.844  1.00  0.00    -0.248 NA
ATOM     65  C   UNL A   1      42.787  27.043  29.824  1.00  0.00     0.031 C 
ATOM     66  C   UNL A   1      44.484  31.012  34.101  1.00  0.00     0.029 A 
ATOM     67  C   UNL A   1      43.776  30.375  33.093  1.00  0.00     0.049 A 
ATOM     68  H   UNL A   1      42.009  30.994  32.119  1.00  0.00     0.167 HD
ATOM     69  C   UNL A   1      43.330  28.572  31.446  1.00  0.00     0.074 A 
ATOM     70  C   UNL A   1      43.642  27.314  30.800  1.00  0.00     0.031 C 
ATOM     71  C   UNL A   1      44.065  29.120  32.446  1.00  0.00     0.037 A 
BRANCH  58  72
ATOM     72  C   UNL A   1      41.916  34.563  34.459  1.00  0.00     0.057 A 
ATOM     73  C   UNL A   1      42.626  35.699  34.039  1.00  0.00     0.134 A 
ATOM     74  C   UNL A   1      41.380  34.585  35.753  1.00  0.00     0.134 A 
ATOM     75  F   UNL A   1      43.180  35.741  32.817  1.00  0.00    -0.206 F 
ATOM     76  C   UNL A   1      42.831  36.789  34.886  1.00  0.00     0.040 A 
ATOM     77  C   UNL A   1      41.549  35.685  36.597  1.00  0.00     0.040 A 
ATOM     78  F   UNL A   1      40.685  33.537  36.220  1.00  0.00    -0.206 F 
ATOM     79  C   UNL A   1      42.286  36.786  36.168  1.00  0.00     0.006 A 
ENDBRANCH  58  72
BRANCH  59  80
ATOM     80  C   UNL A   1      40.434  26.998  28.092  1.00  0.00     0.057 A 
ATOM     81  C   UNL A   1      41.054  26.959  26.836  1.00  0.00     0.134 A 
ATOM     82  C   UNL A   1      39.601  25.927  28.433  1.00  0.00     0.134 A 
ATOM     83  F   UNL A   1      41.852  27.963  26.445  1.00  0.00    -0.206 F 
ATOM     84  C   UNL A   1      40.834  25.908  25.945  1.00  0.00     0.040 A 
ATOM     85  C   UNL A   1      39.394  24.856  27.562  1.00  0.00     0.040 A 
ATOM     86  F   UNL A   1      38.989  25.899  29.626  1.00  0.00    -0.206 F 
ATOM     87  C   UNL A   1      40.005  24.849  26.309  1.00  0.00     0.006 A 
ENDBRANCH  59  80
BRANCH  71  88
ATOM     88  C   UNL A   1      45.241  28.328  32.943  1.00  0.00     0.057 A 
ATOM     89  C   UNL A   1      46.533  28.505  32.434  1.00  0.00     0.134 A 
ATOM     90  C   UNL A   1      45.074  27.382  33.965  1.00  0.00     0.134 A 
ATOM     91  F   UNL A   1      46.761  29.386  31.448  1.00  0.00    -0.206 F 
ATOM     92  C   UNL A   1      47.609  27.742  32.892  1.00  0.00     0.040 A 
ATOM     93  C   UNL A   1      46.148  26.639  34.455  1.00  0.00     0.040 A 
ATOM     94  F   UNL A   1      43.866  27.172  34.509  1.00  0.00    -0.206 F 
ATOM     95  C   UNL A   1      47.418  26.810  33.910  1.00  0.00     0.006 A 
ENDBRANCH  71  88
ENDBRANCH  45  46
ENDBRANCH  37  40
ENDBRANCH  35  36
ENDBRANCH  34  35
ENDBRANCH   1  34
TORSDOF 17
ENDMDL
MODEL 2
REMARK VINA RESULT:     -12.4      2.037      4.541
REMARK SMILES COc1ccccc1[C@@H]1CN(C(=O)c2cc(C(C)C)nc(N)n2)C[C@H]1C(=O)NCCCCNC(=O)c1ccc(-c2c3nc(c(-c4c(F)cccc4F)c4ccc([nH]4)c(-c4c(F)cccc4F)c4nc(c(-c5c(F)cccc5F)c5ccc2[nH]5)C=C4)C=C3)cc1
REMARK SMILES IDX 30 1 29 2 28 3 26 4 27 5 25 7 9 8 10 9 11 10 24 11 8 12 3 13
REMARK SMILES IDX 4 14 5 15 7 16 6 17 2 18 1 19 12 20 13 21 14 22 15 23 23 24
REMARK SMILES IDX 16 25 21 26 20 27 17 28 18 29 19 30 22 31 31 34 32 35 33 36
REMARK SMILES IDX 34 37 35 39 36 40 37 41 89 42 38 43 88 44 39 45 40 46 41 47
REMARK SMILES IDX 82 48 42 49 87 50 81 51 83 52 43 53 86 54 80 55 79 56 44 58
REMARK SMILES IDX 70 59 53 60 69 61 54 62 57 63 68 64 84 65 55 66 56 67 67 69
REMARK SMILES IDX 85 70 58 71 45 72 46 73 51 74 47 75 48 76 50 77 52 78 49 79
REMARK SMILES IDX 71 80 72 81 77 82 73 83 74 84 76 85 78 86 75 87 59 88 60 89
REMARK SMILES IDX 65 90 61 91 62 92 64 93 66 94 63 95
REMARK H PARENT 28 6 22 32 22 33 33 38 83 57 57 68
REMARK Flexibility Score: inf
ROOT
ATOM      1  C   UNL A   1      31.334  30.401  26.024  1.00  0.00     0.023 C 
ENDROOT
BRANCH   1   2
ATOM      2  C   UNL A   1      31.890  29.550  27.162  1.00  0.00     0.116 C 
BRANCH   2   3
ATOM      3  N   UNL A   1      32.950  28.681  26.692  1.00  0.00    -0.356 N 
ATOM      4  C   UNL A   1      32.904  27.438  26.154  1.00  0.00     0.225 C 
ATOM      5  O   UNL A   1      33.984  26.903  25.888  1.00  0.00    -0.275 OA
ATOM      6  H   UNL A   1      33.855  29.057  26.778  1.00  0.00     0.163 HD
BRANCH   4   7
ATOM      7  C   UNL A   1      31.603  26.719  25.861  1.00  0.00     0.107 C 
ATOM      8  C   UNL A   1      31.324  26.445  24.370  1.00  0.00     0.057 C 
ATOM      9  C   UNL A   1      30.584  25.106  24.367  1.00  0.00     0.129 C 
ATOM     10  N   UNL A   1      31.163  24.410  25.506  1.00  0.00    -0.336 N 
ATOM     11  C   UNL A   1      31.518  25.355  26.554  1.00  0.00     0.134 C 
BRANCH   8  12
ATOM     12  C   UNL A   1      30.682  27.564  23.583  1.00  0.00    -0.000 A 
ATOM     13  C   UNL A   1      31.378  28.613  22.963  1.00  0.00     0.122 A 
ATOM     14  C   UNL A   1      30.688  29.620  22.278  1.00  0.00     0.047 A 
ATOM     15  C   UNL A   1      29.296  29.606  22.211  1.00  0.00     0.004 A 
ATOM     16  C   UNL A   1      29.273  27.571  23.500  1.00  0.00     0.008 A 
ATOM     17  C   UNL A   1      28.586  28.587  22.834  1.00  0.00     0.001 A 
BRANCH  13  18
ATOM     18  O   UNL A   1      32.715  28.819  23.163  1.00  0.00    -0.496 OA
ATOM     19  C   UNL A   1      33.550  28.131  22.238  1.00  0.00     0.278 C 
ENDBRANCH  13  18
ENDBRANCH   8  12
BRANCH  10  20
ATOM     20  C   UNL A   1      31.297  23.043  25.699  1.00  0.00     0.272 C 
ATOM     21  O   UNL A   1      30.382  22.341  26.122  1.00  0.00    -0.267 OA
BRANCH  20  22
ATOM     22  C   UNL A   1      32.626  22.432  25.439  1.00  0.00     0.134 A 
ATOM     23  C   UNL A   1      33.711  23.256  25.229  1.00  0.00     0.058 A 
ATOM     24  N   UNL A   1      32.665  21.087  25.396  1.00  0.00    -0.208 NA
ATOM     25  C   UNL A   1      34.879  22.617  24.886  1.00  0.00     0.049 A 
ATOM     26  C   UNL A   1      33.851  20.563  25.110  1.00  0.00     0.220 A 
ATOM     27  N   UNL A   1      34.955  21.270  24.835  1.00  0.00    -0.218 NA
BRANCH  25  28
ATOM     28  C   UNL A   1      36.124  23.385  24.490  1.00  0.00     0.032 C 
ATOM     29  C   UNL A   1      37.213  23.263  25.561  1.00  0.00     0.014 C 
ATOM     30  C   UNL A   1      36.652  22.954  23.121  1.00  0.00     0.014 C 
ENDBRANCH  25  28
BRANCH  26  31
ATOM     31  N   UNL A   1      33.954  19.204  25.095  1.00  0.00    -0.368 N 
ATOM     32  H   UNL A   1      34.370  18.750  24.328  1.00  0.00     0.159 HD
ATOM     33  H   UNL A   1      33.612  18.676  25.853  1.00  0.00     0.159 HD
ENDBRANCH  26  31
ENDBRANCH  20  22
ENDBRANCH  10  20
ENDBRANCH   4   7
ENDBRANCH   2   3
ENDBRANCH   1   2
BRANCH   1  34
ATOM     34  C   UNL A   1      31.204  31.884  26.364  1.00  0.00     0.023 C 
BRANCH  34  35
ATOM     35  C   UNL A   1      32.470  32.510  26.926  1.00  0.00     0.116 C 
BRANCH  35  36
ATOM     36  N   UNL A   1      32.255  33.866  27.404  1.00  0.00    -0.352 N 
ATOM     37  C   UNL A   1      32.939  34.556  28.373  1.00  0.00     0.251 C 
ATOM     38  H   UNL A   1      31.518  34.357  26.974  1.00  0.00     0.163 HD
ATOM     39  O   UNL A   1      32.523  35.635  28.775  1.00  0.00    -0.269 OA
BRANCH  37  40
ATOM     40  C   UNL A   1      34.166  33.965  28.938  1.00  0.00     0.039 A 
ATOM     41  C   UNL A   1      34.064  33.163  30.074  1.00  0.00     0.014 A 
ATOM     42  C   UNL A   1      35.407  34.195  28.337  1.00  0.00     0.014 A 
ATOM     43  C   UNL A   1      35.211  32.564  30.591  1.00  0.00     0.010 A 
ATOM     44  C   UNL A   1      36.529  33.517  28.793  1.00  0.00     0.010 A 
ATOM     45  C   UNL A   1      36.449  32.724  29.946  1.00  0.00    -0.014 A 
BRANCH  45  46
ATOM     46  C   UNL A   1      37.677  32.114  30.505  1.00  0.00     0.031 A 
ATOM     47  C   UNL A   1      38.253  32.639  31.792  1.00  0.00     0.074 A 
ATOM     48  C   UNL A   1      38.282  31.108  29.847  1.00  0.00     0.049 A 
ATOM     49  N   UNL A   1      39.298  32.221  32.461  1.00  0.00    -0.248 NA
ATOM     50  C   UNL A   1      37.587  33.807  32.391  1.00  0.00     0.031 C 
ATOM     51  C   UNL A   1      37.847  30.551  28.565  1.00  0.00     0.029 A 
ATOM     52  N   UNL A   1      39.387  30.365  30.176  1.00  0.00    -0.354 N 
ATOM     53  C   UNL A   1      39.419  33.082  33.545  1.00  0.00     0.074 A 
ATOM     54  C   UNL A   1      38.389  34.087  33.406  1.00  0.00     0.031 C 
ATOM     55  C   UNL A   1      38.645  29.520  28.243  1.00  0.00     0.029 A 
ATOM     56  C   UNL A   1      39.664  29.367  29.276  1.00  0.00     0.049 A 
ATOM     57  H   UNL A   1      39.930  30.533  30.980  1.00  0.00     0.167 HD
ATOM     58  C   UNL A   1      40.289  33.025  34.580  1.00  0.00     0.037 A 
ATOM     59  C   UNL A   1      40.624  28.423  29.294  1.00  0.00     0.037 A 
ATOM     60  C   UNL A   1      41.295  32.007  34.723  1.00  0.00     0.049 A 
ATOM     61  C   UNL A   1      41.576  28.375  30.457  1.00  0.00     0.074 A 
ATOM     62  C   UNL A   1      42.189  31.816  35.763  1.00  0.00     0.029 A 
ATOM     63  N   UNL A   1      41.546  31.011  33.791  1.00  0.00    -0.354 N 
ATOM     64  N   UNL A   1      41.629  29.143  31.519  1.00  0.00    -0.248 NA
ATOM     65  C   UNL A   1      42.593  27.317  30.429  1.00  0.00     0.031 C 
ATOM     66  C   UNL A   1      43.017  30.738  35.433  1.00  0.00     0.029 A 
ATOM     67  C   UNL A   1      42.596  30.215  34.219  1.00  0.00     0.049 A 
ATOM     68  H   UNL A   1      41.050  30.887  32.950  1.00  0.00     0.167 HD
ATOM     69  C   UNL A   1      42.655  28.634  32.307  1.00  0.00     0.074 A 
ATOM     70  C   UNL A   1      43.190  27.488  31.601  1.00  0.00     0.031 C 
ATOM     71  C   UNL A   1      43.109  29.071  33.507  1.00  0.00     0.037 A 
BRANCH  58  72
ATOM     72  C   UNL A   1      40.190  34.101  35.624  1.00  0.00     0.057 A 
ATOM     73  C   UNL A   1      40.862  35.326  35.501  1.00  0.00     0.134 A 
ATOM     74  C   UNL A   1      39.411  33.910  36.773  1.00  0.00     0.134 A 
ATOM     75  F   UNL A   1      41.639  35.571  34.434  1.00  0.00    -0.206 F 
ATOM     76  C   UNL A   1      40.799  36.300  36.498  1.00  0.00     0.040 A 
ATOM     77  C   UNL A   1      39.312  34.892  37.761  1.00  0.00     0.040 A 
ATOM     78  F   UNL A   1      38.736  32.765  36.956  1.00  0.00    -0.206 F 
ATOM     79  C   UNL A   1      40.017  36.086  37.631  1.00  0.00     0.006 A 
ENDBRANCH  58  72
BRANCH  59  80
ATOM     80  C   UNL A   1      40.693  27.409  28.212  1.00  0.00     0.057 A 
ATOM     81  C   UNL A   1      41.481  27.625  27.075  1.00  0.00     0.134 A 
ATOM     82  C   UNL A   1      39.976  26.209  28.282  1.00  0.00     0.134 A 
ATOM     83  F   UNL A   1      42.180  28.762  26.942  1.00  0.00    -0.206 F 
ATOM     84  C   UNL A   1      41.535  26.695  26.035  1.00  0.00     0.040 A 
ATOM     85  C   UNL A   1      40.043  25.258  27.262  1.00  0.00     0.040 A 
ATOM     86  F   UNL A   1      39.213  25.938  29.350  1.00  0.00    -0.206 F 
ATOM     87  C   UNL A   1      40.818  25.504  26.130  1.00  0.00     0.006 A 
ENDBRANCH  59  80
BRANCH  71  88
ATOM     88  C   UNL A   1      44.198  28.268  34.160  1.00  0.00     0.057 A 
ATOM     89  C   UNL A   1      45.555  28.567  33.989  1.00  0.00     0.134 A 
ATOM     90  C   UNL A   1      43.876  27.185  34.991  1.00  0.00     0.134 A 
ATOM     91  F   UNL A   1      45.933  29.584  33.199  1.00  0.00    -0.206 F 
ATOM     92  C   UNL A   1      46.553  27.794  34.584  1.00  0.00     0.040 A 
ATOM     93  C   UNL A   1      44.864  26.427  35.619  1.00  0.00     0.040 A 
ATOM     94  F   UNL A   1      42.595  26.852  35.211  1.00  0.00    -0.206 F 
ATOM     95  C   UNL A   1      46.208  26.724  35.407  1.00  0.00     0.006 A 
ENDBRANCH  71  88
ENDBRANCH  45  46
ENDBRANCH  37  40
ENDBRANCH  35  36
ENDBRANCH  34  35
ENDBRANCH   1  34
TORSDOF 17
ENDMDL
MODEL 3
REMARK VINA RESULT:     -12.2      1.936      7.441
REMARK SMILES COc1ccccc1[C@@H]1CN(C(=O)c2cc(C(C)C)nc(N)n2)C[C@H]1C(=O)NCCCCNC(=O)c1ccc(-c2c3nc(c(-c4c(F)cccc4F)c4ccc([nH]4)c(-c4c(F)cccc4F)c4nc(c(-c5c(F)cccc5F)c5ccc2[nH]5)C=C4)C=C3)cc1
REMARK SMILES IDX 30 1 29 2 28 3 26 4 27 5 25 7 9 8 10 9 11 10 24 11 8 12 3 13
REMARK SMILES IDX 4 14 5 15 7 16 6 17 2 18 1 19 12 20 13 21 14 22 15 23 23 24
REMARK SMILES IDX 16 25 21 26 20 27 17 28 18 29 19 30 22 31 31 34 32 35 33 36
REMARK SMILES IDX 34 37 35 39 36 40 37 41 89 42 38 43 88 44 39 45 40 46 41 47
REMARK SMILES IDX 82 48 42 49 87 50 81 51 83 52 43 53 86 54 80 55 79 56 44 58
REMARK SMILES IDX 70 59 53 60 69 61 54 62 57 63 68 64 84 65 55 66 56 67 67 69
REMARK SMILES IDX 85 70 58 71 45 72 46 73 51 74 47 75 48 76 50 77 52 78 49 79
REMARK SMILES IDX 71 80 72 81 77 82 73 83 74 84 76 85 78 86 75 87 59 88 60 89
REMARK SMILES IDX 65 90 61 91 62 92 64 93 66 94 63 95
REMARK H PARENT 28 6 22 32 22 33 33 38 83 57 57 68
REMARK Flexibility Score: inf
ROOT
ATOM      1  C   UNL A   1      31.413  30.467  25.984  1.00  0.00     0.023 C 
ENDROOT
BRANCH   1   2
ATOM      2  C   UNL A   1      31.900  29.531  27.087  1.00  0.00     0.116 C 
BRANCH   2   3
ATOM      3  N   UNL A   1      32.947  28.656  26.601  1.00  0.00    -0.356 N 
ATOM      4  C   UNL A   1      32.888  27.408  26.076  1.00  0.00     0.225 C 
ATOM      5  O   UNL A   1      33.961  26.868  25.791  1.00  0.00    -0.275 OA
ATOM      6  H   UNL A   1      33.855  29.031  26.664  1.00  0.00     0.163 HD
BRANCH   4   7
ATOM      7  C   UNL A   1      31.579  26.688  25.819  1.00  0.00     0.107 C 
ATOM      8  C   UNL A   1      31.264  26.406  24.337  1.00  0.00     0.057 C 
ATOM      9  C   UNL A   1      30.523  25.068  24.360  1.00  0.00     0.129 C 
ATOM     10  N   UNL A   1      31.129  24.377  25.488  1.00  0.00    -0.336 N 
ATOM     11  C   UNL A   1      31.510  25.329  26.521  1.00  0.00     0.134 C 
BRANCH   8  12
ATOM     12  C   UNL A   1      30.604  27.521  23.559  1.00  0.00    -0.000 A 
ATOM     13  C   UNL A   1      31.282  28.587  22.950  1.00  0.00     0.122 A 
ATOM     14  C   UNL A   1      30.576  29.589  22.273  1.00  0.00     0.047 A 
ATOM     15  C   UNL A   1      29.185  29.552  22.205  1.00  0.00     0.004 A 
ATOM     16  C   UNL A   1      29.195  27.505  23.474  1.00  0.00     0.008 A 
ATOM     17  C   UNL A   1      28.492  28.516  22.818  1.00  0.00     0.001 A 
BRANCH  13  18
ATOM     18  O   UNL A   1      32.616  28.815  23.153  1.00  0.00    -0.496 OA
ATOM     19  C   UNL A   1      33.466  28.101  22.262  1.00  0.00     0.278 C 
ENDBRANCH  13  18
ENDBRANCH   8  12
BRANCH  10  20
ATOM     20  C   UNL A   1      31.267  23.012  25.685  1.00  0.00     0.272 C 
ATOM     21  O   UNL A   1      30.357  22.311  26.121  1.00  0.00    -0.267 OA
BRANCH  20  22
ATOM     22  C   UNL A   1      32.594  22.401  25.413  1.00  0.00     0.134 A 
ATOM     23  C   UNL A   1      33.673  23.225  25.178  1.00  0.00     0.058 A 
ATOM     24  N   UNL A   1      32.636  21.056  25.386  1.00  0.00    -0.208 NA
ATOM     25  C   UNL A   1      34.838  22.585  24.826  1.00  0.00     0.049 A 
ATOM     26  C   UNL A   1      33.819  20.531  25.090  1.00  0.00     0.220 A 
ATOM     27  N   UNL A   1      34.917  21.238  24.790  1.00  0.00    -0.218 NA
BRANCH  25  28
ATOM     28  C   UNL A   1      36.075  23.352  24.402  1.00  0.00     0.032 C 
ATOM     29  C   UNL A   1      37.147  23.319  25.496  1.00  0.00     0.014 C 
ATOM     30  C   UNL A   1      36.634  22.846  23.072  1.00  0.00     0.014 C 
ENDBRANCH  25  28
BRANCH  26  31
ATOM     31  N   UNL A   1      33.926  19.172  25.090  1.00  0.00    -0.368 N 
ATOM     32  H   UNL A   1      33.315  18.631  25.639  1.00  0.00     0.159 HD
ATOM     33  H   UNL A   1      34.614  18.733  24.539  1.00  0.00     0.159 HD
ENDBRANCH  26  31
ENDBRANCH  20  22
ENDBRANCH  10  20
ENDBRANCH   4   7
ENDBRANCH   2   3
ENDBRANCH   1   2
BRANCH   1  34
ATOM     34  C   UNL A   1      31.310  31.929  26.412  1.00  0.00     0.023 C 
BRANCH  34  35
ATOM     35  C   UNL A   1      32.565  32.480  27.070  1.00  0.00     0.116 C 
BRANCH  35  36
ATOM     36  N   UNL A   1      32.404  33.856  27.511  1.00  0.00    -0.352 N 
ATOM     37  C   UNL A   1      33.118  34.544  28.459  1.00  0.00     0.251 C 
ATOM     38  H   UNL A   1      31.686  34.363  27.069  1.00  0.00     0.163 HD
ATOM     39  O   UNL A   1      32.747  35.649  28.832  1.00  0.00    -0.269 OA
BRANCH  37  40
ATOM     40  C   UNL A   1      34.324  33.922  29.037  1.00  0.00     0.039 A 
ATOM     41  C   UNL A   1      35.575  34.302  28.553  1.00  0.00     0.014 A 
ATOM     42  C   UNL A   1      34.213  32.977  30.062  1.00  0.00     0.014 A 
ATOM     43  C   UNL A   1      36.722  33.753  29.122  1.00  0.00     0.010 A 
ATOM     44  C   UNL A   1      35.357  32.510  30.694  1.00  0.00     0.010 A 
ATOM     45  C   UNL A   1      36.622  32.865  30.207  1.00  0.00    -0.014 A 
BRANCH  45  46
ATOM     46  C   UNL A   1      37.835  32.256  30.798  1.00  0.00     0.031 A 
ATOM     47  C   UNL A   1      38.442  31.033  30.167  1.00  0.00     0.074 A 
ATOM     48  C   UNL A   1      38.375  32.788  31.910  1.00  0.00     0.049 A 
ATOM     49  N   UNL A   1      39.518  30.372  30.511  1.00  0.00    -0.248 NA
ATOM     50  C   UNL A   1      37.730  30.457  29.014  1.00  0.00     0.031 C 
ATOM     51  C   UNL A   1      37.845  33.939  32.643  1.00  0.00     0.029 A 
ATOM     52  N   UNL A   1      39.501  32.436  32.611  1.00  0.00    -0.354 N 
ATOM     53  C   UNL A   1      39.599  29.300  29.630  1.00  0.00     0.074 A 
ATOM     54  C   UNL A   1      38.428  29.357  28.784  1.00  0.00     0.031 C 
ATOM     55  C   UNL A   1      38.673  34.232  33.658  1.00  0.00     0.029 A 
ATOM     56  C   UNL A   1      39.771  33.270  33.668  1.00  0.00     0.049 A 
ATOM     57  H   UNL A   1      40.059  31.660  32.379  1.00  0.00     0.167 HD
ATOM     58  C   UNL A   1      40.576  28.370  29.514  1.00  0.00     0.037 A 
ATOM     59  C   UNL A   1      40.800  33.265  34.535  1.00  0.00     0.037 A 
ATOM     60  C   UNL A   1      41.750  28.336  30.343  1.00  0.00     0.049 A 
ATOM     61  C   UNL A   1      41.876  32.226  34.384  1.00  0.00     0.074 A 
ATOM     62  C   UNL A   1      42.833  27.477  30.273  1.00  0.00     0.029 A 
ATOM     63  N   UNL A   1      41.990  29.198  31.404  1.00  0.00    -0.354 N 
ATOM     64  N   UNL A   1      41.986  31.268  33.494  1.00  0.00    -0.248 NA
ATOM     65  C   UNL A   1      42.980  32.279  35.350  1.00  0.00     0.031 C 
ATOM     66  C   UNL A   1      43.701  27.784  31.326  1.00  0.00     0.029 A 
ATOM     67  C   UNL A   1      43.193  28.876  32.012  1.00  0.00     0.049 A 
ATOM     68  H   UNL A   1      41.395  29.929  31.683  1.00  0.00     0.167 HD
ATOM     69  C   UNL A   1      43.192  30.633  33.766  1.00  0.00     0.074 A 
ATOM     70  C   UNL A   1      43.778  31.321  34.898  1.00  0.00     0.031 C 
ATOM     71  C   UNL A   1      43.765  29.580  33.133  1.00  0.00     0.037 A 
BRANCH  58  72
ATOM     72  C   UNL A   1      40.401  27.315  28.458  1.00  0.00     0.057 A 
ATOM     73  C   UNL A   1      41.015  27.406  27.201  1.00  0.00     0.134 A 
ATOM     74  C   UNL A   1      39.603  26.189  28.702  1.00  0.00     0.134 A 
ATOM     75  F   UNL A   1      41.781  28.465  26.893  1.00  0.00    -0.206 F 
ATOM     76  C   UNL A   1      40.809  26.442  26.213  1.00  0.00     0.040 A 
ATOM     77  C   UNL A   1      39.418  25.200  27.734  1.00  0.00     0.040 A 
ATOM     78  F   UNL A   1      38.989  26.032  29.884  1.00  0.00    -0.206 F 
ATOM     79  C   UNL A   1      40.012  25.331  26.481  1.00  0.00     0.006 A 
ENDBRANCH  58  72
BRANCH  59  80
ATOM     80  C   UNL A   1      40.897  34.314  35.582  1.00  0.00     0.057 A 
ATOM     81  C   UNL A   1      40.356  34.110  36.857  1.00  0.00     0.134 A 
ATOM     82  C   UNL A   1      41.524  35.541  35.336  1.00  0.00     0.134 A 
ATOM     83  F   UNL A   1      39.730  32.960  37.148  1.00  0.00    -0.206 F 
ATOM     84  C   UNL A   1      40.414  35.096  37.843  1.00  0.00     0.040 A 
ATOM     85  C   UNL A   1      41.613  36.526  36.322  1.00  0.00     0.040 A 
ATOM     86  F   UNL A   1      42.073  35.794  34.139  1.00  0.00    -0.206 F 
ATOM     87  C   UNL A   1      41.049  36.307  37.578  1.00  0.00     0.006 A 
ENDBRANCH  59  80
BRANCH  71  88
ATOM     88  C   UNL A   1      45.123  29.150  33.612  1.00  0.00     0.057 A 
ATOM     89  C   UNL A   1      45.294  28.169  34.597  1.00  0.00     0.134 A 
ATOM     90  C   UNL A   1      46.280  29.719  33.062  1.00  0.00     0.134 A 
ATOM     91  F   UNL A   1      44.228  27.591  35.173  1.00  0.00    -0.206 F 
ATOM     92  C   UNL A   1      46.563  27.801  35.048  1.00  0.00     0.040 A 
ATOM     93  C   UNL A   1      47.554  29.333  33.479  1.00  0.00     0.040 A 
ATOM     94  F   UNL A   1      46.190  30.654  32.103  1.00  0.00    -0.206 F 
ATOM     95  C   UNL A   1      47.697  28.380  34.483  1.00  0.00     0.006 A 
ENDBRANCH  71  88
ENDBRANCH  45  46
ENDBRANCH  37  40
ENDBRANCH  35  36
ENDBRANCH  34  35
ENDBRANCH   1  34
TORSDOF 17
ENDMDL
