MODEL 1
REMARK VINA RESULT:     -10.9      0.000      0.000
REMARK SMILES CCC[C@@]1(C(=O)NCCCCNC(=O)c2ccc(-c3c4nc(c(-c5c(F)cccc5F)c5ccc([nH]5)c(-c5c(F)cccc5F)c5nc(c(-c6c(F)cccc6F)c6ccc3[nH]6)C=C5)C=C4)cc2)CCN(C(=O)[C@@H]2CC[NH2+][C@@H]2C)C1
REMARK SMILES IDX 9 1 8 2 7 3 5 4 6 5 4 7 69 8 80 9 70 10 71 11 3 12 2 13 1 14
REMARK SMILES IDX 72 15 73 16 74 17 75 18 78 19 76 20 77 21 79 22 10 25 11 26
REMARK SMILES IDX 12 27 13 28 14 30 15 31 16 32 68 33 17 34 67 35 18 36 19 37
REMARK SMILES IDX 20 38 61 39 21 40 66 41 60 42 62 43 22 44 65 45 59 46 58 47
REMARK SMILES IDX 23 49 49 50 32 51 48 52 33 53 36 54 47 55 63 56 34 57 35 58
REMARK SMILES IDX 46 60 64 61 37 62 24 63 25 64 30 65 26 66 27 67 29 68 31 69
REMARK SMILES IDX 28 70 50 71 51 72 56 73 52 74 53 75 55 76 57 77 54 78 38 79
REMARK SMILES IDX 39 80 44 81 40 82 41 83 43 84 45 85 42 86
REMARK H PARENT 7 6 77 23 77 24 12 29 62 48 36 59
REMARK Flexibility Score: inf
ROOT
ATOM      1  C   UNL A   1      38.941  22.399  26.154  1.00  0.00     0.023 C 
ENDROOT
BRANCH   1   2
ATOM      2  C   UNL A   1      37.651  23.186  25.918  1.00  0.00     0.116 C 
BRANCH   2   3
ATOM      3  N   UNL A   1      37.386  23.326  24.498  1.00  0.00    -0.356 N 
ATOM      4  C   UNL A   1      36.334  23.107  23.680  1.00  0.00     0.228 C 
ATOM      5  O   UNL A   1      36.684  22.951  22.502  1.00  0.00    -0.274 OA
ATOM      6  H   UNL A   1      38.170  23.666  24.010  1.00  0.00     0.163 HD
BRANCH   4   7
ATOM      7  C   UNL A   1      34.833  23.053  24.055  1.00  0.00     0.068 C 
ATOM      8  C   UNL A   1      33.809  23.080  22.909  1.00  0.00     0.040 C 
ATOM      9  C   UNL A   1      34.439  24.319  24.855  1.00  0.00     0.136 C 
ATOM     10  C   UNL A   1      33.526  24.549  22.658  1.00  0.00     0.120 C 
ATOM     11  N   UNL A   1      33.637  25.157  23.956  1.00  0.00    -0.341 N 
BRANCH   7  12
ATOM     12  C   UNL A   1      34.532  21.745  24.865  1.00  0.00     0.018 C 
BRANCH  12  13
ATOM     13  C   UNL A   1      33.540  20.694  24.351  1.00  0.00    -0.002 C 
ATOM     14  C   UNL A   1      32.192  20.644  25.049  1.00  0.00     0.004 C 
ENDBRANCH  12  13
ENDBRANCH   7  12
BRANCH  11  15
ATOM     15  C   UNL A   1      33.100  26.342  24.396  1.00  0.00     0.231 C 
ATOM     16  O   UNL A   1      31.872  26.447  24.522  1.00  0.00    -0.274 OA
BRANCH  15  17
ATOM     17  C   UNL A   1      33.967  27.521  24.869  1.00  0.00     0.142 C 
ATOM     18  C   UNL A   1      33.704  28.182  26.216  1.00  0.00     0.081 C 
ATOM     19  C   UNL A   1      34.010  28.703  23.900  1.00  0.00     0.192 C 
ATOM     20  C   UNL A   1      33.153  29.572  25.899  1.00  0.00     0.261 C 
ATOM     21  N   UNL A   1      33.024  29.647  24.444  1.00  0.00    -0.343 N 
ATOM     22  C   UNL A   1      33.766  28.393  22.431  1.00  0.00     0.076 C 
ATOM     23  H   UNL A   1      33.223  30.593  24.119  1.00  0.00     0.346 HD
ATOM     24  H   UNL A   1      32.079  29.415  24.140  1.00  0.00     0.346 HD
ENDBRANCH  15  17
ENDBRANCH  11  15
ENDBRANCH   4   7
ENDBRANCH   2   3
ENDBRANCH   1   2
BRANCH   1  25
ATOM     25  C   UNL A   1      39.018  21.061  25.417  1.00  0.00     0.023 C 
BRANCH  25  26
ATOM     26  C   UNL A   1      39.439  19.881  26.280  1.00  0.00     0.116 C 
BRANCH  26  27
ATOM     27  N   UNL A   1      40.650  19.229  25.806  1.00  0.00    -0.352 N 
ATOM     28  C   UNL A   1      41.936  19.714  25.784  1.00  0.00     0.251 C 
ATOM     29  H   UNL A   1      40.532  18.318  25.453  1.00  0.00     0.163 HD
ATOM     30  O   UNL A   1      42.827  19.081  25.236  1.00  0.00    -0.269 OA
BRANCH  28  31
ATOM     31  C   UNL A   1      42.228  21.027  26.401  1.00  0.00     0.039 A 
ATOM     32  C   UNL A   1      42.586  22.093  25.573  1.00  0.00     0.014 A 
ATOM     33  C   UNL A   1      42.137  21.209  27.784  1.00  0.00     0.014 A 
ATOM     34  C   UNL A   1      42.806  23.355  26.130  1.00  0.00     0.010 A 
ATOM     35  C   UNL A   1      42.270  22.483  28.325  1.00  0.00     0.010 A 
ATOM     36  C   UNL A   1      42.626  23.565  27.507  1.00  0.00    -0.014 A 
BRANCH  36  37
ATOM     37  C   UNL A   1      42.847  24.900  28.113  1.00  0.00     0.031 A 
ATOM     38  C   UNL A   1      44.221  25.292  28.584  1.00  0.00     0.074 A 
ATOM     39  C   UNL A   1      41.807  25.740  28.283  1.00  0.00     0.049 A 
ATOM     40  N   UNL A   1      44.614  26.399  29.163  1.00  0.00    -0.248 NA
ATOM     41  C   UNL A   1      45.292  24.296  28.412  1.00  0.00     0.031 C 
ATOM     42  C   UNL A   1      40.415  25.449  27.934  1.00  0.00     0.029 A 
ATOM     43  N   UNL A   1      41.760  27.009  28.800  1.00  0.00    -0.354 N 
ATOM     44  C   UNL A   1      45.963  26.220  29.443  1.00  0.00     0.074 A 
ATOM     45  C   UNL A   1      46.310  24.880  29.023  1.00  0.00     0.031 C 
ATOM     46  C   UNL A   1      39.657  26.520  28.220  1.00  0.00     0.029 A 
ATOM     47  C   UNL A   1      40.503  27.562  28.793  1.00  0.00     0.049 A 
ATOM     48  H   UNL A   1      42.554  27.481  29.144  1.00  0.00     0.167 HD
ATOM     49  C   UNL A   1      46.843  27.103  29.972  1.00  0.00     0.037 A 
ATOM     50  C   UNL A   1      40.084  28.776  29.195  1.00  0.00     0.037 A 
ATOM     51  C   UNL A   1      46.505  28.450  30.346  1.00  0.00     0.049 A 
ATOM     52  C   UNL A   1      41.091  29.758  29.728  1.00  0.00     0.074 A 
ATOM     53  C   UNL A   1      47.336  29.446  30.829  1.00  0.00     0.029 A 
ATOM     54  N   UNL A   1      45.232  28.992  30.270  1.00  0.00    -0.354 N 
ATOM     55  N   UNL A   1      42.380  29.602  29.913  1.00  0.00    -0.248 NA
ATOM     56  C   UNL A   1      40.589  31.090  30.089  1.00  0.00     0.031 C 
ATOM     57  C   UNL A   1      46.558  30.582  31.074  1.00  0.00     0.029 A 
ATOM     58  C   UNL A   1      45.251  30.306  30.703  1.00  0.00     0.049 A 
ATOM     59  H   UNL A   1      44.431  28.512  29.955  1.00  0.00     0.167 HD
ATOM     60  C   UNL A   1      42.847  30.824  30.381  1.00  0.00     0.074 A 
ATOM     61  C   UNL A   1      41.706  31.714  30.434  1.00  0.00     0.031 C 
ATOM     62  C   UNL A   1      44.107  31.179  30.736  1.00  0.00     0.037 A 
BRANCH  49  63
ATOM     63  C   UNL A   1      48.258  26.639  30.162  1.00  0.00     0.057 A 
ATOM     64  C   UNL A   1      49.247  26.870  29.197  1.00  0.00     0.134 A 
ATOM     65  C   UNL A   1      48.643  25.979  31.336  1.00  0.00     0.134 A 
ATOM     66  F   UNL A   1      48.941  27.483  28.043  1.00  0.00    -0.206 F 
ATOM     67  C   UNL A   1      50.562  26.438  29.380  1.00  0.00     0.040 A 
ATOM     68  C   UNL A   1      49.960  25.567  31.542  1.00  0.00     0.040 A 
ATOM     69  F   UNL A   1      47.747  25.729  32.302  1.00  0.00    -0.206 F 
ATOM     70  C   UNL A   1      50.922  25.790  30.559  1.00  0.00     0.006 A 
ENDBRANCH  49  63
BRANCH  50  71
ATOM     71  C   UNL A   1      38.654  29.152  29.069  1.00  0.00     0.057 A 
ATOM     72  C   UNL A   1      38.128  29.591  27.848  1.00  0.00     0.134 A 
ATOM     73  C   UNL A   1      37.785  29.103  30.165  1.00  0.00     0.134 A 
ATOM     74  F   UNL A   1      38.914  29.675  26.765  1.00  0.00    -0.206 F 
ATOM     75  C   UNL A   1      36.796  29.992  27.726  1.00  0.00     0.040 A 
ATOM     76  C   UNL A   1      36.445  29.478  30.053  1.00  0.00     0.040 A 
ATOM     77  F   UNL A   1      38.226  28.683  31.360  1.00  0.00    -0.206 F 
ATOM     78  C   UNL A   1      35.949  29.933  28.831  1.00  0.00     0.006 A 
ENDBRANCH  50  71
BRANCH  62  79
ATOM     79  C   UNL A   1      44.318  32.600  31.167  1.00  0.00     0.057 A 
ATOM     80  C   UNL A   1      44.619  33.616  30.250  1.00  0.00     0.134 A 
ATOM     81  C   UNL A   1      44.198  32.957  32.515  1.00  0.00     0.134 A 
ATOM     82  F   UNL A   1      44.758  33.336  28.945  1.00  0.00    -0.206 F 
ATOM     83  C   UNL A   1      44.828  34.932  30.666  1.00  0.00     0.040 A 
ATOM     84  C   UNL A   1      44.378  34.275  32.939  1.00  0.00     0.040 A 
ATOM     85  F   UNL A   1      43.901  32.034  33.442  1.00  0.00    -0.206 F 
ATOM     86  C   UNL A   1      44.702  35.264  32.013  1.00  0.00     0.006 A 
ENDBRANCH  62  79
ENDBRANCH  36  37
ENDBRANCH  28  31
ENDBRANCH  26  27
ENDBRANCH  25  26
ENDBRANCH   1  25
TORSDOF 15
ENDMDL
MODEL 2
REMARK VINA RESULT:     -10.8      1.221      6.432
REMARK SMILES CCC[C@@]1(C(=O)NCCCCNC(=O)c2ccc(-c3c4nc(c(-c5c(F)cccc5F)c5ccc([nH]5)c(-c5c(F)cccc5F)c5nc(c(-c6c(F)cccc6F)c6ccc3[nH]6)C=C5)C=C4)cc2)CCN(C(=O)[C@@H]2CC[NH2+][C@@H]2C)C1
REMARK SMILES IDX 9 1 8 2 7 3 5 4 6 5 4 7 69 8 80 9 70 10 71 11 3 12 2 13 1 14
REMARK SMILES IDX 72 15 73 16 74 17 75 18 78 19 76 20 77 21 79 22 10 25 11 26
REMARK SMILES IDX 12 27 13 28 14 30 15 31 16 32 68 33 17 34 67 35 18 36 19 37
REMARK SMILES IDX 20 38 61 39 21 40 66 41 60 42 62 43 22 44 65 45 59 46 58 47
REMARK SMILES IDX 23 49 49 50 32 51 48 52 33 53 36 54 47 55 63 56 34 57 35 58
REMARK SMILES IDX 46 60 64 61 37 62 24 63 25 64 30 65 26 66 27 67 29 68 31 69
REMARK SMILES IDX 28 70 50 71 51 72 56 73 52 74 53 75 55 76 57 77 54 78 38 79
REMARK SMILES IDX 39 80 44 81 40 82 41 83 43 84 45 85 42 86
REMARK H PARENT 7 6 77 23 77 24 12 29 62 48 36 59
REMARK Flexibility Score: inf
ROOT
ATOM      1  C   UNL A   1      36.301  20.290  24.985  1.00  0.00     0.023 C 
ENDROOT
BRANCH   1   2
ATOM      2  C   UNL A   1      36.335  21.610  25.757  1.00  0.00     0.116 C 
BRANCH   2   3
ATOM      3  N   UNL A   1      35.256  21.669  26.724  1.00  0.00    -0.356 N 
ATOM      4  C   UNL A   1      34.047  22.266  26.796  1.00  0.00     0.228 C 
ATOM      5  O   UNL A   1      33.658  22.396  27.965  1.00  0.00    -0.274 OA
ATOM      6  H   UNL A   1      35.455  21.141  27.530  1.00  0.00     0.163 HD
BRANCH   4   7
ATOM      7  C   UNL A   1      33.158  22.755  25.626  1.00  0.00     0.068 C 
ATOM      8  C   UNL A   1      33.856  23.131  24.308  1.00  0.00     0.040 C 
ATOM      9  C   UNL A   1      32.465  24.087  26.003  1.00  0.00     0.136 C 
ATOM     10  C   UNL A   1      34.203  24.601  24.444  1.00  0.00     0.120 C 
ATOM     11  N   UNL A   1      33.133  25.146  25.237  1.00  0.00    -0.341 N 
BRANCH   7  12
ATOM     12  C   UNL A   1      32.111  21.649  25.252  1.00  0.00     0.018 C 
BRANCH  12  13
ATOM     13  C   UNL A   1      32.468  20.490  24.313  1.00  0.00    -0.002 C 
ATOM     14  C   UNL A   1      32.743  19.151  24.974  1.00  0.00     0.004 C 
ENDBRANCH  12  13
ENDBRANCH   7  12
BRANCH  11  15
ATOM     15  C   UNL A   1      32.710  26.449  25.327  1.00  0.00     0.231 C 
ATOM     16  O   UNL A   1      31.498  26.702  25.280  1.00  0.00    -0.274 OA
BRANCH  15  17
ATOM     17  C   UNL A   1      33.670  27.615  25.614  1.00  0.00     0.142 C 
ATOM     18  C   UNL A   1      33.418  28.552  26.790  1.00  0.00     0.081 C 
ATOM     19  C   UNL A   1      33.873  28.572  24.440  1.00  0.00     0.192 C 
ATOM     20  C   UNL A   1      33.023  29.895  26.176  1.00  0.00     0.261 C 
ATOM     21  N   UNL A   1      32.965  29.690  24.729  1.00  0.00    -0.343 N 
ATOM     22  C   UNL A   1      33.662  27.999  23.047  1.00  0.00     0.076 C 
ATOM     23  H   UNL A   1      33.272  30.531  24.239  1.00  0.00     0.346 HD
ATOM     24  H   UNL A   1      32.015  29.489  24.418  1.00  0.00     0.346 HD
ENDBRANCH  15  17
ENDBRANCH  11  15
ENDBRANCH   4   7
ENDBRANCH   2   3
ENDBRANCH   1   2
BRANCH   1  25
ATOM     25  C   UNL A   1      37.666  19.634  24.778  1.00  0.00     0.023 C 
BRANCH  25  26
ATOM     26  C   UNL A   1      38.746  20.091  25.747  1.00  0.00     0.116 C 
BRANCH  26  27
ATOM     27  N   UNL A   1      39.894  19.199  25.786  1.00  0.00    -0.352 N 
ATOM     28  C   UNL A   1      41.200  19.490  26.104  1.00  0.00     0.251 C 
ATOM     29  H   UNL A   1      39.712  18.260  25.554  1.00  0.00     0.163 HD
ATOM     30  O   UNL A   1      42.073  18.645  25.969  1.00  0.00    -0.269 OA
BRANCH  28  31
ATOM     31  C   UNL A   1      41.546  20.848  26.579  1.00  0.00     0.039 A 
ATOM     32  C   UNL A   1      41.539  21.102  27.953  1.00  0.00     0.014 A 
ATOM     33  C   UNL A   1      41.889  21.861  25.678  1.00  0.00     0.014 A 
ATOM     34  C   UNL A   1      41.922  22.360  28.423  1.00  0.00     0.010 A 
ATOM     35  C   UNL A   1      42.354  23.082  26.153  1.00  0.00     0.010 A 
ATOM     36  C   UNL A   1      42.356  23.351  27.529  1.00  0.00    -0.014 A 
BRANCH  36  37
ATOM     37  C   UNL A   1      42.774  24.689  28.013  1.00  0.00     0.031 A 
ATOM     38  C   UNL A   1      41.740  25.750  28.275  1.00  0.00     0.074 A 
ATOM     39  C   UNL A   1      44.084  24.966  28.171  1.00  0.00     0.049 A 
ATOM     40  N   UNL A   1      41.903  26.986  28.674  1.00  0.00    -0.248 NA
ATOM     41  C   UNL A   1      40.336  25.384  28.025  1.00  0.00     0.031 C 
ATOM     42  C   UNL A   1      45.186  24.047  27.881  1.00  0.00     0.029 A 
ATOM     43  N   UNL A   1      44.708  26.106  28.608  1.00  0.00    -0.354 N 
ATOM     44  C   UNL A   1      40.632  27.546  28.699  1.00  0.00     0.074 A 
ATOM     45  C   UNL A   1      39.714  26.536  28.221  1.00  0.00     0.031 C 
ATOM     46  C   UNL A   1      46.350  24.649  28.177  1.00  0.00     0.029 A 
ATOM     47  C   UNL A   1      46.077  26.001  28.653  1.00  0.00     0.049 A 
ATOM     48  H   UNL A   1      44.221  26.922  28.867  1.00  0.00     0.167 HD
ATOM     49  C   UNL A   1      40.258  28.780  29.111  1.00  0.00     0.037 A 
ATOM     50  C   UNL A   1      47.005  26.895  29.044  1.00  0.00     0.037 A 
ATOM     51  C   UNL A   1      41.167  29.766  29.629  1.00  0.00     0.049 A 
ATOM     52  C   UNL A   1      46.559  28.239  29.550  1.00  0.00     0.074 A 
ATOM     53  C   UNL A   1      40.883  31.022  30.136  1.00  0.00     0.029 A 
ATOM     54  N   UNL A   1      42.542  29.602  29.712  1.00  0.00    -0.354 N 
ATOM     55  N   UNL A   1      45.345  28.726  29.643  1.00  0.00    -0.248 NA
ATOM     56  C   UNL A   1      47.610  29.148  30.026  1.00  0.00     0.031 C 
ATOM     57  C   UNL A   1      42.090  31.630  30.499  1.00  0.00     0.029 A 
ATOM     58  C   UNL A   1      43.121  30.736  30.256  1.00  0.00     0.049 A 
ATOM     59  H   UNL A   1      43.033  28.798  29.426  1.00  0.00     0.167 HD
ATOM     60  C   UNL A   1      45.484  29.985  30.215  1.00  0.00     0.074 A 
ATOM     61  C   UNL A   1      46.897  30.176  30.464  1.00  0.00     0.031 C 
ATOM     62  C   UNL A   1      44.528  30.901  30.508  1.00  0.00     0.037 A 
BRANCH  49  63
ATOM     63  C   UNL A   1      38.798  29.122  29.032  1.00  0.00     0.057 A 
ATOM     64  C   UNL A   1      37.955  29.022  30.146  1.00  0.00     0.134 A 
ATOM     65  C   UNL A   1      38.235  29.584  27.836  1.00  0.00     0.134 A 
ATOM     66  F   UNL A   1      38.427  28.571  31.319  1.00  0.00    -0.206 F 
ATOM     67  C   UNL A   1      36.598  29.344  30.067  1.00  0.00     0.040 A 
ATOM     68  C   UNL A   1      36.887  29.935  27.752  1.00  0.00     0.040 A 
ATOM     69  F   UNL A   1      38.987  29.707  26.732  1.00  0.00    -0.206 F 
ATOM     70  C   UNL A   1      36.063  29.808  28.869  1.00  0.00     0.006 A 
ENDBRANCH  49  63
BRANCH  50  71
ATOM     71  C   UNL A   1      48.445  26.536  29.017  1.00  0.00     0.057 A 
ATOM     72  C   UNL A   1      49.045  25.875  30.094  1.00  0.00     0.134 A 
ATOM     73  C   UNL A   1      49.259  26.862  27.926  1.00  0.00     0.134 A 
ATOM     74  F   UNL A   1      48.321  25.551  31.175  1.00  0.00    -0.206 F 
ATOM     75  C   UNL A   1      50.408  25.573  30.102  1.00  0.00     0.040 A 
ATOM     76  C   UNL A   1      50.618  26.545  27.908  1.00  0.00     0.040 A 
ATOM     77  F   UNL A   1      48.742  27.488  26.858  1.00  0.00    -0.206 F 
ATOM     78  C   UNL A   1      51.199  25.906  29.004  1.00  0.00     0.006 A 
ENDBRANCH  50  71
BRANCH  62  79
ATOM     79  C   UNL A   1      44.980  32.168  31.171  1.00  0.00     0.057 A 
ATOM     80  C   UNL A   1      45.340  33.303  30.434  1.00  0.00     0.134 A 
ATOM     81  C   UNL A   1      45.036  32.256  32.567  1.00  0.00     0.134 A 
ATOM     82  F   UNL A   1      45.318  33.279  29.092  1.00  0.00    -0.206 F 
ATOM     83  C   UNL A   1      45.773  34.472  31.063  1.00  0.00     0.040 A 
ATOM     84  C   UNL A   1      45.441  33.429  33.208  1.00  0.00     0.040 A 
ATOM     85  F   UNL A   1      44.694  31.209  33.332  1.00  0.00    -0.206 F 
ATOM     86  C   UNL A   1      45.820  34.538  32.453  1.00  0.00     0.006 A 
ENDBRANCH  62  79
ENDBRANCH  36  37
ENDBRANCH  28  31
ENDBRANCH  26  27
ENDBRANCH  25  26
ENDBRANCH   1  25
TORSDOF 15
ENDMDL
MODEL 3
REMARK VINA RESULT:     -10.7      3.744      9.175
REMARK SMILES CCC[C@@]1(C(=O)NCCCCNC(=O)c2ccc(-c3c4nc(c(-c5c(F)cccc5F)c5ccc([nH]5)c(-c5c(F)cccc5F)c5nc(c(-c6c(F)cccc6F)c6ccc3[nH]6)C=C5)C=C4)cc2)CCN(C(=O)[C@@H]2CC[NH2+][C@@H]2C)C1
REMARK SMILES IDX 9 1 8 2 7 3 5 4 6 5 4 7 69 8 80 9 70 10 71 11 3 12 2 13 1 14
REMARK SMILES IDX 72 15 73 16 74 17 75 18 78 19 76 20 77 21 79 22 10 25 11 26
REMARK SMILES IDX 12 27 13 28 14 30 15 31 16 32 68 33 17 34 67 35 18 36 19 37
REMARK SMILES IDX 20 38 61 39 21 40 66 41 60 42 62 43 22 44 65 45 59 46 58 47
REMARK SMILES IDX 23 49 49 50 32 51 48 52 33 53 36 54 47 55 63 56 34 57 35 58
REMARK SMILES IDX 46 60 64 61 37 62 24 63 25 64 30 65 26 66 27 67 29 68 31 69
REMARK SMILES IDX 28 70 50 71 51 72 56 73 52 74 53 75 55 76 57 77 54 78 38 79
REMARK SMILES IDX 39 80 44 81 40 82 41 83 43 84 45 85 42 86
REMARK H PARENT 7 6 77 23 77 24 12 29 62 48 36 59
REMARK Flexibility Score: inf
ROOT
ATOM      1  C   UNL A   1      31.435  30.584  25.799  1.00  0.00     0.023 C 
ENDROOT
BRANCH   1   2
ATOM      2  C   UNL A   1      32.859  30.027  25.833  1.00  0.00     0.116 C 
BRANCH   2   3
ATOM      3  N   UNL A   1      33.309  29.683  24.497  1.00  0.00    -0.356 N 
ATOM      4  C   UNL A   1      33.473  28.544  23.790  1.00  0.00     0.228 C 
ATOM      5  O   UNL A   1      34.277  28.684  22.858  1.00  0.00    -0.274 OA
ATOM      6  H   UNL A   1      33.557  30.480  23.976  1.00  0.00     0.163 HD
BRANCH   4   7
ATOM      7  C   UNL A   1      32.779  27.178  24.015  1.00  0.00     0.068 C 
ATOM      8  C   UNL A   1      32.617  26.691  25.465  1.00  0.00     0.040 C 
ATOM      9  C   UNL A   1      33.629  26.041  23.397  1.00  0.00     0.136 C 
ATOM     10  C   UNL A   1      33.883  25.915  25.771  1.00  0.00     0.120 C 
ATOM     11  N   UNL A   1      34.242  25.313  24.514  1.00  0.00    -0.341 N 
BRANCH   7  12
ATOM     12  C   UNL A   1      31.333  27.207  23.412  1.00  0.00     0.018 C 
BRANCH  12  13
ATOM     13  C   UNL A   1      30.348  26.051  23.631  1.00  0.00    -0.002 C 
ATOM     14  C   UNL A   1      28.936  26.440  24.034  1.00  0.00     0.004 C 
ENDBRANCH  12  13
ENDBRANCH   7  12
BRANCH  11  15
ATOM     15  C   UNL A   1      35.029  24.211  24.285  1.00  0.00     0.231 C 
ATOM     16  O   UNL A   1      35.130  23.762  23.135  1.00  0.00    -0.274 OA
BRANCH  15  17
ATOM     17  C   UNL A   1      35.904  23.575  25.377  1.00  0.00     0.142 C 
ATOM     18  C   UNL A   1      37.398  23.376  25.152  1.00  0.00     0.081 C 
ATOM     19  C   UNL A   1      35.433  22.196  25.842  1.00  0.00     0.192 C 
ATOM     20  C   UNL A   1      37.605  21.867  25.031  1.00  0.00     0.261 C 
ATOM     21  N   UNL A   1      36.277  21.258  25.090  1.00  0.00    -0.343 N 
ATOM     22  C   UNL A   1      33.951  21.893  25.689  1.00  0.00     0.076 C 
ATOM     23  H   UNL A   1      36.320  20.358  25.570  1.00  0.00     0.346 HD
ATOM     24  H   UNL A   1      35.903  21.086  24.157  1.00  0.00     0.346 HD
ENDBRANCH  15  17
ENDBRANCH  11  15
ENDBRANCH   4   7
ENDBRANCH   2   3
ENDBRANCH   1   2
BRANCH   1  25
ATOM     25  C   UNL A   1      31.256  31.927  26.507  1.00  0.00     0.023 C 
BRANCH  25  26
ATOM     26  C   UNL A   1      32.535  32.521  27.080  1.00  0.00     0.116 C 
BRANCH  26  27
ATOM     27  N   UNL A   1      32.373  33.892  27.539  1.00  0.00    -0.352 N 
ATOM     28  C   UNL A   1      33.113  34.579  28.471  1.00  0.00     0.251 C 
ATOM     29  H   UNL A   1      31.635  34.395  27.126  1.00  0.00     0.163 HD
ATOM     30  O   UNL A   1      32.767  35.694  28.835  1.00  0.00    -0.269 OA
BRANCH  28  31
ATOM     31  C   UNL A   1      34.313  33.944  29.059  1.00  0.00     0.039 A 
ATOM     32  C   UNL A   1      34.148  33.042  30.113  1.00  0.00     0.014 A 
ATOM     33  C   UNL A   1      35.591  34.224  28.566  1.00  0.00     0.014 A 
ATOM     34  C   UNL A   1      35.263  32.386  30.640  1.00  0.00     0.010 A 
ATOM     35  C   UNL A   1      36.686  33.507  29.032  1.00  0.00     0.010 A 
ATOM     36  C   UNL A   1      36.537  32.595  30.087  1.00  0.00    -0.014 A 
BRANCH  36  37
ATOM     37  C   UNL A   1      37.729  31.900  30.630  1.00  0.00     0.031 A 
ATOM     38  C   UNL A   1      38.278  32.289  31.976  1.00  0.00     0.074 A 
ATOM     39  C   UNL A   1      38.347  30.955  29.894  1.00  0.00     0.049 A 
ATOM     40  N   UNL A   1      39.324  31.823  32.611  1.00  0.00    -0.248 NA
ATOM     41  C   UNL A   1      37.578  33.370  32.690  1.00  0.00     0.031 C 
ATOM     42  C   UNL A   1      37.956  30.538  28.546  1.00  0.00     0.029 A 
ATOM     43  N   UNL A   1      39.441  30.177  30.177  1.00  0.00    -0.354 N 
ATOM     44  C   UNL A   1      39.417  32.567  33.781  1.00  0.00     0.074 A 
ATOM     45  C   UNL A   1      38.359  33.552  33.743  1.00  0.00     0.031 C 
ATOM     46  C   UNL A   1      38.779  29.561  28.131  1.00  0.00     0.029 A 
ATOM     47  C   UNL A   1      39.768  29.299  29.172  1.00  0.00     0.049 A 
ATOM     48  H   UNL A   1      39.944  30.241  31.021  1.00  0.00     0.167 HD
ATOM     49  C   UNL A   1      40.286  32.423  34.809  1.00  0.00     0.037 A 
ATOM     50  C   UNL A   1      40.750  28.382  29.105  1.00  0.00     0.037 A 
ATOM     51  C   UNL A   1      41.308  31.412  34.864  1.00  0.00     0.049 A 
ATOM     52  C   UNL A   1      41.667  28.204  30.283  1.00  0.00     0.074 A 
ATOM     53  C   UNL A   1      42.196  31.138  35.889  1.00  0.00     0.029 A 
ATOM     54  N   UNL A   1      41.571  30.504  33.850  1.00  0.00    -0.354 N 
ATOM     55  N   UNL A   1      41.693  28.861  31.418  1.00  0.00    -0.248 NA
ATOM     56  C   UNL A   1      42.677  27.142  30.181  1.00  0.00     0.031 C 
ATOM     57  C   UNL A   1      43.018  30.081  35.482  1.00  0.00     0.029 A 
ATOM     58  C   UNL A   1      42.613  29.671  34.221  1.00  0.00     0.049 A 
ATOM     59  H   UNL A   1      41.089  30.459  32.993  1.00  0.00     0.167 HD
ATOM     60  C   UNL A   1      42.699  28.274  32.174  1.00  0.00     0.074 A 
ATOM     61  C   UNL A   1      43.246  27.196  31.377  1.00  0.00     0.031 C 
ATOM     62  C   UNL A   1      43.133  28.597  33.418  1.00  0.00     0.037 A 
BRANCH  49  63
ATOM     63  C   UNL A   1      40.154  33.373  35.964  1.00  0.00     0.057 A 
ATOM     64  C   UNL A   1      40.884  34.567  36.024  1.00  0.00     0.134 A 
ATOM     65  C   UNL A   1      39.267  33.105  37.014  1.00  0.00     0.134 A 
ATOM     66  F   UNL A   1      41.763  34.877  35.059  1.00  0.00    -0.206 F 
ATOM     67  C   UNL A   1      40.756  35.448  37.100  1.00  0.00     0.040 A 
ATOM     68  C   UNL A   1      39.110  33.991  38.080  1.00  0.00     0.040 A 
ATOM     69  F   UNL A   1      38.534  31.981  37.017  1.00  0.00    -0.206 F 
ATOM     70  C   UNL A   1      39.861  35.164  38.128  1.00  0.00     0.006 A 
ENDBRANCH  49  63
BRANCH  50  71
ATOM     71  C   UNL A   1      40.892  27.528  27.900  1.00  0.00     0.057 A 
ATOM     72  C   UNL A   1      40.266  26.278  27.821  1.00  0.00     0.134 A 
ATOM     73  C   UNL A   1      41.671  27.927  26.808  1.00  0.00     0.134 A 
ATOM     74  F   UNL A   1      39.520  25.832  28.843  1.00  0.00    -0.206 F 
ATOM     75  C   UNL A   1      40.429  25.445  26.713  1.00  0.00     0.040 A 
ATOM     76  C   UNL A   1      41.824  27.115  25.682  1.00  0.00     0.040 A 
ATOM     77  F   UNL A   1      42.290  29.117  26.817  1.00  0.00    -0.206 F 
ATOM     78  C   UNL A   1      41.208  25.865  25.638  1.00  0.00     0.006 A 
ENDBRANCH  50  71
BRANCH  62  79
ATOM     79  C   UNL A   1      44.220  27.743  34.003  1.00  0.00     0.057 A 
ATOM     80  C   UNL A   1      43.940  26.564  34.704  1.00  0.00     0.134 A 
ATOM     81  C   UNL A   1      45.564  28.100  33.843  1.00  0.00     0.134 A 
ATOM     82  F   UNL A   1      42.671  26.173  34.900  1.00  0.00    -0.206 F 
ATOM     83  C   UNL A   1      44.959  25.786  35.256  1.00  0.00     0.040 A 
ATOM     84  C   UNL A   1      46.593  27.315  34.367  1.00  0.00     0.040 A 
ATOM     85  F   UNL A   1      45.900  29.212  33.173  1.00  0.00    -0.206 F 
ATOM     86  C   UNL A   1      46.290  26.160  35.084  1.00  0.00     0.006 A 
ENDBRANCH  62  79
ENDBRANCH  36  37
ENDBRANCH  28  31
ENDBRANCH  26  27
ENDBRANCH  25  26
ENDBRANCH   1  25
TORSDOF 15
ENDMDL
