MODEL 1
REMARK VINA RESULT:     -12.2      0.000      0.000
REMARK SMILES O=C(NCCCCNC(=O)[C@@H]1CCCC[C@H]1C(=O)Nc1ccc(NC(=O)c2ccco2)cc1)c1ccc(-c2c3nc(c(-c4c(F)cccc4F)c4ccc([nH]4)c(-c4c(F)cccc4F)c4nc(c(-c5c(F)cccc5F)c5ccc2[nH]5)C=C4)C=C3)cc1
REMARK SMILES IDX 6 1 5 2 4 3 3 4 1 5 2 6 34 8 35 9 87 10 36 11 86 12 37 13
REMARK SMILES IDX 38 14 39 15 80 16 40 17 85 18 79 19 81 20 41 21 84 22 78 23
REMARK SMILES IDX 77 24 42 26 68 27 51 28 67 29 52 30 55 31 66 32 82 33 53 34
REMARK SMILES IDX 54 35 65 37 83 38 56 39 43 40 44 41 49 42 45 43 46 44 48 45
REMARK SMILES IDX 50 46 47 47 69 48 70 49 75 50 71 51 72 52 74 53 76 54 73 55
REMARK SMILES IDX 57 56 58 57 63 58 59 59 60 60 62 61 64 62 61 63 7 64 8 65
REMARK SMILES IDX 9 66 10 68 11 69 12 70 16 71 13 72 15 73 14 74 17 75 18 76
REMARK SMILES IDX 19 77 20 79 21 80 33 81 22 82 32 83 23 84 24 85 25 86 26 88
REMARK SMILES IDX 27 89 28 90 31 91 29 92 30 93
REMARK H PARENT 3 7 81 25 55 36 8 67 19 78 24 87
REMARK Flexibility Score: inf
ROOT
ATOM      1  C   UNL A   1      36.370  20.752  25.299  1.00  0.00     0.023 C 
ENDROOT
BRANCH   1   2
ATOM      2  C   UNL A   1      37.675  20.081  24.868  1.00  0.00     0.023 C 
BRANCH   2   3
ATOM      3  C   UNL A   1      38.896  20.433  25.712  1.00  0.00     0.116 C 
BRANCH   3   4
ATOM      4  N   UNL A   1      39.941  19.421  25.689  1.00  0.00    -0.352 N 
ATOM      5  O   UNL A   1      42.052  18.635  25.900  1.00  0.00    -0.269 OA
ATOM      6  C   UNL A   1      41.259  19.555  26.062  1.00  0.00     0.251 C 
ATOM      7  H   UNL A   1      39.672  18.530  25.367  1.00  0.00     0.163 HD
BRANCH   6   8
ATOM      8  C   UNL A   1      41.721  20.845  26.622  1.00  0.00     0.039 A 
ATOM      9  C   UNL A   1      41.687  21.075  27.999  1.00  0.00     0.014 A 
ATOM     10  C   UNL A   1      42.166  21.843  25.749  1.00  0.00     0.014 A 
ATOM     11  C   UNL A   1      41.971  22.344  28.491  1.00  0.00     0.010 A 
ATOM     12  C   UNL A   1      42.511  23.100  26.253  1.00  0.00     0.010 A 
ATOM     13  C   UNL A   1      42.381  23.370  27.624  1.00  0.00    -0.014 A 
BRANCH  13  14
ATOM     14  C   UNL A   1      42.700  24.706  28.182  1.00  0.00     0.031 A 
ATOM     15  C   UNL A   1      44.116  25.095  28.503  1.00  0.00     0.074 A 
ATOM     16  C   UNL A   1      41.701  25.590  28.357  1.00  0.00     0.049 A 
ATOM     17  N   UNL A   1      44.572  26.232  28.963  1.00  0.00    -0.248 NA
ATOM     18  C   UNL A   1      45.154  24.075  28.287  1.00  0.00     0.031 C 
ATOM     19  C   UNL A   1      40.286  25.325  28.088  1.00  0.00     0.029 A 
ATOM     20  N   UNL A   1      41.721  26.892  28.785  1.00  0.00    -0.354 N 
ATOM     21  C   UNL A   1      45.943  26.062  29.108  1.00  0.00     0.074 A 
ATOM     22  C   UNL A   1      46.244  24.705  28.703  1.00  0.00     0.031 C 
ATOM     23  C   UNL A   1      39.580  26.442  28.314  1.00  0.00     0.029 A 
ATOM     24  C   UNL A   1      40.484  27.486  28.787  1.00  0.00     0.049 A 
ATOM     25  H   UNL A   1      42.544  27.357  29.063  1.00  0.00     0.167 HD
ATOM     26  C   UNL A   1      46.865  26.959  29.534  1.00  0.00     0.037 A 
ATOM     27  C   UNL A   1      40.115  28.731  29.136  1.00  0.00     0.037 A 
ATOM     28  C   UNL A   1      46.568  28.316  29.914  1.00  0.00     0.049 A 
ATOM     29  C   UNL A   1      41.156  29.703  29.605  1.00  0.00     0.074 A 
ATOM     30  C   UNL A   1      47.442  29.309  30.323  1.00  0.00     0.029 A 
ATOM     31  N   UNL A   1      45.298  28.872  29.930  1.00  0.00    -0.354 N 
ATOM     32  N   UNL A   1      42.450  29.532  29.717  1.00  0.00    -0.248 NA
ATOM     33  C   UNL A   1      40.684  31.035  30.004  1.00  0.00     0.031 C 
ATOM     34  C   UNL A   1      46.697  30.457  30.614  1.00  0.00     0.029 A 
ATOM     35  C   UNL A   1      45.363  30.188  30.358  1.00  0.00     0.049 A 
ATOM     36  H   UNL A   1      44.471  28.400  29.676  1.00  0.00     0.167 HD
ATOM     37  C   UNL A   1      42.950  30.735  30.194  1.00  0.00     0.074 A 
ATOM     38  C   UNL A   1      41.822  31.634  30.330  1.00  0.00     0.031 C 
ATOM     39  C   UNL A   1      44.228  31.063  30.497  1.00  0.00     0.037 A 
BRANCH  26  40
ATOM     40  C   UNL A   1      48.289  26.499  29.624  1.00  0.00     0.057 A 
ATOM     41  C   UNL A   1      48.777  25.827  30.752  1.00  0.00     0.134 A 
ATOM     42  C   UNL A   1      49.168  26.689  28.550  1.00  0.00     0.134 A 
ATOM     43  F   UNL A   1      47.988  25.626  31.817  1.00  0.00    -0.206 F 
ATOM     44  C   UNL A   1      50.094  25.368  30.812  1.00  0.00     0.040 A 
ATOM     45  C   UNL A   1      50.482  26.219  28.593  1.00  0.00     0.040 A 
ATOM     46  F   UNL A   1      48.761  27.322  27.441  1.00  0.00    -0.206 F 
ATOM     47  C   UNL A   1      50.948  25.558  29.728  1.00  0.00     0.006 A 
ENDBRANCH  26  40
BRANCH  27  48
ATOM     48  C   UNL A   1      38.688  29.122  29.046  1.00  0.00     0.057 A 
ATOM     49  C   UNL A   1      38.133  29.548  27.835  1.00  0.00     0.134 A 
ATOM     50  C   UNL A   1      37.844  29.051  30.159  1.00  0.00     0.134 A 
ATOM     51  F   UNL A   1      38.899  29.650  26.738  1.00  0.00    -0.206 F 
ATOM     52  C   UNL A   1      36.785  29.893  27.735  1.00  0.00     0.040 A 
ATOM     53  C   UNL A   1      36.490  29.373  30.069  1.00  0.00     0.040 A 
ATOM     54  F   UNL A   1      38.321  28.642  31.344  1.00  0.00    -0.206 F 
ATOM     55  C   UNL A   1      35.958  29.799  28.854  1.00  0.00     0.006 A 
ENDBRANCH  27  48
BRANCH  39  56
ATOM     56  C   UNL A   1      44.468  32.452  31.001  1.00  0.00     0.057 A 
ATOM     57  C   UNL A   1      44.716  33.515  30.122  1.00  0.00     0.134 A 
ATOM     58  C   UNL A   1      44.435  32.734  32.371  1.00  0.00     0.134 A 
ATOM     59  F   UNL A   1      44.775  33.303  28.799  1.00  0.00    -0.206 F 
ATOM     60  C   UNL A   1      44.940  34.810  30.592  1.00  0.00     0.040 A 
ATOM     61  C   UNL A   1      44.640  34.028  32.852  1.00  0.00     0.040 A 
ATOM     62  F   UNL A   1      44.200  31.760  33.261  1.00  0.00    -0.206 F 
ATOM     63  C   UNL A   1      44.898  35.069  31.961  1.00  0.00     0.006 A 
ENDBRANCH  39  56
ENDBRANCH  13  14
ENDBRANCH   6   8
ENDBRANCH   3   4
ENDBRANCH   2   3
ENDBRANCH   1   2
BRANCH   1  64
ATOM     64  C   UNL A   1      36.424  22.276  25.354  1.00  0.00     0.116 C 
BRANCH  64  65
ATOM     65  N   UNL A   1      36.084  22.909  24.096  1.00  0.00    -0.356 N 
ATOM     66  C   UNL A   1      34.948  23.571  23.732  1.00  0.00     0.223 C 
ATOM     67  H   UNL A   1      36.779  22.855  23.400  1.00  0.00     0.163 HD
ATOM     68  O   UNL A   1      34.909  24.086  22.614  1.00  0.00    -0.275 OA
BRANCH  66  69
ATOM     69  C   UNL A   1      33.765  23.649  24.704  1.00  0.00     0.091 C 
ATOM     70  C   UNL A   1      34.314  23.934  26.115  1.00  0.00     0.014 C 
ATOM     71  C   UNL A   1      32.952  22.336  24.668  1.00  0.00     0.091 C 
ATOM     72  C   UNL A   1      33.257  23.808  27.203  1.00  0.00     0.001 C 
ATOM     73  C   UNL A   1      32.050  22.030  25.876  1.00  0.00     0.014 C 
ATOM     74  C   UNL A   1      32.662  22.409  27.217  1.00  0.00     0.001 C 
BRANCH  71  75
ATOM     75  C   UNL A   1      32.183  22.117  23.371  1.00  0.00     0.228 C 
ATOM     76  O   UNL A   1      32.192  20.985  22.865  1.00  0.00    -0.274 OA
ATOM     77  N   UNL A   1      31.458  23.042  22.688  1.00  0.00    -0.326 N 
ATOM     78  H   UNL A   1      30.971  22.624  21.941  1.00  0.00     0.169 HD
BRANCH  77  79
ATOM     79  C   UNL A   1      31.206  24.424  22.742  1.00  0.00     0.041 A 
ATOM     80  C   UNL A   1      30.214  24.831  23.645  1.00  0.00     0.028 A 
ATOM     81  C   UNL A   1      31.809  25.408  21.971  1.00  0.00     0.028 A 
ATOM     82  C   UNL A   1      29.881  26.182  23.798  1.00  0.00     0.028 A 
ATOM     83  C   UNL A   1      31.465  26.760  22.099  1.00  0.00     0.028 A 
ATOM     84  C   UNL A   1      30.537  27.160  23.053  1.00  0.00     0.041 A 
BRANCH  84  85
ATOM     85  N   UNL A   1      30.303  28.536  23.193  1.00  0.00    -0.319 N 
ATOM     86  C   UNL A   1      30.645  29.392  24.224  1.00  0.00     0.291 C 
ATOM     87  H   UNL A   1      29.823  28.957  22.445  1.00  0.00     0.170 HD
ATOM     88  O   UNL A   1      30.084  30.488  24.272  1.00  0.00    -0.265 OA
BRANCH  86  89
ATOM     89  C   UNL A   1      31.716  29.007  25.119  1.00  0.00     0.191 A 
ATOM     90  C   UNL A   1      31.728  28.259  26.285  1.00  0.00     0.056 A 
ATOM     91  O   UNL A   1      32.988  29.426  24.839  1.00  0.00    -0.459 OA
ATOM     92  C   UNL A   1      33.061  28.264  26.760  1.00  0.00     0.043 A 
ATOM     93  C   UNL A   1      33.788  28.986  25.844  1.00  0.00     0.196 A 
ENDBRANCH  86  89
ENDBRANCH  84  85
ENDBRANCH  77  79
ENDBRANCH  71  75
ENDBRANCH  66  69
ENDBRANCH  64  65
ENDBRANCH   1  64
TORSDOF 15
ENDMDL
MODEL 2
REMARK VINA RESULT:     -12.1      1.621      6.269
REMARK SMILES O=C(NCCCCNC(=O)[C@@H]1CCCC[C@H]1C(=O)Nc1ccc(NC(=O)c2ccco2)cc1)c1ccc(-c2c3nc(c(-c4c(F)cccc4F)c4ccc([nH]4)c(-c4c(F)cccc4F)c4nc(c(-c5c(F)cccc5F)c5ccc2[nH]5)C=C4)C=C3)cc1
REMARK SMILES IDX 6 1 5 2 4 3 3 4 1 5 2 6 34 8 35 9 87 10 36 11 86 12 37 13
REMARK SMILES IDX 38 14 39 15 80 16 40 17 85 18 79 19 81 20 41 21 84 22 78 23
REMARK SMILES IDX 77 24 42 26 68 27 51 28 67 29 52 30 55 31 66 32 82 33 53 34
REMARK SMILES IDX 54 35 65 37 83 38 56 39 43 40 44 41 49 42 45 43 46 44 48 45
REMARK SMILES IDX 50 46 47 47 69 48 70 49 75 50 71 51 72 52 74 53 76 54 73 55
REMARK SMILES IDX 57 56 58 57 63 58 59 59 60 60 62 61 64 62 61 63 7 64 8 65
REMARK SMILES IDX 9 66 10 68 11 69 12 70 16 71 13 72 15 73 14 74 17 75 18 76
REMARK SMILES IDX 19 77 20 79 21 80 33 81 22 82 32 83 23 84 24 85 25 86 26 88
REMARK SMILES IDX 27 89 28 90 31 91 29 92 30 93
REMARK H PARENT 3 7 81 25 55 36 8 67 19 78 24 87
REMARK Flexibility Score: inf
ROOT
ATOM      1  C   UNL A   1      36.811  20.688  24.996  1.00  0.00     0.023 C 
ENDROOT
BRANCH   1   2
ATOM      2  C   UNL A   1      38.023  19.765  24.869  1.00  0.00     0.023 C 
BRANCH   2   3
ATOM      3  C   UNL A   1      39.211  20.126  25.757  1.00  0.00     0.116 C 
BRANCH   3   4
ATOM      4  N   UNL A   1      40.211  19.075  25.861  1.00  0.00    -0.352 N 
ATOM      5  O   UNL A   1      42.293  18.233  26.131  1.00  0.00    -0.269 OA
ATOM      6  C   UNL A   1      41.545  19.203  26.172  1.00  0.00     0.251 C 
ATOM      7  H   UNL A   1      39.894  18.158  25.688  1.00  0.00     0.163 HD
BRANCH   6   8
ATOM      8  C   UNL A   1      42.080  20.540  26.512  1.00  0.00     0.039 A 
ATOM      9  C   UNL A   1      42.132  20.968  27.841  1.00  0.00     0.014 A 
ATOM     10  C   UNL A   1      42.508  21.383  25.481  1.00  0.00     0.014 A 
ATOM     11  C   UNL A   1      42.483  22.283  28.127  1.00  0.00     0.010 A 
ATOM     12  C   UNL A   1      42.922  22.684  25.778  1.00  0.00     0.010 A 
ATOM     13  C   UNL A   1      42.878  23.155  27.099  1.00  0.00    -0.014 A 
BRANCH  13  14
ATOM     14  C   UNL A   1      43.271  24.544  27.439  1.00  0.00     0.031 A 
ATOM     15  C   UNL A   1      42.246  25.558  27.860  1.00  0.00     0.074 A 
ATOM     16  C   UNL A   1      44.575  24.874  27.406  1.00  0.00     0.049 A 
ATOM     17  N   UNL A   1      42.423  26.804  28.223  1.00  0.00    -0.248 NA
ATOM     18  C   UNL A   1      40.841  25.124  27.869  1.00  0.00     0.031 C 
ATOM     19  C   UNL A   1      45.661  23.976  27.007  1.00  0.00     0.029 A 
ATOM     20  N   UNL A   1      45.212  26.044  27.730  1.00  0.00    -0.354 N 
ATOM     21  C   UNL A   1      41.156  27.307  28.487  1.00  0.00     0.074 A 
ATOM     22  C   UNL A   1      40.216  26.239  28.226  1.00  0.00     0.031 C 
ATOM     23  C   UNL A   1      46.832  24.613  27.151  1.00  0.00     0.029 A 
ATOM     24  C   UNL A   1      46.577  25.975  27.609  1.00  0.00     0.049 A 
ATOM     25  H   UNL A   1      44.735  26.855  28.023  1.00  0.00     0.167 HD
ATOM     26  C   UNL A   1      40.811  28.546  28.913  1.00  0.00     0.037 A 
ATOM     27  C   UNL A   1      47.520  26.907  27.834  1.00  0.00     0.037 A 
ATOM     28  C   UNL A   1      41.750  29.602  29.196  1.00  0.00     0.049 A 
ATOM     29  C   UNL A   1      47.111  28.270  28.305  1.00  0.00     0.074 A 
ATOM     30  C   UNL A   1      41.496  30.879  29.669  1.00  0.00     0.029 A 
ATOM     31  N   UNL A   1      43.123  29.503  29.032  1.00  0.00    -0.354 N 
ATOM     32  N   UNL A   1      45.910  28.723  28.569  1.00  0.00    -0.248 NA
ATOM     33  C   UNL A   1      48.186  29.252  28.500  1.00  0.00     0.031 C 
ATOM     34  C   UNL A   1      42.714  31.561  29.763  1.00  0.00     0.029 A 
ATOM     35  C   UNL A   1      43.728  30.700  29.378  1.00  0.00     0.049 A 
ATOM     36  H   UNL A   1      43.598  28.700  28.716  1.00  0.00     0.167 HD
ATOM     37  C   UNL A   1      46.083  30.041  28.967  1.00  0.00     0.074 A 
ATOM     38  C   UNL A   1      47.506  30.308  28.929  1.00  0.00     0.031 C 
ATOM     39  C   UNL A   1      45.145  30.949  29.325  1.00  0.00     0.037 A 
BRANCH  26  40
ATOM     40  C   UNL A   1      39.352  28.837  29.093  1.00  0.00     0.057 A 
ATOM     41  C   UNL A   1      38.716  28.687  30.331  1.00  0.00     0.134 A 
ATOM     42  C   UNL A   1      38.585  29.320  28.024  1.00  0.00     0.134 A 
ATOM     43  F   UNL A   1      39.393  28.218  31.390  1.00  0.00    -0.206 F 
ATOM     44  C   UNL A   1      37.365  28.997  30.499  1.00  0.00     0.040 A 
ATOM     45  C   UNL A   1      37.238  29.649  28.184  1.00  0.00     0.040 A 
ATOM     46  F   UNL A   1      39.135  29.488  26.813  1.00  0.00    -0.206 F 
ATOM     47  C   UNL A   1      36.625  29.486  29.425  1.00  0.00     0.006 A 
ENDBRANCH  26  40
BRANCH  27  48
ATOM     48  C   UNL A   1      48.947  26.568  27.620  1.00  0.00     0.057 A 
ATOM     49  C   UNL A   1      49.545  26.725  26.366  1.00  0.00     0.134 A 
ATOM     50  C   UNL A   1      49.750  26.107  28.669  1.00  0.00     0.134 A 
ATOM     51  F   UNL A   1      48.820  27.149  25.319  1.00  0.00    -0.206 F 
ATOM     52  C   UNL A   1      50.894  26.433  26.161  1.00  0.00     0.040 A 
ATOM     53  C   UNL A   1      51.104  25.831  28.484  1.00  0.00     0.040 A 
ATOM     54  F   UNL A   1      49.231  25.944  29.896  1.00  0.00    -0.206 F 
ATOM     55  C   UNL A   1      51.678  25.991  27.225  1.00  0.00     0.006 A 
ENDBRANCH  27  48
BRANCH  39  56
ATOM     56  C   UNL A   1      45.635  32.312  29.707  1.00  0.00     0.057 A 
ATOM     57  C   UNL A   1      45.743  33.340  28.762  1.00  0.00     0.134 A 
ATOM     58  C   UNL A   1      45.985  32.602  31.030  1.00  0.00     0.134 A 
ATOM     59  F   UNL A   1      45.436  33.117  27.476  1.00  0.00    -0.206 F 
ATOM     60  C   UNL A   1      46.199  34.610  29.120  1.00  0.00     0.040 A 
ATOM     61  C   UNL A   1      46.427  33.873  31.403  1.00  0.00     0.040 A 
ATOM     62  F   UNL A   1      45.901  31.660  31.980  1.00  0.00    -0.206 F 
ATOM     63  C   UNL A   1      46.539  34.879  30.445  1.00  0.00     0.006 A 
ENDBRANCH  39  56
ENDBRANCH  13  14
ENDBRANCH   6   8
ENDBRANCH   3   4
ENDBRANCH   2   3
ENDBRANCH   1   2
BRANCH   1  64
ATOM     64  C   UNL A   1      37.077  22.144  24.627  1.00  0.00     0.116 C 
BRANCH  64  65
ATOM     65  N   UNL A   1      36.291  22.606  23.500  1.00  0.00    -0.356 N 
ATOM     66  C   UNL A   1      34.941  22.771  23.387  1.00  0.00     0.223 C 
ATOM     67  H   UNL A   1      36.811  22.836  22.696  1.00  0.00     0.163 HD
ATOM     68  O   UNL A   1      34.500  23.239  22.338  1.00  0.00    -0.275 OA
BRANCH  66  69
ATOM     69  C   UNL A   1      34.023  22.367  24.547  1.00  0.00     0.091 C 
ATOM     70  C   UNL A   1      33.060  21.274  24.046  1.00  0.00     0.014 C 
ATOM     71  C   UNL A   1      33.256  23.597  25.079  1.00  0.00     0.091 C 
ATOM     72  C   UNL A   1      31.952  20.954  25.040  1.00  0.00     0.001 C 
ATOM     73  C   UNL A   1      31.971  23.336  25.883  1.00  0.00     0.014 C 
ATOM     74  C   UNL A   1      31.123  22.193  25.340  1.00  0.00     0.001 C 
BRANCH  71  75
ATOM     75  C   UNL A   1      34.132  24.610  25.807  1.00  0.00     0.228 C 
ATOM     76  O   UNL A   1      34.911  24.197  26.678  1.00  0.00    -0.274 OA
ATOM     77  N   UNL A   1      34.166  25.953  25.600  1.00  0.00    -0.326 N 
ATOM     78  H   UNL A   1      34.890  26.370  26.121  1.00  0.00     0.169 HD
BRANCH  77  79
ATOM     79  C   UNL A   1      33.463  26.917  24.857  1.00  0.00     0.041 A 
ATOM     80  C   UNL A   1      33.476  26.748  23.466  1.00  0.00     0.028 A 
ATOM     81  C   UNL A   1      32.797  28.028  25.358  1.00  0.00     0.028 A 
ATOM     82  C   UNL A   1      32.802  27.637  22.619  1.00  0.00     0.028 A 
ATOM     83  C   UNL A   1      32.141  28.936  24.517  1.00  0.00     0.028 A 
ATOM     84  C   UNL A   1      32.094  28.715  23.146  1.00  0.00     0.041 A 
BRANCH  84  85
ATOM     85  N   UNL A   1      31.345  29.612  22.369  1.00  0.00    -0.319 N 
ATOM     86  C   UNL A   1      30.029  29.537  21.953  1.00  0.00     0.291 C 
ATOM     87  H   UNL A   1      31.830  30.417  22.077  1.00  0.00     0.170 HD
ATOM     88  O   UNL A   1      29.671  30.284  21.040  1.00  0.00    -0.265 OA
BRANCH  86  89
ATOM     89  C   UNL A   1      29.120  28.676  22.679  1.00  0.00     0.191 A 
ATOM     90  C   UNL A   1      29.307  27.469  23.332  1.00  0.00     0.056 A 
ATOM     91  O   UNL A   1      27.806  29.045  22.781  1.00  0.00    -0.459 OA
ATOM     92  C   UNL A   1      28.039  27.062  23.812  1.00  0.00     0.043 A 
ATOM     93  C   UNL A   1      27.161  28.057  23.451  1.00  0.00     0.196 A 
ENDBRANCH  86  89
ENDBRANCH  84  85
ENDBRANCH  77  79
ENDBRANCH  71  75
ENDBRANCH  66  69
ENDBRANCH  64  65
ENDBRANCH   1  64
TORSDOF 15
ENDMDL
MODEL 3
REMARK VINA RESULT:     -12.1      1.679      2.713
REMARK SMILES O=C(NCCCCNC(=O)[C@@H]1CCCC[C@H]1C(=O)Nc1ccc(NC(=O)c2ccco2)cc1)c1ccc(-c2c3nc(c(-c4c(F)cccc4F)c4ccc([nH]4)c(-c4c(F)cccc4F)c4nc(c(-c5c(F)cccc5F)c5ccc2[nH]5)C=C4)C=C3)cc1
REMARK SMILES IDX 6 1 5 2 4 3 3 4 1 5 2 6 34 8 35 9 87 10 36 11 86 12 37 13
REMARK SMILES IDX 38 14 39 15 80 16 40 17 85 18 79 19 81 20 41 21 84 22 78 23
REMARK SMILES IDX 77 24 42 26 68 27 51 28 67 29 52 30 55 31 66 32 82 33 53 34
REMARK SMILES IDX 54 35 65 37 83 38 56 39 43 40 44 41 49 42 45 43 46 44 48 45
REMARK SMILES IDX 50 46 47 47 69 48 70 49 75 50 71 51 72 52 74 53 76 54 73 55
REMARK SMILES IDX 57 56 58 57 63 58 59 59 60 60 62 61 64 62 61 63 7 64 8 65
REMARK SMILES IDX 9 66 10 68 11 69 12 70 16 71 13 72 15 73 14 74 17 75 18 76
REMARK SMILES IDX 19 77 20 79 21 80 33 81 22 82 32 83 23 84 24 85 25 86 26 88
REMARK SMILES IDX 27 89 28 90 31 91 29 92 30 93
REMARK H PARENT 3 7 81 25 55 36 8 67 19 78 24 87
REMARK Flexibility Score: inf
ROOT
ATOM      1  C   UNL A   1      36.816  20.666  24.981  1.00  0.00     0.023 C 
ENDROOT
BRANCH   1   2
ATOM      2  C   UNL A   1      37.968  19.662  24.915  1.00  0.00     0.023 C 
BRANCH   2   3
ATOM      3  C   UNL A   1      39.188  20.016  25.759  1.00  0.00     0.116 C 
BRANCH   3   4
ATOM      4  N   UNL A   1      40.182  18.956  25.832  1.00  0.00    -0.352 N 
ATOM      5  O   UNL A   1      42.261  18.096  26.070  1.00  0.00    -0.269 OA
ATOM      6  C   UNL A   1      41.520  19.069  26.138  1.00  0.00     0.251 C 
ATOM      7  H   UNL A   1      39.859  18.046  25.640  1.00  0.00     0.163 HD
BRANCH   6   8
ATOM      8  C   UNL A   1      42.065  20.394  26.506  1.00  0.00     0.039 A 
ATOM      9  C   UNL A   1      42.235  20.745  27.848  1.00  0.00     0.014 A 
ATOM     10  C   UNL A   1      42.382  21.304  25.492  1.00  0.00     0.014 A 
ATOM     11  C   UNL A   1      42.593  22.048  28.178  1.00  0.00     0.010 A 
ATOM     12  C   UNL A   1      42.803  22.594  25.826  1.00  0.00     0.010 A 
ATOM     13  C   UNL A   1      42.877  22.986  27.172  1.00  0.00    -0.014 A 
BRANCH  13  14
ATOM     14  C   UNL A   1      43.280  24.360  27.555  1.00  0.00     0.031 A 
ATOM     15  C   UNL A   1      44.709  24.810  27.439  1.00  0.00     0.074 A 
ATOM     16  C   UNL A   1      42.333  25.221  27.971  1.00  0.00     0.049 A 
ATOM     17  N   UNL A   1      45.226  25.985  27.698  1.00  0.00    -0.248 NA
ATOM     18  C   UNL A   1      45.687  23.812  26.978  1.00  0.00     0.031 C 
ATOM     19  C   UNL A   1      40.913  24.897  28.131  1.00  0.00     0.029 A 
ATOM     20  N   UNL A   1      42.414  26.544  28.317  1.00  0.00    -0.354 N 
ATOM     21  C   UNL A   1      46.587  25.866  27.450  1.00  0.00     0.074 A 
ATOM     22  C   UNL A   1      46.821  24.499  27.036  1.00  0.00     0.031 C 
ATOM     23  C   UNL A   1      40.251  26.003  28.501  1.00  0.00     0.029 A 
ATOM     24  C   UNL A   1      41.203  27.099  28.648  1.00  0.00     0.049 A 
ATOM     25  H   UNL A   1      43.261  27.049  28.327  1.00  0.00     0.167 HD
ATOM     26  C   UNL A   1      47.550  26.812  27.554  1.00  0.00     0.037 A 
ATOM     27  C   UNL A   1      40.893  28.349  29.034  1.00  0.00     0.037 A 
ATOM     28  C   UNL A   1      47.312  28.179  27.943  1.00  0.00     0.049 A 
ATOM     29  C   UNL A   1      41.979  29.377  29.142  1.00  0.00     0.074 A 
ATOM     30  C   UNL A   1      48.220  29.220  28.039  1.00  0.00     0.029 A 
ATOM     31  N   UNL A   1      46.075  28.695  28.299  1.00  0.00    -0.354 N 
ATOM     32  N   UNL A   1      43.258  29.253  28.884  1.00  0.00    -0.248 NA
ATOM     33  C   UNL A   1      41.580  30.714  29.600  1.00  0.00     0.031 C 
ATOM     34  C   UNL A   1      47.537  30.358  28.482  1.00  0.00     0.029 A 
ATOM     35  C   UNL A   1      46.199  30.034  28.632  1.00  0.00     0.049 A 
ATOM     36  H   UNL A   1      45.233  28.184  28.314  1.00  0.00     0.167 HD
ATOM     37  C   UNL A   1      43.818  30.496  29.144  1.00  0.00     0.074 A 
ATOM     38  C   UNL A   1      42.735  31.365  29.559  1.00  0.00     0.031 C 
ATOM     39  C   UNL A   1      45.113  30.880  29.052  1.00  0.00     0.037 A 
BRANCH  26  40
ATOM     40  C   UNL A   1      48.960  26.404  27.252  1.00  0.00     0.057 A 
ATOM     41  C   UNL A   1      49.495  26.498  25.961  1.00  0.00     0.134 A 
ATOM     42  C   UNL A   1      49.807  25.957  28.274  1.00  0.00     0.134 A 
ATOM     43  F   UNL A   1      48.732  26.907  24.938  1.00  0.00    -0.206 F 
ATOM     44  C   UNL A   1      50.822  26.152  25.696  1.00  0.00     0.040 A 
ATOM     45  C   UNL A   1      51.139  25.624  28.024  1.00  0.00     0.040 A 
ATOM     46  F   UNL A   1      49.356  25.847  29.533  1.00  0.00    -0.206 F 
ATOM     47  C   UNL A   1      51.649  25.720  26.730  1.00  0.00     0.006 A 
ENDBRANCH  26  40
BRANCH  27  48
ATOM     48  C   UNL A   1      39.484  28.690  29.340  1.00  0.00     0.057 A 
ATOM     49  C   UNL A   1      38.969  28.536  30.631  1.00  0.00     0.134 A 
ATOM     50  C   UNL A   1      38.631  29.203  28.356  1.00  0.00     0.134 A 
ATOM     51  F   UNL A   1      39.737  28.034  31.610  1.00  0.00    -0.206 F 
ATOM     52  C   UNL A   1      37.651  28.879  30.934  1.00  0.00     0.040 A 
ATOM     53  C   UNL A   1      37.318  29.569  28.649  1.00  0.00     0.040 A 
ATOM     54  F   UNL A   1      39.073  29.379  27.102  1.00  0.00    -0.206 F 
ATOM     55  C   UNL A   1      36.823  29.404  29.942  1.00  0.00     0.006 A 
ENDBRANCH  27  48
BRANCH  39  56
ATOM     56  C   UNL A   1      45.423  32.301  29.404  1.00  0.00     0.057 A 
ATOM     57  C   UNL A   1      45.421  33.311  28.433  1.00  0.00     0.134 A 
ATOM     58  C   UNL A   1      45.709  32.667  30.724  1.00  0.00     0.134 A 
ATOM     59  F   UNL A   1      45.168  33.018  27.149  1.00  0.00    -0.206 F 
ATOM     60  C   UNL A   1      45.710  34.636  28.762  1.00  0.00     0.040 A 
ATOM     61  C   UNL A   1      45.983  33.992  31.068  1.00  0.00     0.040 A 
ATOM     62  F   UNL A   1      45.724  31.746  31.699  1.00  0.00    -0.206 F 
ATOM     63  C   UNL A   1      45.988  34.980  30.085  1.00  0.00     0.006 A 
ENDBRANCH  39  56
ENDBRANCH  13  14
ENDBRANCH   6   8
ENDBRANCH   3   4
ENDBRANCH   2   3
ENDBRANCH   1   2
BRANCH   1  64
ATOM     64  C   UNL A   1      37.193  22.094  24.601  1.00  0.00     0.116 C 
BRANCH  64  65
ATOM     65  N   UNL A   1      36.419  22.620  23.496  1.00  0.00    -0.356 N 
ATOM     66  C   UNL A   1      35.071  22.807  23.386  1.00  0.00     0.223 C 
ATOM     67  H   UNL A   1      36.944  22.883  22.705  1.00  0.00     0.163 HD
ATOM     68  O   UNL A   1      34.640  23.332  22.359  1.00  0.00    -0.275 OA
BRANCH  66  69
ATOM     69  C   UNL A   1      34.143  22.359  24.521  1.00  0.00     0.091 C 
ATOM     70  C   UNL A   1      33.216  21.253  23.982  1.00  0.00     0.014 C 
ATOM     71  C   UNL A   1      33.338  23.560  25.063  1.00  0.00     0.091 C 
ATOM     72  C   UNL A   1      32.099  20.887  24.949  1.00  0.00     0.001 C 
ATOM     73  C   UNL A   1      32.045  23.251  25.839  1.00  0.00     0.014 C 
ATOM     74  C   UNL A   1      31.235  22.100  25.258  1.00  0.00     0.001 C 
BRANCH  71  75
ATOM     75  C   UNL A   1      34.175  24.578  25.826  1.00  0.00     0.228 C 
ATOM     76  O   UNL A   1      34.954  24.166  26.698  1.00  0.00    -0.274 OA
ATOM     77  N   UNL A   1      34.176  25.926  25.651  1.00  0.00    -0.326 N 
ATOM     78  H   UNL A   1      34.882  26.350  26.191  1.00  0.00     0.169 HD
BRANCH  77  79
ATOM     79  C   UNL A   1      33.457  26.888  24.920  1.00  0.00     0.041 A 
ATOM     80  C   UNL A   1      33.462  26.730  23.528  1.00  0.00     0.028 A 
ATOM     81  C   UNL A   1      32.784  27.988  25.434  1.00  0.00     0.028 A 
ATOM     82  C   UNL A   1      32.772  27.617  22.693  1.00  0.00     0.028 A 
ATOM     83  C   UNL A   1      32.112  28.895  24.605  1.00  0.00     0.028 A 
ATOM     84  C   UNL A   1      32.057  28.684  23.233  1.00  0.00     0.041 A 
BRANCH  84  85
ATOM     85  N   UNL A   1      31.293  29.578  22.468  1.00  0.00    -0.319 N 
ATOM     86  C   UNL A   1      29.988  29.471  22.022  1.00  0.00     0.291 C 
ATOM     87  H   UNL A   1      31.754  30.408  22.211  1.00  0.00     0.170 HD
ATOM     88  O   UNL A   1      29.623  30.233  21.126  1.00  0.00    -0.265 OA
BRANCH  86  89
ATOM     89  C   UNL A   1      29.095  28.557  22.702  1.00  0.00     0.191 A 
ATOM     90  C   UNL A   1      27.759  28.656  23.055  1.00  0.00     0.056 A 
ATOM     91  O   UNL A   1      29.583  27.347  23.116  1.00  0.00    -0.459 OA
ATOM     92  C   UNL A   1      27.433  27.471  23.757  1.00  0.00     0.043 A 
ATOM     93  C   UNL A   1      28.576  26.708  23.766  1.00  0.00     0.196 A 
ENDBRANCH  86  89
ENDBRANCH  84  85
ENDBRANCH  77  79
ENDBRANCH  71  75
ENDBRANCH  66  69
ENDBRANCH  64  65
ENDBRANCH   1  64
TORSDOF 15
ENDMDL
