MODEL 1
REMARK VINA RESULT:     -10.5      0.000      0.000
REMARK SMILES COc1cc(Br)c(OC)c(C(=O)NCCC(=O)NCCCCNC(=O)c2ccc(-c3c4nc(c(-c5c(F)cccc5F)c5ccc([nH]5)c(-c5c(F)cccc5F)c5nc(c(-c6c(F)cccc6F)c6ccc3[nH]6)C=C5)C=C4)cc2)c1
REMARK SMILES IDX 19 1 18 2 16 3 17 4 15 6 14 7 13 8 11 9 12 10 10 12 3 13
REMARK SMILES IDX 4 14 80 15 5 16 6 17 7 18 2 19 1 20 8 21 9 22 20 23 21 24
REMARK SMILES IDX 22 25 23 26 24 27 25 29 26 30 27 31 79 32 28 33 78 34 29 35
REMARK SMILES IDX 30 36 31 37 72 38 32 39 77 40 71 41 73 42 33 43 76 44 70 45
REMARK SMILES IDX 69 46 34 48 60 49 43 50 59 51 44 52 47 53 58 54 74 55 45 56
REMARK SMILES IDX 46 57 57 59 75 60 48 61 35 62 36 63 41 64 37 65 38 66 40 67
REMARK SMILES IDX 42 68 39 69 61 70 62 71 67 72 63 73 64 74 66 75 68 76 65 77
REMARK SMILES IDX 49 78 50 79 55 80 51 81 52 82 54 83 56 84 53 85
REMARK H PARENT 18 5 13 11 23 28 73 47 47 58
REMARK Flexibility Score: inf
ROOT
ATOM      1  C   UNL A   1      35.135  32.446  28.386  1.00  0.00     0.116 C 
ENDROOT
BRANCH   1   2
ATOM      2  N   UNL A   1      33.863  32.028  27.831  1.00  0.00    -0.356 N 
ATOM      3  C   UNL A   1      33.511  30.811  27.333  1.00  0.00     0.221 C 
ATOM      4  O   UNL A   1      32.395  30.681  26.826  1.00  0.00    -0.275 OA
ATOM      5  H   UNL A   1      33.159  32.716  27.811  1.00  0.00     0.163 HD
BRANCH   3   6
ATOM      6  C   UNL A   1      34.483  29.651  27.388  1.00  0.00     0.121 C 
BRANCH   6   7
ATOM      7  C   UNL A   1      34.019  28.491  26.517  1.00  0.00     0.126 C 
BRANCH   7   8
ATOM      8  N   UNL A   1      32.790  27.841  26.969  1.00  0.00    -0.351 N 
ATOM      9  C   UNL A   1      31.657  27.296  26.413  1.00  0.00     0.255 C 
ATOM     10  O   UNL A   1      30.769  27.002  27.216  1.00  0.00    -0.269 OA
ATOM     11  H   UNL A   1      32.767  27.775  27.951  1.00  0.00     0.163 HD
BRANCH   9  12
ATOM     12  C   UNL A   1      31.482  26.961  24.968  1.00  0.00     0.086 A 
ATOM     13  C   UNL A   1      30.701  27.607  22.764  1.00  0.00     0.121 A 
ATOM     14  C   UNL A   1      31.444  26.594  22.180  1.00  0.00     0.066 A 
ATOM     15  C   UNL A   1      30.775  27.833  24.133  1.00  0.00     0.064 A 
ATOM     16  C   UNL A   1      32.172  25.713  22.983  1.00  0.00     0.064 A 
ATOM     17  Br  UNL A   1      33.053  24.315  22.038  1.00  0.00    -0.047 Br
ATOM     18  C   UNL A   1      32.179  25.866  24.385  1.00  0.00     0.146 A 
BRANCH  13  19
ATOM     19  O   UNL A   1      29.912  28.459  22.040  1.00  0.00    -0.497 OA
ATOM     20  C   UNL A   1      29.487  29.579  22.820  1.00  0.00     0.278 C 
ENDBRANCH  13  19
BRANCH  18  21
ATOM     21  O   UNL A   1      32.688  24.909  25.231  1.00  0.00    -0.495 OA
ATOM     22  C   UNL A   1      31.868  23.762  25.454  1.00  0.00     0.278 C 
ENDBRANCH  18  21
ENDBRANCH   9  12
ENDBRANCH   7   8
ENDBRANCH   6   7
ENDBRANCH   3   6
ENDBRANCH   1   2
BRANCH   1  23
ATOM     23  C   UNL A   1      34.987  33.722  29.210  1.00  0.00     0.023 C 
BRANCH  23  24
ATOM     24  C   UNL A   1      33.636  34.416  29.101  1.00  0.00     0.023 C 
BRANCH  24  25
ATOM     25  C   UNL A   1      33.614  35.862  29.566  1.00  0.00     0.116 C 
BRANCH  25  26
ATOM     26  N   UNL A   1      32.586  36.144  30.557  1.00  0.00    -0.352 N 
ATOM     27  C   UNL A   1      32.570  35.812  31.893  1.00  0.00     0.251 C 
ATOM     28  H   UNL A   1      31.800  36.637  30.228  1.00  0.00     0.163 HD
ATOM     29  O   UNL A   1      31.596  36.051  32.590  1.00  0.00    -0.269 OA
BRANCH  27  30
ATOM     30  C   UNL A   1      33.741  35.113  32.462  1.00  0.00     0.039 A 
ATOM     31  C   UNL A   1      33.582  33.808  32.930  1.00  0.00     0.014 A 
ATOM     32  C   UNL A   1      34.998  35.720  32.456  1.00  0.00     0.014 A 
ATOM     33  C   UNL A   1      34.706  33.078  33.319  1.00  0.00     0.010 A 
ATOM     34  C   UNL A   1      36.124  34.962  32.755  1.00  0.00     0.010 A 
ATOM     35  C   UNL A   1      35.989  33.636  33.193  1.00  0.00    -0.014 A 
BRANCH  35  36
ATOM     36  C   UNL A   1      37.208  32.860  33.528  1.00  0.00     0.031 A 
ATOM     37  C   UNL A   1      37.947  33.153  34.804  1.00  0.00     0.074 A 
ATOM     38  C   UNL A   1      37.693  31.957  32.654  1.00  0.00     0.049 A 
ATOM     39  N   UNL A   1      39.085  32.669  35.232  1.00  0.00    -0.248 NA
ATOM     40  C   UNL A   1      37.345  34.152  35.703  1.00  0.00     0.031 C 
ATOM     41  C   UNL A   1      37.100  31.625  31.356  1.00  0.00     0.029 A 
ATOM     42  N   UNL A   1      38.808  31.160  32.721  1.00  0.00    -0.354 N 
ATOM     43  C   UNL A   1      39.348  33.326  36.426  1.00  0.00     0.074 A 
ATOM     44  C   UNL A   1      38.279  34.278  36.634  1.00  0.00     0.031 C 
ATOM     45  C   UNL A   1      37.842  30.675  30.763  1.00  0.00     0.029 A 
ATOM     46  C   UNL A   1      38.981  30.357  31.619  1.00  0.00     0.049 A 
ATOM     47  H   UNL A   1      39.428  31.164  33.486  1.00  0.00     0.167 HD
ATOM     48  C   UNL A   1      40.373  33.135  37.288  1.00  0.00     0.037 A 
ATOM     49  C   UNL A   1      39.949  29.467  31.334  1.00  0.00     0.037 A 
ATOM     50  C   UNL A   1      41.404  32.149  37.108  1.00  0.00     0.049 A 
ATOM     51  C   UNL A   1      41.060  29.250  32.326  1.00  0.00     0.074 A 
ATOM     52  C   UNL A   1      42.442  31.823  37.961  1.00  0.00     0.029 A 
ATOM     53  N   UNL A   1      41.517  31.323  36.000  1.00  0.00    -0.354 N 
ATOM     54  N   UNL A   1      41.259  29.830  33.484  1.00  0.00    -0.248 NA
ATOM     55  C   UNL A   1      42.076  28.249  31.973  1.00  0.00     0.031 C 
ATOM     56  C   UNL A   1      43.203  30.817  37.356  1.00  0.00     0.029 A 
ATOM     57  C   UNL A   1      42.616  30.494  36.143  1.00  0.00     0.049 A 
ATOM     58  H   UNL A   1      40.907  31.326  35.227  1.00  0.00     0.167 HD
ATOM     59  C   UNL A   1      42.402  29.245  34.011  1.00  0.00     0.074 A 
ATOM     60  C   UNL A   1      42.848  28.256  33.051  1.00  0.00     0.031 C 
ATOM     61  C   UNL A   1      43.029  29.503  35.184  1.00  0.00     0.037 A 
BRANCH  48  62
ATOM     62  C   UNL A   1      40.420  34.001  38.511  1.00  0.00     0.057 A 
ATOM     63  C   UNL A   1      41.138  35.204  38.537  1.00  0.00     0.134 A 
ATOM     64  C   UNL A   1      39.714  33.645  39.667  1.00  0.00     0.134 A 
ATOM     65  F   UNL A   1      41.849  35.593  37.467  1.00  0.00    -0.206 F 
ATOM     66  C   UNL A   1      41.172  36.010  39.675  1.00  0.00     0.040 A 
ATOM     67  C   UNL A   1      39.718  34.456  40.803  1.00  0.00     0.040 A 
ATOM     68  F   UNL A   1      39.003  32.508  39.708  1.00  0.00    -0.206 F 
ATOM     69  C   UNL A   1      40.454  35.639  40.811  1.00  0.00     0.006 A 
ENDBRANCH  48  62
BRANCH  49  70
ATOM     70  C   UNL A   1      39.904  28.689  30.071  1.00  0.00     0.057 A 
ATOM     71  C   UNL A   1      39.209  27.476  30.001  1.00  0.00     0.134 A 
ATOM     72  C   UNL A   1      40.566  29.122  28.917  1.00  0.00     0.134 A 
ATOM     73  F   UNL A   1      38.572  27.000  31.080  1.00  0.00    -0.206 F 
ATOM     74  C   UNL A   1      39.194  26.707  28.835  1.00  0.00     0.040 A 
ATOM     75  C   UNL A   1      40.541  28.374  27.738  1.00  0.00     0.040 A 
ATOM     76  F   UNL A   1      41.244  30.279  28.917  1.00  0.00    -0.206 F 
ATOM     77  C   UNL A   1      39.860  27.158  27.698  1.00  0.00     0.006 A 
ENDBRANCH  49  70
BRANCH  61  78
ATOM     78  C   UNL A   1      44.234  28.675  35.513  1.00  0.00     0.057 A 
ATOM     79  C   UNL A   1      44.133  27.475  36.225  1.00  0.00     0.134 A 
ATOM     80  C   UNL A   1      45.506  29.065  35.070  1.00  0.00     0.134 A 
ATOM     81  F   UNL A   1      42.945  27.056  36.685  1.00  0.00    -0.206 F 
ATOM     82  C   UNL A   1      45.258  26.698  36.504  1.00  0.00     0.040 A 
ATOM     83  C   UNL A   1      46.634  28.285  35.322  1.00  0.00     0.040 A 
ATOM     84  F   UNL A   1      45.666  30.201  34.375  1.00  0.00    -0.206 F 
ATOM     85  C   UNL A   1      46.512  27.100  36.045  1.00  0.00     0.006 A 
ENDBRANCH  61  78
ENDBRANCH  35  36
ENDBRANCH  27  30
ENDBRANCH  25  26
ENDBRANCH  24  25
ENDBRANCH  23  24
ENDBRANCH   1  23
TORSDOF 16
ENDMDL
MODEL 2
REMARK VINA RESULT:     -10.5      5.455     10.307
REMARK SMILES COc1cc(Br)c(OC)c(C(=O)NCCC(=O)NCCCCNC(=O)c2ccc(-c3c4nc(c(-c5c(F)cccc5F)c5ccc([nH]5)c(-c5c(F)cccc5F)c5nc(c(-c6c(F)cccc6F)c6ccc3[nH]6)C=C5)C=C4)cc2)c1
REMARK SMILES IDX 19 1 18 2 16 3 17 4 15 6 14 7 13 8 11 9 12 10 10 12 3 13
REMARK SMILES IDX 4 14 80 15 5 16 6 17 7 18 2 19 1 20 8 21 9 22 20 23 21 24
REMARK SMILES IDX 22 25 23 26 24 27 25 29 26 30 27 31 79 32 28 33 78 34 29 35
REMARK SMILES IDX 30 36 31 37 72 38 32 39 77 40 71 41 73 42 33 43 76 44 70 45
REMARK SMILES IDX 69 46 34 48 60 49 43 50 59 51 44 52 47 53 58 54 74 55 45 56
REMARK SMILES IDX 46 57 57 59 75 60 48 61 35 62 36 63 41 64 37 65 38 66 40 67
REMARK SMILES IDX 42 68 39 69 61 70 62 71 67 72 63 73 64 74 66 75 68 76 65 77
REMARK SMILES IDX 49 78 50 79 55 80 51 81 52 82 54 83 56 84 53 85
REMARK H PARENT 18 5 13 11 23 28 73 47 47 58
REMARK Flexibility Score: inf
ROOT
ATOM      1  C   UNL A   1      37.168  23.223  25.626  1.00  0.00     0.116 C 
ENDROOT
BRANCH   1   2
ATOM      2  N   UNL A   1      36.105  22.766  26.499  1.00  0.00    -0.356 N 
ATOM      3  C   UNL A   1      35.266  21.707  26.334  1.00  0.00     0.221 C 
ATOM      4  O   UNL A   1      34.367  21.533  27.158  1.00  0.00    -0.275 OA
ATOM      5  H   UNL A   1      35.972  23.291  27.321  1.00  0.00     0.163 HD
BRANCH   3   6
ATOM      6  C   UNL A   1      35.431  20.776  25.150  1.00  0.00     0.121 C 
BRANCH   6   7
ATOM      7  C   UNL A   1      34.164  19.972  24.892  1.00  0.00     0.126 C 
BRANCH   7   8
ATOM      8  N   UNL A   1      33.318  20.493  23.819  1.00  0.00    -0.351 N 
ATOM      9  C   UNL A   1      32.383  21.485  23.645  1.00  0.00     0.255 C 
ATOM     10  O   UNL A   1      31.777  21.452  22.572  1.00  0.00    -0.269 OA
ATOM     11  H   UNL A   1      33.459  19.992  22.983  1.00  0.00     0.163 HD
BRANCH   9  12
ATOM     12  C   UNL A   1      32.134  22.611  24.594  1.00  0.00     0.086 A 
ATOM     13  C   UNL A   1      31.130  23.413  26.652  1.00  0.00     0.121 A 
ATOM     14  C   UNL A   1      31.925  24.547  26.623  1.00  0.00     0.066 A 
ATOM     15  C   UNL A   1      31.284  22.423  25.688  1.00  0.00     0.064 A 
ATOM     16  C   UNL A   1      32.794  24.761  25.551  1.00  0.00     0.064 A 
ATOM     17  Br  UNL A   1      33.736  26.414  25.607  1.00  0.00    -0.047 Br
ATOM     18  C   UNL A   1      32.891  23.814  24.511  1.00  0.00     0.146 A 
BRANCH  13  19
ATOM     19  O   UNL A   1      30.209  23.179  27.635  1.00  0.00    -0.497 OA
ATOM     20  C   UNL A   1      29.072  22.469  27.138  1.00  0.00     0.278 C 
ENDBRANCH  13  19
BRANCH  18  21
ATOM     21  O   UNL A   1      33.554  24.072  23.335  1.00  0.00    -0.495 OA
ATOM     22  C   UNL A   1      32.857  24.868  22.377  1.00  0.00     0.278 C 
ENDBRANCH  18  21
ENDBRANCH   9  12
ENDBRANCH   7   8
ENDBRANCH   6   7
ENDBRANCH   3   6
ENDBRANCH   1   2
BRANCH   1  23
ATOM     23  C   UNL A   1      38.523  22.684  26.074  1.00  0.00     0.023 C 
BRANCH  23  24
ATOM     24  C   UNL A   1      38.946  21.367  25.437  1.00  0.00     0.023 C 
BRANCH  24  25
ATOM     25  C   UNL A   1      39.308  20.264  26.415  1.00  0.00     0.116 C 
BRANCH  25  26
ATOM     26  N   UNL A   1      40.396  19.410  25.961  1.00  0.00    -0.352 N 
ATOM     27  C   UNL A   1      41.746  19.679  25.947  1.00  0.00     0.251 C 
ATOM     28  H   UNL A   1      40.131  18.526  25.619  1.00  0.00     0.163 HD
ATOM     29  O   UNL A   1      42.541  18.889  25.462  1.00  0.00    -0.269 OA
BRANCH  27  30
ATOM     30  C   UNL A   1      42.217  20.970  26.491  1.00  0.00     0.039 A 
ATOM     31  C   UNL A   1      42.586  21.979  25.601  1.00  0.00     0.014 A 
ATOM     32  C   UNL A   1      42.212  21.201  27.868  1.00  0.00     0.014 A 
ATOM     33  C   UNL A   1      42.876  23.253  26.091  1.00  0.00     0.010 A 
ATOM     34  C   UNL A   1      42.410  22.490  28.345  1.00  0.00     0.010 A 
ATOM     35  C   UNL A   1      42.748  23.528  27.463  1.00  0.00    -0.014 A 
BRANCH  35  36
ATOM     36  C   UNL A   1      42.977  24.890  28.005  1.00  0.00     0.031 A 
ATOM     37  C   UNL A   1      44.357  25.291  28.445  1.00  0.00     0.074 A 
ATOM     38  C   UNL A   1      41.938  25.730  28.178  1.00  0.00     0.049 A 
ATOM     39  N   UNL A   1      44.750  26.387  29.042  1.00  0.00    -0.248 NA
ATOM     40  C   UNL A   1      45.435  24.313  28.218  1.00  0.00     0.031 C 
ATOM     41  C   UNL A   1      40.542  25.436  27.845  1.00  0.00     0.029 A 
ATOM     42  N   UNL A   1      41.894  27.002  28.690  1.00  0.00    -0.354 N 
ATOM     43  C   UNL A   1      46.105  26.216  29.288  1.00  0.00     0.074 A 
ATOM     44  C   UNL A   1      46.460  24.893  28.822  1.00  0.00     0.031 C 
ATOM     45  C   UNL A   1      39.785  26.507  28.137  1.00  0.00     0.029 A 
ATOM     46  C   UNL A   1      40.633  27.547  28.710  1.00  0.00     0.049 A 
ATOM     47  H   UNL A   1      42.692  27.479  29.015  1.00  0.00     0.167 HD
ATOM     48  C   UNL A   1      46.984  27.092  29.829  1.00  0.00     0.037 A 
ATOM     49  C   UNL A   1      40.212  28.750  29.143  1.00  0.00     0.037 A 
ATOM     50  C   UNL A   1      46.642  28.426  30.239  1.00  0.00     0.049 A 
ATOM     51  C   UNL A   1      41.215  29.718  29.708  1.00  0.00     0.074 A 
ATOM     52  C   UNL A   1      47.473  29.418  30.725  1.00  0.00     0.029 A 
ATOM     53  N   UNL A   1      45.361  28.957  30.199  1.00  0.00    -0.354 N 
ATOM     54  N   UNL A   1      42.507  29.568  29.873  1.00  0.00    -0.248 NA
ATOM     55  C   UNL A   1      40.702  31.025  30.143  1.00  0.00     0.031 C 
ATOM     56  C   UNL A   1      46.691  30.543  31.008  1.00  0.00     0.029 A 
ATOM     57  C   UNL A   1      45.379  30.261  30.664  1.00  0.00     0.049 A 
ATOM     58  H   UNL A   1      44.559  28.478  29.888  1.00  0.00     0.167 HD
ATOM     59  C   UNL A   1      42.965  30.768  30.398  1.00  0.00     0.074 A 
ATOM     60  C   UNL A   1      41.815  31.640  30.517  1.00  0.00     0.031 C 
ATOM     61  C   UNL A   1      44.225  31.117  30.753  1.00  0.00     0.037 A 
BRANCH  48  62
ATOM     62  C   UNL A   1      48.403  26.637  29.992  1.00  0.00     0.057 A 
ATOM     63  C   UNL A   1      48.820  25.906  31.113  1.00  0.00     0.134 A 
ATOM     64  C   UNL A   1      49.359  26.905  29.004  1.00  0.00     0.134 A 
ATOM     65  F   UNL A   1      47.957  25.630  32.102  1.00  0.00    -0.206 F 
ATOM     66  C   UNL A   1      50.140  25.479  31.256  1.00  0.00     0.040 A 
ATOM     67  C   UNL A   1      50.676  26.461  29.123  1.00  0.00     0.040 A 
ATOM     68  F   UNL A   1      49.025  27.598  27.904  1.00  0.00    -0.206 F 
ATOM     69  C   UNL A   1      51.071  25.751  30.255  1.00  0.00     0.006 A 
ENDBRANCH  48  62
BRANCH  49  70
ATOM     70  C   UNL A   1      38.780  29.126  29.034  1.00  0.00     0.057 A 
ATOM     71  C   UNL A   1      37.930  29.040  30.143  1.00  0.00     0.134 A 
ATOM     72  C   UNL A   1      38.223  29.557  27.825  1.00  0.00     0.134 A 
ATOM     73  F   UNL A   1      38.402  28.615  31.323  1.00  0.00    -0.206 F 
ATOM     74  C   UNL A   1      36.570  29.345  30.048  1.00  0.00     0.040 A 
ATOM     75  C   UNL A   1      36.870  29.887  27.722  1.00  0.00     0.040 A 
ATOM     76  F   UNL A   1      38.986  29.667  26.728  1.00  0.00    -0.206 F 
ATOM     77  C   UNL A   1      36.038  29.773  28.834  1.00  0.00     0.006 A 
ENDBRANCH  49  70
BRANCH  61  78
ATOM     78  C   UNL A   1      44.432  32.513  31.260  1.00  0.00     0.057 A 
ATOM     79  C   UNL A   1      44.379  32.817  32.625  1.00  0.00     0.134 A 
ATOM     80  C   UNL A   1      44.732  33.554  30.372  1.00  0.00     0.134 A 
ATOM     81  F   UNL A   1      44.084  31.866  33.523  1.00  0.00    -0.206 F 
ATOM     82  C   UNL A   1      44.599  34.115  33.090  1.00  0.00     0.040 A 
ATOM     83  C   UNL A   1      44.977  34.849  30.825  1.00  0.00     0.040 A 
ATOM     84  F   UNL A   1      44.805  33.323  29.052  1.00  0.00    -0.206 F 
ATOM     85  C   UNL A   1      44.906  35.133  32.188  1.00  0.00     0.006 A 
ENDBRANCH  61  78
ENDBRANCH  35  36
ENDBRANCH  27  30
ENDBRANCH  25  26
ENDBRANCH  24  25
ENDBRANCH  23  24
ENDBRANCH   1  23
TORSDOF 16
ENDMDL
MODEL 3
REMARK VINA RESULT:     -10.5      5.769     10.851
REMARK SMILES COc1cc(Br)c(OC)c(C(=O)NCCC(=O)NCCCCNC(=O)c2ccc(-c3c4nc(c(-c5c(F)cccc5F)c5ccc([nH]5)c(-c5c(F)cccc5F)c5nc(c(-c6c(F)cccc6F)c6ccc3[nH]6)C=C5)C=C4)cc2)c1
REMARK SMILES IDX 19 1 18 2 16 3 17 4 15 6 14 7 13 8 11 9 12 10 10 12 3 13
REMARK SMILES IDX 4 14 80 15 5 16 6 17 7 18 2 19 1 20 8 21 9 22 20 23 21 24
REMARK SMILES IDX 22 25 23 26 24 27 25 29 26 30 27 31 79 32 28 33 78 34 29 35
REMARK SMILES IDX 30 36 31 37 72 38 32 39 77 40 71 41 73 42 33 43 76 44 70 45
REMARK SMILES IDX 69 46 34 48 60 49 43 50 59 51 44 52 47 53 58 54 74 55 45 56
REMARK SMILES IDX 46 57 57 59 75 60 48 61 35 62 36 63 41 64 37 65 38 66 40 67
REMARK SMILES IDX 42 68 39 69 61 70 62 71 67 72 63 73 64 74 66 75 68 76 65 77
REMARK SMILES IDX 49 78 50 79 55 80 51 81 52 82 54 83 56 84 53 85
REMARK H PARENT 18 5 13 11 23 28 73 47 47 58
REMARK Flexibility Score: inf
ROOT
ATOM      1  C   UNL A   1      37.209  22.216  24.309  1.00  0.00     0.116 C 
ENDROOT
BRANCH   1   2
ATOM      2  N   UNL A   1      36.111  22.738  23.520  1.00  0.00    -0.356 N 
ATOM      3  C   UNL A   1      35.148  23.627  23.888  1.00  0.00     0.221 C 
ATOM      4  O   UNL A   1      34.245  23.882  23.089  1.00  0.00    -0.275 OA
ATOM      5  H   UNL A   1      36.053  22.405  22.596  1.00  0.00     0.163 HD
BRANCH   3   6
ATOM      6  C   UNL A   1      35.184  24.272  25.258  1.00  0.00     0.121 C 
BRANCH   6   7
ATOM      7  C   UNL A   1      34.250  25.473  25.334  1.00  0.00     0.126 C 
BRANCH   7   8
ATOM      8  N   UNL A   1      32.918  25.177  25.860  1.00  0.00    -0.351 N 
ATOM      9  C   UNL A   1      31.769  25.862  26.178  1.00  0.00     0.255 C 
ATOM     10  O   UNL A   1      30.915  25.204  26.776  1.00  0.00    -0.269 OA
ATOM     11  H   UNL A   1      32.814  24.214  26.037  1.00  0.00     0.163 HD
BRANCH   9  12
ATOM     12  C   UNL A   1      31.464  27.267  25.774  1.00  0.00     0.086 A 
ATOM     13  C   UNL A   1      31.742  29.647  26.154  1.00  0.00     0.121 A 
ATOM     14  C   UNL A   1      31.267  29.928  24.884  1.00  0.00     0.066 A 
ATOM     15  C   UNL A   1      31.906  28.330  26.568  1.00  0.00     0.064 A 
ATOM     16  C   UNL A   1      30.827  28.889  24.060  1.00  0.00     0.064 A 
ATOM     17  Br  UNL A   1      30.105  29.448  22.389  1.00  0.00    -0.047 Br
ATOM     18  C   UNL A   1      30.894  27.552  24.501  1.00  0.00     0.146 A 
BRANCH  13  19
ATOM     19  O   UNL A   1      32.121  30.622  27.036  1.00  0.00    -0.497 OA
ATOM     20  C   UNL A   1      33.495  30.493  27.410  1.00  0.00     0.278 C 
ENDBRANCH  13  19
BRANCH  18  21
ATOM     21  O   UNL A   1      30.277  26.520  23.833  1.00  0.00    -0.495 OA
ATOM     22  C   UNL A   1      28.874  26.375  24.049  1.00  0.00     0.278 C 
ENDBRANCH  18  21
ENDBRANCH   9  12
ENDBRANCH   7   8
ENDBRANCH   6   7
ENDBRANCH   3   6
ENDBRANCH   1   2
BRANCH   1  23
ATOM     23  C   UNL A   1      36.831  20.898  24.980  1.00  0.00     0.023 C 
BRANCH  23  24
ATOM     24  C   UNL A   1      37.919  19.832  24.985  1.00  0.00     0.023 C 
BRANCH  24  25
ATOM     25  C   UNL A   1      39.174  20.195  25.758  1.00  0.00     0.116 C 
BRANCH  25  26
ATOM     26  N   UNL A   1      40.154  19.121  25.825  1.00  0.00    -0.352 N 
ATOM     27  C   UNL A   1      41.495  19.202  26.126  1.00  0.00     0.251 C 
ATOM     28  H   UNL A   1      39.812  18.218  25.628  1.00  0.00     0.163 HD
ATOM     29  O   UNL A   1      42.215  18.217  26.068  1.00  0.00    -0.269 OA
BRANCH  27  30
ATOM     30  C   UNL A   1      42.062  20.520  26.478  1.00  0.00     0.039 A 
ATOM     31  C   UNL A   1      42.458  21.377  25.450  1.00  0.00     0.014 A 
ATOM     32  C   UNL A   1      42.124  20.931  27.811  1.00  0.00     0.014 A 
ATOM     33  C   UNL A   1      42.843  22.683  25.757  1.00  0.00     0.010 A 
ATOM     34  C   UNL A   1      42.418  22.256  28.105  1.00  0.00     0.010 A 
ATOM     35  C   UNL A   1      42.783  23.144  27.083  1.00  0.00    -0.014 A 
BRANCH  35  36
ATOM     36  C   UNL A   1      43.114  24.548  27.430  1.00  0.00     0.031 A 
ATOM     37  C   UNL A   1      44.550  24.992  27.436  1.00  0.00     0.074 A 
ATOM     38  C   UNL A   1      42.140  25.394  27.818  1.00  0.00     0.049 A 
ATOM     39  N   UNL A   1      45.062  26.136  27.812  1.00  0.00    -0.248 NA
ATOM     40  C   UNL A   1      45.551  24.004  26.997  1.00  0.00     0.031 C 
ATOM     41  C   UNL A   1      40.715  25.066  27.910  1.00  0.00     0.029 A 
ATOM     42  N   UNL A   1      42.203  26.704  28.220  1.00  0.00    -0.354 N 
ATOM     43  C   UNL A   1      46.437  25.993  27.686  1.00  0.00     0.074 A 
ATOM     44  C   UNL A   1      46.686  24.638  27.245  1.00  0.00     0.031 C 
ATOM     45  C   UNL A   1      40.039  26.153  28.315  1.00  0.00     0.029 A 
ATOM     46  C   UNL A   1      40.982  27.243  28.545  1.00  0.00     0.049 A 
ATOM     47  H   UNL A   1      43.046  27.212  28.271  1.00  0.00     0.167 HD
ATOM     48  C   UNL A   1      47.405  26.916  27.890  1.00  0.00     0.037 A 
ATOM     49  C   UNL A   1      40.662  28.475  28.982  1.00  0.00     0.037 A 
ATOM     50  C   UNL A   1      47.152  28.279  28.272  1.00  0.00     0.049 A 
ATOM     51  C   UNL A   1      41.755  29.492  29.168  1.00  0.00     0.074 A 
ATOM     52  C   UNL A   1      48.057  29.312  28.428  1.00  0.00     0.029 A 
ATOM     53  N   UNL A   1      45.895  28.797  28.547  1.00  0.00    -0.354 N 
ATOM     54  N   UNL A   1      43.046  29.364  28.979  1.00  0.00    -0.248 NA
ATOM     55  C   UNL A   1      41.345  30.829  29.623  1.00  0.00     0.031 C 
ATOM     56  C   UNL A   1      47.351  30.453  28.827  1.00  0.00     0.029 A 
ATOM     57  C   UNL A   1      46.004  30.136  28.884  1.00  0.00     0.049 A 
ATOM     58  H   UNL A   1      45.053  28.290  28.510  1.00  0.00     0.167 HD
ATOM     59  C   UNL A   1      43.597  30.606  29.260  1.00  0.00     0.074 A 
ATOM     60  C   UNL A   1      42.501  31.479  29.623  1.00  0.00     0.031 C 
ATOM     61  C   UNL A   1      44.896  30.990  29.222  1.00  0.00     0.037 A 
BRANCH  48  62
ATOM     62  C   UNL A   1      48.827  26.484  27.688  1.00  0.00     0.057 A 
ATOM     63  C   UNL A   1      49.605  25.993  28.744  1.00  0.00     0.134 A 
ATOM     64  C   UNL A   1      49.415  26.531  26.418  1.00  0.00     0.134 A 
ATOM     65  F   UNL A   1      49.105  25.937  29.988  1.00  0.00    -0.206 F 
ATOM     66  C   UNL A   1      50.926  25.585  28.549  1.00  0.00     0.040 A 
ATOM     67  C   UNL A   1      50.726  26.102  26.206  1.00  0.00     0.040 A 
ATOM     68  F   UNL A   1      48.723  26.989  25.363  1.00  0.00    -0.206 F 
ATOM     69  C   UNL A   1      51.487  25.633  27.275  1.00  0.00     0.006 A 
ENDBRANCH  48  62
BRANCH  49  70
ATOM     70  C   UNL A   1      39.246  28.834  29.245  1.00  0.00     0.057 A 
ATOM     71  C   UNL A   1      38.679  28.633  30.509  1.00  0.00     0.134 A 
ATOM     72  C   UNL A   1      38.423  29.361  28.244  1.00  0.00     0.134 A 
ATOM     73  F   UNL A   1      39.413  28.112  31.503  1.00  0.00    -0.206 F 
ATOM     74  C   UNL A   1      37.337  28.920  30.763  1.00  0.00     0.040 A 
ATOM     75  C   UNL A   1      37.085  29.674  28.491  1.00  0.00     0.040 A 
ATOM     76  F   UNL A   1      38.908  29.583  27.014  1.00  0.00    -0.206 F 
ATOM     77  C   UNL A   1      36.536  29.445  29.752  1.00  0.00     0.006 A 
ENDBRANCH  49  70
BRANCH  61  78
ATOM     78  C   UNL A   1      45.195  32.425  29.540  1.00  0.00     0.057 A 
ATOM     79  C   UNL A   1      45.515  32.842  30.837  1.00  0.00     0.134 A 
ATOM     80  C   UNL A   1      45.206  33.389  28.524  1.00  0.00     0.134 A 
ATOM     81  F   UNL A   1      45.509  31.967  31.854  1.00  0.00    -0.206 F 
ATOM     82  C   UNL A   1      45.818  34.175  31.118  1.00  0.00     0.040 A 
ATOM     83  C   UNL A   1      45.529  34.720  28.788  1.00  0.00     0.040 A 
ATOM     84  F   UNL A   1      44.916  33.050  27.259  1.00  0.00    -0.206 F 
ATOM     85  C   UNL A   1      45.833  35.116  30.089  1.00  0.00     0.006 A 
ENDBRANCH  61  78
ENDBRANCH  35  36
ENDBRANCH  27  30
ENDBRANCH  25  26
ENDBRANCH  24  25
ENDBRANCH  23  24
ENDBRANCH   1  23
TORSDOF 16
ENDMDL
