MODEL 1
REMARK VINA RESULT:     -12.0      0.000      0.000
REMARK SMILES Cc1ccc(-c2nnc(S[C@@H](C)C(=O)NCCCCNC(=O)c3ccc(-c4c5nc(c(-c6c(F)cccc6F)c6ccc([nH]6)c(-c6c(F)cccc6F)c6nc(c(-c7c(F)cccc7F)c7ccc4[nH]7)C=C6)C=C5)cc3)n2C)cc1
REMARK SMILES IDX 17 1 16 2 15 3 13 4 14 5 11 7 12 8 10 9 9 10 6 11 7 12 77 13
REMARK SMILES IDX 8 14 78 15 5 16 1 17 2 18 3 19 80 20 4 21 79 22 18 23 19 24
REMARK SMILES IDX 20 25 21 26 22 28 23 29 24 30 76 31 25 32 75 33 26 34 27 35
REMARK SMILES IDX 28 36 69 37 29 38 74 39 68 40 70 41 30 42 73 43 67 44 66 45
REMARK SMILES IDX 31 47 57 48 40 49 56 50 41 51 44 52 55 53 71 54 42 55 43 56
REMARK SMILES IDX 54 58 72 59 45 60 32 61 33 62 38 63 34 64 35 65 37 66 39 67
REMARK SMILES IDX 36 68 58 69 59 70 64 71 60 72 61 73 63 74 65 75 62 76 46 77
REMARK SMILES IDX 47 78 52 79 48 80 49 81 51 82 53 83 50 84
REMARK H PARENT 15 6 20 27 70 46 44 57
REMARK Flexibility Score: inf
ROOT
ATOM      1  C   UNL A   1      34.416  29.106  26.883  1.00  0.00     0.023 C 
ENDROOT
BRANCH   1   2
ATOM      2  C   UNL A   1      32.901  29.138  27.039  1.00  0.00     0.116 C 
BRANCH   2   3
ATOM      3  N   UNL A   1      32.084  29.861  26.099  1.00  0.00    -0.355 N 
ATOM      4  C   UNL A   1      31.657  29.497  24.853  1.00  0.00     0.233 C 
ATOM      5  O   UNL A   1      30.636  30.103  24.480  1.00  0.00    -0.274 OA
ATOM      6  H   UNL A   1      31.789  30.751  26.398  1.00  0.00     0.163 HD
BRANCH   4   7
ATOM      7  C   UNL A   1      32.285  28.490  23.860  1.00  0.00     0.141 C 
ATOM      8  C   UNL A   1      33.628  28.901  23.246  1.00  0.00     0.030 C 
BRANCH   7   9
ATOM      9  S   UNL A   1      31.388  27.472  22.711  1.00  0.00    -0.073 SA
BRANCH   9  10
ATOM     10  C   UNL A   1      31.964  25.852  22.528  1.00  0.00     0.191 A 
ATOM     11  C   UNL A   1      32.908  23.868  22.789  1.00  0.00     0.164 A 
ATOM     12  N   UNL A   1      33.280  24.397  21.633  1.00  0.00    -0.129 NA
ATOM     13  N   UNL A   1      32.003  24.750  23.365  1.00  0.00    -0.305 N 
ATOM     14  N   UNL A   1      32.685  25.597  21.462  1.00  0.00    -0.123 NA
ATOM     15  C   UNL A   1      31.369  24.572  24.637  1.00  0.00     0.154 C 
BRANCH  11  16
ATOM     16  C   UNL A   1      33.478  22.567  23.196  1.00  0.00     0.019 A 
ATOM     17  C   UNL A   1      34.546  17.757  24.446  1.00  0.00     0.044 C 
ATOM     18  C   UNL A   1      33.887  19.119  24.620  1.00  0.00    -0.051 A 
ATOM     19  C   UNL A   1      32.524  19.597  23.628  1.00  0.00     0.004 A 
ATOM     20  C   UNL A   1      35.111  20.358  25.000  1.00  0.00     0.004 A 
ATOM     21  C   UNL A   1      32.319  21.234  22.969  1.00  0.00     0.012 A 
ATOM     22  C   UNL A   1      34.969  22.201  24.165  1.00  0.00     0.012 A 
ENDBRANCH  11  16
ENDBRANCH   9  10
ENDBRANCH   7   9
ENDBRANCH   4   7
ENDBRANCH   2   3
ENDBRANCH   1   2
BRANCH   1  23
ATOM     23  C   UNL A   1      35.262  29.705  27.990  1.00  0.00     0.023 C 
BRANCH  23  24
ATOM     24  C   UNL A   1      35.527  31.201  27.932  1.00  0.00     0.116 C 
BRANCH  24  25
ATOM     25  N   UNL A   1      34.533  32.110  28.489  1.00  0.00    -0.352 N 
ATOM     26  C   UNL A   1      34.635  32.967  29.588  1.00  0.00     0.251 C 
ATOM     27  H   UNL A   1      33.664  32.121  28.026  1.00  0.00     0.163 HD
ATOM     28  O   UNL A   1      33.651  33.630  29.914  1.00  0.00    -0.269 OA
BRANCH  26  29
ATOM     29  C   UNL A   1      35.955  33.238  30.268  1.00  0.00     0.039 A 
ATOM     30  C   UNL A   1      36.951  33.940  29.573  1.00  0.00     0.014 A 
ATOM     31  C   UNL A   1      36.362  32.432  31.312  1.00  0.00     0.014 A 
ATOM     32  C   UNL A   1      38.272  33.470  29.651  1.00  0.00     0.010 A 
ATOM     33  C   UNL A   1      37.567  31.790  31.225  1.00  0.00     0.010 A 
ATOM     34  C   UNL A   1      38.510  32.257  30.327  1.00  0.00    -0.014 A 
BRANCH  34  35
ATOM     35  C   UNL A   1      39.816  31.628  30.511  1.00  0.00     0.031 A 
ATOM     36  C   UNL A   1      39.818  30.309  29.841  1.00  0.00     0.074 A 
ATOM     37  C   UNL A   1      40.872  32.275  31.086  1.00  0.00     0.049 A 
ATOM     38  N   UNL A   1      40.345  29.224  30.282  1.00  0.00    -0.248 NA
ATOM     39  C   UNL A   1      38.997  30.079  28.631  1.00  0.00     0.031 C 
ATOM     40  C   UNL A   1      42.287  31.936  31.116  1.00  0.00     0.029 A 
ATOM     41  N   UNL A   1      40.849  33.387  31.945  1.00  0.00    -0.354 N 
ATOM     42  C   UNL A   1      40.342  28.368  29.196  1.00  0.00     0.074 A 
ATOM     43  C   UNL A   1      39.274  28.811  28.346  1.00  0.00     0.031 C 
ATOM     44  C   UNL A   1      42.887  32.557  32.163  1.00  0.00     0.029 A 
ATOM     45  C   UNL A   1      41.855  33.242  32.947  1.00  0.00     0.049 A 
ATOM     46  H   UNL A   1      40.232  34.150  31.869  1.00  0.00     0.167 HD
ATOM     47  C   UNL A   1      41.465  27.645  28.928  1.00  0.00     0.037 A 
ATOM     48  C   UNL A   1      41.570  33.015  34.301  1.00  0.00     0.037 A 
ATOM     49  C   UNL A   1      42.463  27.909  29.967  1.00  0.00     0.049 A 
ATOM     50  C   UNL A   1      41.961  31.552  34.626  1.00  0.00     0.074 A 
ATOM     51  C   UNL A   1      43.527  28.795  30.018  1.00  0.00     0.029 A 
ATOM     52  N   UNL A   1      42.155  27.605  31.292  1.00  0.00    -0.354 N 
ATOM     53  N   UNL A   1      42.099  30.614  33.721  1.00  0.00    -0.248 NA
ATOM     54  C   UNL A   1      42.225  31.044  35.973  1.00  0.00     0.031 C 
ATOM     55  C   UNL A   1      43.806  29.076  31.383  1.00  0.00     0.029 A 
ATOM     56  C   UNL A   1      42.892  28.392  32.164  1.00  0.00     0.049 A 
ATOM     57  H   UNL A   1      41.501  26.925  31.572  1.00  0.00     0.167 HD
ATOM     58  C   UNL A   1      42.466  29.432  34.307  1.00  0.00     0.074 A 
ATOM     59  C   UNL A   1      42.532  29.756  35.723  1.00  0.00     0.031 C 
ATOM     60  C   UNL A   1      42.691  28.279  33.604  1.00  0.00     0.037 A 
BRANCH  47  61
ATOM     61  C   UNL A   1      41.755  27.111  27.541  1.00  0.00     0.057 A 
ATOM     62  C   UNL A   1      41.641  25.738  27.255  1.00  0.00     0.134 A 
ATOM     63  C   UNL A   1      42.183  27.896  26.451  1.00  0.00     0.134 A 
ATOM     64  F   UNL A   1      41.184  24.866  28.159  1.00  0.00    -0.206 F 
ATOM     65  C   UNL A   1      41.991  25.182  26.017  1.00  0.00     0.040 A 
ATOM     66  C   UNL A   1      42.585  27.348  25.222  1.00  0.00     0.040 A 
ATOM     67  F   UNL A   1      42.192  29.235  26.514  1.00  0.00    -0.206 F 
ATOM     68  C   UNL A   1      42.489  25.982  25.001  1.00  0.00     0.006 A 
ENDBRANCH  47  61
BRANCH  48  69
ATOM     69  C   UNL A   1      40.203  33.596  34.817  1.00  0.00     0.057 A 
ATOM     70  C   UNL A   1      38.614  32.782  35.077  1.00  0.00     0.134 A 
ATOM     71  C   UNL A   1      40.741  34.854  35.918  1.00  0.00     0.134 A 
ATOM     72  F   UNL A   1      38.247  31.727  34.337  1.00  0.00    -0.206 F 
ATOM     73  C   UNL A   1      37.635  33.187  36.584  1.00  0.00     0.040 A 
ATOM     74  C   UNL A   1      40.032  35.216  37.427  1.00  0.00     0.040 A 
ATOM     75  F   UNL A   1      41.622  35.737  35.415  1.00  0.00    -0.206 F 
ATOM     76  C   UNL A   1      38.526  34.458  37.877  1.00  0.00     0.006 A 
ENDBRANCH  48  69
BRANCH  60  77
ATOM     77  C   UNL A   1      42.842  26.915  34.227  1.00  0.00     0.057 A 
ATOM     78  C   UNL A   1      44.074  26.270  34.385  1.00  0.00     0.134 A 
ATOM     79  C   UNL A   1      41.738  26.269  34.827  1.00  0.00     0.134 A 
ATOM     80  F   UNL A   1      45.222  26.847  34.001  1.00  0.00    -0.206 F 
ATOM     81  C   UNL A   1      44.184  25.014  34.992  1.00  0.00     0.040 A 
ATOM     82  C   UNL A   1      41.847  25.053  35.502  1.00  0.00     0.040 A 
ATOM     83  F   UNL A   1      40.507  26.802  34.806  1.00  0.00    -0.206 F 
ATOM     84  C   UNL A   1      43.069  24.403  35.554  1.00  0.00     0.006 A 
ENDBRANCH  60  77
ENDBRANCH  34  35
ENDBRANCH  26  29
ENDBRANCH  24  25
ENDBRANCH  23  24
ENDBRANCH   1  23
TORSDOF 14
ENDMDL
MODEL 2
REMARK VINA RESULT:     -11.7      4.410      9.387
REMARK SMILES Cc1ccc(-c2nnc(S[C@@H](C)C(=O)NCCCCNC(=O)c3ccc(-c4c5nc(c(-c6c(F)cccc6F)c6ccc([nH]6)c(-c6c(F)cccc6F)c6nc(c(-c7c(F)cccc7F)c7ccc4[nH]7)C=C6)C=C5)cc3)n2C)cc1
REMARK SMILES IDX 17 1 16 2 15 3 13 4 14 5 11 7 12 8 10 9 9 10 6 11 7 12 77 13
REMARK SMILES IDX 8 14 78 15 5 16 1 17 2 18 3 19 80 20 4 21 79 22 18 23 19 24
REMARK SMILES IDX 20 25 21 26 22 28 23 29 24 30 76 31 25 32 75 33 26 34 27 35
REMARK SMILES IDX 28 36 69 37 29 38 74 39 68 40 70 41 30 42 73 43 67 44 66 45
REMARK SMILES IDX 31 47 57 48 40 49 56 50 41 51 44 52 55 53 71 54 42 55 43 56
REMARK SMILES IDX 54 58 72 59 45 60 32 61 33 62 38 63 34 64 35 65 37 66 39 67
REMARK SMILES IDX 36 68 58 69 59 70 64 71 60 72 61 73 63 74 65 75 62 76 46 77
REMARK SMILES IDX 47 78 52 79 48 80 49 81 51 82 53 83 50 84
REMARK H PARENT 15 6 20 27 70 46 44 57
REMARK Flexibility Score: inf
ROOT
ATOM      1  C   UNL A   1      37.990  24.071  26.495  1.00  0.00     0.023 C 
ENDROOT
BRANCH   1   2
ATOM      2  C   UNL A   1      37.228  23.325  25.407  1.00  0.00     0.116 C 
BRANCH   2   3
ATOM      3  N   UNL A   1      37.118  21.889  25.445  1.00  0.00    -0.355 N 
ATOM      4  C   UNL A   1      36.005  21.098  25.393  1.00  0.00     0.233 C 
ATOM      5  O   UNL A   1      36.236  19.939  25.001  1.00  0.00    -0.274 OA
ATOM      6  H   UNL A   1      37.971  21.405  25.518  1.00  0.00     0.163 HD
BRANCH   4   7
ATOM      7  C   UNL A   1      34.547  21.435  25.787  1.00  0.00     0.141 C 
ATOM      8  C   UNL A   1      33.512  21.361  24.659  1.00  0.00     0.030 C 
BRANCH   7   9
ATOM      9  S   UNL A   1      34.052  22.663  26.974  1.00  0.00    -0.073 SA
BRANCH   9  10
ATOM     10  C   UNL A   1      32.770  23.713  26.484  1.00  0.00     0.191 A 
ATOM     11  C   UNL A   1      31.519  25.437  25.883  1.00  0.00     0.164 A 
ATOM     12  N   UNL A   1      30.937  24.781  26.876  1.00  0.00    -0.129 NA
ATOM     13  N   UNL A   1      32.674  24.738  25.557  1.00  0.00    -0.305 N 
ATOM     14  N   UNL A   1      31.689  23.715  27.226  1.00  0.00    -0.123 NA
ATOM     15  C   UNL A   1      33.613  25.117  24.545  1.00  0.00     0.154 C 
BRANCH  11  16
ATOM     16  C   UNL A   1      30.883  26.669  25.371  1.00  0.00     0.019 A 
ATOM     17  C   UNL A   1      28.118  30.296  23.126  1.00  0.00     0.044 C 
ATOM     18  C   UNL A   1      29.113  29.142  23.174  1.00  0.00    -0.051 A 
ATOM     19  C   UNL A   1      28.571  27.492  23.396  1.00  0.00     0.004 A 
ATOM     20  C   UNL A   1      30.608  29.645  24.005  1.00  0.00     0.004 A 
ATOM     21  C   UNL A   1      29.418  26.313  24.421  1.00  0.00     0.012 A 
ATOM     22  C   UNL A   1      31.531  28.361  25.275  1.00  0.00     0.012 A 
ENDBRANCH  11  16
ENDBRANCH   9  10
ENDBRANCH   7   9
ENDBRANCH   4   7
ENDBRANCH   2   3
ENDBRANCH   1   2
BRANCH   1  23
ATOM     23  C   UNL A   1      39.270  23.454  27.024  1.00  0.00     0.023 C 
BRANCH  23  24
ATOM     24  C   UNL A   1      40.498  23.527  26.130  1.00  0.00     0.116 C 
BRANCH  24  25
ATOM     25  N   UNL A   1      41.158  22.285  25.745  1.00  0.00    -0.352 N 
ATOM     26  C   UNL A   1      42.459  21.853  26.018  1.00  0.00     0.251 C 
ATOM     27  H   UNL A   1      40.610  21.662  25.216  1.00  0.00     0.163 HD
ATOM     28  O   UNL A   1      42.831  20.773  25.562  1.00  0.00    -0.269 OA
BRANCH  26  29
ATOM     29  C   UNL A   1      43.350  22.577  26.997  1.00  0.00     0.039 A 
ATOM     30  C   UNL A   1      43.121  22.428  28.372  1.00  0.00     0.014 A 
ATOM     31  C   UNL A   1      44.034  23.706  26.590  1.00  0.00     0.014 A 
ATOM     32  C   UNL A   1      43.172  23.573  29.184  1.00  0.00     0.010 A 
ATOM     33  C   UNL A   1      43.854  24.876  27.277  1.00  0.00     0.010 A 
ATOM     34  C   UNL A   1      43.338  24.825  28.560  1.00  0.00    -0.014 A 
BRANCH  34  35
ATOM     35  C   UNL A   1      43.422  26.112  29.246  1.00  0.00     0.031 A 
ATOM     36  C   UNL A   1      42.179  26.876  28.999  1.00  0.00     0.074 A 
ATOM     37  C   UNL A   1      44.446  26.433  30.091  1.00  0.00     0.049 A 
ATOM     38  N   UNL A   1      42.084  28.134  28.765  1.00  0.00    -0.248 NA
ATOM     39  C   UNL A   1      40.892  26.172  28.800  1.00  0.00     0.031 C 
ATOM     40  C   UNL A   1      44.575  27.516  31.053  1.00  0.00     0.029 A 
ATOM     41  N   UNL A   1      45.734  25.874  30.150  1.00  0.00    -0.354 N 
ATOM     42  C   UNL A   1      40.735  28.413  28.894  1.00  0.00     0.074 A 
ATOM     43  C   UNL A   1      40.049  27.183  28.618  1.00  0.00     0.031 C 
ATOM     44  C   UNL A   1      45.886  27.747  31.315  1.00  0.00     0.029 A 
ATOM     45  C   UNL A   1      46.690  26.896  30.433  1.00  0.00     0.049 A 
ATOM     46  H   UNL A   1      45.946  24.923  30.015  1.00  0.00     0.167 HD
ATOM     47  C   UNL A   1      40.359  29.515  29.601  1.00  0.00     0.037 A 
ATOM     48  C   UNL A   1      47.638  27.345  29.503  1.00  0.00     0.037 A 
ATOM     49  C   UNL A   1      41.557  30.240  30.030  1.00  0.00     0.049 A 
ATOM     50  C   UNL A   1      47.223  28.769  29.056  1.00  0.00     0.074 A 
ATOM     51  C   UNL A   1      42.271  30.215  31.218  1.00  0.00     0.029 A 
ATOM     52  N   UNL A   1      42.437  30.723  29.065  1.00  0.00    -0.354 N 
ATOM     53  N   UNL A   1      46.010  29.249  29.182  1.00  0.00    -0.248 NA
ATOM     54  C   UNL A   1      48.129  29.743  28.447  1.00  0.00     0.031 C 
ATOM     55  C   UNL A   1      43.607  30.617  30.941  1.00  0.00     0.029 A 
ATOM     56  C   UNL A   1      43.717  30.853  29.582  1.00  0.00     0.049 A 
ATOM     57  H   UNL A   1      42.186  30.942  28.138  1.00  0.00     0.167 HD
ATOM     58  C   UNL A   1      45.954  30.535  28.715  1.00  0.00     0.074 A 
ATOM     59  C   UNL A   1      47.312  30.798  28.265  1.00  0.00     0.031 C 
ATOM     60  C   UNL A   1      44.814  31.293  28.729  1.00  0.00     0.037 A 
BRANCH  47  61
ATOM     61  C   UNL A   1      38.987  29.626  30.231  1.00  0.00     0.057 A 
ATOM     62  C   UNL A   1      37.950  30.331  29.593  1.00  0.00     0.134 A 
ATOM     63  C   UNL A   1      38.632  29.083  31.483  1.00  0.00     0.134 A 
ATOM     64  F   UNL A   1      38.101  30.850  28.370  1.00  0.00    -0.206 F 
ATOM     65  C   UNL A   1      36.695  30.544  30.178  1.00  0.00     0.040 A 
ATOM     66  C   UNL A   1      37.397  29.330  32.104  1.00  0.00     0.040 A 
ATOM     67  F   UNL A   1      39.453  28.256  32.146  1.00  0.00    -0.206 F 
ATOM     68  C   UNL A   1      36.420  30.065  31.449  1.00  0.00     0.006 A 
ENDBRANCH  47  61
BRANCH  48  69
ATOM     69  C   UNL A   1      48.099  26.288  28.435  1.00  0.00     0.057 A 
ATOM     70  C   UNL A   1      47.662  26.127  26.691  1.00  0.00     0.134 A 
ATOM     71  C   UNL A   1      49.730  25.921  28.973  1.00  0.00     0.134 A 
ATOM     72  F   UNL A   1      46.469  26.534  26.236  1.00  0.00    -0.206 F 
ATOM     73  C   UNL A   1      48.977  25.710  25.471  1.00  0.00     0.040 A 
ATOM     74  C   UNL A   1      51.079  25.687  27.954  1.00  0.00     0.040 A 
ATOM     75  F   UNL A   1      49.857  25.568  30.265  1.00  0.00    -0.206 F 
ATOM     76  C   UNL A   1      50.847  25.581  26.227  1.00  0.00     0.006 A 
ENDBRANCH  48  69
BRANCH  60  77
ATOM     77  C   UNL A   1      44.651  32.602  27.998  1.00  0.00     0.057 A 
ATOM     78  C   UNL A   1      45.084  33.831  28.509  1.00  0.00     0.134 A 
ATOM     79  C   UNL A   1      44.171  32.632  26.670  1.00  0.00     0.134 A 
ATOM     80  F   UNL A   1      45.702  33.918  29.695  1.00  0.00    -0.206 F 
ATOM     81  C   UNL A   1      44.941  35.025  27.795  1.00  0.00     0.040 A 
ATOM     82  C   UNL A   1      44.095  33.806  25.920  1.00  0.00     0.040 A 
ATOM     83  F   UNL A   1      43.777  31.520  26.032  1.00  0.00    -0.206 F 
ATOM     84  C   UNL A   1      44.447  35.015  26.495  1.00  0.00     0.006 A 
ENDBRANCH  60  77
ENDBRANCH  34  35
ENDBRANCH  26  29
ENDBRANCH  24  25
ENDBRANCH  23  24
ENDBRANCH   1  23
TORSDOF 14
ENDMDL
MODEL 3
REMARK VINA RESULT:     -11.6      4.752      9.870
REMARK SMILES Cc1ccc(-c2nnc(S[C@@H](C)C(=O)NCCCCNC(=O)c3ccc(-c4c5nc(c(-c6c(F)cccc6F)c6ccc([nH]6)c(-c6c(F)cccc6F)c6nc(c(-c7c(F)cccc7F)c7ccc4[nH]7)C=C6)C=C5)cc3)n2C)cc1
REMARK SMILES IDX 17 1 16 2 15 3 13 4 14 5 11 7 12 8 10 9 9 10 6 11 7 12 77 13
REMARK SMILES IDX 8 14 78 15 5 16 1 17 2 18 3 19 80 20 4 21 79 22 18 23 19 24
REMARK SMILES IDX 20 25 21 26 22 28 23 29 24 30 76 31 25 32 75 33 26 34 27 35
REMARK SMILES IDX 28 36 69 37 29 38 74 39 68 40 70 41 30 42 73 43 67 44 66 45
REMARK SMILES IDX 31 47 57 48 40 49 56 50 41 51 44 52 55 53 71 54 42 55 43 56
REMARK SMILES IDX 54 58 72 59 45 60 32 61 33 62 38 63 34 64 35 65 37 66 39 67
REMARK SMILES IDX 36 68 58 69 59 70 64 71 60 72 61 73 63 74 65 75 62 76 46 77
REMARK SMILES IDX 47 78 52 79 48 80 49 81 51 82 53 83 50 84
REMARK H PARENT 15 6 20 27 70 46 44 57
REMARK Flexibility Score: inf
ROOT
ATOM      1  C   UNL A   1      39.682  21.393  26.109  1.00  0.00     0.023 C 
ENDROOT
BRANCH   1   2
ATOM      2  C   UNL A   1      38.244  21.876  25.981  1.00  0.00     0.116 C 
BRANCH   2   3
ATOM      3  N   UNL A   1      37.645  22.056  24.682  1.00  0.00    -0.355 N 
ATOM      4  C   UNL A   1      36.333  22.234  24.344  1.00  0.00     0.233 C 
ATOM      5  O   UNL A   1      36.175  22.794  23.244  1.00  0.00    -0.274 OA
ATOM      6  H   UNL A   1      38.275  22.051  23.927  1.00  0.00     0.163 HD
BRANCH   4   7
ATOM      7  C   UNL A   1      35.059  21.803  25.109  1.00  0.00     0.141 C 
ATOM      8  C   UNL A   1      33.918  21.243  24.253  1.00  0.00     0.030 C 
BRANCH   7   9
ATOM      9  S   UNL A   1      34.390  22.613  26.544  1.00  0.00    -0.073 SA
BRANCH   9  10
ATOM     10  C   UNL A   1      33.123  23.751  26.246  1.00  0.00     0.191 A 
ATOM     11  C   UNL A   1      31.911  25.567  25.883  1.00  0.00     0.164 A 
ATOM     12  N   UNL A   1      31.386  24.864  26.875  1.00  0.00    -0.129 NA
ATOM     13  N   UNL A   1      32.998  24.845  25.406  1.00  0.00    -0.305 N 
ATOM     14  N   UNL A   1      32.111  23.743  27.080  1.00  0.00    -0.123 NA
ATOM     15  C   UNL A   1      33.864  25.259  24.343  1.00  0.00     0.154 C 
BRANCH  11  16
ATOM     16  C   UNL A   1      31.295  26.859  25.518  1.00  0.00     0.019 A 
ATOM     17  C   UNL A   1      28.826  30.819  23.502  1.00  0.00     0.044 C 
ATOM     18  C   UNL A   1      29.901  29.741  23.560  1.00  0.00    -0.051 A 
ATOM     19  C   UNL A   1      29.520  28.067  23.212  1.00  0.00     0.004 A 
ATOM     20  C   UNL A   1      31.045  30.075  24.886  1.00  0.00     0.004 A 
ATOM     21  C   UNL A   1      30.194  26.700  24.126  1.00  0.00     0.012 A 
ATOM     22  C   UNL A   1      31.737  28.545  26.024  1.00  0.00     0.012 A 
ENDBRANCH  11  16
ENDBRANCH   9  10
ENDBRANCH   7   9
ENDBRANCH   4   7
ENDBRANCH   2   3
ENDBRANCH   1   2
BRANCH   1  23
ATOM     23  C   UNL A   1      40.644  22.221  26.939  1.00  0.00     0.023 C 
BRANCH  23  24
ATOM     24  C   UNL A   1      41.816  22.864  26.212  1.00  0.00     0.116 C 
BRANCH  24  25
ATOM     25  N   UNL A   1      42.609  22.046  25.302  1.00  0.00    -0.352 N 
ATOM     26  C   UNL A   1      43.933  22.215  24.887  1.00  0.00     0.251 C 
ATOM     27  H   UNL A   1      42.145  21.263  24.926  1.00  0.00     0.163 HD
ATOM     28  O   UNL A   1      44.403  21.419  24.075  1.00  0.00    -0.269 OA
BRANCH  26  29
ATOM     29  C   UNL A   1      44.848  23.224  25.535  1.00  0.00     0.039 A 
ATOM     30  C   UNL A   1      45.265  23.019  26.858  1.00  0.00     0.014 A 
ATOM     31  C   UNL A   1      44.887  24.517  25.055  1.00  0.00     0.014 A 
ATOM     32  C   UNL A   1      45.259  24.116  27.735  1.00  0.00     0.010 A 
ATOM     33  C   UNL A   1      44.625  25.552  25.910  1.00  0.00     0.010 A 
ATOM     34  C   UNL A   1      44.728  25.336  27.272  1.00  0.00    -0.014 A 
BRANCH  34  35
ATOM     35  C   UNL A   1      44.651  26.576  28.042  1.00  0.00     0.031 A 
ATOM     36  C   UNL A   1      43.255  27.064  28.038  1.00  0.00     0.074 A 
ATOM     37  C   UNL A   1      45.706  27.069  28.755  1.00  0.00     0.049 A 
ATOM     38  N   UNL A   1      42.867  28.282  27.922  1.00  0.00    -0.248 NA
ATOM     39  C   UNL A   1      42.125  26.108  27.968  1.00  0.00     0.031 C 
ATOM     40  C   UNL A   1      45.758  28.106  29.774  1.00  0.00     0.029 A 
ATOM     41  N   UNL A   1      47.075  26.800  28.584  1.00  0.00    -0.354 N 
ATOM     42  C   UNL A   1      41.526  28.256  28.264  1.00  0.00     0.074 A 
ATOM     43  C   UNL A   1      41.074  26.921  27.991  1.00  0.00     0.031 C 
ATOM     44  C   UNL A   1      47.018  28.602  29.864  1.00  0.00     0.029 A 
ATOM     45  C   UNL A   1      47.831  27.989  28.810  1.00  0.00     0.049 A 
ATOM     46  H   UNL A   1      47.455  25.924  28.343  1.00  0.00     0.167 HD
ATOM     47  C   UNL A   1      41.046  29.215  29.105  1.00  0.00     0.037 A 
ATOM     48  C   UNL A   1      48.509  28.677  27.794  1.00  0.00     0.037 A 
ATOM     49  C   UNL A   1      42.121  30.159  29.416  1.00  0.00     0.049 A 
ATOM     50  C   UNL A   1      47.745  29.998  27.527  1.00  0.00     0.074 A 
ATOM     51  C   UNL A   1      43.002  30.231  30.483  1.00  0.00     0.029 A 
ATOM     52  N   UNL A   1      42.720  30.868  28.377  1.00  0.00    -0.354 N 
ATOM     53  N   UNL A   1      46.494  30.198  27.863  1.00  0.00    -0.248 NA
ATOM     54  C   UNL A   1      48.323  31.173  26.876  1.00  0.00     0.031 C 
ATOM     55  C   UNL A   1      44.166  30.926  30.052  1.00  0.00     0.029 A 
ATOM     56  C   UNL A   1      44.011  31.246  28.715  1.00  0.00     0.049 A 
ATOM     57  H   UNL A   1      42.287  31.072  27.517  1.00  0.00     0.167 HD
ATOM     58  C   UNL A   1      46.101  31.462  27.515  1.00  0.00     0.074 A 
ATOM     59  C   UNL A   1      47.287  32.034  26.898  1.00  0.00     0.031 C 
ATOM     60  C   UNL A   1      44.846  31.954  27.753  1.00  0.00     0.037 A 
BRANCH  47  61
ATOM     61  C   UNL A   1      39.797  28.995  29.931  1.00  0.00     0.057 A 
ATOM     62  C   UNL A   1      38.530  29.369  29.446  1.00  0.00     0.134 A 
ATOM     63  C   UNL A   1      39.779  28.445  31.230  1.00  0.00     0.134 A 
ATOM     64  F   UNL A   1      38.364  29.843  28.207  1.00  0.00    -0.206 F 
ATOM     65  C   UNL A   1      37.359  29.276  30.209  1.00  0.00     0.040 A 
ATOM     66  C   UNL A   1      38.622  28.393  32.025  1.00  0.00     0.040 A 
ATOM     67  F   UNL A   1      40.875  27.898  31.774  1.00  0.00    -0.206 F 
ATOM     68  C   UNL A   1      37.403  28.810  31.513  1.00  0.00     0.006 A 
ENDBRANCH  47  61
BRANCH  48  69
ATOM     69  C   UNL A   1      49.005  27.798  26.588  1.00  0.00     0.057 A 
ATOM     70  C   UNL A   1      48.224  27.454  24.999  1.00  0.00     0.134 A 
ATOM     71  C   UNL A   1      50.747  27.999  26.690  1.00  0.00     0.134 A 
ATOM     72  F   UNL A   1      46.890  27.437  24.872  1.00  0.00    -0.206 F 
ATOM     73  C   UNL A   1      49.255  27.454  23.473  1.00  0.00     0.040 A 
ATOM     74  C   UNL A   1      51.800  28.188  25.360  1.00  0.00     0.040 A 
ATOM     75  F   UNL A   1      51.298  27.743  27.890  1.00  0.00    -0.206 F 
ATOM     76  C   UNL A   1      51.192  27.964  23.740  1.00  0.00     0.006 A 
ENDBRANCH  48  69
BRANCH  60  77
ATOM     77  C   UNL A   1      44.303  33.230  27.162  1.00  0.00     0.057 A 
ATOM     78  C   UNL A   1      43.929  33.362  25.820  1.00  0.00     0.134 A 
ATOM     79  C   UNL A   1      44.005  34.338  27.986  1.00  0.00     0.134 A 
ATOM     80  F   UNL A   1      44.013  32.333  24.964  1.00  0.00    -0.206 F 
ATOM     81  C   UNL A   1      43.404  34.553  25.307  1.00  0.00     0.040 A 
ATOM     82  C   UNL A   1      43.411  35.504  27.502  1.00  0.00     0.040 A 
ATOM     83  F   UNL A   1      44.254  34.330  29.304  1.00  0.00    -0.206 F 
ATOM     84  C   UNL A   1      43.141  35.628  26.149  1.00  0.00     0.006 A 
ENDBRANCH  60  77
ENDBRANCH  34  35
ENDBRANCH  26  29
ENDBRANCH  24  25
ENDBRANCH  23  24
ENDBRANCH   1  23
TORSDOF 14
ENDMDL
