MODEL 1
REMARK VINA RESULT:     -10.3      0.000      0.000
REMARK SMILES C[NH2+]C[C@H](C)C(=O)NC[C@](C)(O)C(=O)NCCCCNC(=O)c1ccc(-c2c3nc(c(-c4c(F)cccc4F)c4ccc([nH]4)c(-c4c(F)cccc4F)c4nc(c(-c5c(F)cccc5F)c5ccc2[nH]5)C=C4)C=C3)cc1
REMARK SMILES IDX 16 1 15 2 13 3 14 4 10 6 11 7 9 8 8 9 6 10 7 11 4 13 5 14
REMARK SMILES IDX 3 15 2 16 1 17 12 20 17 22 18 23 19 24 20 25 21 26 22 28
REMARK SMILES IDX 23 29 24 30 76 31 25 32 75 33 26 34 27 35 28 36 69 37 29 38
REMARK SMILES IDX 74 39 68 40 70 41 30 42 73 43 67 44 66 45 31 47 57 48 40 49
REMARK SMILES IDX 56 50 41 51 44 52 55 53 71 54 42 55 43 56 54 58 72 59 45 60
REMARK SMILES IDX 32 61 33 62 38 63 34 64 35 65 37 66 39 67 36 68 58 69 59 70
REMARK SMILES IDX 64 71 60 72 61 73 63 74 65 75 62 76 46 77 47 78 52 79 48 80
REMARK SMILES IDX 49 81 51 82 53 83 50 84
REMARK H PARENT 15 5 8 12 2 18 2 19 12 21 20 27 70 46 44 57
REMARK Flexibility Score: inf
ROOT
ATOM      1  C   UNL A   1      31.019  30.218  24.871  1.00  0.00     0.116 C 
ENDROOT
BRANCH   1   2
ATOM      2  N   UNL A   1      29.952  31.119  24.475  1.00  0.00    -0.354 N 
ATOM      3  C   UNL A   1      29.142  31.098  23.376  1.00  0.00     0.253 C 
ATOM      4  O   UNL A   1      28.202  31.901  23.376  1.00  0.00    -0.272 OA
ATOM      5  H   UNL A   1      29.786  31.862  25.099  1.00  0.00     0.163 HD
BRANCH   3   6
ATOM      6  C   UNL A   1      29.346  30.094  22.190  1.00  0.00     0.157 C 
ATOM      7  C   UNL A   1      28.117  30.215  21.265  1.00  0.00     0.055 C 
BRANCH   6   8
ATOM      8  C   UNL A   1      29.394  28.637  22.707  1.00  0.00     0.160 C 
BRANCH   8   9
ATOM      9  N   UNL A   1      30.531  27.891  22.197  1.00  0.00    -0.352 N 
ATOM     10  C   UNL A   1      31.251  26.883  22.747  1.00  0.00     0.228 C 
ATOM     11  O   UNL A   1      32.319  26.582  22.204  1.00  0.00    -0.275 OA
ATOM     12  H   UNL A   1      30.829  28.165  21.300  1.00  0.00     0.163 HD
BRANCH  10  13
ATOM     13  C   UNL A   1      30.757  26.100  23.955  1.00  0.00     0.130 C 
ATOM     14  C   UNL A   1      30.528  24.617  23.663  1.00  0.00     0.024 C 
BRANCH  13  15
ATOM     15  C   UNL A   1      31.621  26.337  25.208  1.00  0.00     0.273 C 
BRANCH  15  16
ATOM     16  N   UNL A   1      33.056  26.554  24.990  1.00  0.00    -0.348 N 
ATOM     17  C   UNL A   1      33.664  27.429  25.985  1.00  0.00     0.330 C 
ATOM     18  H   UNL A   1      33.529  25.651  25.021  1.00  0.00     0.346 HD
ATOM     19  H   UNL A   1      33.159  27.011  24.083  1.00  0.00     0.346 HD
ENDBRANCH  15  16
ENDBRANCH  13  15
ENDBRANCH  10  13
ENDBRANCH   8   9
ENDBRANCH   6   8
BRANCH   6  20
ATOM     20  O   UNL A   1      30.501  30.302  21.377  1.00  0.00    -0.378 OA
ATOM     21  H   UNL A   1      31.200  30.717  21.907  1.00  0.00     0.212 HD
ENDBRANCH   6  20
ENDBRANCH   3   6
ENDBRANCH   1   2
BRANCH   1  22
ATOM     22  C   UNL A   1      31.723  30.625  26.161  1.00  0.00     0.023 C 
BRANCH  22  23
ATOM     23  C   UNL A   1      31.479  32.065  26.622  1.00  0.00     0.023 C 
BRANCH  23  24
ATOM     24  C   UNL A   1      32.678  32.788  27.238  1.00  0.00     0.116 C 
BRANCH  24  25
ATOM     25  N   UNL A   1      32.390  34.161  27.628  1.00  0.00    -0.352 N 
ATOM     26  C   UNL A   1      32.986  34.954  28.580  1.00  0.00     0.251 C 
ATOM     27  H   UNL A   1      31.655  34.588  27.132  1.00  0.00     0.163 HD
ATOM     28  O   UNL A   1      32.512  36.052  28.861  1.00  0.00    -0.269 OA
BRANCH  26  29
ATOM     29  C   UNL A   1      34.184  34.473  29.300  1.00  0.00     0.039 A 
ATOM     30  C   UNL A   1      34.029  33.886  30.559  1.00  0.00     0.014 A 
ATOM     31  C   UNL A   1      35.454  34.583  28.730  1.00  0.00     0.014 A 
ATOM     32  C   UNL A   1      35.134  33.314  31.196  1.00  0.00     0.010 A 
ATOM     33  C   UNL A   1      36.538  33.947  29.328  1.00  0.00     0.010 A 
ATOM     34  C   UNL A   1      36.386  33.289  30.560  1.00  0.00    -0.014 A 
BRANCH  34  35
ATOM     35  C   UNL A   1      37.538  32.551  31.139  1.00  0.00     0.031 A 
ATOM     36  C   UNL A   1      38.189  33.031  32.406  1.00  0.00     0.074 A 
ATOM     37  C   UNL A   1      38.058  31.502  30.472  1.00  0.00     0.049 A 
ATOM     38  N   UNL A   1      39.268  32.588  33.000  1.00  0.00    -0.248 NA
ATOM     39  C   UNL A   1      37.559  34.176  33.080  1.00  0.00     0.031 C 
ATOM     40  C   UNL A   1      37.552  30.965  29.207  1.00  0.00     0.029 A 
ATOM     41  N   UNL A   1      39.142  30.708  30.756  1.00  0.00    -0.354 N 
ATOM     42  C   UNL A   1      39.456  33.410  34.103  1.00  0.00     0.074 A 
ATOM     43  C   UNL A   1      38.407  34.406  34.071  1.00  0.00     0.031 C 
ATOM     44  C   UNL A   1      38.312  29.923  28.835  1.00  0.00     0.029 A 
ATOM     45  C   UNL A   1      39.384  29.743  29.808  1.00  0.00     0.049 A 
ATOM     46  H   UNL A   1      39.695  30.820  31.564  1.00  0.00     0.167 HD
ATOM     47  C   UNL A   1      40.405  33.330  35.067  1.00  0.00     0.037 A 
ATOM     48  C   UNL A   1      40.366  28.826  29.723  1.00  0.00     0.037 A 
ATOM     49  C   UNL A   1      41.432  32.323  35.113  1.00  0.00     0.049 A 
ATOM     50  C   UNL A   1      41.415  28.766  30.798  1.00  0.00     0.074 A 
ATOM     51  C   UNL A   1      42.394  32.117  36.087  1.00  0.00     0.029 A 
ATOM     52  N   UNL A   1      41.632  31.353  34.142  1.00  0.00    -0.354 N 
ATOM     53  N   UNL A   1      41.540  29.507  31.871  1.00  0.00    -0.248 NA
ATOM     54  C   UNL A   1      42.459  27.742  30.650  1.00  0.00     0.031 C 
ATOM     55  C   UNL A   1      43.203  31.050  35.684  1.00  0.00     0.029 A 
ATOM     56  C   UNL A   1      42.718  30.562  34.482  1.00  0.00     0.049 A 
ATOM     57  H   UNL A   1      41.083  31.242  33.333  1.00  0.00     0.167 HD
ATOM     58  C   UNL A   1      42.659  29.025  32.538  1.00  0.00     0.074 A 
ATOM     59  C   UNL A   1      43.170  27.920  31.756  1.00  0.00     0.031 C 
ATOM     60  C   UNL A   1      43.213  29.461  33.696  1.00  0.00     0.037 A 
BRANCH  47  61
ATOM     61  C   UNL A   1      40.373  34.361  36.155  1.00  0.00     0.057 A 
ATOM     62  C   UNL A   1      41.069  35.572  36.045  1.00  0.00     0.134 A 
ATOM     63  C   UNL A   1      39.607  34.159  37.310  1.00  0.00     0.134 A 
ATOM     64  F   UNL A   1      41.830  35.825  34.969  1.00  0.00    -0.206 F 
ATOM     65  C   UNL A   1      41.026  36.534  37.057  1.00  0.00     0.040 A 
ATOM     66  C   UNL A   1      39.534  35.125  38.316  1.00  0.00     0.040 A 
ATOM     67  F   UNL A   1      38.910  33.025  37.476  1.00  0.00    -0.206 F 
ATOM     68  C   UNL A   1      40.250  36.313  38.193  1.00  0.00     0.006 A 
ENDBRANCH  47  61
BRANCH  48  69
ATOM     69  C   UNL A   1      40.401  27.878  28.581  1.00  0.00     0.057 A 
ATOM     70  C   UNL A   1      39.724  26.655  28.640  1.00  0.00     0.134 A 
ATOM     71  C   UNL A   1      41.115  28.165  27.411  1.00  0.00     0.134 A 
ATOM     72  F   UNL A   1      39.039  26.316  29.742  1.00  0.00    -0.206 F 
ATOM     73  C   UNL A   1      39.767  25.743  27.584  1.00  0.00     0.040 A 
ATOM     74  C   UNL A   1      41.149  27.273  26.338  1.00  0.00     0.040 A 
ATOM     75  F   UNL A   1      41.782  29.323  27.290  1.00  0.00    -0.206 F 
ATOM     76  C   UNL A   1      40.479  26.054  26.426  1.00  0.00     0.006 A 
ENDBRANCH  48  69
BRANCH  60  77
ATOM     77  C   UNL A   1      44.417  28.726  34.202  1.00  0.00     0.057 A 
ATOM     78  C   UNL A   1      44.302  27.589  35.011  1.00  0.00     0.134 A 
ATOM     79  C   UNL A   1      45.707  29.130  33.832  1.00  0.00     0.134 A 
ATOM     80  F   UNL A   1      43.096  27.160  35.411  1.00  0.00    -0.206 F 
ATOM     81  C   UNL A   1      45.428  26.888  35.448  1.00  0.00     0.040 A 
ATOM     82  C   UNL A   1      46.838  28.424  34.242  1.00  0.00     0.040 A 
ATOM     83  F   UNL A   1      45.886  30.206  33.053  1.00  0.00    -0.206 F 
ATOM     84  C   UNL A   1      46.700  27.302  35.056  1.00  0.00     0.006 A 
ENDBRANCH  60  77
ENDBRANCH  34  35
ENDBRANCH  26  29
ENDBRANCH  24  25
ENDBRANCH  23  24
ENDBRANCH  22  23
ENDBRANCH   1  22
TORSDOF 17
ENDMDL
MODEL 2
REMARK VINA RESULT:     -10.2      0.793      6.335
REMARK SMILES C[NH2+]C[C@H](C)C(=O)NC[C@](C)(O)C(=O)NCCCCNC(=O)c1ccc(-c2c3nc(c(-c4c(F)cccc4F)c4ccc([nH]4)c(-c4c(F)cccc4F)c4nc(c(-c5c(F)cccc5F)c5ccc2[nH]5)C=C4)C=C3)cc1
REMARK SMILES IDX 16 1 15 2 13 3 14 4 10 6 11 7 9 8 8 9 6 10 7 11 4 13 5 14
REMARK SMILES IDX 3 15 2 16 1 17 12 20 17 22 18 23 19 24 20 25 21 26 22 28
REMARK SMILES IDX 23 29 24 30 76 31 25 32 75 33 26 34 27 35 28 36 69 37 29 38
REMARK SMILES IDX 74 39 68 40 70 41 30 42 73 43 67 44 66 45 31 47 57 48 40 49
REMARK SMILES IDX 56 50 41 51 44 52 55 53 71 54 42 55 43 56 54 58 72 59 45 60
REMARK SMILES IDX 32 61 33 62 38 63 34 64 35 65 37 66 39 67 36 68 58 69 59 70
REMARK SMILES IDX 64 71 60 72 61 73 63 74 65 75 62 76 46 77 47 78 52 79 48 80
REMARK SMILES IDX 49 81 51 82 53 83 50 84
REMARK H PARENT 15 5 8 12 2 18 2 19 12 21 20 27 70 46 44 57
REMARK Flexibility Score: inf
ROOT
ATOM      1  C   UNL A   1      31.402  29.995  24.900  1.00  0.00     0.116 C 
ENDROOT
BRANCH   1   2
ATOM      2  N   UNL A   1      30.266  30.850  24.607  1.00  0.00    -0.354 N 
ATOM      3  C   UNL A   1      29.392  30.827  23.557  1.00  0.00     0.253 C 
ATOM      4  O   UNL A   1      28.412  31.576  23.646  1.00  0.00    -0.272 OA
ATOM      5  H   UNL A   1      30.099  31.558  25.270  1.00  0.00     0.163 HD
BRANCH   3   6
ATOM      6  C   UNL A   1      29.576  29.883  22.319  1.00  0.00     0.157 C 
ATOM      7  C   UNL A   1      28.377  30.117  21.377  1.00  0.00     0.055 C 
BRANCH   6   8
ATOM      8  C   UNL A   1      29.540  28.398  22.753  1.00  0.00     0.160 C 
BRANCH   8   9
ATOM      9  N   UNL A   1      30.653  27.627  22.227  1.00  0.00    -0.352 N 
ATOM     10  C   UNL A   1      31.579  26.862  22.855  1.00  0.00     0.228 C 
ATOM     11  O   UNL A   1      32.563  26.504  22.200  1.00  0.00    -0.275 OA
ATOM     12  H   UNL A   1      30.752  27.668  21.249  1.00  0.00     0.163 HD
BRANCH  10  13
ATOM     13  C   UNL A   1      31.408  26.403  24.296  1.00  0.00     0.130 C 
ATOM     14  C   UNL A   1      30.511  25.174  24.437  1.00  0.00     0.024 C 
BRANCH  13  15
ATOM     15  C   UNL A   1      32.752  26.250  25.033  1.00  0.00     0.273 C 
BRANCH  15  16
ATOM     16  N   UNL A   1      33.600  25.121  24.634  1.00  0.00    -0.348 N 
ATOM     17  C   UNL A   1      34.058  24.319  25.762  1.00  0.00     0.330 C 
ATOM     18  H   UNL A   1      33.065  24.520  24.007  1.00  0.00     0.346 HD
ATOM     19  H   UNL A   1      34.428  25.508  24.182  1.00  0.00     0.346 HD
ENDBRANCH  15  16
ENDBRANCH  13  15
ENDBRANCH  10  13
ENDBRANCH   8   9
ENDBRANCH   6   8
BRANCH   6  20
ATOM     20  O   UNL A   1      30.760  30.079  21.545  1.00  0.00    -0.378 OA
ATOM     21  H   UNL A   1      30.559  30.651  20.787  1.00  0.00     0.212 HD
ENDBRANCH   6  20
ENDBRANCH   3   6
ENDBRANCH   1   2
BRANCH   1  22
ATOM     22  C   UNL A   1      32.069  30.295  26.238  1.00  0.00     0.023 C 
BRANCH  22  23
ATOM     23  C   UNL A   1      31.720  31.648  26.863  1.00  0.00     0.023 C 
BRANCH  23  24
ATOM     24  C   UNL A   1      32.903  32.515  27.298  1.00  0.00     0.116 C 
BRANCH  24  25
ATOM     25  N   UNL A   1      32.533  33.889  27.609  1.00  0.00    -0.352 N 
ATOM     26  C   UNL A   1      33.050  34.755  28.543  1.00  0.00     0.251 C 
ATOM     27  H   UNL A   1      31.798  34.254  27.065  1.00  0.00     0.163 HD
ATOM     28  O   UNL A   1      32.513  35.839  28.752  1.00  0.00    -0.269 OA
BRANCH  26  29
ATOM     29  C   UNL A   1      34.240  34.370  29.331  1.00  0.00     0.039 A 
ATOM     30  C   UNL A   1      34.063  33.778  30.584  1.00  0.00     0.014 A 
ATOM     31  C   UNL A   1      35.528  34.574  28.828  1.00  0.00     0.014 A 
ATOM     32  C   UNL A   1      35.172  33.295  31.285  1.00  0.00     0.010 A 
ATOM     33  C   UNL A   1      36.623  34.025  29.490  1.00  0.00     0.010 A 
ATOM     34  C   UNL A   1      36.455  33.363  30.716  1.00  0.00    -0.014 A 
BRANCH  34  35
ATOM     35  C   UNL A   1      37.626  32.718  31.363  1.00  0.00     0.031 A 
ATOM     36  C   UNL A   1      38.288  31.528  30.727  1.00  0.00     0.074 A 
ATOM     37  C   UNL A   1      38.036  33.146  32.575  1.00  0.00     0.049 A 
ATOM     38  N   UNL A   1      39.244  30.766  31.193  1.00  0.00    -0.248 NA
ATOM     39  C   UNL A   1      37.790  31.126  29.402  1.00  0.00     0.031 C 
ATOM     40  C   UNL A   1      37.448  34.258  33.324  1.00  0.00     0.029 A 
ATOM     41  N   UNL A   1      39.033  32.683  33.398  1.00  0.00    -0.354 N 
ATOM     42  C   UNL A   1      39.449  29.786  30.230  1.00  0.00     0.074 A 
ATOM     43  C   UNL A   1      38.487  30.023  29.175  1.00  0.00     0.031 C 
ATOM     44  C   UNL A   1      38.105  34.401  34.487  1.00  0.00     0.029 A 
ATOM     45  C   UNL A   1      39.130  33.367  34.586  1.00  0.00     0.049 A 
ATOM     46  H   UNL A   1      39.623  31.931  33.160  1.00  0.00     0.167 HD
ATOM     47  C   UNL A   1      40.369  28.791  30.217  1.00  0.00     0.037 A 
ATOM     48  C   UNL A   1      39.943  33.176  35.642  1.00  0.00     0.037 A 
ATOM     49  C   UNL A   1      41.344  28.573  31.253  1.00  0.00     0.049 A 
ATOM     50  C   UNL A   1      40.946  32.058  35.608  1.00  0.00     0.074 A 
ATOM     51  C   UNL A   1      42.362  27.636  31.295  1.00  0.00     0.029 A 
ATOM     52  N   UNL A   1      41.420  29.300  32.431  1.00  0.00    -0.354 N 
ATOM     53  N   UNL A   1      41.173  31.181  34.661  1.00  0.00    -0.248 NA
ATOM     54  C   UNL A   1      41.806  31.901  36.791  1.00  0.00     0.031 C 
ATOM     55  C   UNL A   1      43.027  27.768  32.518  1.00  0.00     0.029 A 
ATOM     56  C   UNL A   1      42.453  28.815  33.218  1.00  0.00     0.049 A 
ATOM     57  H   UNL A   1      40.830  30.049  32.673  1.00  0.00     0.167 HD
ATOM     58  C   UNL A   1      42.216  30.387  35.120  1.00  0.00     0.074 A 
ATOM     59  C   UNL A   1      42.585  30.892  36.426  1.00  0.00     0.031 C 
ATOM     60  C   UNL A   1      42.813  29.332  34.513  1.00  0.00     0.037 A 
BRANCH  47  61
ATOM     61  C   UNL A   1      40.367  27.864  29.038  1.00  0.00     0.057 A 
ATOM     62  C   UNL A   1      41.121  28.131  27.888  1.00  0.00     0.134 A 
ATOM     63  C   UNL A   1      39.634  26.671  29.067  1.00  0.00     0.134 A 
ATOM     64  F   UNL A   1      41.838  29.261  27.792  1.00  0.00    -0.206 F 
ATOM     65  C   UNL A   1      41.126  27.258  26.798  1.00  0.00     0.040 A 
ATOM     66  C   UNL A   1      39.652  25.777  27.995  1.00  0.00     0.040 A 
ATOM     67  F   UNL A   1      38.896  26.350  30.141  1.00  0.00    -0.206 F 
ATOM     68  C   UNL A   1      40.394  26.073  26.854  1.00  0.00     0.006 A 
ENDBRANCH  47  61
BRANCH  48  69
ATOM     69  C   UNL A   1      39.851  34.072  36.822  1.00  0.00     0.057 A 
ATOM     70  C   UNL A   1      39.018  33.758  37.902  1.00  0.00     0.134 A 
ATOM     71  C   UNL A   1      40.581  35.265  36.897  1.00  0.00     0.134 A 
ATOM     72  F   UNL A   1      38.278  32.639  37.879  1.00  0.00    -0.206 F 
ATOM     73  C   UNL A   1      38.902  34.603  39.007  1.00  0.00     0.040 A 
ATOM     74  C   UNL A   1      40.493  36.108  38.005  1.00  0.00     0.040 A 
ATOM     75  F   UNL A   1      41.401  35.621  35.897  1.00  0.00    -0.206 F 
ATOM     76  C   UNL A   1      39.645  35.780  39.062  1.00  0.00     0.006 A 
ENDBRANCH  48  69
BRANCH  60  77
ATOM     77  C   UNL A   1      43.945  28.670  35.241  1.00  0.00     0.057 A 
ATOM     78  C   UNL A   1      43.736  27.586  36.101  1.00  0.00     0.134 A 
ATOM     79  C   UNL A   1      45.266  29.091  35.038  1.00  0.00     0.134 A 
ATOM     80  F   UNL A   1      42.494  27.144  36.349  1.00  0.00    -0.206 F 
ATOM     81  C   UNL A   1      44.800  26.953  36.747  1.00  0.00     0.040 A 
ATOM     82  C   UNL A   1      46.339  28.451  35.659  1.00  0.00     0.040 A 
ATOM     83  F   UNL A   1      45.534  30.120  34.220  1.00  0.00    -0.206 F 
ATOM     84  C   UNL A   1      46.106  27.381  36.519  1.00  0.00     0.006 A 
ENDBRANCH  60  77
ENDBRANCH  34  35
ENDBRANCH  26  29
ENDBRANCH  24  25
ENDBRANCH  23  24
ENDBRANCH  22  23
ENDBRANCH   1  22
TORSDOF 17
ENDMDL
MODEL 3
REMARK VINA RESULT:     -10.2      1.880      6.892
REMARK SMILES C[NH2+]C[C@H](C)C(=O)NC[C@](C)(O)C(=O)NCCCCNC(=O)c1ccc(-c2c3nc(c(-c4c(F)cccc4F)c4ccc([nH]4)c(-c4c(F)cccc4F)c4nc(c(-c5c(F)cccc5F)c5ccc2[nH]5)C=C4)C=C3)cc1
REMARK SMILES IDX 16 1 15 2 13 3 14 4 10 6 11 7 9 8 8 9 6 10 7 11 4 13 5 14
REMARK SMILES IDX 3 15 2 16 1 17 12 20 17 22 18 23 19 24 20 25 21 26 22 28
REMARK SMILES IDX 23 29 24 30 76 31 25 32 75 33 26 34 27 35 28 36 69 37 29 38
REMARK SMILES IDX 74 39 68 40 70 41 30 42 73 43 67 44 66 45 31 47 57 48 40 49
REMARK SMILES IDX 56 50 41 51 44 52 55 53 71 54 42 55 43 56 54 58 72 59 45 60
REMARK SMILES IDX 32 61 33 62 38 63 34 64 35 65 37 66 39 67 36 68 58 69 59 70
REMARK SMILES IDX 64 71 60 72 61 73 63 74 65 75 62 76 46 77 47 78 52 79 48 80
REMARK SMILES IDX 49 81 51 82 53 83 50 84
REMARK H PARENT 15 5 8 12 2 18 2 19 12 21 20 27 70 46 44 57
REMARK Flexibility Score: inf
ROOT
ATOM      1  C   UNL A   1      32.406  29.642  25.484  1.00  0.00     0.116 C 
ENDROOT
BRANCH   1   2
ATOM      2  N   UNL A   1      31.392  29.140  24.575  1.00  0.00    -0.354 N 
ATOM      3  C   UNL A   1      30.751  27.935  24.547  1.00  0.00     0.253 C 
ATOM      4  O   UNL A   1      29.806  27.837  23.755  1.00  0.00    -0.272 OA
ATOM      5  H   UNL A   1      31.123  29.769  23.867  1.00  0.00     0.163 HD
BRANCH   3   6
ATOM      6  C   UNL A   1      31.142  26.743  25.486  1.00  0.00     0.157 C 
ATOM      7  C   UNL A   1      32.632  26.430  25.242  1.00  0.00     0.055 C 
BRANCH   6   8
ATOM      8  C   UNL A   1      30.337  25.472  25.123  1.00  0.00     0.160 C 
BRANCH   8   9
ATOM      9  N   UNL A   1      29.941  24.699  26.287  1.00  0.00    -0.352 N 
ATOM     10  C   UNL A   1      30.412  23.526  26.778  1.00  0.00     0.228 C 
ATOM     11  O   UNL A   1      29.742  22.963  27.649  1.00  0.00    -0.275 OA
ATOM     12  H   UNL A   1      29.205  25.094  26.808  1.00  0.00     0.163 HD
BRANCH  10  13
ATOM     13  C   UNL A   1      31.740  22.936  26.327  1.00  0.00     0.130 C 
ATOM     14  C   UNL A   1      32.711  22.680  27.480  1.00  0.00     0.024 C 
BRANCH  13  15
ATOM     15  C   UNL A   1      31.563  21.710  25.411  1.00  0.00     0.273 C 
BRANCH  15  16
ATOM     16  N   UNL A   1      32.786  21.121  24.851  1.00  0.00    -0.348 N 
ATOM     17  C   UNL A   1      32.938  19.706  25.164  1.00  0.00     0.330 C 
ATOM     18  H   UNL A   1      32.761  21.228  23.837  1.00  0.00     0.346 HD
ATOM     19  H   UNL A   1      33.577  21.611  25.270  1.00  0.00     0.346 HD
ENDBRANCH  15  16
ENDBRANCH  13  15
ENDBRANCH  10  13
ENDBRANCH   8   9
ENDBRANCH   6   8
BRANCH   6  20
ATOM     20  O   UNL A   1      30.987  26.966  26.888  1.00  0.00    -0.378 OA
ATOM     21  H   UNL A   1      31.856  26.938  27.318  1.00  0.00     0.212 HD
ENDBRANCH   6  20
ENDBRANCH   3   6
ENDBRANCH   1   2
BRANCH   1  22
ATOM     22  C   UNL A   1      31.838  30.268  26.754  1.00  0.00     0.023 C 
BRANCH  22  23
ATOM     23  C   UNL A   1      31.676  31.790  26.728  1.00  0.00     0.023 C 
BRANCH  23  24
ATOM     24  C   UNL A   1      32.809  32.599  27.361  1.00  0.00     0.116 C 
BRANCH  24  25
ATOM     25  N   UNL A   1      32.452  33.985  27.631  1.00  0.00    -0.352 N 
ATOM     26  C   UNL A   1      32.991  34.880  28.524  1.00  0.00     0.251 C 
ATOM     27  H   UNL A   1      31.709  34.336  27.088  1.00  0.00     0.163 HD
ATOM     28  O   UNL A   1      32.463  35.974  28.705  1.00  0.00    -0.269 OA
BRANCH  26  29
ATOM     29  C   UNL A   1      34.193  34.515  29.304  1.00  0.00     0.039 A 
ATOM     30  C   UNL A   1      34.038  34.035  30.607  1.00  0.00     0.014 A 
ATOM     31  C   UNL A   1      35.469  34.628  28.746  1.00  0.00     0.014 A 
ATOM     32  C   UNL A   1      35.152  33.569  31.311  1.00  0.00     0.010 A 
ATOM     33  C   UNL A   1      36.566  34.093  29.416  1.00  0.00     0.010 A 
ATOM     34  C   UNL A   1      36.416  33.541  30.698  1.00  0.00    -0.014 A 
BRANCH  34  35
ATOM     35  C   UNL A   1      37.585  32.906  31.360  1.00  0.00     0.031 A 
ATOM     36  C   UNL A   1      38.240  31.698  30.752  1.00  0.00     0.074 A 
ATOM     37  C   UNL A   1      37.999  33.363  32.560  1.00  0.00     0.049 A 
ATOM     38  N   UNL A   1      39.194  30.942  31.236  1.00  0.00    -0.248 NA
ATOM     39  C   UNL A   1      37.738  31.265  29.439  1.00  0.00     0.031 C 
ATOM     40  C   UNL A   1      37.418  34.496  33.281  1.00  0.00     0.029 A 
ATOM     41  N   UNL A   1      38.995  32.916  33.393  1.00  0.00    -0.354 N 
ATOM     42  C   UNL A   1      39.392  29.938  30.299  1.00  0.00     0.074 A 
ATOM     43  C   UNL A   1      38.430  30.152  29.239  1.00  0.00     0.031 C 
ATOM     44  C   UNL A   1      38.078  34.666  34.439  1.00  0.00     0.029 A 
ATOM     45  C   UNL A   1      39.098  33.629  34.563  1.00  0.00     0.049 A 
ATOM     46  H   UNL A   1      39.581  32.155  33.173  1.00  0.00     0.167 HD
ATOM     47  C   UNL A   1      40.307  28.938  30.309  1.00  0.00     0.037 A 
ATOM     48  C   UNL A   1      39.911  33.460  35.622  1.00  0.00     0.037 A 
ATOM     49  C   UNL A   1      41.282  28.741  31.349  1.00  0.00     0.049 A 
ATOM     50  C   UNL A   1      40.908  32.337  35.615  1.00  0.00     0.074 A 
ATOM     51  C   UNL A   1      42.295  27.800  31.413  1.00  0.00     0.029 A 
ATOM     52  N   UNL A   1      41.363  29.497  32.509  1.00  0.00    -0.354 N 
ATOM     53  N   UNL A   1      41.130  31.435  34.691  1.00  0.00    -0.248 NA
ATOM     54  C   UNL A   1      41.769  32.206  36.800  1.00  0.00     0.031 C 
ATOM     55  C   UNL A   1      42.963  27.960  32.631  1.00  0.00     0.029 A 
ATOM     56  C   UNL A   1      42.395  29.028  33.306  1.00  0.00     0.049 A 
ATOM     57  H   UNL A   1      40.777  30.255  32.732  1.00  0.00     0.167 HD
ATOM     58  C   UNL A   1      42.169  30.648  35.168  1.00  0.00     0.074 A 
ATOM     59  C   UNL A   1      42.543  31.184  36.460  1.00  0.00     0.031 C 
ATOM     60  C   UNL A   1      42.760  29.574  34.587  1.00  0.00     0.037 A 
BRANCH  47  61
ATOM     61  C   UNL A   1      40.298  27.982  29.154  1.00  0.00     0.057 A 
ATOM     62  C   UNL A   1      39.511  26.822  29.162  1.00  0.00     0.134 A 
ATOM     63  C   UNL A   1      41.055  28.241  28.004  1.00  0.00     0.134 A 
ATOM     64  F   UNL A   1      38.771  26.510  30.237  1.00  0.00    -0.206 F 
ATOM     65  C   UNL A   1      39.497  25.941  28.079  1.00  0.00     0.040 A 
ATOM     66  C   UNL A   1      41.028  27.382  26.904  1.00  0.00     0.040 A 
ATOM     67  F   UNL A   1      41.824  29.337  27.927  1.00  0.00    -0.206 F 
ATOM     68  C   UNL A   1      40.253  26.225  26.943  1.00  0.00     0.006 A 
ENDBRANCH  47  61
BRANCH  48  69
ATOM     69  C   UNL A   1      39.825  34.387  36.779  1.00  0.00     0.057 A 
ATOM     70  C   UNL A   1      39.038  34.075  37.894  1.00  0.00     0.134 A 
ATOM     71  C   UNL A   1      40.516  35.605  36.797  1.00  0.00     0.134 A 
ATOM     72  F   UNL A   1      38.338  32.932  37.926  1.00  0.00    -0.206 F 
ATOM     73  C   UNL A   1      38.928  34.948  38.978  1.00  0.00     0.040 A 
ATOM     74  C   UNL A   1      40.433  36.476  37.884  1.00  0.00     0.040 A 
ATOM     75  F   UNL A   1      41.291  35.960  35.761  1.00  0.00    -0.206 F 
ATOM     76  C   UNL A   1      39.631  36.151  38.976  1.00  0.00     0.006 A 
ENDBRANCH  48  69
BRANCH  60  77
ATOM     77  C   UNL A   1      43.890  28.926  35.330  1.00  0.00     0.057 A 
ATOM     78  C   UNL A   1      45.221  29.309  35.128  1.00  0.00     0.134 A 
ATOM     79  C   UNL A   1      43.637  27.943  36.295  1.00  0.00     0.134 A 
ATOM     80  F   UNL A   1      45.530  30.235  34.208  1.00  0.00    -0.206 F 
ATOM     81  C   UNL A   1      46.264  28.726  35.849  1.00  0.00     0.040 A 
ATOM     82  C   UNL A   1      44.669  27.370  37.040  1.00  0.00     0.040 A 
ATOM     83  F   UNL A   1      42.383  27.536  36.542  1.00  0.00    -0.206 F 
ATOM     84  C   UNL A   1      45.987  27.758  36.814  1.00  0.00     0.006 A 
ENDBRANCH  60  77
ENDBRANCH  34  35
ENDBRANCH  26  29
ENDBRANCH  24  25
ENDBRANCH  23  24
ENDBRANCH  22  23
ENDBRANCH   1  22
TORSDOF 17
ENDMDL
