MODEL 1
REMARK VINA RESULT:     -11.6      0.000      0.000
REMARK SMILES C=CC[C@@]1(C(=O)NCCCCNC(=O)c2ccc(-c3c4nc(c(-c5c(F)cccc5F)c5ccc([nH]5)c(-c5c(F)cccc5F)c5nc(c(-c6c(F)cccc6F)c6ccc3[nH]6)C=C5)C=C4)cc2)CCCN(c2nccc(N3CCC(O)CC3)n2)C1
REMARK SMILES IDX 9 1 8 2 7 3 5 4 6 5 4 7 69 8 86 9 70 10 72 11 71 12 3 13
REMARK SMILES IDX 2 14 1 15 73 16 74 17 85 18 75 19 77 20 76 21 78 22 79 23
REMARK SMILES IDX 84 24 80 25 83 26 81 27 82 28 10 30 11 31 12 32 13 33 14 35
REMARK SMILES IDX 15 36 16 37 68 38 17 39 67 40 18 41 19 42 20 43 61 44 21 45
REMARK SMILES IDX 66 46 60 47 62 48 22 49 65 50 59 51 58 52 23 54 49 55 32 56
REMARK SMILES IDX 48 57 33 58 36 59 47 60 63 61 34 62 35 63 46 65 64 66 37 67
REMARK SMILES IDX 24 68 25 69 30 70 26 71 27 72 29 73 31 74 28 75 50 76 51 77
REMARK SMILES IDX 56 78 52 79 53 80 55 81 57 82 54 83 38 84 39 85 44 86 40 87
REMARK SMILES IDX 41 88 43 89 45 90 42 91
REMARK H PARENT 7 6 82 29 12 34 62 53 36 64
REMARK Flexibility Score: inf
ROOT
ATOM      1  C   UNL A   1      33.324  29.478  24.954  1.00  0.00     0.023 C 
ENDROOT
BRANCH   1   2
ATOM      2  C   UNL A   1      33.176  28.948  23.536  1.00  0.00     0.116 C 
BRANCH   2   3
ATOM      3  N   UNL A   1      33.390  27.528  23.388  1.00  0.00    -0.356 N 
ATOM      4  C   UNL A   1      32.524  26.515  23.110  1.00  0.00     0.228 C 
ATOM      5  O   UNL A   1      33.075  25.499  22.655  1.00  0.00    -0.274 OA
ATOM      6  H   UNL A   1      34.325  27.244  23.508  1.00  0.00     0.163 HD
BRANCH   4   7
ATOM      7  C   UNL A   1      31.027  26.455  23.531  1.00  0.00     0.070 C 
ATOM      8  C   UNL A   1      30.927  26.960  25.016  1.00  0.00     0.021 C 
ATOM      9  C   UNL A   1      30.252  25.114  23.489  1.00  0.00     0.137 C 
ATOM     10  C   UNL A   1      31.441  25.927  26.019  1.00  0.00     0.023 C 
ATOM     11  N   UNL A   1      30.622  24.161  24.537  1.00  0.00    -0.340 N 
ATOM     12  C   UNL A   1      30.647  24.630  25.911  1.00  0.00     0.120 C 
BRANCH   7  13
ATOM     13  C   UNL A   1      30.271  27.533  22.671  1.00  0.00     0.045 C 
BRANCH  13  14
ATOM     14  C   UNL A   1      29.245  28.392  23.359  1.00  0.00    -0.034 C 
ATOM     15  C   UNL A   1      28.302  29.121  22.752  1.00  0.00     0.004 C 
ENDBRANCH  13  14
ENDBRANCH   7  13
BRANCH  11  16
ATOM     16  C   UNL A   1      31.492  23.131  24.266  1.00  0.00     0.227 A 
ATOM     17  N   UNL A   1      31.328  22.449  23.125  1.00  0.00    -0.221 NA
ATOM     18  N   UNL A   1      32.509  22.912  25.120  1.00  0.00    -0.196 NA
ATOM     19  C   UNL A   1      32.209  21.472  22.874  1.00  0.00     0.119 A 
ATOM     20  C   UNL A   1      33.423  21.964  24.822  1.00  0.00     0.134 A 
ATOM     21  C   UNL A   1      33.263  21.177  23.698  1.00  0.00     0.067 A 
BRANCH  20  22
ATOM     22  N   UNL A   1      34.520  21.770  25.656  1.00  0.00    -0.356 N 
ATOM     23  C   UNL A   1      34.854  22.792  26.648  1.00  0.00     0.121 C 
ATOM     24  C   UNL A   1      35.635  20.928  25.215  1.00  0.00     0.121 C 
ATOM     25  C   UNL A   1      35.979  23.689  26.137  1.00  0.00     0.053 C 
ATOM     26  C   UNL A   1      36.735  21.811  24.629  1.00  0.00     0.053 C 
ATOM     27  C   UNL A   1      37.167  22.856  25.656  1.00  0.00     0.118 C 
BRANCH  27  28
ATOM     28  O   UNL A   1      38.164  23.703  25.089  1.00  0.00    -0.393 OA
ATOM     29  H   UNL A   1      37.936  23.897  24.166  1.00  0.00     0.210 HD
ENDBRANCH  27  28
ENDBRANCH  20  22
ENDBRANCH  11  16
ENDBRANCH   4   7
ENDBRANCH   2   3
ENDBRANCH   1   2
BRANCH   1  30
ATOM     30  C   UNL A   1      34.030  28.543  25.934  1.00  0.00     0.023 C 
BRANCH  30  31
ATOM     31  C   UNL A   1      33.681  28.712  27.411  1.00  0.00     0.116 C 
BRANCH  31  32
ATOM     32  N   UNL A   1      33.698  30.086  27.897  1.00  0.00    -0.352 N 
ATOM     33  C   UNL A   1      34.779  30.793  28.377  1.00  0.00     0.251 C 
ATOM     34  H   UNL A   1      32.837  30.563  27.882  1.00  0.00     0.163 HD
ATOM     35  O   UNL A   1      34.671  31.948  28.760  1.00  0.00    -0.269 OA
BRANCH  33  36
ATOM     36  C   UNL A   1      36.083  30.106  28.457  1.00  0.00     0.039 A 
ATOM     37  C   UNL A   1      36.953  30.188  27.369  1.00  0.00     0.014 A 
ATOM     38  C   UNL A   1      36.470  29.470  29.639  1.00  0.00     0.014 A 
ATOM     39  C   UNL A   1      38.255  29.702  27.496  1.00  0.00     0.010 A 
ATOM     40  C   UNL A   1      37.785  29.039  29.783  1.00  0.00     0.010 A 
ATOM     41  C   UNL A   1      38.691  29.166  28.719  1.00  0.00    -0.014 A 
BRANCH  41  42
ATOM     42  C   UNL A   1      40.103  28.756  28.916  1.00  0.00     0.031 A 
ATOM     43  C   UNL A   1      41.095  29.723  29.491  1.00  0.00     0.074 A 
ATOM     44  C   UNL A   1      40.506  27.541  28.498  1.00  0.00     0.049 A 
ATOM     45  N   UNL A   1      42.382  29.576  29.674  1.00  0.00    -0.248 NA
ATOM     46  C   UNL A   1      40.575  31.040  29.889  1.00  0.00     0.031 C 
ATOM     47  C   UNL A   1      39.648  26.531  27.874  1.00  0.00     0.029 A 
ATOM     48  N   UNL A   1      41.745  26.953  28.526  1.00  0.00    -0.354 N 
ATOM     49  C   UNL A   1      42.828  30.784  30.193  1.00  0.00     0.074 A 
ATOM     50  C   UNL A   1      41.683  31.668  30.251  1.00  0.00     0.031 C 
ATOM     51  C   UNL A   1      40.383  25.441  27.601  1.00  0.00     0.029 A 
ATOM     52  C   UNL A   1      41.765  25.685  28.001  1.00  0.00     0.049 A 
ATOM     53  H   UNL A   1      42.544  27.399  28.890  1.00  0.00     0.167 HD
ATOM     54  C   UNL A   1      44.073  31.119  30.604  1.00  0.00     0.037 A 
ATOM     55  C   UNL A   1      42.783  24.816  27.860  1.00  0.00     0.037 A 
ATOM     56  C   UNL A   1      45.206  30.232  30.566  1.00  0.00     0.049 A 
ATOM     57  C   UNL A   1      44.155  25.207  28.331  1.00  0.00     0.074 A 
ATOM     58  C   UNL A   1      46.496  30.459  31.013  1.00  0.00     0.029 A 
ATOM     59  N   UNL A   1      45.181  28.945  30.050  1.00  0.00    -0.354 N 
ATOM     60  N   UNL A   1      44.551  26.330  28.881  1.00  0.00    -0.248 NA
ATOM     61  C   UNL A   1      45.221  24.208  28.168  1.00  0.00     0.031 C 
ATOM     62  C   UNL A   1      47.260  29.318  30.738  1.00  0.00     0.029 A 
ATOM     63  C   UNL A   1      46.437  28.370  30.153  1.00  0.00     0.049 A 
ATOM     64  H   UNL A   1      44.389  28.506  29.666  1.00  0.00     0.167 HD
ATOM     65  C   UNL A   1      45.902  26.163  29.155  1.00  0.00     0.074 A 
ATOM     66  C   UNL A   1      46.256  24.828  28.717  1.00  0.00     0.031 C 
ATOM     67  C   UNL A   1      46.770  27.037  29.721  1.00  0.00     0.037 A 
BRANCH  54  68
ATOM     68  C   UNL A   1      44.266  32.508  31.134  1.00  0.00     0.057 A 
ATOM     69  C   UNL A   1      44.603  33.576  30.291  1.00  0.00     0.134 A 
ATOM     70  C   UNL A   1      44.112  32.783  32.497  1.00  0.00     0.134 A 
ATOM     71  F   UNL A   1      44.781  33.375  28.976  1.00  0.00    -0.206 F 
ATOM     72  C   UNL A   1      44.809  34.863  30.791  1.00  0.00     0.040 A 
ATOM     73  C   UNL A   1      44.292  34.072  33.006  1.00  0.00     0.040 A 
ATOM     74  F   UNL A   1      43.788  31.807  33.358  1.00  0.00    -0.206 F 
ATOM     75  C   UNL A   1      44.650  35.113  32.152  1.00  0.00     0.006 A 
ENDBRANCH  54  68
BRANCH  55  76
ATOM     76  C   UNL A   1      42.534  23.472  27.286  1.00  0.00     0.057 A 
ATOM     77  C   UNL A   1      42.157  22.403  28.106  1.00  0.00     0.134 A 
ATOM     78  C   UNL A   1      42.661  23.223  25.915  1.00  0.00     0.134 A 
ATOM     79  F   UNL A   1      42.036  22.578  29.431  1.00  0.00    -0.206 F 
ATOM     80  C   UNL A   1      41.925  21.129  27.585  1.00  0.00     0.040 A 
ATOM     81  C   UNL A   1      42.414  21.959  25.378  1.00  0.00     0.040 A 
ATOM     82  F   UNL A   1      43.014  24.210  25.077  1.00  0.00    -0.206 F 
ATOM     83  C   UNL A   1      42.049  20.907  26.216  1.00  0.00     0.006 A 
ENDBRANCH  55  76
BRANCH  67  84
ATOM     84  C   UNL A   1      48.176  26.563  29.931  1.00  0.00     0.057 A 
ATOM     85  C   UNL A   1      48.562  25.893  31.098  1.00  0.00     0.134 A 
ATOM     86  C   UNL A   1      49.145  26.748  28.937  1.00  0.00     0.134 A 
ATOM     87  F   UNL A   1      47.683  25.698  32.092  1.00  0.00    -0.206 F 
ATOM     88  C   UNL A   1      49.870  25.439  31.277  1.00  0.00     0.040 A 
ATOM     89  C   UNL A   1      50.450  26.279  29.095  1.00  0.00     0.040 A 
ATOM     90  F   UNL A   1      48.836  27.377  27.794  1.00  0.00    -0.206 F 
ATOM     91  C   UNL A   1      50.817  25.627  30.271  1.00  0.00     0.006 A 
ENDBRANCH  67  84
ENDBRANCH  41  42
ENDBRANCH  33  36
ENDBRANCH  31  32
ENDBRANCH  30  31
ENDBRANCH   1  30
TORSDOF 16
ENDMDL
MODEL 2
REMARK VINA RESULT:     -11.4      2.809      8.096
REMARK SMILES C=CC[C@@]1(C(=O)NCCCCNC(=O)c2ccc(-c3c4nc(c(-c5c(F)cccc5F)c5ccc([nH]5)c(-c5c(F)cccc5F)c5nc(c(-c6c(F)cccc6F)c6ccc3[nH]6)C=C5)C=C4)cc2)CCCN(c2nccc(N3CCC(O)CC3)n2)C1
REMARK SMILES IDX 9 1 8 2 7 3 5 4 6 5 4 7 69 8 86 9 70 10 72 11 71 12 3 13
REMARK SMILES IDX 2 14 1 15 73 16 74 17 85 18 75 19 77 20 76 21 78 22 79 23
REMARK SMILES IDX 84 24 80 25 83 26 81 27 82 28 10 30 11 31 12 32 13 33 14 35
REMARK SMILES IDX 15 36 16 37 68 38 17 39 67 40 18 41 19 42 20 43 61 44 21 45
REMARK SMILES IDX 66 46 60 47 62 48 22 49 65 50 59 51 58 52 23 54 49 55 32 56
REMARK SMILES IDX 48 57 33 58 36 59 47 60 63 61 34 62 35 63 46 65 64 66 37 67
REMARK SMILES IDX 24 68 25 69 30 70 26 71 27 72 29 73 31 74 28 75 50 76 51 77
REMARK SMILES IDX 56 78 52 79 53 80 55 81 57 82 54 83 38 84 39 85 44 86 40 87
REMARK SMILES IDX 41 88 43 89 45 90 42 91
REMARK H PARENT 7 6 82 29 12 34 62 53 36 64
REMARK Flexibility Score: inf
ROOT
ATOM      1  C   UNL A   1      32.854  28.935  27.298  1.00  0.00     0.023 C 
ENDROOT
BRANCH   1   2
ATOM      2  C   UNL A   1      32.340  27.766  26.471  1.00  0.00     0.116 C 
BRANCH   2   3
ATOM      3  N   UNL A   1      33.301  26.713  26.236  1.00  0.00    -0.356 N 
ATOM      4  C   UNL A   1      33.167  25.493  25.650  1.00  0.00     0.228 C 
ATOM      5  O   UNL A   1      34.239  25.014  25.245  1.00  0.00    -0.274 OA
ATOM      6  H   UNL A   1      34.209  26.915  26.557  1.00  0.00     0.163 HD
BRANCH   4   7
ATOM      7  C   UNL A   1      31.890  24.604  25.674  1.00  0.00     0.070 C 
ATOM      8  C   UNL A   1      32.107  23.426  24.656  1.00  0.00     0.021 C 
ATOM      9  C   UNL A   1      30.505  25.208  25.330  1.00  0.00     0.137 C 
ATOM     10  C   UNL A   1      31.985  23.883  23.202  1.00  0.00     0.023 C 
ATOM     11  N   UNL A   1      30.308  25.516  23.912  1.00  0.00    -0.340 N 
ATOM     12  C   UNL A   1      30.608  24.481  22.939  1.00  0.00     0.120 C 
BRANCH   7  13
ATOM     13  C   UNL A   1      31.837  23.926  27.092  1.00  0.00     0.045 C 
BRANCH  13  14
ATOM     14  C   UNL A   1      32.547  22.612  27.273  1.00  0.00    -0.034 C 
ATOM     15  C   UNL A   1      33.798  22.454  27.719  1.00  0.00     0.004 C 
ENDBRANCH  13  14
ENDBRANCH   7  13
BRANCH  11  16
ATOM     16  C   UNL A   1      30.465  26.802  23.450  1.00  0.00     0.227 A 
ATOM     17  N   UNL A   1      31.703  27.225  23.167  1.00  0.00    -0.221 NA
ATOM     18  N   UNL A   1      29.362  27.541  23.231  1.00  0.00    -0.196 NA
ATOM     19  C   UNL A   1      31.821  28.470  22.690  1.00  0.00     0.119 A 
ATOM     20  C   UNL A   1      29.494  28.772  22.694  1.00  0.00     0.134 A 
ATOM     21  C   UNL A   1      30.750  29.291  22.453  1.00  0.00     0.067 A 
BRANCH  20  22
ATOM     22  N   UNL A   1      28.361  29.525  22.395  1.00  0.00    -0.356 N 
ATOM     23  C   UNL A   1      28.286  30.227  21.114  1.00  0.00     0.121 C 
ATOM     24  C   UNL A   1      27.555  30.095  23.478  1.00  0.00     0.121 C 
ATOM     25  C   UNL A   1      28.658  31.698  21.286  1.00  0.00     0.053 C 
ATOM     26  C   UNL A   1      27.974  31.545  23.711  1.00  0.00     0.053 C 
ATOM     27  C   UNL A   1      27.847  32.339  22.413  1.00  0.00     0.118 C 
BRANCH  27  28
ATOM     28  O   UNL A   1      28.280  33.681  22.626  1.00  0.00    -0.393 OA
ATOM     29  H   UNL A   1      28.354  34.136  21.773  1.00  0.00     0.210 HD
ENDBRANCH  27  28
ENDBRANCH  20  22
ENDBRANCH  11  16
ENDBRANCH   4   7
ENDBRANCH   2   3
ENDBRANCH   1   2
BRANCH   1  30
ATOM     30  C   UNL A   1      32.205  30.285  26.998  1.00  0.00     0.023 C 
BRANCH  30  31
ATOM     31  C   UNL A   1      33.135  31.496  26.963  1.00  0.00     0.116 C 
BRANCH  31  32
ATOM     32  N   UNL A   1      32.530  32.754  27.380  1.00  0.00    -0.352 N 
ATOM     33  C   UNL A   1      33.078  33.718  28.198  1.00  0.00     0.251 C 
ATOM     34  H   UNL A   1      31.625  32.936  27.039  1.00  0.00     0.163 HD
ATOM     35  O   UNL A   1      32.471  34.740  28.481  1.00  0.00    -0.269 OA
BRANCH  33  36
ATOM     36  C   UNL A   1      34.417  33.472  28.767  1.00  0.00     0.039 A 
ATOM     37  C   UNL A   1      34.517  32.768  29.968  1.00  0.00     0.014 A 
ATOM     38  C   UNL A   1      35.561  33.855  28.062  1.00  0.00     0.014 A 
ATOM     39  C   UNL A   1      35.775  32.370  30.425  1.00  0.00     0.010 A 
ATOM     40  C   UNL A   1      36.807  33.407  28.489  1.00  0.00     0.010 A 
ATOM     41  C   UNL A   1      36.923  32.649  29.664  1.00  0.00    -0.014 A 
BRANCH  41  42
ATOM     42  C   UNL A   1      38.252  32.131  30.066  1.00  0.00     0.031 A 
ATOM     43  C   UNL A   1      38.739  30.814  29.539  1.00  0.00     0.074 A 
ATOM     44  C   UNL A   1      38.984  32.810  30.971  1.00  0.00     0.049 A 
ATOM     45  N   UNL A   1      39.837  30.163  29.827  1.00  0.00    -0.248 NA
ATOM     46  C   UNL A   1      37.862  30.124  28.582  1.00  0.00     0.031 C 
ATOM     47  C   UNL A   1      38.594  34.076  31.598  1.00  0.00     0.029 A 
ATOM     48  N   UNL A   1      40.203  32.524  31.529  1.00  0.00    -0.354 N 
ATOM     49  C   UNL A   1      39.776  28.983  29.099  1.00  0.00     0.074 A 
ATOM     50  C   UNL A   1      38.511  28.985  28.394  1.00  0.00     0.031 C 
ATOM     51  C   UNL A   1      39.569  34.467  32.435  1.00  0.00     0.029 A 
ATOM     52  C   UNL A   1      40.633  33.468  32.428  1.00  0.00     0.049 A 
ATOM     53  H   UNL A   1      40.722  31.717  31.306  1.00  0.00     0.167 HD
ATOM     54  C   UNL A   1      40.698  27.996  29.009  1.00  0.00     0.037 A 
ATOM     55  C   UNL A   1      41.760  33.523  33.162  1.00  0.00     0.037 A 
ATOM     56  C   UNL A   1      41.964  28.005  29.694  1.00  0.00     0.049 A 
ATOM     57  C   UNL A   1      42.773  32.421  33.040  1.00  0.00     0.074 A 
ATOM     58  C   UNL A   1      42.991  27.080  29.622  1.00  0.00     0.029 A 
ATOM     59  N   UNL A   1      42.376  28.993  30.576  1.00  0.00    -0.354 N 
ATOM     60  N   UNL A   1      42.733  31.340  32.297  1.00  0.00    -0.248 NA
ATOM     61  C   UNL A   1      43.991  32.548  33.852  1.00  0.00     0.031 C 
ATOM     62  C   UNL A   1      44.012  27.493  30.487  1.00  0.00     0.029 A 
ATOM     63  C   UNL A   1      43.635  28.692  31.069  1.00  0.00     0.049 A 
ATOM     64  H   UNL A   1      41.849  29.788  30.819  1.00  0.00     0.167 HD
ATOM     65  C   UNL A   1      43.928  30.675  32.530  1.00  0.00     0.074 A 
ATOM     66  C   UNL A   1      44.676  31.476  33.478  1.00  0.00     0.031 C 
ATOM     67  C   UNL A   1      44.368  29.505  32.004  1.00  0.00     0.037 A 
BRANCH  54  68
ATOM     68  C   UNL A   1      40.364  26.827  28.132  1.00  0.00     0.057 A 
ATOM     69  C   UNL A   1      40.889  26.705  26.838  1.00  0.00     0.134 A 
ATOM     70  C   UNL A   1      39.513  25.812  28.584  1.00  0.00     0.134 A 
ATOM     71  F   UNL A   1      41.698  27.653  26.340  1.00  0.00    -0.206 F 
ATOM     72  C   UNL A   1      40.554  25.631  26.014  1.00  0.00     0.040 A 
ATOM     73  C   UNL A   1      39.190  24.719  27.777  1.00  0.00     0.040 A 
ATOM     74  F   UNL A   1      38.979  25.866  29.813  1.00  0.00    -0.206 F 
ATOM     75  C   UNL A   1      39.705  24.632  26.485  1.00  0.00     0.006 A 
ENDBRANCH  54  68
BRANCH  55  76
ATOM     76  C   UNL A   1      42.010  34.687  34.046  1.00  0.00     0.057 A 
ATOM     77  C   UNL A   1      42.595  35.854  33.543  1.00  0.00     0.134 A 
ATOM     78  C   UNL A   1      41.670  34.666  35.403  1.00  0.00     0.134 A 
ATOM     79  F   UNL A   1      42.958  35.926  32.254  1.00  0.00    -0.206 F 
ATOM     80  C   UNL A   1      42.845  36.957  34.361  1.00  0.00     0.040 A 
ATOM     81  C   UNL A   1      41.897  35.768  36.228  1.00  0.00     0.040 A 
ATOM     82  F   UNL A   1      41.100  33.577  35.942  1.00  0.00    -0.206 F 
ATOM     83  C   UNL A   1      42.491  36.916  35.708  1.00  0.00     0.006 A 
ENDBRANCH  55  76
BRANCH  67  84
ATOM     84  C   UNL A   1      45.734  29.043  32.415  1.00  0.00     0.057 A 
ATOM     85  C   UNL A   1      45.927  28.199  33.514  1.00  0.00     0.134 A 
ATOM     86  C   UNL A   1      46.863  29.418  31.676  1.00  0.00     0.134 A 
ATOM     87  F   UNL A   1      44.886  27.817  34.269  1.00  0.00    -0.206 F 
ATOM     88  C   UNL A   1      47.201  27.759  33.878  1.00  0.00     0.040 A 
ATOM     89  C   UNL A   1      48.139  28.966  32.017  1.00  0.00     0.040 A 
ATOM     90  F   UNL A   1      46.743  30.220  30.608  1.00  0.00    -0.206 F 
ATOM     91  C   UNL A   1      48.311  28.138  33.124  1.00  0.00     0.006 A 
ENDBRANCH  67  84
ENDBRANCH  41  42
ENDBRANCH  33  36
ENDBRANCH  31  32
ENDBRANCH  30  31
ENDBRANCH   1  30
TORSDOF 16
ENDMDL
MODEL 3
REMARK VINA RESULT:     -11.4      2.782      5.691
REMARK SMILES C=CC[C@@]1(C(=O)NCCCCNC(=O)c2ccc(-c3c4nc(c(-c5c(F)cccc5F)c5ccc([nH]5)c(-c5c(F)cccc5F)c5nc(c(-c6c(F)cccc6F)c6ccc3[nH]6)C=C5)C=C4)cc2)CCCN(c2nccc(N3CCC(O)CC3)n2)C1
REMARK SMILES IDX 9 1 8 2 7 3 5 4 6 5 4 7 69 8 86 9 70 10 72 11 71 12 3 13
REMARK SMILES IDX 2 14 1 15 73 16 74 17 85 18 75 19 77 20 76 21 78 22 79 23
REMARK SMILES IDX 84 24 80 25 83 26 81 27 82 28 10 30 11 31 12 32 13 33 14 35
REMARK SMILES IDX 15 36 16 37 68 38 17 39 67 40 18 41 19 42 20 43 61 44 21 45
REMARK SMILES IDX 66 46 60 47 62 48 22 49 65 50 59 51 58 52 23 54 49 55 32 56
REMARK SMILES IDX 48 57 33 58 36 59 47 60 63 61 34 62 35 63 46 65 64 66 37 67
REMARK SMILES IDX 24 68 25 69 30 70 26 71 27 72 29 73 31 74 28 75 50 76 51 77
REMARK SMILES IDX 56 78 52 79 53 80 55 81 57 82 54 83 38 84 39 85 44 86 40 87
REMARK SMILES IDX 41 88 43 89 45 90 42 91
REMARK H PARENT 7 6 82 29 12 34 62 53 36 64
REMARK Flexibility Score: inf
ROOT
ATOM      1  C   UNL A   1      31.986  29.122  27.357  1.00  0.00     0.023 C 
ENDROOT
BRANCH   1   2
ATOM      2  C   UNL A   1      31.850  27.953  26.392  1.00  0.00     0.116 C 
BRANCH   2   3
ATOM      3  N   UNL A   1      32.953  27.020  26.402  1.00  0.00    -0.356 N 
ATOM      4  C   UNL A   1      33.103  25.804  25.809  1.00  0.00     0.228 C 
ATOM      5  O   UNL A   1      34.288  25.458  25.675  1.00  0.00    -0.274 OA
ATOM      6  H   UNL A   1      33.730  27.316  26.929  1.00  0.00     0.163 HD
BRANCH   4   7
ATOM      7  C   UNL A   1      31.967  24.777  25.534  1.00  0.00     0.070 C 
ATOM      8  C   UNL A   1      32.524  23.705  24.528  1.00  0.00     0.021 C 
ATOM      9  C   UNL A   1      30.612  25.243  24.944  1.00  0.00     0.137 C 
ATOM     10  C   UNL A   1      32.633  24.245  23.101  1.00  0.00     0.023 C 
ATOM     11  N   UNL A   1      30.659  25.624  23.531  1.00  0.00    -0.340 N 
ATOM     12  C   UNL A   1      31.270  24.700  22.593  1.00  0.00     0.120 C 
BRANCH   7  13
ATOM     13  C   UNL A   1      31.722  24.001  26.879  1.00  0.00     0.045 C 
BRANCH  13  14
ATOM     14  C   UNL A   1      32.467  22.711  27.095  1.00  0.00    -0.034 C 
ATOM     15  C   UNL A   1      33.523  22.544  27.899  1.00  0.00     0.004 C 
ENDBRANCH  13  14
ENDBRANCH   7  13
BRANCH  11  16
ATOM     16  C   UNL A   1      30.742  26.949  23.169  1.00  0.00     0.227 A 
ATOM     17  N   UNL A   1      31.952  27.459  22.909  1.00  0.00    -0.221 NA
ATOM     18  N   UNL A   1      29.598  27.642  23.017  1.00  0.00    -0.196 NA
ATOM     19  C   UNL A   1      31.998  28.742  22.530  1.00  0.00     0.119 A 
ATOM     20  C   UNL A   1      29.658  28.916  22.576  1.00  0.00     0.134 A 
ATOM     21  C   UNL A   1      30.882  29.519  22.366  1.00  0.00     0.067 A 
BRANCH  20  22
ATOM     22  N   UNL A   1      28.483  29.627  22.346  1.00  0.00    -0.356 N 
ATOM     23  C   UNL A   1      28.319  30.347  21.082  1.00  0.00     0.121 C 
ATOM     24  C   UNL A   1      27.709  30.147  23.476  1.00  0.00     0.121 C 
ATOM     25  C   UNL A   1      28.640  31.828  21.263  1.00  0.00     0.053 C 
ATOM     26  C   UNL A   1      28.081  31.608  23.715  1.00  0.00     0.053 C 
ATOM     27  C   UNL A   1      27.860  32.418  22.439  1.00  0.00     0.118 C 
BRANCH  27  28
ATOM     28  O   UNL A   1      28.249  33.772  22.657  1.00  0.00    -0.393 OA
ATOM     29  H   UNL A   1      27.651  34.362  22.170  1.00  0.00     0.210 HD
ENDBRANCH  27  28
ENDBRANCH  20  22
ENDBRANCH  11  16
ENDBRANCH   4   7
ENDBRANCH   2   3
ENDBRANCH   1   2
BRANCH   1  30
ATOM     30  C   UNL A   1      31.809  30.507  26.737  1.00  0.00     0.023 C 
BRANCH  30  31
ATOM     31  C   UNL A   1      32.893  31.537  27.048  1.00  0.00     0.116 C 
BRANCH  31  32
ATOM     32  N   UNL A   1      32.404  32.859  27.413  1.00  0.00    -0.352 N 
ATOM     33  C   UNL A   1      33.046  33.809  28.177  1.00  0.00     0.251 C 
ATOM     34  H   UNL A   1      31.512  33.102  27.076  1.00  0.00     0.163 HD
ATOM     35  O   UNL A   1      32.532  34.891  28.420  1.00  0.00    -0.269 OA
BRANCH  33  36
ATOM     36  C   UNL A   1      34.369  33.476  28.740  1.00  0.00     0.039 A 
ATOM     37  C   UNL A   1      34.429  32.774  29.944  1.00  0.00     0.014 A 
ATOM     38  C   UNL A   1      35.532  33.777  28.026  1.00  0.00     0.014 A 
ATOM     39  C   UNL A   1      35.659  32.294  30.395  1.00  0.00     0.010 A 
ATOM     40  C   UNL A   1      36.747  33.248  28.447  1.00  0.00     0.010 A 
ATOM     41  C   UNL A   1      36.818  32.490  29.626  1.00  0.00    -0.014 A 
BRANCH  41  42
ATOM     42  C   UNL A   1      38.113  31.886  30.023  1.00  0.00     0.031 A 
ATOM     43  C   UNL A   1      39.045  32.630  30.933  1.00  0.00     0.074 A 
ATOM     44  C   UNL A   1      38.482  30.702  29.496  1.00  0.00     0.049 A 
ATOM     45  N   UNL A   1      40.245  32.300  31.336  1.00  0.00    -0.248 NA
ATOM     46  C   UNL A   1      38.576  33.930  31.435  1.00  0.00     0.031 C 
ATOM     47  C   UNL A   1      37.687  29.907  28.558  1.00  0.00     0.029 A 
ATOM     48  N   UNL A   1      39.628  29.968  29.667  1.00  0.00    -0.354 N 
ATOM     49  C   UNL A   1      40.680  33.356  32.125  1.00  0.00     0.074 A 
ATOM     50  C   UNL A   1      39.634  34.357  32.105  1.00  0.00     0.031 C 
ATOM     51  C   UNL A   1      38.360  28.785  28.256  1.00  0.00     0.029 A 
ATOM     52  C   UNL A   1      39.642  28.796  28.952  1.00  0.00     0.049 A 
ATOM     53  H   UNL A   1      40.369  30.254  30.248  1.00  0.00     0.167 HD
ATOM     54  C   UNL A   1      41.835  33.471  32.820  1.00  0.00     0.037 A 
ATOM     55  C   UNL A   1      40.583  27.837  28.870  1.00  0.00     0.037 A 
ATOM     56  C   UNL A   1      42.864  32.466  32.856  1.00  0.00     0.049 A 
ATOM     57  C   UNL A   1      41.854  27.984  29.657  1.00  0.00     0.074 A 
ATOM     58  C   UNL A   1      44.046  32.465  33.577  1.00  0.00     0.029 A 
ATOM     59  N   UNL A   1      42.832  31.279  32.139  1.00  0.00    -0.354 N 
ATOM     60  N   UNL A   1      42.226  28.958  30.452  1.00  0.00    -0.248 NA
ATOM     61  C   UNL A   1      42.835  26.895  29.540  1.00  0.00     0.031 C 
ATOM     62  C   UNL A   1      44.743  31.290  33.271  1.00  0.00     0.029 A 
ATOM     63  C   UNL A   1      43.979  30.545  32.388  1.00  0.00     0.049 A 
ATOM     64  H   UNL A   1      42.101  31.001  31.541  1.00  0.00     0.167 HD
ATOM     65  C   UNL A   1      43.467  28.588  30.952  1.00  0.00     0.074 A 
ATOM     66  C   UNL A   1      43.782  27.296  30.376  1.00  0.00     0.031 C 
ATOM     67  C   UNL A   1      44.272  29.257  31.813  1.00  0.00     0.037 A 
BRANCH  54  68
ATOM     68  C   UNL A   1      42.038  34.735  33.601  1.00  0.00     0.057 A 
ATOM     69  C   UNL A   1      41.546  34.881  34.905  1.00  0.00     0.134 A 
ATOM     70  C   UNL A   1      42.735  35.816  33.047  1.00  0.00     0.134 A 
ATOM     71  F   UNL A   1      40.856  33.887  35.486  1.00  0.00    -0.206 F 
ATOM     72  C   UNL A   1      41.712  36.069  35.618  1.00  0.00     0.040 A 
ATOM     73  C   UNL A   1      42.929  37.001  33.761  1.00  0.00     0.040 A 
ATOM     74  F   UNL A   1      43.235  35.741  31.805  1.00  0.00    -0.206 F 
ATOM     75  C   UNL A   1      42.409  37.131  35.047  1.00  0.00     0.006 A 
ENDBRANCH  54  68
BRANCH  55  76
ATOM     76  C   UNL A   1      40.339  26.631  28.043  1.00  0.00     0.057 A 
ATOM     77  C   UNL A   1      40.914  26.507  26.772  1.00  0.00     0.134 A 
ATOM     78  C   UNL A   1      39.537  25.578  28.495  1.00  0.00     0.134 A 
ATOM     79  F   UNL A   1      41.678  27.493  26.279  1.00  0.00    -0.206 F 
ATOM     80  C   UNL A   1      40.691  25.383  25.976  1.00  0.00     0.040 A 
ATOM     81  C   UNL A   1      39.320  24.441  27.718  1.00  0.00     0.040 A 
ATOM     82  F   UNL A   1      38.964  25.636  29.707  1.00  0.00    -0.206 F 
ATOM     83  C   UNL A   1      39.895  24.344  26.451  1.00  0.00     0.006 A 
ENDBRANCH  55  76
BRANCH  67  84
ATOM     84  C   UNL A   1      45.553  28.587  32.211  1.00  0.00     0.057 A 
ATOM     85  C   UNL A   1      46.749  28.811  31.519  1.00  0.00     0.134 A 
ATOM     86  C   UNL A   1      45.595  27.737  33.324  1.00  0.00     0.134 A 
ATOM     87  F   UNL A   1      46.769  29.604  30.437  1.00  0.00    -0.206 F 
ATOM     88  C   UNL A   1      47.940  28.197  31.909  1.00  0.00     0.040 A 
ATOM     89  C   UNL A   1      46.784  27.135  33.736  1.00  0.00     0.040 A 
ATOM     90  F   UNL A   1      44.483  27.487  34.032  1.00  0.00    -0.206 F 
ATOM     91  C   UNL A   1      47.961  27.361  33.024  1.00  0.00     0.006 A 
ENDBRANCH  67  84
ENDBRANCH  41  42
ENDBRANCH  33  36
ENDBRANCH  31  32
ENDBRANCH  30  31
ENDBRANCH   1  30
TORSDOF 16
ENDMDL
