MODEL 1
REMARK VINA RESULT:     -12.3      0.000      0.000
REMARK SMILES Cc1nc(-c2ccccc2Cl)sc1C(=O)NC[C@H]1CC[C@@H](C(=O)NCCCCNC(=O)c2ccc(-c3c4nc(c(-c5c(F)cccc5F)c5ccc([nH]5)c(-c5c(F)cccc5F)c5nc(c(-c6c(F)cccc6F)c6ccc3[nH]6)C=C5)C=C4)cc2)CC1
REMARK SMILES IDX 25 1 24 2 22 3 23 4 21 6 18 7 19 8 87 9 20 10 86 11 17 12
REMARK SMILES IDX 16 13 14 14 15 15 13 17 1 18 2 19 3 20 4 21 12 22 5 23 6 24
REMARK SMILES IDX 10 25 7 26 9 27 11 28 8 29 26 30 27 31 28 32 29 33 30 34
REMARK SMILES IDX 31 36 32 37 33 38 85 39 34 40 84 41 35 42 36 43 37 44 78 45
REMARK SMILES IDX 38 46 83 47 77 48 79 49 39 50 82 51 76 52 75 53 40 55 66 56
REMARK SMILES IDX 49 57 65 58 50 59 53 60 64 61 80 62 51 63 52 64 63 66 81 67
REMARK SMILES IDX 54 68 41 69 42 70 47 71 43 72 44 73 46 74 48 75 45 76 67 77
REMARK SMILES IDX 68 78 73 79 69 80 70 81 72 82 74 83 71 84 55 85 56 86 61 87
REMARK SMILES IDX 57 88 58 89 60 90 62 91 59 92
REMARK H PARENT 24 5 16 16 29 35 79 54 53 65
REMARK Flexibility Score: inf
ROOT
ATOM      1  C   UNL A   1      31.473  30.109  25.022  1.00  0.00     0.116 C 
ENDROOT
BRANCH   1   2
ATOM      2  N   UNL A   1      32.644  29.700  24.286  1.00  0.00    -0.356 N 
ATOM      3  C   UNL A   1      32.835  28.903  23.208  1.00  0.00     0.223 C 
ATOM      4  O   UNL A   1      33.977  28.928  22.731  1.00  0.00    -0.275 OA
ATOM      5  H   UNL A   1      33.481  30.080  24.642  1.00  0.00     0.163 HD
BRANCH   3   6
ATOM      6  C   UNL A   1      31.785  27.980  22.565  1.00  0.00     0.078 C 
ATOM      7  C   UNL A   1      30.344  25.879  24.213  1.00  0.00     0.008 C 
ATOM      8  C   UNL A   1      29.829  27.333  24.131  1.00  0.00     0.006 C 
ATOM      9  C   UNL A   1      31.726  25.626  23.580  1.00  0.00     0.006 C 
ATOM     10  C   UNL A   1      30.324  28.164  22.956  1.00  0.00     0.014 C 
ATOM     11  C   UNL A   1      32.168  26.517  22.437  1.00  0.00     0.014 C 
BRANCH   7  12
ATOM     12  C   UNL A   1      30.330  25.393  25.694  1.00  0.00     0.119 C 
BRANCH  12  13
ATOM     13  N   UNL A   1      30.059  23.987  25.833  1.00  0.00    -0.351 N 
ATOM     14  C   UNL A   1      30.795  22.832  25.764  1.00  0.00     0.263 C 
ATOM     15  O   UNL A   1      30.157  21.872  26.220  1.00  0.00    -0.268 OA
ATOM     16  H   UNL A   1      29.110  23.811  26.025  1.00  0.00     0.163 HD
BRANCH  14  17
ATOM     17  C   UNL A   1      32.139  22.672  25.205  1.00  0.00     0.115 A 
ATOM     18  C   UNL A   1      32.226  21.731  22.749  1.00  0.00     0.068 C 
ATOM     19  C   UNL A   1      32.756  22.231  24.033  1.00  0.00     0.062 A 
ATOM     20  N   UNL A   1      34.144  22.198  24.062  1.00  0.00    -0.240 NA
ATOM     21  C   UNL A   1      34.606  22.537  25.236  1.00  0.00     0.125 A 
ATOM     22  S   UNL A   1      33.431  23.118  26.317  1.00  0.00    -0.108 S 
BRANCH  21  23
ATOM     23  C   UNL A   1      36.030  22.494  25.563  1.00  0.00     0.029 A 
ATOM     24  C   UNL A   1      36.652  23.706  25.916  1.00  0.00     0.013 A 
ATOM     25  C   UNL A   1      36.826  21.348  25.417  1.00  0.00     0.051 A 
ATOM     26  C   UNL A   1      38.029  23.771  26.131  1.00  0.00     0.001 A 
ATOM     27  C   UNL A   1      38.208  21.418  25.637  1.00  0.00     0.021 A 
ATOM     28  Cl  UNL A   1      36.195  19.825  24.888  1.00  0.00    -0.084 Cl
ATOM     29  C   UNL A   1      38.807  22.626  25.992  1.00  0.00     0.002 A 
ENDBRANCH  21  23
ENDBRANCH  14  17
ENDBRANCH  12  13
ENDBRANCH   7  12
ENDBRANCH   3   6
ENDBRANCH   1   2
BRANCH   1  30
ATOM     30  C   UNL A   1      31.519  29.735  26.504  1.00  0.00     0.023 C 
BRANCH  30  31
ATOM     31  C   UNL A   1      32.441  28.571  26.848  1.00  0.00     0.023 C 
BRANCH  31  32
ATOM     32  C   UNL A   1      33.828  28.960  27.351  1.00  0.00     0.116 C 
BRANCH  32  33
ATOM     33  N   UNL A   1      33.910  30.268  27.989  1.00  0.00    -0.352 N 
ATOM     34  C   UNL A   1      35.013  30.846  28.585  1.00  0.00     0.251 C 
ATOM     35  H   UNL A   1      33.082  30.801  27.996  1.00  0.00     0.163 HD
ATOM     36  O   UNL A   1      34.935  31.943  29.121  1.00  0.00    -0.269 OA
BRANCH  34  37
ATOM     37  C   UNL A   1      36.278  30.079  28.620  1.00  0.00     0.039 A 
ATOM     38  C   UNL A   1      37.128  30.132  27.513  1.00  0.00     0.014 A 
ATOM     39  C   UNL A   1      36.673  29.428  29.789  1.00  0.00     0.014 A 
ATOM     40  C   UNL A   1      38.426  29.625  27.622  1.00  0.00     0.010 A 
ATOM     41  C   UNL A   1      37.990  29.002  29.921  1.00  0.00     0.010 A 
ATOM     42  C   UNL A   1      38.885  29.114  28.846  1.00  0.00    -0.014 A 
BRANCH  42  43
ATOM     43  C   UNL A   1      40.304  28.715  29.038  1.00  0.00     0.031 A 
ATOM     44  C   UNL A   1      41.287  29.689  29.623  1.00  0.00     0.074 A 
ATOM     45  C   UNL A   1      40.727  27.513  28.598  1.00  0.00     0.049 A 
ATOM     46  N   UNL A   1      42.581  29.569  29.772  1.00  0.00    -0.248 NA
ATOM     47  C   UNL A   1      40.748  30.986  30.064  1.00  0.00     0.031 C 
ATOM     48  C   UNL A   1      39.891  26.500  27.951  1.00  0.00     0.029 A 
ATOM     49  N   UNL A   1      41.976  26.944  28.619  1.00  0.00    -0.354 N 
ATOM     50  C   UNL A   1      43.013  30.780  30.298  1.00  0.00     0.074 A 
ATOM     51  C   UNL A   1      41.852  31.639  30.392  1.00  0.00     0.031 C 
ATOM     52  C   UNL A   1      40.642  25.425  27.665  1.00  0.00     0.029 A 
ATOM     53  C   UNL A   1      42.018  25.682  28.075  1.00  0.00     0.049 A 
ATOM     54  H   UNL A   1      42.768  27.397  28.989  1.00  0.00     0.167 HD
ATOM     55  C   UNL A   1      44.258  31.137  30.692  1.00  0.00     0.037 A 
ATOM     56  C   UNL A   1      43.049  24.830  27.925  1.00  0.00     0.037 A 
ATOM     57  C   UNL A   1      45.404  30.269  30.642  1.00  0.00     0.049 A 
ATOM     58  C   UNL A   1      44.416  25.235  28.403  1.00  0.00     0.074 A 
ATOM     59  C   UNL A   1      46.692  30.514  31.082  1.00  0.00     0.029 A 
ATOM     60  N   UNL A   1      45.394  28.982  30.126  1.00  0.00    -0.354 N 
ATOM     61  N   UNL A   1      44.796  26.361  28.957  1.00  0.00    -0.248 NA
ATOM     62  C   UNL A   1      45.495  24.251  28.239  1.00  0.00     0.031 C 
ATOM     63  C   UNL A   1      47.470  29.384  30.809  1.00  0.00     0.029 A 
ATOM     64  C   UNL A   1      46.657  28.423  30.229  1.00  0.00     0.049 A 
ATOM     65  H   UNL A   1      44.607  28.532  29.742  1.00  0.00     0.167 HD
ATOM     66  C   UNL A   1      46.149  26.211  29.233  1.00  0.00     0.074 A 
ATOM     67  C   UNL A   1      46.521  24.881  28.794  1.00  0.00     0.031 C 
ATOM     68  C   UNL A   1      47.006  27.094  29.799  1.00  0.00     0.037 A 
BRANCH  55  69
ATOM     69  C   UNL A   1      44.435  32.526  31.228  1.00  0.00     0.057 A 
ATOM     70  C   UNL A   1      44.673  33.617  30.379  1.00  0.00     0.134 A 
ATOM     71  C   UNL A   1      44.355  32.780  32.602  1.00  0.00     0.134 A 
ATOM     72  F   UNL A   1      44.775  33.436  29.053  1.00  0.00    -0.206 F 
ATOM     73  C   UNL A   1      44.856  34.906  30.882  1.00  0.00     0.040 A 
ATOM     74  C   UNL A   1      44.511  34.069  33.115  1.00  0.00     0.040 A 
ATOM     75  F   UNL A   1      44.126  31.783  33.468  1.00  0.00    -0.206 F 
ATOM     76  C   UNL A   1      44.770  35.135  32.254  1.00  0.00     0.006 A 
ENDBRANCH  55  69
BRANCH  56  77
ATOM     77  C   UNL A   1      42.827  23.488  27.333  1.00  0.00     0.057 A 
ATOM     78  C   UNL A   1      43.015  23.269  25.964  1.00  0.00     0.134 A 
ATOM     79  C   UNL A   1      42.415  22.401  28.111  1.00  0.00     0.134 A 
ATOM     80  F   UNL A   1      43.393  24.278  25.165  1.00  0.00    -0.206 F 
ATOM     81  C   UNL A   1      42.784  22.021  25.384  1.00  0.00     0.040 A 
ATOM     82  C   UNL A   1      42.199  21.141  27.548  1.00  0.00     0.040 A 
ATOM     83  F   UNL A   1      42.224  22.545  29.430  1.00  0.00    -0.206 F 
ATOM     84  C   UNL A   1      42.378  20.951  26.179  1.00  0.00     0.006 A 
ENDBRANCH  56  77
BRANCH  68  85
ATOM     85  C   UNL A   1      48.418  26.640  30.008  1.00  0.00     0.057 A 
ATOM     86  C   UNL A   1      49.437  26.959  29.103  1.00  0.00     0.134 A 
ATOM     87  C   UNL A   1      48.769  25.907  31.149  1.00  0.00     0.134 A 
ATOM     88  F   UNL A   1      49.162  27.647  27.984  1.00  0.00    -0.206 F 
ATOM     89  C   UNL A   1      50.755  26.552  29.318  1.00  0.00     0.040 A 
ATOM     90  C   UNL A   1      50.086  25.513  31.385  1.00  0.00     0.040 A 
ATOM     91  F   UNL A   1      47.839  25.574  32.056  1.00  0.00    -0.206 F 
ATOM     92  C   UNL A   1      51.082  25.832  30.465  1.00  0.00     0.006 A 
ENDBRANCH  68  85
ENDBRANCH  42  43
ENDBRANCH  34  37
ENDBRANCH  32  33
ENDBRANCH  31  32
ENDBRANCH  30  31
ENDBRANCH   1  30
TORSDOF 15
ENDMDL
MODEL 2
REMARK VINA RESULT:     -12.3      0.313      6.013
REMARK SMILES Cc1nc(-c2ccccc2Cl)sc1C(=O)NC[C@H]1CC[C@@H](C(=O)NCCCCNC(=O)c2ccc(-c3c4nc(c(-c5c(F)cccc5F)c5ccc([nH]5)c(-c5c(F)cccc5F)c5nc(c(-c6c(F)cccc6F)c6ccc3[nH]6)C=C5)C=C4)cc2)CC1
REMARK SMILES IDX 25 1 24 2 22 3 23 4 21 6 18 7 19 8 87 9 20 10 86 11 17 12
REMARK SMILES IDX 16 13 14 14 15 15 13 17 1 18 2 19 3 20 4 21 12 22 5 23 6 24
REMARK SMILES IDX 10 25 7 26 9 27 11 28 8 29 26 30 27 31 28 32 29 33 30 34
REMARK SMILES IDX 31 36 32 37 33 38 85 39 34 40 84 41 35 42 36 43 37 44 78 45
REMARK SMILES IDX 38 46 83 47 77 48 79 49 39 50 82 51 76 52 75 53 40 55 66 56
REMARK SMILES IDX 49 57 65 58 50 59 53 60 64 61 80 62 51 63 52 64 63 66 81 67
REMARK SMILES IDX 54 68 41 69 42 70 47 71 43 72 44 73 46 74 48 75 45 76 67 77
REMARK SMILES IDX 68 78 73 79 69 80 70 81 72 82 74 83 71 84 55 85 56 86 61 87
REMARK SMILES IDX 57 88 58 89 60 90 62 91 59 92
REMARK H PARENT 24 5 16 16 29 35 79 54 53 65
REMARK Flexibility Score: inf
ROOT
ATOM      1  C   UNL A   1      31.510  29.908  25.197  1.00  0.00     0.116 C 
ENDROOT
BRANCH   1   2
ATOM      2  N   UNL A   1      32.667  29.637  24.379  1.00  0.00    -0.356 N 
ATOM      3  C   UNL A   1      32.855  28.937  23.234  1.00  0.00     0.223 C 
ATOM      4  O   UNL A   1      33.967  29.078  22.710  1.00  0.00    -0.275 OA
ATOM      5  H   UNL A   1      33.494  30.046  24.724  1.00  0.00     0.163 HD
BRANCH   3   6
ATOM      6  C   UNL A   1      31.836  27.995  22.569  1.00  0.00     0.078 C 
ATOM      7  C   UNL A   1      30.391  25.876  24.191  1.00  0.00     0.008 C 
ATOM      8  C   UNL A   1      29.854  27.321  24.090  1.00  0.00     0.006 C 
ATOM      9  C   UNL A   1      31.792  25.644  23.593  1.00  0.00     0.006 C 
ATOM     10  C   UNL A   1      30.364  28.156  22.925  1.00  0.00     0.014 C 
ATOM     11  C   UNL A   1      32.246  26.538  22.457  1.00  0.00     0.014 C 
BRANCH   7  12
ATOM     12  C   UNL A   1      30.349  25.396  25.673  1.00  0.00     0.119 C 
BRANCH  12  13
ATOM     13  N   UNL A   1      30.093  23.987  25.811  1.00  0.00    -0.351 N 
ATOM     14  C   UNL A   1      30.843  22.841  25.752  1.00  0.00     0.263 C 
ATOM     15  O   UNL A   1      30.211  21.874  26.203  1.00  0.00    -0.268 OA
ATOM     16  H   UNL A   1      29.144  23.800  25.994  1.00  0.00     0.163 HD
BRANCH  14  17
ATOM     17  C   UNL A   1      32.195  22.696  25.207  1.00  0.00     0.115 A 
ATOM     18  C   UNL A   1      32.320  21.731  22.762  1.00  0.00     0.068 C 
ATOM     19  C   UNL A   1      32.829  22.252  24.046  1.00  0.00     0.062 A 
ATOM     20  N   UNL A   1      34.217  22.241  24.089  1.00  0.00    -0.240 NA
ATOM     21  C   UNL A   1      34.663  22.599  25.263  1.00  0.00     0.125 A 
ATOM     22  S   UNL A   1      33.469  23.174  26.326  1.00  0.00    -0.108 S 
BRANCH  21  23
ATOM     23  C   UNL A   1      36.084  22.583  25.604  1.00  0.00     0.029 A 
ATOM     24  C   UNL A   1      36.680  23.805  25.968  1.00  0.00     0.013 A 
ATOM     25  C   UNL A   1      36.904  21.453  25.461  1.00  0.00     0.051 A 
ATOM     26  C   UNL A   1      38.053  23.895  26.197  1.00  0.00     0.001 A 
ATOM     27  C   UNL A   1      38.281  21.547  25.695  1.00  0.00     0.021 A 
ATOM     28  Cl  UNL A   1      36.307  19.920  24.919  1.00  0.00    -0.084 Cl
ATOM     29  C   UNL A   1      38.854  22.765  26.061  1.00  0.00     0.002 A 
ENDBRANCH  21  23
ENDBRANCH  14  17
ENDBRANCH  12  13
ENDBRANCH   7  12
ENDBRANCH   3   6
ENDBRANCH   1   2
BRANCH   1  30
ATOM     30  C   UNL A   1      31.660  29.438  26.644  1.00  0.00     0.023 C 
BRANCH  30  31
ATOM     31  C   UNL A   1      32.674  28.321  26.859  1.00  0.00     0.023 C 
BRANCH  31  32
ATOM     32  C   UNL A   1      34.041  28.766  27.372  1.00  0.00     0.116 C 
BRANCH  32  33
ATOM     33  N   UNL A   1      34.058  30.059  28.045  1.00  0.00    -0.352 N 
ATOM     34  C   UNL A   1      35.137  30.688  28.633  1.00  0.00     0.251 C 
ATOM     35  H   UNL A   1      33.199  30.539  28.085  1.00  0.00     0.163 HD
ATOM     36  O   UNL A   1      35.005  31.762  29.201  1.00  0.00    -0.269 OA
BRANCH  34  37
ATOM     37  C   UNL A   1      36.447  29.999  28.619  1.00  0.00     0.039 A 
ATOM     38  C   UNL A   1      37.261  30.124  27.491  1.00  0.00     0.014 A 
ATOM     39  C   UNL A   1      36.914  29.353  29.765  1.00  0.00     0.014 A 
ATOM     40  C   UNL A   1      38.589  29.695  27.555  1.00  0.00     0.010 A 
ATOM     41  C   UNL A   1      38.257  29.006  29.853  1.00  0.00     0.010 A 
ATOM     42  C   UNL A   1      39.113  29.191  28.757  1.00  0.00    -0.014 A 
BRANCH  42  43
ATOM     43  C   UNL A   1      40.559  28.877  28.903  1.00  0.00     0.031 A 
ATOM     44  C   UNL A   1      41.085  27.539  28.468  1.00  0.00     0.074 A 
ATOM     45  C   UNL A   1      41.377  29.756  29.514  1.00  0.00     0.049 A 
ATOM     46  N   UNL A   1      42.285  27.036  28.608  1.00  0.00    -0.248 NA
ATOM     47  C   UNL A   1      40.124  26.628  27.825  1.00  0.00     0.031 C 
ATOM     48  C   UNL A   1      40.980  31.063  30.043  1.00  0.00     0.029 A 
ATOM     49  N   UNL A   1      42.717  29.677  29.803  1.00  0.00    -0.354 N 
ATOM     50  C   UNL A   1      42.216  25.748  28.095  1.00  0.00     0.074 A 
ATOM     51  C   UNL A   1      40.845  25.526  27.690  1.00  0.00     0.031 C 
ATOM     52  C   UNL A   1      42.057  31.673  30.565  1.00  0.00     0.029 A 
ATOM     53  C   UNL A   1      43.212  30.791  30.438  1.00  0.00     0.049 A 
ATOM     54  H   UNL A   1      43.271  28.896  29.577  1.00  0.00     0.167 HD
ATOM     55  C   UNL A   1      43.209  24.839  27.949  1.00  0.00     0.037 A 
ATOM     56  C   UNL A   1      44.457  31.069  30.869  1.00  0.00     0.037 A 
ATOM     57  C   UNL A   1      44.582  25.075  28.309  1.00  0.00     0.049 A 
ATOM     58  C   UNL A   1      45.551  30.058  30.664  1.00  0.00     0.074 A 
ATOM     59  C   UNL A   1      45.674  24.243  28.136  1.00  0.00     0.029 A 
ATOM     60  N   UNL A   1      45.051  26.234  28.908  1.00  0.00    -0.354 N 
ATOM     61  N   UNL A   1      45.483  28.868  30.119  1.00  0.00    -0.248 NA
ATOM     62  C   UNL A   1      46.894  30.432  31.129  1.00  0.00     0.031 C 
ATOM     63  C   UNL A   1      46.802  24.889  28.654  1.00  0.00     0.029 A 
ATOM     64  C   UNL A   1      46.415  26.136  29.120  1.00  0.00     0.049 A 
ATOM     65  H   UNL A   1      44.496  27.011  29.148  1.00  0.00     0.167 HD
ATOM     66  C   UNL A   1      46.775  28.362  30.150  1.00  0.00     0.074 A 
ATOM     67  C   UNL A   1      47.609  29.379  30.759  1.00  0.00     0.031 C 
ATOM     68  C   UNL A   1      47.231  27.163  29.715  1.00  0.00     0.037 A 
BRANCH  55  69
ATOM     69  C   UNL A   1      42.841  23.511  27.359  1.00  0.00     0.057 A 
ATOM     70  C   UNL A   1      42.924  23.271  25.980  1.00  0.00     0.134 A 
ATOM     71  C   UNL A   1      42.410  22.458  28.175  1.00  0.00     0.134 A 
ATOM     72  F   UNL A   1      43.315  24.244  25.143  1.00  0.00    -0.206 F 
ATOM     73  C   UNL A   1      42.562  22.040  25.431  1.00  0.00     0.040 A 
ATOM     74  C   UNL A   1      42.069  21.215  27.640  1.00  0.00     0.040 A 
ATOM     75  F   UNL A   1      42.312  22.621  29.502  1.00  0.00    -0.206 F 
ATOM     76  C   UNL A   1      42.137  21.005  26.263  1.00  0.00     0.006 A 
ENDBRANCH  55  69
BRANCH  56  77
ATOM     77  C   UNL A   1      44.752  32.379  31.501  1.00  0.00     0.057 A 
ATOM     78  C   UNL A   1      44.636  32.548  32.886  1.00  0.00     0.134 A 
ATOM     79  C   UNL A   1      45.143  33.488  30.744  1.00  0.00     0.134 A 
ATOM     80  F   UNL A   1      44.248  31.525  33.660  1.00  0.00    -0.206 F 
ATOM     81  C   UNL A   1      44.882  33.779  33.495  1.00  0.00     0.040 A 
ATOM     82  C   UNL A   1      45.411  34.721  31.343  1.00  0.00     0.040 A 
ATOM     83  F   UNL A   1      45.277  33.388  29.414  1.00  0.00    -0.206 F 
ATOM     84  C   UNL A   1      45.274  34.870  32.722  1.00  0.00     0.006 A 
ENDBRANCH  56  77
BRANCH  68  85
ATOM     85  C   UNL A   1      48.700  26.900  29.846  1.00  0.00     0.057 A 
ATOM     86  C   UNL A   1      49.237  26.264  30.972  1.00  0.00     0.134 A 
ATOM     87  C   UNL A   1      49.582  27.254  28.817  1.00  0.00     0.134 A 
ATOM     88  F   UNL A   1      48.446  25.914  31.997  1.00  0.00    -0.206 F 
ATOM     89  C   UNL A   1      50.604  26.002  31.076  1.00  0.00     0.040 A 
ATOM     90  C   UNL A   1      50.947  26.977  28.901  1.00  0.00     0.040 A 
ATOM     91  F   UNL A   1      49.129  27.861  27.711  1.00  0.00    -0.206 F 
ATOM     92  C   UNL A   1      51.461  26.353  30.035  1.00  0.00     0.006 A 
ENDBRANCH  68  85
ENDBRANCH  42  43
ENDBRANCH  34  37
ENDBRANCH  32  33
ENDBRANCH  31  32
ENDBRANCH  30  31
ENDBRANCH   1  30
TORSDOF 15
ENDMDL
MODEL 3
REMARK VINA RESULT:     -12.3      4.283      9.246
REMARK SMILES Cc1nc(-c2ccccc2Cl)sc1C(=O)NC[C@H]1CC[C@@H](C(=O)NCCCCNC(=O)c2ccc(-c3c4nc(c(-c5c(F)cccc5F)c5ccc([nH]5)c(-c5c(F)cccc5F)c5nc(c(-c6c(F)cccc6F)c6ccc3[nH]6)C=C5)C=C4)cc2)CC1
REMARK SMILES IDX 25 1 24 2 22 3 23 4 21 6 18 7 19 8 87 9 20 10 86 11 17 12
REMARK SMILES IDX 16 13 14 14 15 15 13 17 1 18 2 19 3 20 4 21 12 22 5 23 6 24
REMARK SMILES IDX 10 25 7 26 9 27 11 28 8 29 26 30 27 31 28 32 29 33 30 34
REMARK SMILES IDX 31 36 32 37 33 38 85 39 34 40 84 41 35 42 36 43 37 44 78 45
REMARK SMILES IDX 38 46 83 47 77 48 79 49 39 50 82 51 76 52 75 53 40 55 66 56
REMARK SMILES IDX 49 57 65 58 50 59 53 60 64 61 80 62 51 63 52 64 63 66 81 67
REMARK SMILES IDX 54 68 41 69 42 70 47 71 43 72 44 73 46 74 48 75 45 76 67 77
REMARK SMILES IDX 68 78 73 79 69 80 70 81 72 82 74 83 71 84 55 85 56 86 61 87
REMARK SMILES IDX 57 88 58 89 60 90 62 91 59 92
REMARK H PARENT 24 5 16 16 29 35 79 54 53 65
REMARK Flexibility Score: inf
ROOT
ATOM      1  C   UNL A   1      40.013  21.396  26.337  1.00  0.00     0.116 C 
ENDROOT
BRANCH   1   2
ATOM      2  N   UNL A   1      39.128  22.535  26.326  1.00  0.00    -0.356 N 
ATOM      3  C   UNL A   1      37.935  22.781  25.733  1.00  0.00     0.223 C 
ATOM      4  O   UNL A   1      37.370  23.819  26.102  1.00  0.00    -0.275 OA
ATOM      5  H   UNL A   1      39.460  23.293  26.861  1.00  0.00     0.163 HD
BRANCH   3   6
ATOM      6  C   UNL A   1      37.261  21.914  24.655  1.00  0.00     0.078 C 
ATOM      7  C   UNL A   1      34.274  22.102  24.155  1.00  0.00     0.008 C 
ATOM      8  C   UNL A   1      35.270  23.056  23.459  1.00  0.00     0.006 C 
ATOM      9  C   UNL A   1      34.871  21.204  25.255  1.00  0.00     0.006 C 
ATOM     10  C   UNL A   1      36.722  22.602  23.408  1.00  0.00     0.014 C 
ATOM     11  C   UNL A   1      36.334  20.823  25.158  1.00  0.00     0.014 C 
BRANCH   7  12
ATOM     12  C   UNL A   1      33.066  22.912  24.714  1.00  0.00     0.119 C 
BRANCH  12  13
ATOM     13  N   UNL A   1      33.440  24.180  25.282  1.00  0.00    -0.351 N 
ATOM     14  C   UNL A   1      33.017  25.478  25.152  1.00  0.00     0.263 C 
ATOM     15  O   UNL A   1      33.481  26.188  26.057  1.00  0.00    -0.268 OA
ATOM     16  H   UNL A   1      34.182  24.095  25.921  1.00  0.00     0.163 HD
BRANCH  14  17
ATOM     17  C   UNL A   1      32.168  26.031  24.094  1.00  0.00     0.115 A 
ATOM     18  C   UNL A   1      32.740  25.215  21.658  1.00  0.00     0.068 C 
ATOM     19  C   UNL A   1      32.027  25.971  22.707  1.00  0.00     0.062 A 
ATOM     20  N   UNL A   1      31.064  26.813  22.166  1.00  0.00    -0.240 NA
ATOM     21  C   UNL A   1      30.511  27.560  23.084  1.00  0.00     0.125 A 
ATOM     22  S   UNL A   1      30.949  27.161  24.676  1.00  0.00    -0.108 S 
BRANCH  21  23
ATOM     23  C   UNL A   1      29.533  28.599  22.769  1.00  0.00     0.029 A 
ATOM     24  C   UNL A   1      30.021  29.819  22.265  1.00  0.00     0.013 A 
ATOM     25  C   UNL A   1      28.165  28.493  23.063  1.00  0.00     0.051 A 
ATOM     26  C   UNL A   1      29.166  30.900  22.046  1.00  0.00     0.001 A 
ATOM     27  C   UNL A   1      27.310  29.580  22.839  1.00  0.00     0.021 A 
ATOM     28  Cl  UNL A   1      27.464  27.083  23.782  1.00  0.00    -0.084 Cl
ATOM     29  C   UNL A   1      27.810  30.779  22.333  1.00  0.00     0.002 A 
ENDBRANCH  21  23
ENDBRANCH  14  17
ENDBRANCH  12  13
ENDBRANCH   7  12
ENDBRANCH   3   6
ENDBRANCH   1   2
BRANCH   1  30
ATOM     30  C   UNL A   1      41.411  21.702  25.799  1.00  0.00     0.023 C 
BRANCH  30  31
ATOM     31  C   UNL A   1      42.561  21.243  26.689  1.00  0.00     0.023 C 
BRANCH  31  32
ATOM     32  C   UNL A   1      43.622  22.298  26.986  1.00  0.00     0.116 C 
BRANCH  32  33
ATOM     33  N   UNL A   1      44.264  22.876  25.812  1.00  0.00    -0.352 N 
ATOM     34  C   UNL A   1      44.269  24.201  25.421  1.00  0.00     0.251 C 
ATOM     35  H   UNL A   1      44.751  22.249  25.229  1.00  0.00     0.163 HD
ATOM     36  O   UNL A   1      44.819  24.548  24.385  1.00  0.00    -0.269 OA
BRANCH  34  37
ATOM     37  C   UNL A   1      43.535  25.182  26.251  1.00  0.00     0.039 A 
ATOM     38  C   UNL A   1      42.390  24.765  26.933  1.00  0.00     0.014 A 
ATOM     39  C   UNL A   1      44.057  26.461  26.453  1.00  0.00     0.014 A 
ATOM     40  C   UNL A   1      41.833  25.597  27.907  1.00  0.00     0.010 A 
ATOM     41  C   UNL A   1      43.552  27.249  27.481  1.00  0.00     0.010 A 
ATOM     42  C   UNL A   1      42.447  26.817  28.231  1.00  0.00    -0.014 A 
BRANCH  42  43
ATOM     43  C   UNL A   1      41.972  27.648  29.368  1.00  0.00     0.031 A 
ATOM     44  C   UNL A   1      42.643  27.544  30.708  1.00  0.00     0.074 A 
ATOM     45  C   UNL A   1      40.878  28.423  29.221  1.00  0.00     0.049 A 
ATOM     46  N   UNL A   1      42.313  28.102  31.845  1.00  0.00    -0.248 NA
ATOM     47  C   UNL A   1      43.820  26.664  30.790  1.00  0.00     0.031 C 
ATOM     48  C   UNL A   1      40.093  28.563  27.993  1.00  0.00     0.029 A 
ATOM     49  N   UNL A   1      40.230  29.232  30.120  1.00  0.00    -0.354 N 
ATOM     50  C   UNL A   1      43.222  27.622  32.778  1.00  0.00     0.074 A 
ATOM     51  C   UNL A   1      44.084  26.688  32.087  1.00  0.00     0.031 C 
ATOM     52  C   UNL A   1      39.089  29.428  28.208  1.00  0.00     0.029 A 
ATOM     53  C   UNL A   1      39.137  29.879  29.594  1.00  0.00     0.049 A 
ATOM     54  H   UNL A   1      40.520  29.339  31.055  1.00  0.00     0.167 HD
ATOM     55  C   UNL A   1      43.347  27.950  34.086  1.00  0.00     0.037 A 
ATOM     56  C   UNL A   1      38.272  30.738  30.166  1.00  0.00     0.037 A 
ATOM     57  C   UNL A   1      42.520  28.913  34.762  1.00  0.00     0.049 A 
ATOM     58  C   UNL A   1      38.452  31.113  31.610  1.00  0.00     0.074 A 
ATOM     59  C   UNL A   1      42.612  29.364  36.067  1.00  0.00     0.029 A 
ATOM     60  N   UNL A   1      41.452  29.580  34.181  1.00  0.00    -0.354 N 
ATOM     61  N   UNL A   1      39.357  30.700  32.464  1.00  0.00    -0.248 NA
ATOM     62  C   UNL A   1      37.494  32.078  32.169  1.00  0.00     0.031 C 
ATOM     63  C   UNL A   1      41.583  30.287  36.284  1.00  0.00     0.029 A 
ATOM     64  C   UNL A   1      40.871  30.433  35.103  1.00  0.00     0.049 A 
ATOM     65  H   UNL A   1      41.151  29.464  33.251  1.00  0.00     0.167 HD
ATOM     66  C   UNL A   1      39.096  31.372  33.650  1.00  0.00     0.074 A 
ATOM     67  C   UNL A   1      37.954  32.229  33.403  1.00  0.00     0.031 C 
ATOM     68  C   UNL A   1      39.743  31.288  34.837  1.00  0.00     0.037 A 
BRANCH  55  69
ATOM     69  C   UNL A   1      44.432  27.266  34.862  1.00  0.00     0.057 A 
ATOM     70  C   UNL A   1      45.718  27.815  34.969  1.00  0.00     0.134 A 
ATOM     71  C   UNL A   1      44.189  26.054  35.519  1.00  0.00     0.134 A 
ATOM     72  F   UNL A   1      46.018  28.967  34.349  1.00  0.00    -0.206 F 
ATOM     73  C   UNL A   1      46.732  27.167  35.676  1.00  0.00     0.040 A 
ATOM     74  C   UNL A   1      45.188  25.409  36.251  1.00  0.00     0.040 A 
ATOM     75  F   UNL A   1      42.980  25.477  35.460  1.00  0.00    -0.206 F 
ATOM     76  C   UNL A   1      46.466  25.962  36.324  1.00  0.00     0.006 A 
ENDBRANCH  55  69
BRANCH  56  77
ATOM     77  C   UNL A   1      37.179  31.340  29.363  1.00  0.00     0.057 A 
ATOM     78  C   UNL A   1      36.017  30.614  29.077  1.00  0.00     0.134 A 
ATOM     79  C   UNL A   1      37.270  32.640  28.856  1.00  0.00     0.134 A 
ATOM     80  F   UNL A   1      35.881  29.356  29.522  1.00  0.00    -0.206 F 
ATOM     81  C   UNL A   1      34.991  31.153  28.301  1.00  0.00     0.040 A 
ATOM     82  C   UNL A   1      36.242  33.199  28.093  1.00  0.00     0.040 A 
ATOM     83  F   UNL A   1      38.356  33.388  29.100  1.00  0.00    -0.206 F 
ATOM     84  C   UNL A   1      35.101  32.452  27.809  1.00  0.00     0.006 A 
ENDBRANCH  56  77
BRANCH  68  85
ATOM     85  C   UNL A   1      39.256  32.169  35.946  1.00  0.00     0.057 A 
ATOM     86  C   UNL A   1      39.711  33.484  36.097  1.00  0.00     0.134 A 
ATOM     87  C   UNL A   1      38.291  31.708  36.851  1.00  0.00     0.134 A 
ATOM     88  F   UNL A   1      40.645  33.979  35.271  1.00  0.00    -0.206 F 
ATOM     89  C   UNL A   1      39.234  34.306  37.119  1.00  0.00     0.040 A 
ATOM     90  C   UNL A   1      37.791  32.527  37.863  1.00  0.00     0.040 A 
ATOM     91  F   UNL A   1      37.811  30.459  36.756  1.00  0.00    -0.206 F 
ATOM     92  C   UNL A   1      38.267  33.829  38.001  1.00  0.00     0.006 A 
ENDBRANCH  68  85
ENDBRANCH  42  43
ENDBRANCH  34  37
ENDBRANCH  32  33
ENDBRANCH  31  32
ENDBRANCH  30  31
ENDBRANCH   1  30
TORSDOF 15
ENDMDL
