MODEL 1
REMARK VINA RESULT:     -12.0      0.000      0.000
REMARK SMILES O=C(NCCCCNC(=O)c1ccccc1Nc1nc(Cl)nc(Nc2ccc(N3CCOCC3=O)cc2)n1)c1ccc(-c2c3nc(c(-c4c(F)cccc4F)c4ccc([nH]4)c(-c4c(F)cccc4F)c4nc(c(-c5c(F)cccc5F)c5ccc2[nH]5)C=C4)C=C3)cc1
REMARK SMILES IDX 7 1 6 2 5 3 4 4 3 5 1 6 2 7 39 9 40 10 92 11 41 12 91 13
REMARK SMILES IDX 42 14 43 15 44 16 85 17 45 18 90 19 84 20 86 21 46 22 89 23
REMARK SMILES IDX 83 24 82 25 47 27 73 28 56 29 72 30 57 31 60 32 71 33 87 34
REMARK SMILES IDX 58 35 59 36 70 38 88 39 61 40 48 41 49 42 54 43 50 44 51 45
REMARK SMILES IDX 53 46 55 47 52 48 74 49 75 50 80 51 76 52 77 53 79 54 81 55
REMARK SMILES IDX 78 56 62 57 63 58 68 59 64 60 65 61 67 62 69 63 66 64 8 65
REMARK SMILES IDX 9 66 10 68 11 69 12 70 16 71 13 72 15 73 14 74 17 75 18 77
REMARK SMILES IDX 19 78 38 79 20 80 23 81 21 82 22 83 24 84 25 86 26 87 37 88
REMARK SMILES IDX 27 89 36 90 28 91 29 92 30 93 34 94 31 95 33 96 35 97 32 98
REMARK H PARENT 3 8 86 26 60 37 8 67 17 76 24 85
REMARK Flexibility Score: inf
ROOT
ATOM      1  C   UNL A   1      34.386  25.463  25.622  1.00  0.00     0.116 C 
ENDROOT
BRANCH   1   2
ATOM      2  C   UNL A   1      34.390  26.984  25.511  1.00  0.00     0.023 C 
BRANCH   2   3
ATOM      3  C   UNL A   1      33.225  27.697  26.200  1.00  0.00     0.023 C 
BRANCH   3   4
ATOM      4  C   UNL A   1      33.550  28.331  27.547  1.00  0.00     0.116 C 
BRANCH   4   5
ATOM      5  N   UNL A   1      33.545  29.785  27.500  1.00  0.00    -0.352 N 
ATOM      6  O   UNL A   1      34.278  31.880  27.900  1.00  0.00    -0.269 OA
ATOM      7  C   UNL A   1      34.527  30.677  27.853  1.00  0.00     0.251 C 
ATOM      8  H   UNL A   1      32.712  30.190  27.165  1.00  0.00     0.163 HD
BRANCH   7   9
ATOM      9  C   UNL A   1      35.879  30.195  28.202  1.00  0.00     0.039 A 
ATOM     10  C   UNL A   1      36.172  29.749  29.494  1.00  0.00     0.014 A 
ATOM     11  C   UNL A   1      36.864  30.170  27.211  1.00  0.00     0.014 A 
ATOM     12  C   UNL A   1      37.480  29.411  29.830  1.00  0.00     0.010 A 
ATOM     13  C   UNL A   1      38.157  29.753  27.530  1.00  0.00     0.010 A 
ATOM     14  C   UNL A   1      38.483  29.397  28.849  1.00  0.00    -0.014 A 
BRANCH  14  15
ATOM     15  C   UNL A   1      39.858  28.957  29.188  1.00  0.00     0.031 A 
ATOM     16  C   UNL A   1      40.822  29.893  29.859  1.00  0.00     0.074 A 
ATOM     17  C   UNL A   1      40.250  27.716  28.849  1.00  0.00     0.049 A 
ATOM     18  N   UNL A   1      42.089  29.716  30.135  1.00  0.00    -0.248 NA
ATOM     19  C   UNL A   1      40.296  31.206  30.258  1.00  0.00     0.031 C 
ATOM     20  C   UNL A   1      39.404  26.718  28.191  1.00  0.00     0.029 A 
ATOM     21  N   UNL A   1      41.461  27.087  28.988  1.00  0.00    -0.354 N 
ATOM     22  C   UNL A   1      42.520  30.901  30.718  1.00  0.00     0.074 A 
ATOM     23  C   UNL A   1      41.384  31.799  30.731  1.00  0.00     0.031 C 
ATOM     24  C   UNL A   1      40.120  25.604  27.984  1.00  0.00     0.029 A 
ATOM     25  C   UNL A   1      41.489  25.832  28.432  1.00  0.00     0.049 A 
ATOM     26  H   UNL A   1      42.233  27.496  29.442  1.00  0.00     0.167 HD
ATOM     27  C   UNL A   1      43.750  31.208  31.197  1.00  0.00     0.037 A 
ATOM     28  C   UNL A   1      42.511  24.975  28.257  1.00  0.00     0.037 A 
ATOM     29  C   UNL A   1      44.873  30.306  31.175  1.00  0.00     0.049 A 
ATOM     30  C   UNL A   1      43.878  25.351  28.750  1.00  0.00     0.074 A 
ATOM     31  C   UNL A   1      46.147  30.503  31.677  1.00  0.00     0.029 A 
ATOM     32  N   UNL A   1      44.860  29.040  30.603  1.00  0.00    -0.354 N 
ATOM     33  N   UNL A   1      44.264  26.455  29.340  1.00  0.00    -0.248 NA
ATOM     34  C   UNL A   1      44.949  24.366  28.555  1.00  0.00     0.031 C 
ATOM     35  C   UNL A   1      46.924  29.386  31.350  1.00  0.00     0.029 A 
ATOM     36  C   UNL A   1      46.116  28.462  30.708  1.00  0.00     0.049 A 
ATOM     37  H   UNL A   1      44.077  28.617  30.185  1.00  0.00     0.167 HD
ATOM     38  C   UNL A   1      45.615  26.290  29.613  1.00  0.00     0.074 A 
ATOM     39  C   UNL A   1      45.981  24.977  29.124  1.00  0.00     0.031 C 
ATOM     40  C   UNL A   1      46.468  27.149  30.223  1.00  0.00     0.037 A 
BRANCH  27  41
ATOM     41  C   UNL A   1      43.953  32.593  31.745  1.00  0.00     0.057 A 
ATOM     42  C   UNL A   1      43.750  32.902  33.097  1.00  0.00     0.134 A 
ATOM     43  C   UNL A   1      44.367  33.636  30.904  1.00  0.00     0.134 A 
ATOM     44  F   UNL A   1      43.348  31.955  33.958  1.00  0.00    -0.206 F 
ATOM     45  C   UNL A   1      43.909  34.202  33.582  1.00  0.00     0.040 A 
ATOM     46  C   UNL A   1      44.560  34.933  31.384  1.00  0.00     0.040 A 
ATOM     47  F   UNL A   1      44.594  33.412  29.601  1.00  0.00    -0.206 F 
ATOM     48  C   UNL A   1      44.318  35.222  32.725  1.00  0.00     0.006 A 
ENDBRANCH  27  41
BRANCH  28  49
ATOM     49  C   UNL A   1      42.261  23.689  27.562  1.00  0.00     0.057 A 
ATOM     50  C   UNL A   1      42.336  23.589  26.169  1.00  0.00     0.134 A 
ATOM     51  C   UNL A   1      42.008  22.513  28.283  1.00  0.00     0.134 A 
ATOM     52  F   UNL A   1      42.564  24.681  25.426  1.00  0.00    -0.206 F 
ATOM     53  C   UNL A   1      42.165  22.367  25.516  1.00  0.00     0.040 A 
ATOM     54  C   UNL A   1      41.862  21.282  27.645  1.00  0.00     0.040 A 
ATOM     55  F   UNL A   1      41.939  22.544  29.622  1.00  0.00    -0.206 F 
ATOM     56  C   UNL A   1      41.937  21.208  26.256  1.00  0.00     0.006 A 
ENDBRANCH  28  49
BRANCH  40  57
ATOM     57  C   UNL A   1      47.879  26.687  30.443  1.00  0.00     0.057 A 
ATOM     58  C   UNL A   1      48.249  25.933  31.563  1.00  0.00     0.134 A 
ATOM     59  C   UNL A   1      48.862  26.934  29.475  1.00  0.00     0.134 A 
ATOM     60  F   UNL A   1      47.360  25.675  32.534  1.00  0.00    -0.206 F 
ATOM     61  C   UNL A   1      49.548  25.444  31.714  1.00  0.00     0.040 A 
ATOM     62  C   UNL A   1      50.156  26.427  29.602  1.00  0.00     0.040 A 
ATOM     63  F   UNL A   1      48.571  27.645  28.375  1.00  0.00    -0.206 F 
ATOM     64  C   UNL A   1      50.502  25.680  30.725  1.00  0.00     0.006 A 
ENDBRANCH  40  57
ENDBRANCH  14  15
ENDBRANCH   7   9
ENDBRANCH   4   5
ENDBRANCH   3   4
ENDBRANCH   2   3
ENDBRANCH   1   2
BRANCH   1  65
ATOM     65  N   UNL A   1      34.331  24.797  24.331  1.00  0.00    -0.352 N 
ATOM     66  C   UNL A   1      35.145  23.809  23.833  1.00  0.00     0.253 C 
ATOM     67  H   UNL A   1      33.611  25.097  23.730  1.00  0.00     0.163 HD
ATOM     68  O   UNL A   1      34.975  23.397  22.689  1.00  0.00    -0.269 OA
BRANCH  66  69
ATOM     69  C   UNL A   1      36.248  23.256  24.650  1.00  0.00     0.063 A 
ATOM     70  C   UNL A   1      37.138  24.185  25.209  1.00  0.00     0.016 A 
ATOM     71  C   UNL A   1      36.430  21.875  24.846  1.00  0.00     0.054 A 
ATOM     72  C   UNL A   1      38.183  23.753  26.024  1.00  0.00     0.001 A 
ATOM     73  C   UNL A   1      37.460  21.470  25.713  1.00  0.00     0.027 A 
ATOM     74  C   UNL A   1      38.333  22.396  26.289  1.00  0.00     0.002 A 
BRANCH  71  75
ATOM     75  N   UNL A   1      35.616  20.923  24.211  1.00  0.00    -0.323 N 
ATOM     76  H   UNL A   1      35.938  20.617  23.332  1.00  0.00     0.170 HD
BRANCH  75  77
ATOM     77  C   UNL A   1      34.425  20.351  24.637  1.00  0.00     0.233 A 
ATOM     78  N   UNL A   1      34.259  19.041  24.551  1.00  0.00    -0.182 NA
ATOM     79  N   UNL A   1      33.514  21.188  25.116  1.00  0.00    -0.176 NA
ATOM     80  C   UNL A   1      33.087  18.623  24.992  1.00  0.00     0.228 A 
ATOM     81  C   UNL A   1      32.344  20.658  25.459  1.00  0.00     0.233 A 
ATOM     82  Cl  UNL A   1      32.805  16.942  24.900  1.00  0.00    -0.041 Cl
ATOM     83  N   UNL A   1      32.091  19.360  25.445  1.00  0.00    -0.182 NA
BRANCH  81  84
ATOM     84  N   UNL A   1      31.323  21.570  25.713  1.00  0.00    -0.324 N 
ATOM     85  H   UNL A   1      30.607  21.260  26.314  1.00  0.00     0.170 HD
BRANCH  84  86
ATOM     86  C   UNL A   1      31.187  22.869  25.221  1.00  0.00     0.041 A 
ATOM     87  C   UNL A   1      31.141  23.088  23.839  1.00  0.00     0.028 A 
ATOM     88  C   UNL A   1      30.974  23.952  26.076  1.00  0.00     0.028 A 
ATOM     89  C   UNL A   1      30.867  24.361  23.325  1.00  0.00     0.028 A 
ATOM     90  C   UNL A   1      30.760  25.233  25.567  1.00  0.00     0.028 A 
ATOM     91  C   UNL A   1      30.687  25.446  24.187  1.00  0.00     0.044 A 
BRANCH  91  92
ATOM     92  N   UNL A   1      30.372  26.738  23.678  1.00  0.00    -0.308 N 
ATOM     93  C   UNL A   1      31.449  27.447  22.975  1.00  0.00     0.154 C 
ATOM     94  C   UNL A   1      29.040  27.143  23.544  1.00  0.00     0.253 C 
ATOM     95  C   UNL A   1      31.105  28.893  22.642  1.00  0.00     0.183 C 
ATOM     96  C   UNL A   1      28.822  28.476  22.812  1.00  0.00     0.260 C 
ATOM     97  O   UNL A   1      28.078  26.558  24.046  1.00  0.00    -0.272 OA
ATOM     98  O   UNL A   1      29.855  28.939  21.957  1.00  0.00    -0.370 OA
ENDBRANCH  91  92
ENDBRANCH  84  86
ENDBRANCH  81  84
ENDBRANCH  75  77
ENDBRANCH  71  75
ENDBRANCH  66  69
ENDBRANCH   1  65
TORSDOF 16
ENDMDL
MODEL 2
REMARK VINA RESULT:     -11.4      1.630      5.919
REMARK SMILES O=C(NCCCCNC(=O)c1ccccc1Nc1nc(Cl)nc(Nc2ccc(N3CCOCC3=O)cc2)n1)c1ccc(-c2c3nc(c(-c4c(F)cccc4F)c4ccc([nH]4)c(-c4c(F)cccc4F)c4nc(c(-c5c(F)cccc5F)c5ccc2[nH]5)C=C4)C=C3)cc1
REMARK SMILES IDX 7 1 6 2 5 3 4 4 3 5 1 6 2 7 39 9 40 10 92 11 41 12 91 13
REMARK SMILES IDX 42 14 43 15 44 16 85 17 45 18 90 19 84 20 86 21 46 22 89 23
REMARK SMILES IDX 83 24 82 25 47 27 73 28 56 29 72 30 57 31 60 32 71 33 87 34
REMARK SMILES IDX 58 35 59 36 70 38 88 39 61 40 48 41 49 42 54 43 50 44 51 45
REMARK SMILES IDX 53 46 55 47 52 48 74 49 75 50 80 51 76 52 77 53 79 54 81 55
REMARK SMILES IDX 78 56 62 57 63 58 68 59 64 60 65 61 67 62 69 63 66 64 8 65
REMARK SMILES IDX 9 66 10 68 11 69 12 70 16 71 13 72 15 73 14 74 17 75 18 77
REMARK SMILES IDX 19 78 38 79 20 80 23 81 21 82 22 83 24 84 25 86 26 87 37 88
REMARK SMILES IDX 27 89 36 90 28 91 29 92 30 93 34 94 31 95 33 96 35 97 32 98
REMARK H PARENT 3 8 86 26 60 37 8 67 17 76 24 85
REMARK Flexibility Score: inf
ROOT
ATOM      1  C   UNL A   1      34.165  25.280  25.676  1.00  0.00     0.116 C 
ENDROOT
BRANCH   1   2
ATOM      2  C   UNL A   1      34.223  26.804  25.610  1.00  0.00     0.023 C 
BRANCH   2   3
ATOM      3  C   UNL A   1      33.038  27.534  26.244  1.00  0.00     0.023 C 
BRANCH   3   4
ATOM      4  C   UNL A   1      33.344  28.280  27.537  1.00  0.00     0.116 C 
BRANCH   4   5
ATOM      5  N   UNL A   1      33.357  29.723  27.365  1.00  0.00    -0.352 N 
ATOM      6  O   UNL A   1      34.068  31.845  27.649  1.00  0.00    -0.269 OA
ATOM      7  C   UNL A   1      34.311  30.642  27.730  1.00  0.00     0.251 C 
ATOM      8  H   UNL A   1      32.562  30.099  26.921  1.00  0.00     0.163 HD
BRANCH   7   9
ATOM      9  C   UNL A   1      35.620  30.190  28.244  1.00  0.00     0.039 A 
ATOM     10  C   UNL A   1      35.781  29.829  29.584  1.00  0.00     0.014 A 
ATOM     11  C   UNL A   1      36.699  30.108  27.360  1.00  0.00     0.014 A 
ATOM     12  C   UNL A   1      37.047  29.520  30.071  1.00  0.00     0.010 A 
ATOM     13  C   UNL A   1      37.953  29.719  27.834  1.00  0.00     0.010 A 
ATOM     14  C   UNL A   1      38.144  29.450  29.199  1.00  0.00    -0.014 A 
BRANCH  14  15
ATOM     15  C   UNL A   1      39.477  29.040  29.703  1.00  0.00     0.031 A 
ATOM     16  C   UNL A   1      40.210  27.883  29.087  1.00  0.00     0.074 A 
ATOM     17  C   UNL A   1      40.008  29.692  30.753  1.00  0.00     0.049 A 
ATOM     18  N   UNL A   1      41.332  27.321  29.462  1.00  0.00    -0.248 NA
ATOM     19  C   UNL A   1      39.595  27.269  27.902  1.00  0.00     0.031 C 
ATOM     20  C   UNL A   1      39.389  30.828  31.437  1.00  0.00     0.029 A 
ATOM     21  N   UNL A   1      41.175  29.483  31.443  1.00  0.00    -0.354 N 
ATOM     22  C   UNL A   1      41.545  26.272  28.577  1.00  0.00     0.074 A 
ATOM     23  C   UNL A   1      40.422  26.261  27.662  1.00  0.00     0.031 C 
ATOM     24  C   UNL A   1      40.179  31.216  32.448  1.00  0.00     0.029 A 
ATOM     25  C   UNL A   1      41.325  30.316  32.523  1.00  0.00     0.049 A 
ATOM     26  H   UNL A   1      41.839  28.802  31.188  1.00  0.00     0.167 HD
ATOM     27  C   UNL A   1      42.583  25.401  28.533  1.00  0.00     0.037 A 
ATOM     28  C   UNL A   1      42.254  30.330  33.496  1.00  0.00     0.037 A 
ATOM     29  C   UNL A   1      43.692  25.422  29.452  1.00  0.00     0.049 A 
ATOM     30  C   UNL A   1      43.370  29.327  33.460  1.00  0.00     0.074 A 
ATOM     31  C   UNL A   1      44.816  24.615  29.466  1.00  0.00     0.029 A 
ATOM     32  N   UNL A   1      43.808  26.285  30.534  1.00  0.00    -0.354 N 
ATOM     33  N   UNL A   1      43.587  28.369  32.594  1.00  0.00    -0.248 NA
ATOM     34  C   UNL A   1      44.369  29.406  34.534  1.00  0.00     0.031 C 
ATOM     35  C   UNL A   1      45.577  24.943  30.593  1.00  0.00     0.029 A 
ATOM     36  C   UNL A   1      44.966  26.003  31.242  1.00  0.00     0.049 A 
ATOM     37  H   UNL A   1      43.163  26.991  30.765  1.00  0.00     0.167 HD
ATOM     38  C   UNL A   1      44.760  27.747  32.998  1.00  0.00     0.074 A 
ATOM     39  C   UNL A   1      45.208  28.438  34.189  1.00  0.00     0.031 C 
ATOM     40  C   UNL A   1      45.408  26.703  32.425  1.00  0.00     0.037 A 
BRANCH  27  41
ATOM     41  C   UNL A   1      42.541  24.326  27.483  1.00  0.00     0.057 A 
ATOM     42  C   UNL A   1      43.026  24.529  26.183  1.00  0.00     0.134 A 
ATOM     43  C   UNL A   1      42.013  23.062  27.781  1.00  0.00     0.134 A 
ATOM     44  F   UNL A   1      43.539  25.716  25.826  1.00  0.00    -0.206 F 
ATOM     45  C   UNL A   1      42.947  23.531  25.209  1.00  0.00     0.040 A 
ATOM     46  C   UNL A   1      41.957  22.047  26.824  1.00  0.00     0.040 A 
ATOM     47  F   UNL A   1      41.542  22.792  29.008  1.00  0.00    -0.206 F 
ATOM     48  C   UNL A   1      42.414  22.284  25.530  1.00  0.00     0.006 A 
ENDBRANCH  27  41
BRANCH  28  49
ATOM     49  C   UNL A   1      42.137  31.325  34.590  1.00  0.00     0.057 A 
ATOM     50  C   UNL A   1      42.723  32.590  34.487  1.00  0.00     0.134 A 
ATOM     51  C   UNL A   1      41.377  31.054  35.737  1.00  0.00     0.134 A 
ATOM     52  F   UNL A   1      43.470  32.903  33.419  1.00  0.00    -0.206 F 
ATOM     53  C   UNL A   1      42.561  33.552  35.486  1.00  0.00     0.040 A 
ATOM     54  C   UNL A   1      41.185  32.015  36.729  1.00  0.00     0.040 A 
ATOM     55  F   UNL A   1      40.779  29.863  35.886  1.00  0.00    -0.206 F 
ATOM     56  C   UNL A   1      41.781  33.267  36.607  1.00  0.00     0.006 A 
ENDBRANCH  28  49
BRANCH  40  57
ATOM     57  C   UNL A   1      46.702  26.263  33.045  1.00  0.00     0.057 A 
ATOM     58  C   UNL A   1      46.763  25.227  33.983  1.00  0.00     0.134 A 
ATOM     59  C   UNL A   1      47.912  26.835  32.630  1.00  0.00     0.134 A 
ATOM     60  F   UNL A   1      45.640  24.647  34.432  1.00  0.00    -0.206 F 
ATOM     61  C   UNL A   1      47.983  24.777  34.491  1.00  0.00     0.040 A 
ATOM     62  C   UNL A   1      49.140  26.376  33.111  1.00  0.00     0.040 A 
ATOM     63  F   UNL A   1      47.923  27.829  31.729  1.00  0.00    -0.206 F 
ATOM     64  C   UNL A   1      49.176  25.343  34.045  1.00  0.00     0.006 A 
ENDBRANCH  40  57
ENDBRANCH  14  15
ENDBRANCH   7   9
ENDBRANCH   4   5
ENDBRANCH   3   4
ENDBRANCH   2   3
ENDBRANCH   1   2
BRANCH   1  65
ATOM     65  N   UNL A   1      34.235  24.651  24.367  1.00  0.00    -0.352 N 
ATOM     66  C   UNL A   1      35.166  23.763  23.884  1.00  0.00     0.253 C 
ATOM     67  H   UNL A   1      33.516  24.895  23.740  1.00  0.00     0.163 HD
ATOM     68  O   UNL A   1      35.089  23.370  22.724  1.00  0.00    -0.269 OA
BRANCH  66  69
ATOM     69  C   UNL A   1      36.281  23.298  24.738  1.00  0.00     0.063 A 
ATOM     70  C   UNL A   1      37.115  24.292  25.273  1.00  0.00     0.016 A 
ATOM     71  C   UNL A   1      36.527  21.937  24.994  1.00  0.00     0.054 A 
ATOM     72  C   UNL A   1      38.166  23.945  26.119  1.00  0.00     0.001 A 
ATOM     73  C   UNL A   1      37.561  21.619  25.891  1.00  0.00     0.027 A 
ATOM     74  C   UNL A   1      38.378  22.609  26.441  1.00  0.00     0.002 A 
BRANCH  71  75
ATOM     75  N   UNL A   1      35.771  20.921  24.386  1.00  0.00    -0.323 N 
ATOM     76  H   UNL A   1      36.172  20.527  23.578  1.00  0.00     0.170 HD
BRANCH  75  77
ATOM     77  C   UNL A   1      34.541  20.392  24.754  1.00  0.00     0.233 A 
ATOM     78  N   UNL A   1      34.248  19.139  24.446  1.00  0.00    -0.182 NA
ATOM     79  N   UNL A   1      33.727  21.209  25.411  1.00  0.00    -0.176 NA
ATOM     80  C   UNL A   1      33.053  18.756  24.856  1.00  0.00     0.228 A 
ATOM     81  C   UNL A   1      32.520  20.733  25.703  1.00  0.00     0.233 A 
ATOM     82  Cl  UNL A   1      32.609  17.151  24.482  1.00  0.00    -0.041 Cl
ATOM     83  N   UNL A   1      32.144  19.486  25.472  1.00  0.00    -0.182 NA
BRANCH  81  84
ATOM     84  N   UNL A   1      31.599  21.673  26.156  1.00  0.00    -0.324 N 
ATOM     85  H   UNL A   1      31.221  21.511  27.051  1.00  0.00     0.170 HD
BRANCH  84  86
ATOM     86  C   UNL A   1      31.142  22.817  25.499  1.00  0.00     0.041 A 
ATOM     87  C   UNL A   1      30.766  23.941  26.241  1.00  0.00     0.028 A 
ATOM     88  C   UNL A   1      31.161  22.912  24.106  1.00  0.00     0.028 A 
ATOM     89  C   UNL A   1      30.436  25.143  25.603  1.00  0.00     0.028 A 
ATOM     90  C   UNL A   1      30.776  24.090  23.465  1.00  0.00     0.028 A 
ATOM     91  C   UNL A   1      30.428  25.221  24.208  1.00  0.00     0.044 A 
BRANCH  91  92
ATOM     92  N   UNL A   1      30.129  26.448  23.548  1.00  0.00    -0.308 N 
ATOM     93  C   UNL A   1      28.803  27.024  23.801  1.00  0.00     0.154 C 
ATOM     94  C   UNL A   1      31.153  27.221  22.990  1.00  0.00     0.253 C 
ATOM     95  C   UNL A   1      28.481  28.215  22.909  1.00  0.00     0.183 C 
ATOM     96  C   UNL A   1      30.734  28.605  22.474  1.00  0.00     0.260 C 
ATOM     97  O   UNL A   1      32.308  26.827  22.812  1.00  0.00    -0.272 OA
ATOM     98  O   UNL A   1      29.538  29.169  22.989  1.00  0.00    -0.370 OA
ENDBRANCH  91  92
ENDBRANCH  84  86
ENDBRANCH  81  84
ENDBRANCH  75  77
ENDBRANCH  71  75
ENDBRANCH  66  69
ENDBRANCH   1  65
TORSDOF 16
ENDMDL
MODEL 3
REMARK VINA RESULT:     -11.3      3.010      7.545
REMARK SMILES O=C(NCCCCNC(=O)c1ccccc1Nc1nc(Cl)nc(Nc2ccc(N3CCOCC3=O)cc2)n1)c1ccc(-c2c3nc(c(-c4c(F)cccc4F)c4ccc([nH]4)c(-c4c(F)cccc4F)c4nc(c(-c5c(F)cccc5F)c5ccc2[nH]5)C=C4)C=C3)cc1
REMARK SMILES IDX 7 1 6 2 5 3 4 4 3 5 1 6 2 7 39 9 40 10 92 11 41 12 91 13
REMARK SMILES IDX 42 14 43 15 44 16 85 17 45 18 90 19 84 20 86 21 46 22 89 23
REMARK SMILES IDX 83 24 82 25 47 27 73 28 56 29 72 30 57 31 60 32 71 33 87 34
REMARK SMILES IDX 58 35 59 36 70 38 88 39 61 40 48 41 49 42 54 43 50 44 51 45
REMARK SMILES IDX 53 46 55 47 52 48 74 49 75 50 80 51 76 52 77 53 79 54 81 55
REMARK SMILES IDX 78 56 62 57 63 58 68 59 64 60 65 61 67 62 69 63 66 64 8 65
REMARK SMILES IDX 9 66 10 68 11 69 12 70 16 71 13 72 15 73 14 74 17 75 18 77
REMARK SMILES IDX 19 78 38 79 20 80 23 81 21 82 22 83 24 84 25 86 26 87 37 88
REMARK SMILES IDX 27 89 36 90 28 91 29 92 30 93 34 94 31 95 33 96 35 97 32 98
REMARK H PARENT 3 8 86 26 60 37 8 67 17 76 24 85
REMARK Flexibility Score: inf
ROOT
ATOM      1  C   UNL A   1      38.024  23.045  25.994  1.00  0.00     0.116 C 
ENDROOT
BRANCH   1   2
ATOM      2  C   UNL A   1      39.372  22.345  26.142  1.00  0.00     0.023 C 
BRANCH   2   3
ATOM      3  C   UNL A   1      39.306  20.856  26.484  1.00  0.00     0.023 C 
BRANCH   3   4
ATOM      4  C   UNL A   1      39.638  19.907  25.339  1.00  0.00     0.116 C 
BRANCH   4   5
ATOM      5  N   UNL A   1      40.637  18.914  25.702  1.00  0.00    -0.352 N 
ATOM      6  O   UNL A   1      42.669  18.122  26.275  1.00  0.00    -0.269 OA
ATOM      7  C   UNL A   1      41.912  19.086  26.181  1.00  0.00     0.251 C 
ATOM      8  H   UNL A   1      40.356  17.976  25.588  1.00  0.00     0.163 HD
BRANCH   7   9
ATOM      9  C   UNL A   1      42.388  20.432  26.561  1.00  0.00     0.039 A 
ATOM     10  C   UNL A   1      42.363  20.855  27.892  1.00  0.00     0.014 A 
ATOM     11  C   UNL A   1      42.886  21.276  25.565  1.00  0.00     0.014 A 
ATOM     12  C   UNL A   1      42.706  22.166  28.209  1.00  0.00     0.010 A 
ATOM     13  C   UNL A   1      43.306  22.566  25.897  1.00  0.00     0.010 A 
ATOM     14  C   UNL A   1      43.193  23.031  27.217  1.00  0.00    -0.014 A 
BRANCH  14  15
ATOM     15  C   UNL A   1      43.636  24.402  27.569  1.00  0.00     0.031 A 
ATOM     16  C   UNL A   1      42.646  25.443  28.004  1.00  0.00     0.074 A 
ATOM     17  C   UNL A   1      44.939  24.717  27.453  1.00  0.00     0.049 A 
ATOM     18  N   UNL A   1      42.837  26.715  28.250  1.00  0.00    -0.248 NA
ATOM     19  C   UNL A   1      41.255  24.999  28.172  1.00  0.00     0.031 C 
ATOM     20  C   UNL A   1      45.994  23.792  27.036  1.00  0.00     0.029 A 
ATOM     21  N   UNL A   1      45.596  25.905  27.652  1.00  0.00    -0.354 N 
ATOM     22  C   UNL A   1      41.590  27.230  28.577  1.00  0.00     0.074 A 
ATOM     23  C   UNL A   1      40.645  26.138  28.472  1.00  0.00     0.031 C 
ATOM     24  C   UNL A   1      47.164  24.445  27.009  1.00  0.00     0.029 A 
ATOM     25  C   UNL A   1      46.932  25.846  27.341  1.00  0.00     0.049 A 
ATOM     26  H   UNL A   1      45.152  26.719  27.983  1.00  0.00     0.167 HD
ATOM     27  C   UNL A   1      41.266  28.498  28.931  1.00  0.00     0.037 A 
ATOM     28  C   UNL A   1      47.861  26.817  27.285  1.00  0.00     0.037 A 
ATOM     29  C   UNL A   1      42.217  29.576  29.028  1.00  0.00     0.049 A 
ATOM     30  C   UNL A   1      47.475  28.225  27.633  1.00  0.00     0.074 A 
ATOM     31  C   UNL A   1      42.000  30.884  29.423  1.00  0.00     0.029 A 
ATOM     32  N   UNL A   1      43.564  29.475  28.707  1.00  0.00    -0.354 N 
ATOM     33  N   UNL A   1      46.303  28.692  27.985  1.00  0.00    -0.248 NA
ATOM     34  C   UNL A   1      48.537  29.238  27.578  1.00  0.00     0.031 C 
ATOM     35  C   UNL A   1      43.199  31.590  29.277  1.00  0.00     0.029 A 
ATOM     36  C   UNL A   1      44.181  30.707  28.860  1.00  0.00     0.049 A 
ATOM     37  H   UNL A   1      44.015  28.651  28.413  1.00  0.00     0.167 HD
ATOM     38  C   UNL A   1      46.488  30.048  28.221  1.00  0.00     0.074 A 
ATOM     39  C   UNL A   1      47.887  30.326  27.972  1.00  0.00     0.031 C 
ATOM     40  C   UNL A   1      45.578  30.972  28.616  1.00  0.00     0.037 A 
BRANCH  27  41
ATOM     41  C   UNL A   1      39.816  28.794  29.196  1.00  0.00     0.057 A 
ATOM     42  C   UNL A   1      39.249  28.677  30.473  1.00  0.00     0.134 A 
ATOM     43  C   UNL A   1      38.974  29.210  28.156  1.00  0.00     0.134 A 
ATOM     44  F   UNL A   1      39.994  28.277  31.514  1.00  0.00    -0.206 F 
ATOM     45  C   UNL A   1      37.892  28.921  30.695  1.00  0.00     0.040 A 
ATOM     46  C   UNL A   1      37.623  29.487  28.373  1.00  0.00     0.040 A 
ATOM     47  F   UNL A   1      39.451  29.356  26.910  1.00  0.00    -0.206 F 
ATOM     48  C   UNL A   1      37.075  29.331  29.643  1.00  0.00     0.006 A 
ENDBRANCH  27  41
BRANCH  28  49
ATOM     49  C   UNL A   1      49.239  26.471  26.858  1.00  0.00     0.057 A 
ATOM     50  C   UNL A   1      50.154  25.902  27.750  1.00  0.00     0.134 A 
ATOM     51  C   UNL A   1      49.651  26.642  25.529  1.00  0.00     0.134 A 
ATOM     52  F   UNL A   1      49.822  25.725  29.037  1.00  0.00    -0.206 F 
ATOM     53  C   UNL A   1      51.430  25.516  27.336  1.00  0.00     0.040 A 
ATOM     54  C   UNL A   1      50.912  26.236  25.097  1.00  0.00     0.040 A 
ATOM     55  F   UNL A   1      48.812  27.169  24.625  1.00  0.00    -0.206 F 
ATOM     56  C   UNL A   1      51.808  25.673  26.003  1.00  0.00     0.006 A 
ENDBRANCH  28  49
BRANCH  40  57
ATOM     57  C   UNL A   1      46.068  32.371  28.854  1.00  0.00     0.057 A 
ATOM     58  C   UNL A   1      46.034  33.351  27.855  1.00  0.00     0.134 A 
ATOM     59  C   UNL A   1      46.502  32.759  30.129  1.00  0.00     0.134 A 
ATOM     60  F   UNL A   1      45.643  33.042  26.610  1.00  0.00    -0.206 F 
ATOM     61  C   UNL A   1      46.419  34.668  28.116  1.00  0.00     0.040 A 
ATOM     62  C   UNL A   1      46.863  34.078  30.407  1.00  0.00     0.040 A 
ATOM     63  F   UNL A   1      46.552  31.869  31.131  1.00  0.00    -0.206 F 
ATOM     64  C   UNL A   1      46.822  35.036  29.398  1.00  0.00     0.006 A 
ENDBRANCH  40  57
ENDBRANCH  14  15
ENDBRANCH   7   9
ENDBRANCH   4   5
ENDBRANCH   3   4
ENDBRANCH   2   3
ENDBRANCH   1   2
BRANCH   1  65
ATOM     65  N   UNL A   1      37.648  23.270  24.608  1.00  0.00    -0.352 N 
ATOM     66  C   UNL A   1      36.482  22.932  23.964  1.00  0.00     0.253 C 
ATOM     67  H   UNL A   1      38.321  23.727  24.055  1.00  0.00     0.163 HD
ATOM     68  O   UNL A   1      36.359  23.161  22.764  1.00  0.00    -0.269 OA
BRANCH  66  69
ATOM     69  C   UNL A   1      35.382  22.263  24.694  1.00  0.00     0.063 A 
ATOM     70  C   UNL A   1      35.352  20.862  24.632  1.00  0.00     0.016 A 
ATOM     71  C   UNL A   1      34.393  22.975  25.398  1.00  0.00     0.054 A 
ATOM     72  C   UNL A   1      34.373  20.150  25.322  1.00  0.00     0.001 A 
ATOM     73  C   UNL A   1      33.449  22.231  26.126  1.00  0.00     0.027 A 
ATOM     74  C   UNL A   1      33.431  20.835  26.083  1.00  0.00     0.002 A 
BRANCH  71  75
ATOM     75  N   UNL A   1      34.342  24.378  25.386  1.00  0.00    -0.323 N 
ATOM     76  H   UNL A   1      34.962  24.825  26.008  1.00  0.00     0.170 HD
BRANCH  75  77
ATOM     77  C   UNL A   1      33.548  25.229  24.629  1.00  0.00     0.233 A 
ATOM     78  N   UNL A   1      33.575  25.150  23.309  1.00  0.00    -0.182 NA
ATOM     79  N   UNL A   1      32.795  26.084  25.310  1.00  0.00    -0.176 NA
ATOM     80  C   UNL A   1      32.773  26.009  22.708  1.00  0.00     0.228 A 
ATOM     81  C   UNL A   1      32.087  26.951  24.593  1.00  0.00     0.233 A 
ATOM     82  Cl  UNL A   1      32.766  25.965  21.002  1.00  0.00    -0.041 Cl
ATOM     83  N   UNL A   1      32.017  26.931  23.272  1.00  0.00    -0.182 NA
BRANCH  81  84
ATOM     84  N   UNL A   1      31.510  27.995  25.311  1.00  0.00    -0.324 N 
ATOM     85  H   UNL A   1      30.534  27.949  25.430  1.00  0.00     0.170 HD
BRANCH  84  86
ATOM     86  C   UNL A   1      32.144  29.099  25.883  1.00  0.00     0.041 A 
ATOM     87  C   UNL A   1      31.445  30.302  26.031  1.00  0.00     0.028 A 
ATOM     88  C   UNL A   1      33.427  29.001  26.425  1.00  0.00     0.028 A 
ATOM     89  C   UNL A   1      32.011  31.378  26.725  1.00  0.00     0.028 A 
ATOM     90  C   UNL A   1      34.018  30.091  27.064  1.00  0.00     0.028 A 
ATOM     91  C   UNL A   1      33.309  31.283  27.236  1.00  0.00     0.044 A 
BRANCH  91  92
ATOM     92  N   UNL A   1      33.882  32.358  27.974  1.00  0.00    -0.308 N 
ATOM     93  C   UNL A   1      35.278  32.194  28.395  1.00  0.00     0.154 C 
ATOM     94  C   UNL A   1      33.273  33.617  27.984  1.00  0.00     0.253 C 
ATOM     95  C   UNL A   1      35.754  33.282  29.349  1.00  0.00     0.183 C 
ATOM     96  C   UNL A   1      34.077  34.739  28.656  1.00  0.00     0.260 C 
ATOM     97  O   UNL A   1      32.129  33.843  27.581  1.00  0.00    -0.272 OA
ATOM     98  O   UNL A   1      35.479  34.563  28.785  1.00  0.00    -0.370 OA
ENDBRANCH  91  92
ENDBRANCH  84  86
ENDBRANCH  81  84
ENDBRANCH  75  77
ENDBRANCH  71  75
ENDBRANCH  66  69
ENDBRANCH   1  65
TORSDOF 16
ENDMDL
