MODEL 1
REMARK VINA RESULT:     -11.9      0.000      0.000
REMARK SMILES CC(C)(C)OC(=O)C1=C(C(=O)NCCCCNC(=O)c2ccc(-c3c4nc(c(-c5c(F)cccc5F)c5ccc([nH]5)c(-c5c(F)cccc5F)c5nc(c(-c6c(F)cccc6F)c6ccc3[nH]6)C=C5)C=C4)cc2)C[C@@H]([NH3+])C=C1
REMARK SMILES IDX 14 1 13 2 12 3 10 4 11 5 9 7 8 8 78 9 74 10 77 11 75 12 6 13
REMARK SMILES IDX 7 14 5 15 2 16 1 17 3 18 4 19 76 20 15 24 16 25 17 26 18 27
REMARK SMILES IDX 19 29 20 30 21 31 73 32 22 33 72 34 23 35 24 36 25 37 66 38
REMARK SMILES IDX 26 39 71 40 65 41 67 42 27 43 70 44 64 45 63 46 28 48 54 49
REMARK SMILES IDX 37 50 53 51 38 52 41 53 52 54 68 55 39 56 40 57 51 59 69 60
REMARK SMILES IDX 42 61 29 62 30 63 35 64 31 65 32 66 34 67 36 68 33 69 55 70
REMARK SMILES IDX 56 71 61 72 57 73 58 74 60 75 62 76 59 77 43 78 44 79 49 80
REMARK SMILES IDX 45 81 46 82 48 83 50 84 47 85
REMARK H PARENT 12 6 76 21 76 22 76 23 17 28 67 47 41 58
REMARK Flexibility Score: inf
ROOT
ATOM      1  C   UNL A   1      31.558  30.602  26.369  1.00  0.00     0.023 C 
ENDROOT
BRANCH   1   2
ATOM      2  C   UNL A   1      32.988  30.108  26.170  1.00  0.00     0.116 C 
BRANCH   2   3
ATOM      3  N   UNL A   1      33.288  29.784  24.787  1.00  0.00    -0.352 N 
ATOM      4  C   UNL A   1      32.869  28.861  23.882  1.00  0.00     0.248 C 
ATOM      5  O   UNL A   1      33.242  29.073  22.725  1.00  0.00    -0.270 OA
ATOM      6  H   UNL A   1      33.970  30.385  24.409  1.00  0.00     0.163 HD
BRANCH   4   7
ATOM      7  C   UNL A   1      31.948  27.714  24.191  1.00  0.00     0.038 C 
ATOM      8  C   UNL A   1      30.666  27.746  23.749  1.00  0.00     0.068 C 
ATOM      9  C   UNL A   1      29.692  26.754  24.188  1.00  0.00     0.018 C 
ATOM     10  C   UNL A   1      32.410  26.595  25.087  1.00  0.00     0.111 C 
ATOM     11  C   UNL A   1      30.010  25.724  24.980  1.00  0.00     0.038 C 
ATOM     12  C   UNL A   1      31.400  25.477  25.453  1.00  0.00     0.209 C 
BRANCH   8  13
ATOM     13  C   UNL A   1      30.171  28.776  22.784  1.00  0.00     0.339 C 
ATOM     14  O   UNL A   1      30.353  28.716  21.577  1.00  0.00    -0.246 OA
BRANCH  13  15
ATOM     15  O   UNL A   1      29.422  29.675  23.469  1.00  0.00    -0.456 OA
BRANCH  15  16
ATOM     16  C   UNL A   1      28.156  30.146  22.943  1.00  0.00     0.104 C 
ATOM     17  C   UNL A   1      27.199  28.954  23.102  1.00  0.00     0.056 C 
ATOM     18  C   UNL A   1      28.233  30.504  21.455  1.00  0.00     0.056 C 
ATOM     19  C   UNL A   1      27.641  31.316  23.785  1.00  0.00     0.056 C 
ENDBRANCH  15  16
ENDBRANCH  13  15
ENDBRANCH   8  13
BRANCH  12  20
ATOM     20  N   UNL A   1      31.373  25.230  26.896  1.00  0.00    -0.352 N 
ATOM     21  H   UNL A   1      31.564  26.099  27.393  1.00  0.00     0.345 HD
ATOM     22  H   UNL A   1      32.082  24.538  27.136  1.00  0.00     0.345 HD
ATOM     23  H   UNL A   1      30.453  24.881  27.163  1.00  0.00     0.345 HD
ENDBRANCH  12  20
ENDBRANCH   4   7
ENDBRANCH   2   3
ENDBRANCH   1   2
BRANCH   1  24
ATOM     24  C   UNL A   1      31.422  32.120  26.531  1.00  0.00     0.023 C 
BRANCH  24  25
ATOM     25  C   UNL A   1      32.546  32.814  27.302  1.00  0.00     0.116 C 
BRANCH  25  26
ATOM     26  N   UNL A   1      32.263  34.200  27.645  1.00  0.00    -0.352 N 
ATOM     27  C   UNL A   1      32.938  35.017  28.521  1.00  0.00     0.251 C 
ATOM     28  H   UNL A   1      31.487  34.604  27.193  1.00  0.00     0.163 HD
ATOM     29  O   UNL A   1      32.534  36.152  28.751  1.00  0.00    -0.269 OA
BRANCH  27  30
ATOM     30  C   UNL A   1      34.131  34.499  29.222  1.00  0.00     0.039 A 
ATOM     31  C   UNL A   1      33.960  33.864  30.455  1.00  0.00     0.014 A 
ATOM     32  C   UNL A   1      35.400  34.602  28.649  1.00  0.00     0.014 A 
ATOM     33  C   UNL A   1      35.054  33.258  31.075  1.00  0.00     0.010 A 
ATOM     34  C   UNL A   1      36.478  33.949  29.239  1.00  0.00     0.010 A 
ATOM     35  C   UNL A   1      36.312  33.260  30.451  1.00  0.00    -0.014 A 
BRANCH  35  36
ATOM     36  C   UNL A   1      37.464  32.537  31.041  1.00  0.00     0.031 A 
ATOM     37  C   UNL A   1      38.069  33.009  32.333  1.00  0.00     0.074 A 
ATOM     38  C   UNL A   1      38.009  31.499  30.379  1.00  0.00     0.049 A 
ATOM     39  N   UNL A   1      39.132  32.570  32.957  1.00  0.00    -0.248 NA
ATOM     40  C   UNL A   1      37.403  34.140  32.998  1.00  0.00     0.031 C 
ATOM     41  C   UNL A   1      37.539  30.972  29.096  1.00  0.00     0.029 A 
ATOM     42  N   UNL A   1      39.087  30.709  30.688  1.00  0.00    -0.354 N 
ATOM     43  C   UNL A   1      39.269  33.375  34.080  1.00  0.00     0.074 A 
ATOM     44  C   UNL A   1      38.209  34.360  34.026  1.00  0.00     0.031 C 
ATOM     45  C   UNL A   1      38.314  29.934  28.736  1.00  0.00     0.029 A 
ATOM     46  C   UNL A   1      39.352  29.745  29.745  1.00  0.00     0.049 A 
ATOM     47  H   UNL A   1      39.621  30.821  31.507  1.00  0.00     0.167 HD
ATOM     48  C   UNL A   1      40.181  33.289  35.076  1.00  0.00     0.037 A 
ATOM     49  C   UNL A   1      40.325  28.817  29.698  1.00  0.00     0.037 A 
ATOM     50  C   UNL A   1      41.223  32.297  35.140  1.00  0.00     0.049 A 
ATOM     51  C   UNL A   1      41.326  28.743  30.817  1.00  0.00     0.074 A 
ATOM     52  C   UNL A   1      42.179  32.111  36.124  1.00  0.00     0.029 A 
ATOM     53  N   UNL A   1      41.438  31.320  34.181  1.00  0.00    -0.354 N 
ATOM     54  N   UNL A   1      41.419  29.486  31.893  1.00  0.00    -0.248 NA
ATOM     55  C   UNL A   1      42.355  27.698  30.718  1.00  0.00     0.031 C 
ATOM     56  C   UNL A   1      42.986  31.031  35.750  1.00  0.00     0.029 A 
ATOM     57  C   UNL A   1      42.513  30.527  34.549  1.00  0.00     0.049 A 
ATOM     58  H   UNL A   1      40.905  31.205  33.362  1.00  0.00     0.167 HD
ATOM     59  C   UNL A   1      42.495  28.981  32.611  1.00  0.00     0.074 A 
ATOM     60  C   UNL A   1      43.017  27.863  31.854  1.00  0.00     0.031 C 
ATOM     61  C   UNL A   1      43.006  29.407  33.791  1.00  0.00     0.037 A 
BRANCH  48  62
ATOM     62  C   UNL A   1      40.079  34.288  36.188  1.00  0.00     0.057 A 
ATOM     63  C   UNL A   1      40.725  35.529  36.117  1.00  0.00     0.134 A 
ATOM     64  C   UNL A   1      39.308  34.023  37.326  1.00  0.00     0.134 A 
ATOM     65  F   UNL A   1      41.491  35.838  35.060  1.00  0.00    -0.206 F 
ATOM     66  C   UNL A   1      40.626  36.463  37.150  1.00  0.00     0.040 A 
ATOM     67  C   UNL A   1      39.183  34.957  38.355  1.00  0.00     0.040 A 
ATOM     68  F   UNL A   1      38.660  32.855  37.454  1.00  0.00    -0.206 F 
ATOM     69  C   UNL A   1      39.848  36.180  38.271  1.00  0.00     0.006 A 
ENDBRANCH  48  62
BRANCH  49  70
ATOM     70  C   UNL A   1      40.393  27.861  28.565  1.00  0.00     0.057 A 
ATOM     71  C   UNL A   1      41.102  28.178  27.401  1.00  0.00     0.134 A 
ATOM     72  C   UNL A   1      39.735  26.627  28.607  1.00  0.00     0.134 A 
ATOM     73  F   UNL A   1      41.736  29.355  27.296  1.00  0.00    -0.206 F 
ATOM     74  C   UNL A   1      41.138  27.310  26.308  1.00  0.00     0.040 A 
ATOM     75  C   UNL A   1      39.781  25.740  27.530  1.00  0.00     0.040 A 
ATOM     76  F   UNL A   1      39.044  26.264  29.698  1.00  0.00    -0.206 F 
ATOM     77  C   UNL A   1      40.478  26.085  26.373  1.00  0.00     0.006 A 
ENDBRANCH  49  70
BRANCH  61  78
ATOM     78  C   UNL A   1      44.160  28.635  34.353  1.00  0.00     0.057 A 
ATOM     79  C   UNL A   1      45.486  28.992  34.087  1.00  0.00     0.134 A 
ATOM     80  C   UNL A   1      43.938  27.540  35.199  1.00  0.00     0.134 A 
ATOM     81  F   UNL A   1      45.762  30.022  33.272  1.00  0.00    -0.206 F 
ATOM     82  C   UNL A   1      46.555  28.276  34.627  1.00  0.00     0.040 A 
ATOM     83  C   UNL A   1      44.997  26.829  35.762  1.00  0.00     0.040 A 
ATOM     84  F   UNL A   1      42.688  27.151  35.497  1.00  0.00    -0.206 F 
ATOM     85  C   UNL A   1      46.311  27.195  35.473  1.00  0.00     0.006 A 
ENDBRANCH  61  78
ENDBRANCH  35  36
ENDBRANCH  27  30
ENDBRANCH  25  26
ENDBRANCH  24  25
ENDBRANCH   1  24
TORSDOF 15
ENDMDL
MODEL 2
REMARK VINA RESULT:     -11.8      0.131      1.697
REMARK SMILES CC(C)(C)OC(=O)C1=C(C(=O)NCCCCNC(=O)c2ccc(-c3c4nc(c(-c5c(F)cccc5F)c5ccc([nH]5)c(-c5c(F)cccc5F)c5nc(c(-c6c(F)cccc6F)c6ccc3[nH]6)C=C5)C=C4)cc2)C[C@@H]([NH3+])C=C1
REMARK SMILES IDX 14 1 13 2 12 3 10 4 11 5 9 7 8 8 78 9 74 10 77 11 75 12 6 13
REMARK SMILES IDX 7 14 5 15 2 16 1 17 3 18 4 19 76 20 15 24 16 25 17 26 18 27
REMARK SMILES IDX 19 29 20 30 21 31 73 32 22 33 72 34 23 35 24 36 25 37 66 38
REMARK SMILES IDX 26 39 71 40 65 41 67 42 27 43 70 44 64 45 63 46 28 48 54 49
REMARK SMILES IDX 37 50 53 51 38 52 41 53 52 54 68 55 39 56 40 57 51 59 69 60
REMARK SMILES IDX 42 61 29 62 30 63 35 64 31 65 32 66 34 67 36 68 33 69 55 70
REMARK SMILES IDX 56 71 61 72 57 73 58 74 60 75 62 76 59 77 43 78 44 79 49 80
REMARK SMILES IDX 45 81 46 82 48 83 50 84 47 85
REMARK H PARENT 12 6 76 21 76 22 76 23 17 28 67 47 41 58
REMARK Flexibility Score: inf
ROOT
ATOM      1  C   UNL A   1      31.550  30.560  26.317  1.00  0.00     0.023 C 
ENDROOT
BRANCH   1   2
ATOM      2  C   UNL A   1      32.988  30.072  26.169  1.00  0.00     0.116 C 
BRANCH   2   3
ATOM      3  N   UNL A   1      33.325  29.707  24.806  1.00  0.00    -0.352 N 
ATOM      4  C   UNL A   1      32.905  28.781  23.905  1.00  0.00     0.248 C 
ATOM      5  O   UNL A   1      33.326  28.953  22.758  1.00  0.00    -0.270 OA
ATOM      6  H   UNL A   1      34.042  30.274  24.440  1.00  0.00     0.163 HD
BRANCH   4   7
ATOM      7  C   UNL A   1      31.930  27.675  24.203  1.00  0.00     0.038 C 
ATOM      8  C   UNL A   1      30.649  27.776  23.769  1.00  0.00     0.068 C 
ATOM      9  C   UNL A   1      29.631  26.826  24.200  1.00  0.00     0.018 C 
ATOM     10  C   UNL A   1      32.343  26.522  25.080  1.00  0.00     0.111 C 
ATOM     11  C   UNL A   1      29.903  25.770  24.975  1.00  0.00     0.038 C 
ATOM     12  C   UNL A   1      31.282  25.449  25.437  1.00  0.00     0.209 C 
BRANCH   8  13
ATOM     13  C   UNL A   1      30.200  28.842  22.822  1.00  0.00     0.339 C 
ATOM     14  O   UNL A   1      30.450  28.835  21.626  1.00  0.00    -0.246 OA
BRANCH  13  15
ATOM     15  O   UNL A   1      29.405  29.706  23.501  1.00  0.00    -0.456 OA
BRANCH  15  16
ATOM     16  C   UNL A   1      28.101  30.079  22.989  1.00  0.00     0.104 C 
ATOM     17  C   UNL A   1      27.653  31.251  23.876  1.00  0.00     0.056 C 
ATOM     18  C   UNL A   1      27.071  28.953  23.126  1.00  0.00     0.056 C 
ATOM     19  C   UNL A   1      28.224  30.566  21.544  1.00  0.00     0.056 C 
ENDBRANCH  15  16
ENDBRANCH  13  15
ENDBRANCH   8  13
BRANCH  12  20
ATOM     20  N   UNL A   1      31.250  25.183  26.876  1.00  0.00    -0.352 N 
ATOM     21  H   UNL A   1      30.462  25.676  27.295  1.00  0.00     0.345 HD
ATOM     22  H   UNL A   1      32.119  25.507  27.300  1.00  0.00     0.345 HD
ATOM     23  H   UNL A   1      31.148  24.181  27.034  1.00  0.00     0.345 HD
ENDBRANCH  12  20
ENDBRANCH   4   7
ENDBRANCH   2   3
ENDBRANCH   1   2
BRANCH   1  24
ATOM     24  C   UNL A   1      31.403  32.075  26.496  1.00  0.00     0.023 C 
BRANCH  24  25
ATOM     25  C   UNL A   1      32.525  32.769  27.268  1.00  0.00     0.116 C 
BRANCH  25  26
ATOM     26  N   UNL A   1      32.234  34.149  27.626  1.00  0.00    -0.352 N 
ATOM     27  C   UNL A   1      32.905  34.962  28.509  1.00  0.00     0.251 C 
ATOM     28  H   UNL A   1      31.455  34.554  27.178  1.00  0.00     0.163 HD
ATOM     29  O   UNL A   1      32.494  36.092  28.751  1.00  0.00    -0.269 OA
BRANCH  27  30
ATOM     30  C   UNL A   1      34.101  34.444  29.205  1.00  0.00     0.039 A 
ATOM     31  C   UNL A   1      33.937  33.822  30.446  1.00  0.00     0.014 A 
ATOM     32  C   UNL A   1      35.365  34.534  28.619  1.00  0.00     0.014 A 
ATOM     33  C   UNL A   1      35.033  33.216  31.061  1.00  0.00     0.010 A 
ATOM     34  C   UNL A   1      36.445  33.881  29.206  1.00  0.00     0.010 A 
ATOM     35  C   UNL A   1      36.286  33.205  30.426  1.00  0.00    -0.014 A 
BRANCH  35  36
ATOM     36  C   UNL A   1      37.439  32.481  31.013  1.00  0.00     0.031 A 
ATOM     37  C   UNL A   1      38.068  32.971  32.286  1.00  0.00     0.074 A 
ATOM     38  C   UNL A   1      37.963  31.425  30.362  1.00  0.00     0.049 A 
ATOM     39  N   UNL A   1      39.136  32.533  32.902  1.00  0.00    -0.248 NA
ATOM     40  C   UNL A   1      37.425  34.122  32.939  1.00  0.00     0.031 C 
ATOM     41  C   UNL A   1      37.469  30.878  29.097  1.00  0.00     0.029 A 
ATOM     42  N   UNL A   1      39.038  30.629  30.671  1.00  0.00    -0.354 N 
ATOM     43  C   UNL A   1      39.299  33.358  34.007  1.00  0.00     0.074 A 
ATOM     44  C   UNL A   1      38.249  34.353  33.951  1.00  0.00     0.031 C 
ATOM     45  C   UNL A   1      38.227  29.825  28.746  1.00  0.00     0.029 A 
ATOM     46  C   UNL A   1      39.279  29.644  29.743  1.00  0.00     0.049 A 
ATOM     47  H   UNL A   1      39.585  30.752  31.479  1.00  0.00     0.167 HD
ATOM     48  C   UNL A   1      40.225  33.281  34.991  1.00  0.00     0.037 A 
ATOM     49  C   UNL A   1      40.241  28.706  29.699  1.00  0.00     0.037 A 
ATOM     50  C   UNL A   1      41.257  32.280  35.059  1.00  0.00     0.049 A 
ATOM     51  C   UNL A   1      41.258  28.643  30.805  1.00  0.00     0.074 A 
ATOM     52  C   UNL A   1      42.226  32.103  36.032  1.00  0.00     0.029 A 
ATOM     53  N   UNL A   1      41.447  31.282  34.116  1.00  0.00    -0.354 N 
ATOM     54  N   UNL A   1      41.375  29.405  31.864  1.00  0.00    -0.248 NA
ATOM     55  C   UNL A   1      42.275  27.585  30.710  1.00  0.00     0.031 C 
ATOM     56  C   UNL A   1      43.016  31.007  35.666  1.00  0.00     0.029 A 
ATOM     57  C   UNL A   1      42.520  30.486  34.483  1.00  0.00     0.049 A 
ATOM     58  H   UNL A   1      40.902  31.157  33.307  1.00  0.00     0.167 HD
ATOM     59  C   UNL A   1      42.456  28.903  32.576  1.00  0.00     0.074 A 
ATOM     60  C   UNL A   1      42.955  27.765  31.833  1.00  0.00     0.031 C 
ATOM     61  C   UNL A   1      42.990  29.346  33.739  1.00  0.00     0.037 A 
BRANCH  48  62
ATOM     62  C   UNL A   1      40.150  34.303  36.085  1.00  0.00     0.057 A 
ATOM     63  C   UNL A   1      39.392  34.082  37.241  1.00  0.00     0.134 A 
ATOM     64  C   UNL A   1      40.861  35.506  35.997  1.00  0.00     0.134 A 
ATOM     65  F   UNL A   1      38.675  32.955  37.379  1.00  0.00    -0.206 F 
ATOM     66  C   UNL A   1      39.325  35.031  38.262  1.00  0.00     0.040 A 
ATOM     67  C   UNL A   1      40.820  36.453  37.021  1.00  0.00     0.040 A 
ATOM     68  F   UNL A   1      41.610  35.778  34.917  1.00  0.00    -0.206 F 
ATOM     69  C   UNL A   1      40.045  36.218  38.156  1.00  0.00     0.006 A 
ENDBRANCH  48  62
BRANCH  49  70
ATOM     70  C   UNL A   1      40.282  27.728  28.584  1.00  0.00     0.057 A 
ATOM     71  C   UNL A   1      39.605  26.506  28.675  1.00  0.00     0.134 A 
ATOM     72  C   UNL A   1      41.014  27.977  27.417  1.00  0.00     0.134 A 
ATOM     73  F   UNL A   1      38.904  26.204  29.778  1.00  0.00    -0.206 F 
ATOM     74  C   UNL A   1      39.670  25.556  27.655  1.00  0.00     0.040 A 
ATOM     75  C   UNL A   1      41.070  27.045  26.380  1.00  0.00     0.040 A 
ATOM     76  F   UNL A   1      41.679  29.132  27.268  1.00  0.00    -0.206 F 
ATOM     77  C   UNL A   1      40.403  25.827  26.501  1.00  0.00     0.006 A 
ENDBRANCH  49  70
BRANCH  61  78
ATOM     78  C   UNL A   1      44.144  28.572  34.299  1.00  0.00     0.057 A 
ATOM     79  C   UNL A   1      43.953  27.450  35.114  1.00  0.00     0.134 A 
ATOM     80  C   UNL A   1      45.461  28.937  33.991  1.00  0.00     0.134 A 
ATOM     81  F   UNL A   1      42.716  27.061  35.456  1.00  0.00    -0.206 F 
ATOM     82  C   UNL A   1      45.034  26.726  35.619  1.00  0.00     0.040 A 
ATOM     83  C   UNL A   1      46.549  28.209  34.473  1.00  0.00     0.040 A 
ATOM     84  F   UNL A   1      45.709  30.000  33.211  1.00  0.00    -0.206 F 
ATOM     85  C   UNL A   1      46.336  27.102  35.293  1.00  0.00     0.006 A 
ENDBRANCH  61  78
ENDBRANCH  35  36
ENDBRANCH  27  30
ENDBRANCH  25  26
ENDBRANCH  24  25
ENDBRANCH   1  24
TORSDOF 15
ENDMDL
MODEL 3
REMARK VINA RESULT:     -11.8      6.203     11.008
REMARK SMILES CC(C)(C)OC(=O)C1=C(C(=O)NCCCCNC(=O)c2ccc(-c3c4nc(c(-c5c(F)cccc5F)c5ccc([nH]5)c(-c5c(F)cccc5F)c5nc(c(-c6c(F)cccc6F)c6ccc3[nH]6)C=C5)C=C4)cc2)C[C@@H]([NH3+])C=C1
REMARK SMILES IDX 14 1 13 2 12 3 10 4 11 5 9 7 8 8 78 9 74 10 77 11 75 12 6 13
REMARK SMILES IDX 7 14 5 15 2 16 1 17 3 18 4 19 76 20 15 24 16 25 17 26 18 27
REMARK SMILES IDX 19 29 20 30 21 31 73 32 22 33 72 34 23 35 24 36 25 37 66 38
REMARK SMILES IDX 26 39 71 40 65 41 67 42 27 43 70 44 64 45 63 46 28 48 54 49
REMARK SMILES IDX 37 50 53 51 38 52 41 53 52 54 68 55 39 56 40 57 51 59 69 60
REMARK SMILES IDX 42 61 29 62 30 63 35 64 31 65 32 66 34 67 36 68 33 69 55 70
REMARK SMILES IDX 56 71 61 72 57 73 58 74 60 75 62 76 59 77 43 78 44 79 49 80
REMARK SMILES IDX 45 81 46 82 48 83 50 84 47 85
REMARK H PARENT 12 6 76 21 76 22 76 23 17 28 67 47 41 58
REMARK Flexibility Score: inf
ROOT
ATOM      1  C   UNL A   1      36.764  20.124  25.014  1.00  0.00     0.023 C 
ENDROOT
BRANCH   1   2
ATOM      2  C   UNL A   1      36.472  21.521  25.553  1.00  0.00     0.116 C 
BRANCH   2   3
ATOM      3  N   UNL A   1      35.344  21.553  26.466  1.00  0.00    -0.352 N 
ATOM      4  C   UNL A   1      33.996  21.409  26.367  1.00  0.00     0.248 C 
ATOM      5  O   UNL A   1      33.412  21.301  27.447  1.00  0.00    -0.270 OA
ATOM      6  H   UNL A   1      35.627  21.723  27.393  1.00  0.00     0.163 HD
BRANCH   4   7
ATOM      7  C   UNL A   1      33.240  21.288  25.073  1.00  0.00     0.038 C 
ATOM      8  C   UNL A   1      32.951  20.059  24.578  1.00  0.00     0.068 C 
ATOM      9  C   UNL A   1      32.395  19.896  23.240  1.00  0.00     0.018 C 
ATOM     10  C   UNL A   1      32.913  22.521  24.271  1.00  0.00     0.111 C 
ATOM     11  C   UNL A   1      32.070  20.931  22.457  1.00  0.00     0.038 C 
ATOM     12  C   UNL A   1      32.211  22.346  22.900  1.00  0.00     0.209 C 
BRANCH   8  13
ATOM     13  C   UNL A   1      33.164  18.803  25.362  1.00  0.00     0.339 C 
ATOM     14  O   UNL A   1      32.437  18.444  26.276  1.00  0.00    -0.246 OA
BRANCH  13  15
ATOM     15  O   UNL A   1      34.199  18.126  24.807  1.00  0.00    -0.456 OA
BRANCH  15  16
ATOM     16  C   UNL A   1      34.090  16.711  24.509  1.00  0.00     0.104 C 
ATOM     17  C   UNL A   1      34.249  16.619  22.983  1.00  0.00     0.056 C 
ATOM     18  C   UNL A   1      32.722  16.134  24.885  1.00  0.00     0.056 C 
ATOM     19  C   UNL A   1      35.235  15.945  25.177  1.00  0.00     0.056 C 
ENDBRANCH  15  16
ENDBRANCH  13  15
ENDBRANCH   8  13
BRANCH  12  20
ATOM     20  N   UNL A   1      32.891  23.105  21.849  1.00  0.00    -0.352 N 
ATOM     21  H   UNL A   1      33.844  23.316  22.144  1.00  0.00     0.345 HD
ATOM     22  H   UNL A   1      32.388  23.975  21.679  1.00  0.00     0.345 HD
ATOM     23  H   UNL A   1      32.914  22.553  20.992  1.00  0.00     0.345 HD
ENDBRANCH  12  20
ENDBRANCH   4   7
ENDBRANCH   2   3
ENDBRANCH   1   2
BRANCH   1  24
ATOM     24  C   UNL A   1      38.231  19.872  24.649  1.00  0.00     0.023 C 
BRANCH  24  25
ATOM     25  C   UNL A   1      39.239  20.027  25.788  1.00  0.00     0.116 C 
BRANCH  25  26
ATOM     26  N   UNL A   1      40.241  18.972  25.841  1.00  0.00    -0.352 N 
ATOM     27  C   UNL A   1      41.578  19.079  26.144  1.00  0.00     0.251 C 
ATOM     28  H   UNL A   1      39.920  18.065  25.634  1.00  0.00     0.163 HD
ATOM     29  O   UNL A   1      42.310  18.097  26.085  1.00  0.00    -0.269 OA
BRANCH  27  30
ATOM     30  C   UNL A   1      42.138  20.401  26.496  1.00  0.00     0.039 A 
ATOM     31  C   UNL A   1      42.588  21.232  25.466  1.00  0.00     0.014 A 
ATOM     32  C   UNL A   1      42.179  20.832  27.823  1.00  0.00     0.014 A 
ATOM     33  C   UNL A   1      43.004  22.531  25.763  1.00  0.00     0.010 A 
ATOM     34  C   UNL A   1      42.539  22.144  28.111  1.00  0.00     0.010 A 
ATOM     35  C   UNL A   1      42.943  23.010  27.081  1.00  0.00    -0.014 A 
BRANCH  35  36
ATOM     36  C   UNL A   1      43.283  24.417  27.405  1.00  0.00     0.031 A 
ATOM     37  C   UNL A   1      44.715  24.871  27.381  1.00  0.00     0.074 A 
ATOM     38  C   UNL A   1      42.311  25.266  27.789  1.00  0.00     0.049 A 
ATOM     39  N   UNL A   1      45.221  26.028  27.722  1.00  0.00    -0.248 NA
ATOM     40  C   UNL A   1      45.712  23.884  26.937  1.00  0.00     0.031 C 
ATOM     41  C   UNL A   1      40.888  24.934  27.893  1.00  0.00     0.029 A 
ATOM     42  N   UNL A   1      42.374  26.581  28.175  1.00  0.00    -0.354 N 
ATOM     43  C   UNL A   1      46.593  25.907  27.544  1.00  0.00     0.074 A 
ATOM     44  C   UNL A   1      46.845  24.549  27.112  1.00  0.00     0.031 C 
ATOM     45  C   UNL A   1      40.211  26.022  28.298  1.00  0.00     0.029 A 
ATOM     46  C   UNL A   1      41.154  27.115  28.513  1.00  0.00     0.049 A 
ATOM     47  H   UNL A   1      43.214  27.093  28.207  1.00  0.00     0.167 HD
ATOM     48  C   UNL A   1      47.553  26.847  27.706  1.00  0.00     0.037 A 
ATOM     49  C   UNL A   1      40.835  28.347  28.951  1.00  0.00     0.037 A 
ATOM     50  C   UNL A   1      47.301  28.203  28.117  1.00  0.00     0.049 A 
ATOM     51  C   UNL A   1      41.920  29.372  29.123  1.00  0.00     0.074 A 
ATOM     52  C   UNL A   1      48.206  29.238  28.282  1.00  0.00     0.029 A 
ATOM     53  N   UNL A   1      46.048  28.713  28.419  1.00  0.00    -0.354 N 
ATOM     54  N   UNL A   1      43.208  29.254  28.912  1.00  0.00    -0.248 NA
ATOM     55  C   UNL A   1      41.507  30.703  29.588  1.00  0.00     0.031 C 
ATOM     56  C   UNL A   1      47.501  30.371  28.704  1.00  0.00     0.029 A 
ATOM     57  C   UNL A   1      46.155  30.048  28.772  1.00  0.00     0.049 A 
ATOM     58  H   UNL A   1      45.208  28.203  28.387  1.00  0.00     0.167 HD
ATOM     59  C   UNL A   1      43.754  30.500  29.191  1.00  0.00     0.074 A 
ATOM     60  C   UNL A   1      42.657  31.362  29.576  1.00  0.00     0.031 C 
ATOM     61  C   UNL A   1      45.049  30.894  29.135  1.00  0.00     0.037 A 
BRANCH  48  62
ATOM     62  C   UNL A   1      48.967  26.439  27.420  1.00  0.00     0.057 A 
ATOM     63  C   UNL A   1      49.516  26.557  26.137  1.00  0.00     0.134 A 
ATOM     64  C   UNL A   1      49.795  25.952  28.437  1.00  0.00     0.134 A 
ATOM     65  F   UNL A   1      48.768  27.004  25.116  1.00  0.00    -0.206 F 
ATOM     66  C   UNL A   1      50.834  26.182  25.870  1.00  0.00     0.040 A 
ATOM     67  C   UNL A   1      51.122  25.594  28.188  1.00  0.00     0.040 A 
ATOM     68  F   UNL A   1      49.332  25.818  29.689  1.00  0.00    -0.206 F 
ATOM     69  C   UNL A   1      51.642  25.704  26.899  1.00  0.00     0.006 A 
ENDBRANCH  48  62
BRANCH  49  70
ATOM     70  C   UNL A   1      39.421  28.694  29.238  1.00  0.00     0.057 A 
ATOM     71  C   UNL A   1      38.598  29.234  28.243  1.00  0.00     0.134 A 
ATOM     72  C   UNL A   1      38.867  28.520  30.512  1.00  0.00     0.134 A 
ATOM     73  F   UNL A   1      39.081  29.441  27.008  1.00  0.00    -0.206 F 
ATOM     74  C   UNL A   1      37.280  29.608  28.507  1.00  0.00     0.040 A 
ATOM     75  C   UNL A   1      37.544  28.871  30.784  1.00  0.00     0.040 A 
ATOM     76  F   UNL A   1      39.603  28.002  31.506  1.00  0.00    -0.206 F 
ATOM     77  C   UNL A   1      36.749  29.424  29.782  1.00  0.00     0.006 A 
ENDBRANCH  49  70
BRANCH  61  78
ATOM     78  C   UNL A   1      45.340  32.329  29.456  1.00  0.00     0.057 A 
ATOM     79  C   UNL A   1      45.681  32.740  30.749  1.00  0.00     0.134 A 
ATOM     80  C   UNL A   1      45.309  33.303  28.449  1.00  0.00     0.134 A 
ATOM     81  F   UNL A   1      45.713  31.856  31.757  1.00  0.00    -0.206 F 
ATOM     82  C   UNL A   1      45.966  34.076  31.036  1.00  0.00     0.040 A 
ATOM     83  C   UNL A   1      45.611  34.637  28.719  1.00  0.00     0.040 A 
ATOM     84  F   UNL A   1      44.994  32.970  27.188  1.00  0.00    -0.206 F 
ATOM     85  C   UNL A   1      45.937  35.027  30.018  1.00  0.00     0.006 A 
ENDBRANCH  61  78
ENDBRANCH  35  36
ENDBRANCH  27  30
ENDBRANCH  25  26
ENDBRANCH  24  25
ENDBRANCH   1  24
TORSDOF 15
ENDMDL
