MODEL 1
REMARK VINA RESULT:     -13.2      0.000      0.000
REMARK SMILES O=C(NCCCCNC(=O)c1nc(NC[C@H]2c3ccccc3CSc3ccccc32)c2ccccc2n1)c1ccc(-c2c3nc(c(-c4c(F)cccc4F)c4ccc([nH]4)c(-c4c(F)cccc4F)c4nc(c(-c5c(F)cccc5F)c5ccc2[nH]5)C=C4)C=C3)cc1
REMARK SMILES IDX 6 1 5 2 4 3 3 4 1 5 2 6 38 8 39 9 91 10 40 11 90 12 41 13
REMARK SMILES IDX 42 14 43 15 84 16 44 17 89 18 83 19 85 20 45 21 88 22 82 23
REMARK SMILES IDX 81 24 46 26 72 27 55 28 71 29 56 30 59 31 70 32 86 33 57 34
REMARK SMILES IDX 58 35 69 37 87 38 60 39 47 40 48 41 53 42 49 43 50 44 52 45
REMARK SMILES IDX 54 46 51 47 73 48 74 49 79 50 75 51 76 52 78 53 80 54 77 55
REMARK SMILES IDX 61 56 62 57 67 58 63 59 64 60 66 61 68 62 65 63 7 64 8 65
REMARK SMILES IDX 9 66 10 68 11 69 12 70 37 71 13 72 36 73 31 74 35 75 32 76
REMARK SMILES IDX 34 77 33 78 14 79 15 81 16 82 17 83 30 84 18 85 22 86 25 87
REMARK SMILES IDX 29 88 19 89 21 90 23 91 24 92 26 93 28 94 20 95 27 96
REMARK H PARENT 3 7 85 25 59 36 8 67 14 80
REMARK Flexibility Score: inf
ROOT
ATOM      1  C   UNL A   1      31.446  30.407  25.955  1.00  0.00     0.023 C 
ENDROOT
BRANCH   1   2
ATOM      2  C   UNL A   1      31.360  31.865  26.410  1.00  0.00     0.023 C 
BRANCH   2   3
ATOM      3  C   UNL A   1      32.639  32.448  27.003  1.00  0.00     0.116 C 
BRANCH   3   4
ATOM      4  N   UNL A   1      32.466  33.806  27.492  1.00  0.00    -0.352 N 
ATOM      5  O   UNL A   1      32.732  35.583  28.844  1.00  0.00    -0.269 OA
ATOM      6  C   UNL A   1      33.128  34.473  28.491  1.00  0.00     0.251 C 
ATOM      7  H   UNL A   1      31.766  34.327  27.036  1.00  0.00     0.163 HD
BRANCH   6   8
ATOM      8  C   UNL A   1      34.304  33.872  29.161  1.00  0.00     0.039 A 
ATOM      9  C   UNL A   1      35.579  34.330  28.809  1.00  0.00     0.014 A 
ATOM     10  C   UNL A   1      34.170  32.827  30.078  1.00  0.00     0.014 A 
ATOM     11  C   UNL A   1      36.714  33.767  29.400  1.00  0.00     0.010 A 
ATOM     12  C   UNL A   1      35.298  32.306  30.711  1.00  0.00     0.010 A 
ATOM     13  C   UNL A   1      36.581  32.760  30.366  1.00  0.00    -0.014 A 
BRANCH  13  14
ATOM     14  C   UNL A   1      37.771  32.122  30.983  1.00  0.00     0.031 A 
ATOM     15  C   UNL A   1      38.493  31.025  30.253  1.00  0.00     0.074 A 
ATOM     16  C   UNL A   1      38.169  32.483  32.217  1.00  0.00     0.049 A 
ATOM     17  N   UNL A   1      39.487  30.274  30.656  1.00  0.00    -0.248 NA
ATOM     18  C   UNL A   1      38.017  30.717  28.896  1.00  0.00     0.031 C 
ATOM     19  C   UNL A   1      37.540  33.513  33.043  1.00  0.00     0.029 A 
ATOM     20  N   UNL A   1      39.192  32.004  32.997  1.00  0.00    -0.354 N 
ATOM     21  C   UNL A   1      39.739  29.392  29.613  1.00  0.00     0.074 A 
ATOM     22  C   UNL A   1      38.767  29.673  28.577  1.00  0.00     0.031 C 
ATOM     23  C   UNL A   1      38.193  33.593  34.214  1.00  0.00     0.029 A 
ATOM     24  C   UNL A   1      39.263  32.598  34.233  1.00  0.00     0.049 A 
ATOM     25  H   UNL A   1      39.815  31.303  32.699  1.00  0.00     0.167 HD
ATOM     26  C   UNL A   1      40.704  28.446  29.515  1.00  0.00     0.037 A 
ATOM     27  C   UNL A   1      40.086  32.356  35.270  1.00  0.00     0.037 A 
ATOM     28  C   UNL A   1      41.688  28.183  30.532  1.00  0.00     0.049 A 
ATOM     29  C   UNL A   1      41.134  31.286  35.151  1.00  0.00     0.074 A 
ATOM     30  C   UNL A   1      42.755  27.302  30.494  1.00  0.00     0.029 A 
ATOM     31  N   UNL A   1      41.721  28.799  31.774  1.00  0.00    -0.354 N 
ATOM     32  N   UNL A   1      41.398  30.497  34.139  1.00  0.00    -0.248 NA
ATOM     33  C   UNL A   1      41.995  31.071  36.323  1.00  0.00     0.031 C 
ATOM     34  C   UNL A   1      43.409  27.356  31.732  1.00  0.00     0.029 A 
ATOM     35  C   UNL A   1      42.769  28.294  32.526  1.00  0.00     0.049 A 
ATOM     36  H   UNL A   1      41.090  29.491  32.077  1.00  0.00     0.167 HD
ATOM     37  C   UNL A   1      42.454  29.694  34.549  1.00  0.00     0.074 A 
ATOM     38  C   UNL A   1      42.798  30.108  35.894  1.00  0.00     0.031 C 
ATOM     39  C   UNL A   1      43.082  28.700  33.873  1.00  0.00     0.037 A 
BRANCH  26  40
ATOM     40  C   UNL A   1      40.725  27.624  28.262  1.00  0.00     0.057 A 
ATOM     41  C   UNL A   1      41.450  28.048  27.141  1.00  0.00     0.134 A 
ATOM     42  C   UNL A   1      40.041  26.404  28.165  1.00  0.00     0.134 A 
ATOM     43  F   UNL A   1      42.123  29.209  27.165  1.00  0.00    -0.206 F 
ATOM     44  C   UNL A   1      41.504  27.282  25.976  1.00  0.00     0.040 A 
ATOM     45  C   UNL A   1      40.110  25.617  27.015  1.00  0.00     0.040 A 
ATOM     46  F   UNL A   1      39.341  25.934  29.210  1.00  0.00    -0.206 F 
ATOM     47  C   UNL A   1      40.842  26.058  25.914  1.00  0.00     0.006 A 
ENDBRANCH  26  40
BRANCH  27  48
ATOM     48  C   UNL A   1      39.945  33.144  36.518  1.00  0.00     0.057 A 
ATOM     49  C   UNL A   1      40.697  34.303  36.738  1.00  0.00     0.134 A 
ATOM     50  C   UNL A   1      39.056  32.747  37.523  1.00  0.00     0.134 A 
ATOM     51  F   UNL A   1      41.566  34.731  35.810  1.00  0.00    -0.206 F 
ATOM     52  C   UNL A   1      40.582  35.035  37.919  1.00  0.00     0.040 A 
ATOM     53  C   UNL A   1      38.917  33.480  38.703  1.00  0.00     0.040 A 
ATOM     54  F   UNL A   1      38.294  31.657  37.358  1.00  0.00    -0.206 F 
ATOM     55  C   UNL A   1      39.687  34.624  38.906  1.00  0.00     0.006 A 
ENDBRANCH  27  48
BRANCH  39  56
ATOM     56  C   UNL A   1      44.191  27.989  34.588  1.00  0.00     0.057 A 
ATOM     57  C   UNL A   1      45.500  28.484  34.557  1.00  0.00     0.134 A 
ATOM     58  C   UNL A   1      43.962  26.800  35.291  1.00  0.00     0.134 A 
ATOM     59  F   UNL A   1      45.786  29.615  33.896  1.00  0.00    -0.206 F 
ATOM     60  C   UNL A   1      46.545  27.820  35.203  1.00  0.00     0.040 A 
ATOM     61  C   UNL A   1      44.994  26.138  35.957  1.00  0.00     0.040 A 
ATOM     62  F   UNL A   1      42.726  26.284  35.370  1.00  0.00    -0.206 F 
ATOM     63  C   UNL A   1      46.291  26.646  35.910  1.00  0.00     0.006 A 
ENDBRANCH  39  56
ENDBRANCH  13  14
ENDBRANCH   6   8
ENDBRANCH   3   4
ENDBRANCH   2   3
ENDBRANCH   1   2
BRANCH   1  64
ATOM     64  C   UNL A   1      32.857  29.845  25.800  1.00  0.00     0.116 C 
BRANCH  64  65
ATOM     65  N   UNL A   1      33.274  29.748  24.412  1.00  0.00    -0.349 N 
ATOM     66  C   UNL A   1      33.402  28.610  23.631  1.00  0.00     0.289 C 
ATOM     67  H   UNL A   1      33.495  30.600  23.969  1.00  0.00     0.163 HD
ATOM     68  O   UNL A   1      33.854  28.719  22.491  1.00  0.00    -0.266 OA
BRANCH  66  69
ATOM     69  C   UNL A   1      33.029  27.269  24.198  1.00  0.00     0.220 A 
ATOM     70  N   UNL A   1      34.048  26.527  24.653  1.00  0.00    -0.206 NA
ATOM     71  N   UNL A   1      31.721  27.030  24.395  1.00  0.00    -0.224 NA
ATOM     72  C   UNL A   1      33.735  25.466  25.407  1.00  0.00     0.138 A 
ATOM     73  C   UNL A   1      31.422  25.956  25.122  1.00  0.00     0.077 A 
ATOM     74  C   UNL A   1      32.396  25.102  25.664  1.00  0.00     0.043 A 
ATOM     75  C   UNL A   1      30.084  25.720  25.408  1.00  0.00     0.029 A 
ATOM     76  C   UNL A   1      31.977  24.007  26.464  1.00  0.00     0.014 A 
ATOM     77  C   UNL A   1      29.679  24.661  26.222  1.00  0.00     0.002 A 
ATOM     78  C   UNL A   1      30.628  23.797  26.747  1.00  0.00     0.001 A 
BRANCH  72  79
ATOM     79  N   UNL A   1      34.782  24.790  26.029  1.00  0.00    -0.368 N 
ATOM     80  H   UNL A   1      34.889  24.844  27.007  1.00  0.00     0.162 HD
BRANCH  79  81
ATOM     81  C   UNL A   1      35.730  23.993  25.233  1.00  0.00     0.127 C 
BRANCH  81  82
ATOM     82  C   UNL A   1      35.317  22.474  25.106  1.00  0.00     0.070 C 
ATOM     83  C   UNL A   1      34.223  22.252  24.033  1.00  0.00    -0.035 A 
ATOM     84  C   UNL A   1      36.475  21.444  25.114  1.00  0.00    -0.025 A 
ATOM     85  C   UNL A   1      34.037  23.104  22.929  1.00  0.00     0.005 A 
ATOM     86  C   UNL A   1      33.315  21.182  24.165  1.00  0.00    -0.034 A 
ATOM     87  C   UNL A   1      36.320  20.040  24.988  1.00  0.00     0.011 A 
ATOM     88  C   UNL A   1      37.796  21.907  25.367  1.00  0.00     0.005 A 
ATOM     89  C   UNL A   1      33.003  22.925  22.006  1.00  0.00     0.000 A 
ATOM     90  C   UNL A   1      32.283  20.995  23.221  1.00  0.00     0.005 A 
ATOM     91  C   UNL A   1      33.488  20.165  25.255  1.00  0.00     0.110 C 
ATOM     92  S   UNL A   1      34.833  19.042  24.831  1.00  0.00    -0.121 SA
ATOM     93  C   UNL A   1      37.466  19.208  25.011  1.00  0.00     0.015 A 
ATOM     94  C   UNL A   1      38.909  21.064  25.407  1.00  0.00     0.000 A 
ATOM     95  C   UNL A   1      32.123  21.867  22.151  1.00  0.00     0.000 A 
ATOM     96  C   UNL A   1      38.747  19.709  25.211  1.00  0.00     0.001 A 
ENDBRANCH  81  82
ENDBRANCH  79  81
ENDBRANCH  72  79
ENDBRANCH  66  69
ENDBRANCH  64  65
ENDBRANCH   1  64
TORSDOF 14
ENDMDL
MODEL 2
REMARK VINA RESULT:     -12.9      6.191     12.171
REMARK SMILES O=C(NCCCCNC(=O)c1nc(NC[C@H]2c3ccccc3CSc3ccccc32)c2ccccc2n1)c1ccc(-c2c3nc(c(-c4c(F)cccc4F)c4ccc([nH]4)c(-c4c(F)cccc4F)c4nc(c(-c5c(F)cccc5F)c5ccc2[nH]5)C=C4)C=C3)cc1
REMARK SMILES IDX 6 1 5 2 4 3 3 4 1 5 2 6 38 8 39 9 91 10 40 11 90 12 41 13
REMARK SMILES IDX 42 14 43 15 84 16 44 17 89 18 83 19 85 20 45 21 88 22 82 23
REMARK SMILES IDX 81 24 46 26 72 27 55 28 71 29 56 30 59 31 70 32 86 33 57 34
REMARK SMILES IDX 58 35 69 37 87 38 60 39 47 40 48 41 53 42 49 43 50 44 52 45
REMARK SMILES IDX 54 46 51 47 73 48 74 49 79 50 75 51 76 52 78 53 80 54 77 55
REMARK SMILES IDX 61 56 62 57 67 58 63 59 64 60 66 61 68 62 65 63 7 64 8 65
REMARK SMILES IDX 9 66 10 68 11 69 12 70 37 71 13 72 36 73 31 74 35 75 32 76
REMARK SMILES IDX 34 77 33 78 14 79 15 81 16 82 17 83 30 84 18 85 22 86 25 87
REMARK SMILES IDX 29 88 19 89 21 90 23 91 24 92 26 93 28 94 20 95 27 96
REMARK H PARENT 3 7 85 25 59 36 8 67 14 80
REMARK Flexibility Score: inf
ROOT
ATOM      1  C   UNL A   1      45.883  21.452  25.356  1.00  0.00     0.023 C 
ENDROOT
BRANCH   1   2
ATOM      2  C   UNL A   1      44.915  20.490  24.665  1.00  0.00     0.023 C 
BRANCH   2   3
ATOM      3  C   UNL A   1      44.490  19.276  25.486  1.00  0.00     0.116 C 
BRANCH   3   4
ATOM      4  N   UNL A   1      43.073  18.981  25.364  1.00  0.00    -0.352 N 
ATOM      5  O   UNL A   1      40.864  19.171  25.745  1.00  0.00    -0.269 OA
ATOM      6  C   UNL A   1      41.986  19.669  25.841  1.00  0.00     0.251 C 
ATOM      7  H   UNL A   1      42.860  18.161  24.862  1.00  0.00     0.163 HD
BRANCH   6   8
ATOM      8  C   UNL A   1      42.142  20.995  26.480  1.00  0.00     0.039 A 
ATOM      9  C   UNL A   1      42.154  22.132  25.663  1.00  0.00     0.014 A 
ATOM     10  C   UNL A   1      42.339  21.126  27.857  1.00  0.00     0.014 A 
ATOM     11  C   UNL A   1      42.326  23.399  26.229  1.00  0.00     0.010 A 
ATOM     12  C   UNL A   1      42.452  22.393  28.428  1.00  0.00     0.010 A 
ATOM     13  C   UNL A   1      42.464  23.540  27.618  1.00  0.00    -0.014 A 
BRANCH  13  14
ATOM     14  C   UNL A   1      42.683  24.870  28.239  1.00  0.00     0.031 A 
ATOM     15  C   UNL A   1      44.031  25.216  28.805  1.00  0.00     0.074 A 
ATOM     16  C   UNL A   1      41.664  25.742  28.349  1.00  0.00     0.049 A 
ATOM     17  N   UNL A   1      44.402  26.278  29.475  1.00  0.00    -0.248 NA
ATOM     18  C   UNL A   1      45.098  24.223  28.612  1.00  0.00     0.031 C 
ATOM     19  C   UNL A   1      40.302  25.520  27.866  1.00  0.00     0.029 A 
ATOM     20  N   UNL A   1      41.618  26.988  28.922  1.00  0.00    -0.354 N 
ATOM     21  C   UNL A   1      45.737  26.071  29.800  1.00  0.00     0.074 A 
ATOM     22  C   UNL A   1      46.097  24.764  29.292  1.00  0.00     0.031 C 
ATOM     23  C   UNL A   1      39.553  26.595  28.159  1.00  0.00     0.029 A 
ATOM     24  C   UNL A   1      40.373  27.566  28.878  1.00  0.00     0.049 A 
ATOM     25  H   UNL A   1      42.402  27.427  29.325  1.00  0.00     0.167 HD
ATOM     26  C   UNL A   1      46.591  26.899  30.447  1.00  0.00     0.037 A 
ATOM     27  C   UNL A   1      39.939  28.739  29.378  1.00  0.00     0.037 A 
ATOM     28  C   UNL A   1      46.243  28.210  30.929  1.00  0.00     0.049 A 
ATOM     29  C   UNL A   1      40.897  29.633  30.112  1.00  0.00     0.074 A 
ATOM     30  C   UNL A   1      47.058  29.156  31.524  1.00  0.00     0.029 A 
ATOM     31  N   UNL A   1      44.969  28.755  30.875  1.00  0.00    -0.354 N 
ATOM     32  N   UNL A   1      42.170  29.449  30.365  1.00  0.00    -0.248 NA
ATOM     33  C   UNL A   1      40.354  30.894  30.636  1.00  0.00     0.031 C 
ATOM     34  C   UNL A   1      46.267  30.260  31.867  1.00  0.00     0.029 A 
ATOM     35  C   UNL A   1      44.967  30.013  31.456  1.00  0.00     0.049 A 
ATOM     36  H   UNL A   1      44.182  28.312  30.483  1.00  0.00     0.167 HD
ATOM     37  C   UNL A   1      42.581  30.571  31.074  1.00  0.00     0.074 A 
ATOM     38  C   UNL A   1      41.428  31.439  31.190  1.00  0.00     0.031 C 
ATOM     39  C   UNL A   1      43.805  30.854  31.586  1.00  0.00     0.037 A 
BRANCH  26  40
ATOM     40  C   UNL A   1      47.985  26.395  30.673  1.00  0.00     0.057 A 
ATOM     41  C   UNL A   1      48.984  26.602  29.713  1.00  0.00     0.134 A 
ATOM     42  C   UNL A   1      48.347  25.718  31.846  1.00  0.00     0.134 A 
ATOM     43  F   UNL A   1      48.705  27.239  28.566  1.00  0.00    -0.206 F 
ATOM     44  C   UNL A   1      50.294  26.165  29.918  1.00  0.00     0.040 A 
ATOM     45  C   UNL A   1      49.659  25.300  32.073  1.00  0.00     0.040 A 
ATOM     46  F   UNL A   1      47.439  25.502  32.811  1.00  0.00    -0.206 F 
ATOM     47  C   UNL A   1      50.637  25.522  31.106  1.00  0.00     0.006 A 
ENDBRANCH  26  40
BRANCH  27  48
ATOM     48  C   UNL A   1      38.520  29.130  29.201  1.00  0.00     0.057 A 
ATOM     49  C   UNL A   1      38.041  29.601  27.974  1.00  0.00     0.134 A 
ATOM     50  C   UNL A   1      37.613  29.048  30.263  1.00  0.00     0.134 A 
ATOM     51  F   UNL A   1      38.865  29.702  26.920  1.00  0.00    -0.206 F 
ATOM     52  C   UNL A   1      36.711  29.990  27.809  1.00  0.00     0.040 A 
ATOM     53  C   UNL A   1      36.275  29.416  30.108  1.00  0.00     0.040 A 
ATOM     54  F   UNL A   1      38.010  28.584  31.456  1.00  0.00    -0.206 F 
ATOM     55  C   UNL A   1      35.823  29.895  28.879  1.00  0.00     0.006 A 
ENDBRANCH  27  48
BRANCH  39  56
ATOM     56  C   UNL A   1      43.946  32.149  32.326  1.00  0.00     0.057 A 
ATOM     57  C   UNL A   1      44.145  33.353  31.640  1.00  0.00     0.134 A 
ATOM     58  C   UNL A   1      43.904  32.198  33.726  1.00  0.00     0.134 A 
ATOM     59  F   UNL A   1      44.199  33.372  30.300  1.00  0.00    -0.206 F 
ATOM     60  C   UNL A   1      44.298  34.562  32.320  1.00  0.00     0.040 A 
ATOM     61  C   UNL A   1      44.036  33.405  34.415  1.00  0.00     0.040 A 
ATOM     62  F   UNL A   1      43.701  31.081  34.439  1.00  0.00    -0.206 F 
ATOM     63  C   UNL A   1      44.237  34.590  33.712  1.00  0.00     0.006 A 
ENDBRANCH  39  56
ENDBRANCH  13  14
ENDBRANCH   6   8
ENDBRANCH   3   4
ENDBRANCH   2   3
ENDBRANCH   1   2
BRANCH   1  64
ATOM     64  C   UNL A   1      45.586  22.938  25.169  1.00  0.00     0.116 C 
BRANCH  64  65
ATOM     65  N   UNL A   1      46.704  23.667  24.596  1.00  0.00    -0.349 N 
ATOM     66  C   UNL A   1      46.942  25.032  24.621  1.00  0.00     0.289 C 
ATOM     67  H   UNL A   1      47.379  23.121  24.130  1.00  0.00     0.163 HD
ATOM     68  O   UNL A   1      47.909  25.477  24.001  1.00  0.00    -0.266 OA
BRANCH  66  69
ATOM     69  C   UNL A   1      46.002  25.941  25.361  1.00  0.00     0.220 A 
ATOM     70  N   UNL A   1      46.578  26.818  26.195  1.00  0.00    -0.206 NA
ATOM     71  N   UNL A   1      44.717  25.943  24.967  1.00  0.00    -0.224 NA
ATOM     72  C   UNL A   1      45.809  27.814  26.651  1.00  0.00     0.138 A 
ATOM     73  C   UNL A   1      43.956  26.921  25.452  1.00  0.00     0.077 A 
ATOM     74  C   UNL A   1      44.439  27.908  26.326  1.00  0.00     0.043 A 
ATOM     75  C   UNL A   1      42.642  26.999  25.008  1.00  0.00     0.029 A 
ATOM     76  C   UNL A   1      43.558  28.937  26.751  1.00  0.00     0.014 A 
ATOM     77  C   UNL A   1      41.789  28.030  25.404  1.00  0.00     0.002 A 
ATOM     78  C   UNL A   1      42.246  29.000  26.284  1.00  0.00     0.001 A 
BRANCH  72  79
ATOM     79  N   UNL A   1      46.434  28.827  27.375  1.00  0.00    -0.368 N 
ATOM     80  H   UNL A   1      46.399  28.820  28.359  1.00  0.00     0.162 HD
BRANCH  79  81
ATOM     81  C   UNL A   1      47.147  29.909  26.676  1.00  0.00     0.127 C 
BRANCH  81  82
ATOM     82  C   UNL A   1      47.223  31.248  27.510  1.00  0.00     0.070 C 
ATOM     83  C   UNL A   1      48.682  31.712  27.741  1.00  0.00    -0.035 A 
ATOM     84  C   UNL A   1      46.214  32.358  27.121  1.00  0.00    -0.025 A 
ATOM     85  C   UNL A   1      49.745  31.384  26.880  1.00  0.00     0.005 A 
ATOM     86  C   UNL A   1      49.009  32.459  28.891  1.00  0.00    -0.034 A 
ATOM     87  C   UNL A   1      46.134  33.638  27.728  1.00  0.00     0.011 A 
ATOM     88  C   UNL A   1      45.215  32.062  26.153  1.00  0.00     0.005 A 
ATOM     89  C   UNL A   1      51.067  31.757  27.140  1.00  0.00     0.000 A 
ATOM     90  C   UNL A   1      50.342  32.847  29.141  1.00  0.00     0.005 A 
ATOM     91  C   UNL A   1      47.933  32.938  29.821  1.00  0.00     0.110 C 
ATOM     92  S   UNL A   1      47.076  34.344  29.087  1.00  0.00    -0.121 SA
ATOM     93  C   UNL A   1      45.161  34.564  27.275  1.00  0.00     0.015 A 
ATOM     94  C   UNL A   1      44.251  32.985  25.738  1.00  0.00     0.000 A 
ATOM     95  C   UNL A   1      51.367  32.491  28.273  1.00  0.00     0.000 A 
ATOM     96  C   UNL A   1      44.234  34.248  26.289  1.00  0.00     0.001 A 
ENDBRANCH  81  82
ENDBRANCH  79  81
ENDBRANCH  72  79
ENDBRANCH  66  69
ENDBRANCH  64  65
ENDBRANCH   1  64
TORSDOF 14
ENDMDL
MODEL 3
REMARK VINA RESULT:     -12.8      4.621      6.716
REMARK SMILES O=C(NCCCCNC(=O)c1nc(NC[C@H]2c3ccccc3CSc3ccccc32)c2ccccc2n1)c1ccc(-c2c3nc(c(-c4c(F)cccc4F)c4ccc([nH]4)c(-c4c(F)cccc4F)c4nc(c(-c5c(F)cccc5F)c5ccc2[nH]5)C=C4)C=C3)cc1
REMARK SMILES IDX 6 1 5 2 4 3 3 4 1 5 2 6 38 8 39 9 91 10 40 11 90 12 41 13
REMARK SMILES IDX 42 14 43 15 84 16 44 17 89 18 83 19 85 20 45 21 88 22 82 23
REMARK SMILES IDX 81 24 46 26 72 27 55 28 71 29 56 30 59 31 70 32 86 33 57 34
REMARK SMILES IDX 58 35 69 37 87 38 60 39 47 40 48 41 53 42 49 43 50 44 52 45
REMARK SMILES IDX 54 46 51 47 73 48 74 49 79 50 75 51 76 52 78 53 80 54 77 55
REMARK SMILES IDX 61 56 62 57 67 58 63 59 64 60 66 61 68 62 65 63 7 64 8 65
REMARK SMILES IDX 9 66 10 68 11 69 12 70 37 71 13 72 36 73 31 74 35 75 32 76
REMARK SMILES IDX 34 77 33 78 14 79 15 81 16 82 17 83 30 84 18 85 22 86 25 87
REMARK SMILES IDX 29 88 19 89 21 90 23 91 24 92 26 93 28 94 20 95 27 96
REMARK H PARENT 3 7 85 25 59 36 8 67 14 80
REMARK Flexibility Score: inf
ROOT
ATOM      1  C   UNL A   1      34.561  29.933  27.588  1.00  0.00     0.023 C 
ENDROOT
BRANCH   1   2
ATOM      2  C   UNL A   1      34.931  31.412  27.710  1.00  0.00     0.023 C 
BRANCH   2   3
ATOM      3  C   UNL A   1      35.999  31.742  28.749  1.00  0.00     0.116 C 
BRANCH   3   4
ATOM      4  N   UNL A   1      35.796  31.043  30.007  1.00  0.00    -0.352 N 
ATOM      5  O   UNL A   1      36.175  29.547  31.644  1.00  0.00    -0.269 OA
ATOM      6  C   UNL A   1      36.597  30.130  30.645  1.00  0.00     0.251 C 
ATOM      7  H   UNL A   1      34.956  31.257  30.473  1.00  0.00     0.163 HD
BRANCH   6   8
ATOM      8  C   UNL A   1      37.957  29.825  30.144  1.00  0.00     0.039 A 
ATOM      9  C   UNL A   1      38.146  29.697  28.763  1.00  0.00     0.014 A 
ATOM     10  C   UNL A   1      39.025  29.601  31.016  1.00  0.00     0.014 A 
ATOM     11  C   UNL A   1      39.410  29.383  28.255  1.00  0.00     0.010 A 
ATOM     12  C   UNL A   1      40.298  29.345  30.507  1.00  0.00     0.010 A 
ATOM     13  C   UNL A   1      40.499  29.217  29.123  1.00  0.00    -0.014 A 
BRANCH  13  14
ATOM     14  C   UNL A   1      41.843  28.848  28.612  1.00  0.00     0.031 A 
ATOM     15  C   UNL A   1      42.122  27.430  28.202  1.00  0.00     0.074 A 
ATOM     16  C   UNL A   1      42.826  29.767  28.570  1.00  0.00     0.049 A 
ATOM     17  N   UNL A   1      43.250  26.882  27.825  1.00  0.00    -0.248 NA
ATOM     18  C   UNL A   1      40.985  26.499  28.244  1.00  0.00     0.031 C 
ATOM     19  C   UNL A   1      42.695  31.168  28.964  1.00  0.00     0.029 A 
ATOM     20  N   UNL A   1      44.140  29.645  28.191  1.00  0.00    -0.354 N 
ATOM     21  C   UNL A   1      42.962  25.541  27.608  1.00  0.00     0.074 A 
ATOM     22  C   UNL A   1      41.565  25.350  27.935  1.00  0.00     0.031 C 
ATOM     23  C   UNL A   1      43.879  31.781  28.802  1.00  0.00     0.029 A 
ATOM     24  C   UNL A   1      44.858  30.808  28.326  1.00  0.00     0.049 A 
ATOM     25  H   UNL A   1      44.529  28.807  27.853  1.00  0.00     0.167 HD
ATOM     26  C   UNL A   1      43.780  24.559  27.158  1.00  0.00     0.037 A 
ATOM     27  C   UNL A   1      46.163  31.055  28.108  1.00  0.00     0.037 A 
ATOM     28  C   UNL A   1      45.163  24.752  26.806  1.00  0.00     0.049 A 
ATOM     29  C   UNL A   1      47.059  29.948  27.632  1.00  0.00     0.074 A 
ATOM     30  C   UNL A   1      46.052  23.840  26.265  1.00  0.00     0.029 A 
ATOM     31  N   UNL A   1      45.857  25.941  26.967  1.00  0.00    -0.354 N 
ATOM     32  N   UNL A   1      46.762  28.696  27.377  1.00  0.00    -0.248 NA
ATOM     33  C   UNL A   1      48.474  30.287  27.419  1.00  0.00     0.031 C 
ATOM     34  C   UNL A   1      47.297  24.468  26.137  1.00  0.00     0.029 A 
ATOM     35  C   UNL A   1      47.173  25.780  26.567  1.00  0.00     0.049 A 
ATOM     36  H   UNL A   1      45.471  26.777  27.316  1.00  0.00     0.167 HD
ATOM     37  C   UNL A   1      47.950  28.100  26.972  1.00  0.00     0.074 A 
ATOM     38  C   UNL A   1      48.966  29.132  26.993  1.00  0.00     0.031 C 
ATOM     39  C   UNL A   1      48.178  26.811  26.618  1.00  0.00     0.037 A 
BRANCH  26  40
ATOM     40  C   UNL A   1      43.190  23.187  27.034  1.00  0.00     0.057 A 
ATOM     41  C   UNL A   1      42.958  22.403  28.171  1.00  0.00     0.134 A 
ATOM     42  C   UNL A   1      42.834  22.644  25.791  1.00  0.00     0.134 A 
ATOM     43  F   UNL A   1      43.280  22.860  29.391  1.00  0.00    -0.206 F 
ATOM     44  C   UNL A   1      42.382  21.135  28.077  1.00  0.00     0.040 A 
ATOM     45  C   UNL A   1      42.234  21.388  25.688  1.00  0.00     0.040 A 
ATOM     46  F   UNL A   1      43.015  23.351  24.665  1.00  0.00    -0.206 F 
ATOM     47  C   UNL A   1      42.008  20.628  26.834  1.00  0.00     0.006 A 
ENDBRANCH  26  40
BRANCH  27  48
ATOM     48  C   UNL A   1      46.701  32.417  28.344  1.00  0.00     0.057 A 
ATOM     49  C   UNL A   1      46.650  33.403  27.354  1.00  0.00     0.134 A 
ATOM     50  C   UNL A   1      47.285  32.757  29.569  1.00  0.00     0.134 A 
ATOM     51  F   UNL A   1      46.102  33.135  26.159  1.00  0.00    -0.206 F 
ATOM     52  C   UNL A   1      47.174  34.679  27.566  1.00  0.00     0.040 A 
ATOM     53  C   UNL A   1      47.797  34.035  29.803  1.00  0.00     0.040 A 
ATOM     54  F   UNL A   1      47.342  31.859  30.563  1.00  0.00    -0.206 F 
ATOM     55  C   UNL A   1      47.747  34.998  28.796  1.00  0.00     0.006 A 
ENDBRANCH  27  48
BRANCH  39  56
ATOM     56  C   UNL A   1      49.583  26.451  26.240  1.00  0.00     0.057 A 
ATOM     57  C   UNL A   1      50.444  25.844  27.162  1.00  0.00     0.134 A 
ATOM     58  C   UNL A   1      50.088  26.726  24.962  1.00  0.00     0.134 A 
ATOM     59  F   UNL A   1      50.022  25.559  28.403  1.00  0.00    -0.206 F 
ATOM     60  C   UNL A   1      51.760  25.522  26.827  1.00  0.00     0.040 A 
ATOM     61  C   UNL A   1      51.396  26.390  24.610  1.00  0.00     0.040 A 
ATOM     62  F   UNL A   1      49.308  27.292  24.030  1.00  0.00    -0.206 F 
ATOM     63  C   UNL A   1      52.237  25.790  25.545  1.00  0.00     0.006 A 
ENDBRANCH  39  56
ENDBRANCH  13  14
ENDBRANCH   6   8
ENDBRANCH   3   4
ENDBRANCH   2   3
ENDBRANCH   1   2
BRANCH   1  64
ATOM     64  C   UNL A   1      33.241  29.637  26.880  1.00  0.00     0.116 C 
BRANCH  64  65
ATOM     65  N   UNL A   1      33.311  29.854  25.446  1.00  0.00    -0.349 N 
ATOM     66  C   UNL A   1      33.187  28.921  24.429  1.00  0.00     0.289 C 
ATOM     67  H   UNL A   1      33.466  30.784  25.159  1.00  0.00     0.163 HD
ATOM     68  O   UNL A   1      33.362  29.283  23.265  1.00  0.00    -0.266 OA
BRANCH  66  69
ATOM     69  C   UNL A   1      32.887  27.486  24.764  1.00  0.00     0.220 A 
ATOM     70  N   UNL A   1      33.949  26.723  25.052  1.00  0.00    -0.206 NA
ATOM     71  N   UNL A   1      31.597  27.160  24.953  1.00  0.00    -0.224 NA
ATOM     72  C   UNL A   1      33.704  25.534  25.618  1.00  0.00     0.138 A 
ATOM     73  C   UNL A   1      31.366  25.964  25.489  1.00  0.00     0.077 A 
ATOM     74  C   UNL A   1      32.391  25.072  25.846  1.00  0.00     0.043 A 
ATOM     75  C   UNL A   1      30.049  25.623  25.768  1.00  0.00     0.029 A 
ATOM     76  C   UNL A   1      32.043  23.838  26.454  1.00  0.00     0.014 A 
ATOM     77  C   UNL A   1      29.715  24.422  26.396  1.00  0.00     0.002 A 
ATOM     78  C   UNL A   1      30.715  23.523  26.734  1.00  0.00     0.001 A 
BRANCH  72  79
ATOM     79  N   UNL A   1      34.799  24.807  26.082  1.00  0.00    -0.368 N 
ATOM     80  H   UNL A   1      35.016  24.807  27.043  1.00  0.00     0.162 HD
BRANCH  79  81
ATOM     81  C   UNL A   1      35.632  24.038  25.144  1.00  0.00     0.127 C 
BRANCH  81  82
ATOM     82  C   UNL A   1      35.211  22.520  25.034  1.00  0.00     0.070 C 
ATOM     83  C   UNL A   1      34.129  22.289  23.950  1.00  0.00    -0.035 A 
ATOM     84  C   UNL A   1      36.361  21.482  25.073  1.00  0.00    -0.025 A 
ATOM     85  C   UNL A   1      33.963  23.125  22.831  1.00  0.00     0.005 A 
ATOM     86  C   UNL A   1      33.212  21.227  24.086  1.00  0.00    -0.034 A 
ATOM     87  C   UNL A   1      36.198  20.078  24.966  1.00  0.00     0.011 A 
ATOM     88  C   UNL A   1      37.681  21.939  25.337  1.00  0.00     0.005 A 
ATOM     89  C   UNL A   1      32.940  22.939  21.897  1.00  0.00     0.000 A 
ATOM     90  C   UNL A   1      32.191  21.033  23.132  1.00  0.00     0.005 A 
ATOM     91  C   UNL A   1      33.363  20.226  25.193  1.00  0.00     0.110 C 
ATOM     92  S   UNL A   1      34.706  19.087  24.804  1.00  0.00    -0.121 SA
ATOM     93  C   UNL A   1      37.338  19.238  25.017  1.00  0.00     0.015 A 
ATOM     94  C   UNL A   1      38.788  21.090  25.404  1.00  0.00     0.000 A 
ATOM     95  C   UNL A   1      32.051  21.890  22.047  1.00  0.00     0.000 A 
ATOM     96  C   UNL A   1      38.620  19.733  25.227  1.00  0.00     0.001 A 
ENDBRANCH  81  82
ENDBRANCH  79  81
ENDBRANCH  72  79
ENDBRANCH  66  69
ENDBRANCH  64  65
ENDBRANCH   1  64
TORSDOF 14
ENDMDL
