MODEL 1
REMARK VINA RESULT:     -12.0      0.000      0.000
REMARK SMILES Cc1cc(C)c2c(C(=O)NCCCCNC(=O)c3ccc(-c4c5nc(c(-c6c(F)cccc6F)c6ccc([nH]6)c(-c6c(F)cccc6F)c6nc(c(-c7c(F)cccc7F)c7ccc4[nH]7)C=C6)C=C5)cc3)cc(-c3ccco3)nc2c1
REMARK SMILES IDX 13 1 12 2 11 3 10 4 8 5 9 6 7 8 1 9 2 10 3 11 81 12 4 13
REMARK SMILES IDX 80 14 5 15 6 16 79 17 73 18 72 19 74 20 75 21 78 22 76 23
REMARK SMILES IDX 77 24 14 25 15 26 16 27 17 29 18 30 19 31 71 32 20 33 70 34
REMARK SMILES IDX 21 35 22 36 23 37 64 38 24 39 69 40 63 41 65 42 25 43 68 44
REMARK SMILES IDX 62 45 61 46 26 48 52 49 35 50 51 51 36 52 39 53 50 54 66 55
REMARK SMILES IDX 37 56 38 57 49 59 67 60 40 61 27 62 28 63 33 64 29 65 30 66
REMARK SMILES IDX 32 67 34 68 31 69 53 70 54 71 59 72 55 73 56 74 58 75 60 76
REMARK SMILES IDX 57 77 41 78 42 79 47 80 43 81 44 82 46 83 48 84 45 85
REMARK H PARENT 10 7 15 28 65 47 39 58
REMARK Flexibility Score: inf
ROOT
ATOM      1  C   UNL A   1      37.307  23.625  25.267  1.00  0.00     0.023 C 
ENDROOT
BRANCH   1   2
ATOM      2  C   UNL A   1      35.868  24.110  25.476  1.00  0.00     0.023 C 
BRANCH   2   3
ATOM      3  C   UNL A   1      34.768  23.065  25.293  1.00  0.00     0.116 C 
BRANCH   3   4
ATOM      4  N   UNL A   1      33.682  23.149  26.258  1.00  0.00    -0.352 N 
ATOM      5  C   UNL A   1      32.730  24.130  26.437  1.00  0.00     0.252 C 
ATOM      6  O   UNL A   1      31.886  23.987  27.319  1.00  0.00    -0.269 OA
ATOM      7  H   UNL A   1      33.618  22.388  26.879  1.00  0.00     0.163 HD
BRANCH   5   8
ATOM      8  C   UNL A   1      32.758  25.400  25.663  1.00  0.00     0.051 A 
ATOM      9  C   UNL A   1      32.738  25.710  19.982  1.00  0.00     0.044 C 
ATOM     10  C   UNL A   1      32.553  25.683  21.468  1.00  0.00    -0.049 A 
ATOM     11  C   UNL A   1      31.782  24.694  22.069  1.00  0.00     0.007 A 
ATOM     12  C   UNL A   1      33.072  26.697  22.275  1.00  0.00     0.032 A 
ATOM     13  C   UNL A   1      31.688  24.617  23.467  1.00  0.00    -0.041 A 
ATOM     14  C   UNL A   1      32.997  26.651  23.659  1.00  0.00     0.072 A 
ATOM     15  C   UNL A   1      30.645  23.682  24.029  1.00  0.00     0.045 C 
ATOM     16  C   UNL A   1      32.458  25.509  24.279  1.00  0.00     0.016 A 
ATOM     17  N   UNL A   1      33.457  27.710  24.340  1.00  0.00    -0.244 NA
ATOM     18  C   UNL A   1      33.463  27.668  25.688  1.00  0.00     0.107 A 
ATOM     19  C   UNL A   1      33.213  26.509  26.386  1.00  0.00     0.046 A 
BRANCH  18  20
ATOM     20  C   UNL A   1      33.719  28.933  26.354  1.00  0.00     0.152 A 
ATOM     21  C   UNL A   1      34.774  29.471  27.068  1.00  0.00     0.052 A 
ATOM     22  O   UNL A   1      32.667  29.809  26.371  1.00  0.00    -0.463 OA
ATOM     23  C   UNL A   1      34.343  30.739  27.534  1.00  0.00     0.043 A 
ATOM     24  C   UNL A   1      33.051  30.892  27.091  1.00  0.00     0.196 A 
ENDBRANCH  18  20
ENDBRANCH   5   8
ENDBRANCH   3   4
ENDBRANCH   2   3
ENDBRANCH   1   2
BRANCH   1  25
ATOM     25  C   UNL A   1      38.219  23.642  26.493  1.00  0.00     0.116 C 
BRANCH  25  26
ATOM     26  N   UNL A   1      39.637  23.594  26.171  1.00  0.00    -0.352 N 
ATOM     27  C   UNL A   1      40.650  24.463  26.512  1.00  0.00     0.251 C 
ATOM     28  H   UNL A   1      39.916  22.821  25.627  1.00  0.00     0.163 HD
ATOM     29  O   UNL A   1      41.784  24.298  26.086  1.00  0.00    -0.269 OA
BRANCH  27  30
ATOM     30  C   UNL A   1      40.344  25.639  27.355  1.00  0.00     0.039 A 
ATOM     31  C   UNL A   1      39.492  25.472  28.447  1.00  0.00     0.014 A 
ATOM     32  C   UNL A   1      40.937  26.879  27.101  1.00  0.00     0.014 A 
ATOM     33  C   UNL A   1      39.326  26.519  29.356  1.00  0.00     0.010 A 
ATOM     34  C   UNL A   1      40.825  27.900  28.042  1.00  0.00     0.010 A 
ATOM     35  C   UNL A   1      40.039  27.720  29.190  1.00  0.00    -0.014 A 
BRANCH  35  36
ATOM     36  C   UNL A   1      40.011  28.762  30.246  1.00  0.00     0.031 A 
ATOM     37  C   UNL A   1      39.026  29.892  30.186  1.00  0.00     0.074 A 
ATOM     38  C   UNL A   1      40.918  28.711  31.242  1.00  0.00     0.049 A 
ATOM     39  N   UNL A   1      38.844  30.873  31.034  1.00  0.00    -0.248 NA
ATOM     40  C   UNL A   1      38.146  29.940  29.010  1.00  0.00     0.031 C 
ATOM     41  C   UNL A   1      41.972  27.703  31.379  1.00  0.00     0.029 A 
ATOM     42  N   UNL A   1      41.099  29.528  32.330  1.00  0.00    -0.354 N 
ATOM     43  C   UNL A   1      37.823  31.647  30.501  1.00  0.00     0.074 A 
ATOM     44  C   UNL A   1      37.471  31.060  29.225  1.00  0.00     0.031 C 
ATOM     45  C   UNL A   1      42.668  27.943  32.502  1.00  0.00     0.029 A 
ATOM     46  C   UNL A   1      42.124  29.130  33.153  1.00  0.00     0.049 A 
ATOM     47  H   UNL A   1      40.546  30.325  32.502  1.00  0.00     0.167 HD
ATOM     48  C   UNL A   1      37.212  32.731  31.036  1.00  0.00     0.037 A 
ATOM     49  C   UNL A   1      42.564  29.655  34.311  1.00  0.00     0.037 A 
ATOM     50  C   UNL A   1      37.560  33.320  32.303  1.00  0.00     0.049 A 
ATOM     51  C   UNL A   1      41.876  30.865  34.879  1.00  0.00     0.074 A 
ATOM     52  C   UNL A   1      36.973  34.391  32.952  1.00  0.00     0.029 A 
ATOM     53  N   UNL A   1      38.600  32.884  33.113  1.00  0.00    -0.354 N 
ATOM     54  N   UNL A   1      40.853  31.535  34.406  1.00  0.00    -0.248 NA
ATOM     55  C   UNL A   1      42.400  31.383  36.151  1.00  0.00     0.031 C 
ATOM     56  C   UNL A   1      37.676  34.624  34.141  1.00  0.00     0.029 A 
ATOM     57  C   UNL A   1      38.680  33.676  34.247  1.00  0.00     0.049 A 
ATOM     58  H   UNL A   1      39.193  32.125  32.911  1.00  0.00     0.167 HD
ATOM     59  C   UNL A   1      40.593  32.534  35.334  1.00  0.00     0.074 A 
ATOM     60  C   UNL A   1      41.555  32.371  36.405  1.00  0.00     0.031 C 
ATOM     61  C   UNL A   1      39.643  33.501  35.303  1.00  0.00     0.037 A 
BRANCH  48  62
ATOM     62  C   UNL A   1      36.091  33.336  30.245  1.00  0.00     0.057 A 
ATOM     63  C   UNL A   1      36.347  34.172  29.152  1.00  0.00     0.134 A 
ATOM     64  C   UNL A   1      34.751  33.085  30.569  1.00  0.00     0.134 A 
ATOM     65  F   UNL A   1      37.607  34.455  28.790  1.00  0.00    -0.206 F 
ATOM     66  C   UNL A   1      35.308  34.728  28.403  1.00  0.00     0.040 A 
ATOM     67  C   UNL A   1      33.705  33.617  29.814  1.00  0.00     0.040 A 
ATOM     68  F   UNL A   1      34.440  32.280  31.597  1.00  0.00    -0.206 F 
ATOM     69  C   UNL A   1      33.983  34.444  28.729  1.00  0.00     0.006 A 
ENDBRANCH  48  62
BRANCH  49  70
ATOM     70  C   UNL A   1      43.686  29.020  35.044  1.00  0.00     0.057 A 
ATOM     71  C   UNL A   1      45.018  29.356  34.778  1.00  0.00     0.134 A 
ATOM     72  C   UNL A   1      43.443  28.087  36.058  1.00  0.00     0.134 A 
ATOM     73  F   UNL A   1      45.316  30.238  33.814  1.00  0.00    -0.206 F 
ATOM     74  C   UNL A   1      46.070  28.788  35.499  1.00  0.00     0.040 A 
ATOM     75  C   UNL A   1      44.482  27.528  36.801  1.00  0.00     0.040 A 
ATOM     76  F   UNL A   1      42.185  27.744  36.370  1.00  0.00    -0.206 F 
ATOM     77  C   UNL A   1      45.802  27.878  36.521  1.00  0.00     0.006 A 
ENDBRANCH  49  70
BRANCH  61  78
ATOM     78  C   UNL A   1      39.590  34.431  36.478  1.00  0.00     0.057 A 
ATOM     79  C   UNL A   1      38.888  34.078  37.637  1.00  0.00     0.134 A 
ATOM     80  C   UNL A   1      40.236  35.674  36.464  1.00  0.00     0.134 A 
ATOM     81  F   UNL A   1      38.244  32.903  37.713  1.00  0.00    -0.206 F 
ATOM     82  C   UNL A   1      38.837  34.925  38.744  1.00  0.00     0.040 A 
ATOM     83  C   UNL A   1      40.212  36.520  37.574  1.00  0.00     0.040 A 
ATOM     84  F   UNL A   1      40.940  36.062  35.390  1.00  0.00    -0.206 F 
ATOM     85  C   UNL A   1      39.507  36.147  38.718  1.00  0.00     0.006 A 
ENDBRANCH  61  78
ENDBRANCH  35  36
ENDBRANCH  27  30
ENDBRANCH  25  26
ENDBRANCH   1  25
TORSDOF 12
ENDMDL
MODEL 2
REMARK VINA RESULT:     -12.0      4.220      8.197
REMARK SMILES Cc1cc(C)c2c(C(=O)NCCCCNC(=O)c3ccc(-c4c5nc(c(-c6c(F)cccc6F)c6ccc([nH]6)c(-c6c(F)cccc6F)c6nc(c(-c7c(F)cccc7F)c7ccc4[nH]7)C=C6)C=C5)cc3)cc(-c3ccco3)nc2c1
REMARK SMILES IDX 13 1 12 2 11 3 10 4 8 5 9 6 7 8 1 9 2 10 3 11 81 12 4 13
REMARK SMILES IDX 80 14 5 15 6 16 79 17 73 18 72 19 74 20 75 21 78 22 76 23
REMARK SMILES IDX 77 24 14 25 15 26 16 27 17 29 18 30 19 31 71 32 20 33 70 34
REMARK SMILES IDX 21 35 22 36 23 37 64 38 24 39 69 40 63 41 65 42 25 43 68 44
REMARK SMILES IDX 62 45 61 46 26 48 52 49 35 50 51 51 36 52 39 53 50 54 66 55
REMARK SMILES IDX 37 56 38 57 49 59 67 60 40 61 27 62 28 63 33 64 29 65 30 66
REMARK SMILES IDX 32 67 34 68 31 69 53 70 54 71 59 72 55 73 56 74 58 75 60 76
REMARK SMILES IDX 57 77 41 78 42 79 47 80 43 81 44 82 46 83 48 84 45 85
REMARK H PARENT 10 7 15 28 65 47 39 58
REMARK Flexibility Score: inf
ROOT
ATOM      1  C   UNL A   1      37.503  20.600  24.920  1.00  0.00     0.023 C 
ENDROOT
BRANCH   1   2
ATOM      2  C   UNL A   1      36.877  21.821  24.236  1.00  0.00     0.023 C 
BRANCH   2   3
ATOM      3  C   UNL A   1      36.759  23.086  25.085  1.00  0.00     0.116 C 
BRANCH   3   4
ATOM      4  N   UNL A   1      36.164  22.885  26.398  1.00  0.00    -0.352 N 
ATOM      5  C   UNL A   1      34.852  23.008  26.803  1.00  0.00     0.252 C 
ATOM      6  O   UNL A   1      34.567  22.775  27.976  1.00  0.00    -0.269 OA
ATOM      7  H   UNL A   1      36.796  22.621  27.105  1.00  0.00     0.163 HD
BRANCH   5   8
ATOM      8  C   UNL A   1      33.794  23.514  25.889  1.00  0.00     0.051 A 
ATOM      9  C   UNL A   1      31.848  20.698  21.344  1.00  0.00     0.044 C 
ATOM     10  C   UNL A   1      32.192  21.386  22.629  1.00  0.00    -0.049 A 
ATOM     11  C   UNL A   1      32.504  20.650  23.767  1.00  0.00     0.007 A 
ATOM     12  C   UNL A   1      32.119  22.776  22.742  1.00  0.00     0.032 A 
ATOM     13  C   UNL A   1      32.916  21.298  24.942  1.00  0.00    -0.041 A 
ATOM     14  C   UNL A   1      32.517  23.447  23.888  1.00  0.00     0.072 A 
ATOM     15  C   UNL A   1      32.994  20.456  26.192  1.00  0.00     0.045 C 
ATOM     16  C   UNL A   1      33.096  22.718  24.943  1.00  0.00     0.016 A 
ATOM     17  N   UNL A   1      32.335  24.774  23.924  1.00  0.00    -0.244 NA
ATOM     18  C   UNL A   1      32.777  25.466  24.995  1.00  0.00     0.107 A 
ATOM     19  C   UNL A   1      33.587  24.897  25.950  1.00  0.00     0.046 A 
BRANCH  18  20
ATOM     20  C   UNL A   1      32.314  26.840  25.089  1.00  0.00     0.152 A 
ATOM     21  C   UNL A   1      31.918  27.672  26.118  1.00  0.00     0.052 A 
ATOM     22  O   UNL A   1      32.141  27.482  23.893  1.00  0.00    -0.463 OA
ATOM     23  C   UNL A   1      31.491  28.884  25.517  1.00  0.00     0.043 A 
ATOM     24  C   UNL A   1      31.638  28.712  24.162  1.00  0.00     0.196 A 
ENDBRANCH  18  20
ENDBRANCH   5   8
ENDBRANCH   3   4
ENDBRANCH   2   3
ENDBRANCH   1   2
BRANCH   1  25
ATOM     25  C   UNL A   1      38.779  20.847  25.724  1.00  0.00     0.116 C 
BRANCH  25  26
ATOM     26  N   UNL A   1      39.750  19.767  25.633  1.00  0.00    -0.352 N 
ATOM     27  C   UNL A   1      41.082  19.744  25.983  1.00  0.00     0.251 C 
ATOM     28  H   UNL A   1      39.401  18.922  25.266  1.00  0.00     0.163 HD
ATOM     29  O   UNL A   1      41.768  18.756  25.766  1.00  0.00    -0.269 OA
BRANCH  27  30
ATOM     30  C   UNL A   1      41.697  20.952  26.575  1.00  0.00     0.039 A 
ATOM     31  C   UNL A   1      42.230  21.917  25.719  1.00  0.00     0.014 A 
ATOM     32  C   UNL A   1      41.697  21.154  27.958  1.00  0.00     0.014 A 
ATOM     33  C   UNL A   1      42.657  23.139  26.241  1.00  0.00     0.010 A 
ATOM     34  C   UNL A   1      42.060  22.397  28.471  1.00  0.00     0.010 A 
ATOM     35  C   UNL A   1      42.519  23.409  27.614  1.00  0.00    -0.014 A 
BRANCH  35  36
ATOM     36  C   UNL A   1      42.797  24.767  28.145  1.00  0.00     0.031 A 
ATOM     37  C   UNL A   1      44.190  25.178  28.516  1.00  0.00     0.074 A 
ATOM     38  C   UNL A   1      41.769  25.618  28.338  1.00  0.00     0.049 A 
ATOM     39  N   UNL A   1      44.617  26.329  28.969  1.00  0.00    -0.248 NA
ATOM     40  C   UNL A   1      45.238  24.155  28.384  1.00  0.00     0.031 C 
ATOM     41  C   UNL A   1      40.359  25.317  28.079  1.00  0.00     0.029 A 
ATOM     42  N   UNL A   1      41.753  26.911  28.795  1.00  0.00    -0.354 N 
ATOM     43  C   UNL A   1      45.983  26.175  29.164  1.00  0.00     0.074 A 
ATOM     44  C   UNL A   1      46.301  24.799  28.845  1.00  0.00     0.031 C 
ATOM     45  C   UNL A   1      39.619  26.405  28.353  1.00  0.00     0.029 A 
ATOM     46  C   UNL A   1      40.499  27.470  28.823  1.00  0.00     0.049 A 
ATOM     47  H   UNL A   1      42.565  27.392  29.078  1.00  0.00     0.167 HD
ATOM     48  C   UNL A   1      46.896  27.100  29.546  1.00  0.00     0.037 A 
ATOM     49  C   UNL A   1      40.105  28.709  29.173  1.00  0.00     0.037 A 
ATOM     50  C   UNL A   1      46.583  28.469  29.867  1.00  0.00     0.049 A 
ATOM     51  C   UNL A   1      41.136  29.714  29.604  1.00  0.00     0.074 A 
ATOM     52  C   UNL A   1      47.442  29.494  30.222  1.00  0.00     0.029 A 
ATOM     53  N   UNL A   1      45.301  29.000  29.877  1.00  0.00    -0.354 N 
ATOM     54  N   UNL A   1      42.436  29.578  29.700  1.00  0.00    -0.248 NA
ATOM     55  C   UNL A   1      40.641  31.051  29.964  1.00  0.00     0.031 C 
ATOM     56  C   UNL A   1      46.677  30.639  30.477  1.00  0.00     0.029 A 
ATOM     57  C   UNL A   1      45.345  30.335  30.247  1.00  0.00     0.049 A 
ATOM     58  H   UNL A   1      44.482  28.503  29.654  1.00  0.00     0.167 HD
ATOM     59  C   UNL A   1      42.918  30.816  30.102  1.00  0.00     0.074 A 
ATOM     60  C   UNL A   1      41.770  31.695  30.217  1.00  0.00     0.031 C 
ATOM     61  C   UNL A   1      44.195  31.195  30.356  1.00  0.00     0.037 A 
BRANCH  48  62
ATOM     62  C   UNL A   1      48.324  26.651  29.621  1.00  0.00     0.057 A 
ATOM     63  C   UNL A   1      49.188  26.806  28.532  1.00  0.00     0.134 A 
ATOM     64  C   UNL A   1      48.844  26.063  30.782  1.00  0.00     0.134 A 
ATOM     65  F   UNL A   1      48.753  27.358  27.389  1.00  0.00    -0.206 F 
ATOM     66  C   UNL A   1      50.523  26.402  28.598  1.00  0.00     0.040 A 
ATOM     67  C   UNL A   1      50.182  25.676  30.868  1.00  0.00     0.040 A 
ATOM     68  F   UNL A   1      48.070  25.900  31.866  1.00  0.00    -0.206 F 
ATOM     69  C   UNL A   1      51.025  25.842  29.772  1.00  0.00     0.006 A 
ENDBRANCH  48  62
BRANCH  49  70
ATOM     70  C   UNL A   1      38.675  29.093  29.090  1.00  0.00     0.057 A 
ATOM     71  C   UNL A   1      37.834  29.031  30.207  1.00  0.00     0.134 A 
ATOM     72  C   UNL A   1      38.129  29.569  27.893  1.00  0.00     0.134 A 
ATOM     73  F   UNL A   1      38.297  28.577  31.381  1.00  0.00    -0.206 F 
ATOM     74  C   UNL A   1      36.499  29.434  30.136  1.00  0.00     0.040 A 
ATOM     75  C   UNL A   1      36.803  29.995  27.813  1.00  0.00     0.040 A 
ATOM     76  F   UNL A   1      38.894  29.669  26.797  1.00  0.00    -0.206 F 
ATOM     77  C   UNL A   1      35.984  29.927  28.938  1.00  0.00     0.006 A 
ENDBRANCH  49  70
BRANCH  61  78
ATOM     78  C   UNL A   1      44.409  32.625  30.752  1.00  0.00     0.057 A 
ATOM     79  C   UNL A   1      44.617  33.611  29.781  1.00  0.00     0.134 A 
ATOM     80  C   UNL A   1      44.404  33.027  32.094  1.00  0.00     0.134 A 
ATOM     81  F   UNL A   1      44.636  33.292  28.478  1.00  0.00    -0.206 F 
ATOM     82  C   UNL A   1      44.806  34.949  30.130  1.00  0.00     0.040 A 
ATOM     83  C   UNL A   1      44.569  34.364  32.455  1.00  0.00     0.040 A 
ATOM     84  F   UNL A   1      44.192  32.131  33.071  1.00  0.00    -0.206 F 
ATOM     85  C   UNL A   1      44.774  35.330  31.470  1.00  0.00     0.006 A 
ENDBRANCH  61  78
ENDBRANCH  35  36
ENDBRANCH  27  30
ENDBRANCH  25  26
ENDBRANCH   1  25
TORSDOF 12
ENDMDL
MODEL 3
REMARK VINA RESULT:     -11.9      4.192      8.270
REMARK SMILES Cc1cc(C)c2c(C(=O)NCCCCNC(=O)c3ccc(-c4c5nc(c(-c6c(F)cccc6F)c6ccc([nH]6)c(-c6c(F)cccc6F)c6nc(c(-c7c(F)cccc7F)c7ccc4[nH]7)C=C6)C=C5)cc3)cc(-c3ccco3)nc2c1
REMARK SMILES IDX 13 1 12 2 11 3 10 4 8 5 9 6 7 8 1 9 2 10 3 11 81 12 4 13
REMARK SMILES IDX 80 14 5 15 6 16 79 17 73 18 72 19 74 20 75 21 78 22 76 23
REMARK SMILES IDX 77 24 14 25 15 26 16 27 17 29 18 30 19 31 71 32 20 33 70 34
REMARK SMILES IDX 21 35 22 36 23 37 64 38 24 39 69 40 63 41 65 42 25 43 68 44
REMARK SMILES IDX 62 45 61 46 26 48 52 49 35 50 51 51 36 52 39 53 50 54 66 55
REMARK SMILES IDX 37 56 38 57 49 59 67 60 40 61 27 62 28 63 33 64 29 65 30 66
REMARK SMILES IDX 32 67 34 68 31 69 53 70 54 71 59 72 55 73 56 74 58 75 60 76
REMARK SMILES IDX 57 77 41 78 42 79 47 80 43 81 44 82 46 83 48 84 45 85
REMARK H PARENT 10 7 15 28 65 47 39 58
REMARK Flexibility Score: inf
ROOT
ATOM      1  C   UNL A   1      39.316  21.759  25.786  1.00  0.00     0.023 C 
ENDROOT
BRANCH   1   2
ATOM      2  C   UNL A   1      38.805  23.039  26.457  1.00  0.00     0.023 C 
BRANCH   2   3
ATOM      3  C   UNL A   1      37.608  23.719  25.795  1.00  0.00     0.116 C 
BRANCH   3   4
ATOM      4  N   UNL A   1      37.459  23.442  24.374  1.00  0.00    -0.352 N 
ATOM      5  C   UNL A   1      36.330  23.131  23.646  1.00  0.00     0.252 C 
ATOM      6  O   UNL A   1      36.436  22.945  22.436  1.00  0.00    -0.269 OA
ATOM      7  H   UNL A   1      38.294  23.481  23.853  1.00  0.00     0.163 HD
BRANCH   5   8
ATOM      8  C   UNL A   1      35.012  22.913  24.299  1.00  0.00     0.051 A 
ATOM      9  C   UNL A   1      32.229  17.952  24.364  1.00  0.00     0.044 C 
ATOM     10  C   UNL A   1      33.008  19.219  24.535  1.00  0.00    -0.049 A 
ATOM     11  C   UNL A   1      34.394  19.191  24.653  1.00  0.00     0.007 A 
ATOM     12  C   UNL A   1      32.360  20.448  24.672  1.00  0.00     0.032 A 
ATOM     13  C   UNL A   1      35.126  20.386  24.720  1.00  0.00    -0.041 A 
ATOM     14  C   UNL A   1      33.053  21.646  24.740  1.00  0.00     0.072 A 
ATOM     15  C   UNL A   1      36.583  20.271  25.094  1.00  0.00     0.045 C 
ATOM     16  C   UNL A   1      34.451  21.640  24.580  1.00  0.00     0.016 A 
ATOM     17  N   UNL A   1      32.342  22.763  24.948  1.00  0.00    -0.244 NA
ATOM     18  C   UNL A   1      32.978  23.953  24.948  1.00  0.00     0.107 A 
ATOM     19  C   UNL A   1      34.285  24.085  24.540  1.00  0.00     0.046 A 
BRANCH  18  20
ATOM     20  C   UNL A   1      32.202  25.079  25.440  1.00  0.00     0.152 A 
ATOM     21  C   UNL A   1      32.502  26.299  26.016  1.00  0.00     0.052 A 
ATOM     22  O   UNL A   1      30.845  24.909  25.417  1.00  0.00    -0.463 OA
ATOM     23  C   UNL A   1      31.263  26.903  26.352  1.00  0.00     0.043 A 
ATOM     24  C   UNL A   1      30.287  26.012  25.976  1.00  0.00     0.196 A 
ENDBRANCH  18  20
ENDBRANCH   5   8
ENDBRANCH   3   4
ENDBRANCH   2   3
ENDBRANCH   1   2
BRANCH   1  25
ATOM     25  C   UNL A   1      39.979  20.727  26.697  1.00  0.00     0.116 C 
BRANCH  25  26
ATOM     26  N   UNL A   1      41.092  20.023  26.077  1.00  0.00    -0.352 N 
ATOM     27  C   UNL A   1      42.411  20.398  25.946  1.00  0.00     0.251 C 
ATOM     28  H   UNL A   1      40.868  19.144  25.693  1.00  0.00     0.163 HD
ATOM     29  O   UNL A   1      43.199  19.701  25.324  1.00  0.00    -0.269 OA
BRANCH  27  30
ATOM     30  C   UNL A   1      42.859  21.686  26.518  1.00  0.00     0.039 A 
ATOM     31  C   UNL A   1      43.079  22.759  25.653  1.00  0.00     0.014 A 
ATOM     32  C   UNL A   1      43.007  21.847  27.898  1.00  0.00     0.014 A 
ATOM     33  C   UNL A   1      43.333  24.026  26.180  1.00  0.00     0.010 A 
ATOM     34  C   UNL A   1      43.193  23.123  28.425  1.00  0.00     0.010 A 
ATOM     35  C   UNL A   1      43.333  24.227  27.571  1.00  0.00    -0.014 A 
BRANCH  35  36
ATOM     36  C   UNL A   1      43.416  25.599  28.133  1.00  0.00     0.031 A 
ATOM     37  C   UNL A   1      44.737  26.191  28.522  1.00  0.00     0.074 A 
ATOM     38  C   UNL A   1      42.279  26.294  28.337  1.00  0.00     0.049 A 
ATOM     39  N   UNL A   1      44.998  27.381  29.002  1.00  0.00    -0.248 NA
ATOM     40  C   UNL A   1      45.918  25.328  28.375  1.00  0.00     0.031 C 
ATOM     41  C   UNL A   1      40.925  25.806  28.064  1.00  0.00     0.029 A 
ATOM     42  N   UNL A   1      42.081  27.562  28.822  1.00  0.00    -0.354 N 
ATOM     43  C   UNL A   1      46.371  27.414  29.203  1.00  0.00     0.074 A 
ATOM     44  C   UNL A   1      46.879  26.103  28.857  1.00  0.00     0.031 C 
ATOM     45  C   UNL A   1      40.041  26.773  28.356  1.00  0.00     0.029 A 
ATOM     46  C   UNL A   1      40.762  27.940  28.854  1.00  0.00     0.049 A 
ATOM     47  H   UNL A   1      42.817  28.145  29.121  1.00  0.00     0.167 HD
ATOM     48  C   UNL A   1      47.145  28.449  29.612  1.00  0.00     0.037 A 
ATOM     49  C   UNL A   1      40.198  29.104  29.229  1.00  0.00     0.037 A 
ATOM     50  C   UNL A   1      46.643  29.752  29.960  1.00  0.00     0.049 A 
ATOM     51  C   UNL A   1      41.077  30.233  29.688  1.00  0.00     0.074 A 
ATOM     52  C   UNL A   1      47.349  30.879  30.343  1.00  0.00     0.029 A 
ATOM     53  N   UNL A   1      45.300  30.100  29.973  1.00  0.00    -0.354 N 
ATOM     54  N   UNL A   1      42.383  30.277  29.789  1.00  0.00    -0.248 NA
ATOM     55  C   UNL A   1      40.399  31.479  30.073  1.00  0.00     0.031 C 
ATOM     56  C   UNL A   1      46.432  31.901  30.617  1.00  0.00     0.029 A 
ATOM     57  C   UNL A   1      45.156  31.420  30.372  1.00  0.00     0.049 A 
ATOM     58  H   UNL A   1      44.558  29.499  29.734  1.00  0.00     0.167 HD
ATOM     59  C   UNL A   1      42.686  31.561  30.221  1.00  0.00     0.074 A 
ATOM     60  C   UNL A   1      41.427  32.268  30.347  1.00  0.00     0.031 C 
ATOM     61  C   UNL A   1      43.897  32.108  30.491  1.00  0.00     0.037 A 
BRANCH  48  62
ATOM     62  C   UNL A   1      48.621  28.201  29.686  1.00  0.00     0.057 A 
ATOM     63  C   UNL A   1      49.219  27.748  30.867  1.00  0.00     0.134 A 
ATOM     64  C   UNL A   1      49.454  28.413  28.578  1.00  0.00     0.134 A 
ATOM     65  F   UNL A   1      48.481  27.528  31.965  1.00  0.00    -0.206 F 
ATOM     66  C   UNL A   1      50.592  27.503  30.941  1.00  0.00     0.040 A 
ATOM     67  C   UNL A   1      50.823  28.150  28.633  1.00  0.00     0.040 A 
ATOM     68  F   UNL A   1      48.939  28.833  27.413  1.00  0.00    -0.206 F 
ATOM     69  C   UNL A   1      51.396  27.697  29.818  1.00  0.00     0.006 A 
ENDBRANCH  48  62
BRANCH  49  70
ATOM     70  C   UNL A   1      38.728  29.286  29.145  1.00  0.00     0.057 A 
ATOM     71  C   UNL A   1      37.911  29.174  30.274  1.00  0.00     0.134 A 
ATOM     72  C   UNL A   1      38.115  29.616  27.931  1.00  0.00     0.134 A 
ATOM     73  F   UNL A   1      38.438  28.854  31.464  1.00  0.00    -0.206 F 
ATOM     74  C   UNL A   1      36.533  29.389  30.200  1.00  0.00     0.040 A 
ATOM     75  C   UNL A   1      36.743  29.855  27.846  1.00  0.00     0.040 A 
ATOM     76  F   UNL A   1      38.853  29.757  26.820  1.00  0.00    -0.206 F 
ATOM     77  C   UNL A   1      35.948  29.740  28.984  1.00  0.00     0.006 A 
ENDBRANCH  49  70
BRANCH  61  78
ATOM     78  C   UNL A   1      43.908  33.545  30.920  1.00  0.00     0.057 A 
ATOM     79  C   UNL A   1      43.971  34.572  29.971  1.00  0.00     0.134 A 
ATOM     80  C   UNL A   1      43.851  33.912  32.271  1.00  0.00     0.134 A 
ATOM     81  F   UNL A   1      44.031  34.287  28.661  1.00  0.00    -0.206 F 
ATOM     82  C   UNL A   1      43.970  35.915  30.350  1.00  0.00     0.040 A 
ATOM     83  C   UNL A   1      43.826  35.251  32.661  1.00  0.00     0.040 A 
ATOM     84  F   UNL A   1      43.771  32.974  33.227  1.00  0.00    -0.206 F 
ATOM     85  C   UNL A   1      43.890  36.258  31.699  1.00  0.00     0.006 A 
ENDBRANCH  61  78
ENDBRANCH  35  36
ENDBRANCH  27  30
ENDBRANCH  25  26
ENDBRANCH   1  25
TORSDOF 12
ENDMDL
