MODEL 1
REMARK VINA RESULT:     -10.7      0.000      0.000
REMARK SMILES CC[C@H](NC(=O)c1ccc(C)nc1)C(=O)NCCCCNC(=O)c1ccc(-c2c3nc(c(-c4c(F)cccc4F)c4ccc([nH]4)c(-c4c(F)cccc4F)c4nc(c(-c5c(F)cccc5F)c5ccc2[nH]5)C=C4)C=C3)cc1
REMARK SMILES IDX 18 1 17 2 16 3 14 4 15 5 3 7 2 8 1 9 4 10 5 11 6 13 7 14
REMARK SMILES IDX 8 15 13 16 9 17 12 18 10 19 11 20 19 21 20 22 21 23 22 24
REMARK SMILES IDX 23 26 24 27 25 28 77 29 26 30 76 31 27 32 28 33 29 34 70 35
REMARK SMILES IDX 30 36 75 37 69 38 71 39 31 40 74 41 68 42 67 43 32 45 58 46
REMARK SMILES IDX 41 47 57 48 42 49 45 50 56 51 72 52 43 53 44 54 55 56 73 57
REMARK SMILES IDX 46 58 33 59 34 60 39 61 35 62 36 63 38 64 40 65 37 66 59 67
REMARK SMILES IDX 60 68 65 69 61 70 62 71 64 72 66 73 63 74 47 75 48 76 53 77
REMARK SMILES IDX 49 78 50 79 52 80 54 81 51 82
REMARK H PARENT 16 6 4 12 21 25 71 44 45 55
REMARK Flexibility Score: inf
ROOT
ATOM      1  C   UNL A   1      36.563  19.493  24.805  1.00  0.00     0.023 C 
ENDROOT
BRANCH   1   2
ATOM      2  C   UNL A   1      35.339  20.375  25.031  1.00  0.00     0.116 C 
BRANCH   2   3
ATOM      3  N   UNL A   1      35.339  21.272  26.169  1.00  0.00    -0.354 N 
ATOM      4  C   UNL A   1      35.214  22.623  26.230  1.00  0.00     0.242 C 
ATOM      5  O   UNL A   1      34.744  23.094  27.273  1.00  0.00    -0.273 OA
ATOM      6  H   UNL A   1      35.448  20.829  27.041  1.00  0.00     0.163 HD
BRANCH   4   7
ATOM      7  C   UNL A   1      35.570  23.559  25.063  1.00  0.00     0.171 C 
BRANCH   7   8
ATOM      8  C   UNL A   1      37.102  23.584  24.826  1.00  0.00     0.032 C 
ATOM      9  C   UNL A   1      37.994  23.683  26.058  1.00  0.00     0.006 C 
ENDBRANCH   7   8
BRANCH   7  10
ATOM     10  N   UNL A   1      34.988  24.899  25.062  1.00  0.00    -0.340 N 
ATOM     11  C   UNL A   1      33.694  25.336  24.869  1.00  0.00     0.253 C 
ATOM     12  H   UNL A   1      35.637  25.620  25.230  1.00  0.00     0.164 HD
ATOM     13  O   UNL A   1      33.580  26.494  24.459  1.00  0.00    -0.269 OA
BRANCH  11  14
ATOM     14  C   UNL A   1      32.450  24.601  25.251  1.00  0.00     0.058 A 
ATOM     15  C   UNL A   1      31.988  23.383  24.762  1.00  0.00     0.017 A 
ATOM     16  C   UNL A   1      31.727  25.128  26.322  1.00  0.00     0.125 A 
ATOM     17  C   UNL A   1      30.963  22.693  25.423  1.00  0.00     0.024 A 
ATOM     18  N   UNL A   1      30.707  24.496  26.969  1.00  0.00    -0.261 NA
ATOM     19  C   UNL A   1      30.369  23.263  26.542  1.00  0.00     0.037 A 
ATOM     20  C   UNL A   1      29.312  22.534  27.317  1.00  0.00     0.066 C 
ENDBRANCH  11  14
ENDBRANCH   7  10
ENDBRANCH   4   7
ENDBRANCH   2   3
ENDBRANCH   1   2
BRANCH   1  21
ATOM     21  C   UNL A   1      37.932  20.152  24.682  1.00  0.00     0.023 C 
BRANCH  21  22
ATOM     22  C   UNL A   1      38.798  20.186  25.925  1.00  0.00     0.116 C 
BRANCH  22  23
ATOM     23  N   UNL A   1      39.938  19.297  25.830  1.00  0.00    -0.352 N 
ATOM     24  C   UNL A   1      41.266  19.578  26.006  1.00  0.00     0.251 C 
ATOM     25  H   UNL A   1      39.729  18.361  25.608  1.00  0.00     0.163 HD
ATOM     26  O   UNL A   1      42.109  18.735  25.698  1.00  0.00    -0.269 OA
BRANCH  24  27
ATOM     27  C   UNL A   1      41.697  20.883  26.553  1.00  0.00     0.039 A 
ATOM     28  C   UNL A   1      41.661  21.071  27.937  1.00  0.00     0.014 A 
ATOM     29  C   UNL A   1      42.073  21.939  25.716  1.00  0.00     0.014 A 
ATOM     30  C   UNL A   1      42.001  22.311  28.480  1.00  0.00     0.010 A 
ATOM     31  C   UNL A   1      42.495  23.148  26.263  1.00  0.00     0.010 A 
ATOM     32  C   UNL A   1      42.418  23.360  27.646  1.00  0.00    -0.014 A 
BRANCH  32  33
ATOM     33  C   UNL A   1      42.682  24.712  28.202  1.00  0.00     0.031 A 
ATOM     34  C   UNL A   1      44.086  25.099  28.586  1.00  0.00     0.074 A 
ATOM     35  C   UNL A   1      41.670  25.582  28.376  1.00  0.00     0.049 A 
ATOM     36  N   UNL A   1      44.529  26.224  29.089  1.00  0.00    -0.248 NA
ATOM     37  C   UNL A   1      45.128  24.074  28.409  1.00  0.00     0.031 C 
ATOM     38  C   UNL A   1      40.262  25.314  28.080  1.00  0.00     0.029 A 
ATOM     39  N   UNL A   1      41.674  26.872  28.841  1.00  0.00    -0.354 N 
ATOM     40  C   UNL A   1      45.888  26.031  29.307  1.00  0.00     0.074 A 
ATOM     41  C   UNL A   1      46.187  24.666  28.939  1.00  0.00     0.031 C 
ATOM     42  C   UNL A   1      39.543  26.420  28.336  1.00  0.00     0.029 A 
ATOM     43  C   UNL A   1      40.434  27.461  28.839  1.00  0.00     0.049 A 
ATOM     44  H   UNL A   1      42.489  27.331  29.149  1.00  0.00     0.167 HD
ATOM     45  C   UNL A   1      46.811  26.918  29.748  1.00  0.00     0.037 A 
ATOM     46  C   UNL A   1      40.063  28.706  29.192  1.00  0.00     0.037 A 
ATOM     47  C   UNL A   1      46.519  28.290  30.073  1.00  0.00     0.049 A 
ATOM     48  C   UNL A   1      41.109  29.682  29.658  1.00  0.00     0.074 A 
ATOM     49  C   UNL A   1      47.393  29.288  30.466  1.00  0.00     0.029 A 
ATOM     50  N   UNL A   1      45.253  28.854  30.039  1.00  0.00    -0.354 N 
ATOM     51  N   UNL A   1      42.402  29.508  29.794  1.00  0.00    -0.248 NA
ATOM     52  C   UNL A   1      40.644  31.031  30.007  1.00  0.00     0.031 C 
ATOM     53  C   UNL A   1      46.648  30.448  30.708  1.00  0.00     0.029 A 
ATOM     54  C   UNL A   1      45.318  30.183  30.418  1.00  0.00     0.049 A 
ATOM     55  H   UNL A   1      44.430  28.379  29.781  1.00  0.00     0.167 HD
ATOM     56  C   UNL A   1      42.909  30.735  30.203  1.00  0.00     0.074 A 
ATOM     57  C   UNL A   1      41.785  31.645  30.286  1.00  0.00     0.031 C 
ATOM     58  C   UNL A   1      44.192  31.079  30.477  1.00  0.00     0.037 A 
BRANCH  45  59
ATOM     59  C   UNL A   1      48.222  26.427  29.903  1.00  0.00     0.057 A 
ATOM     60  C   UNL A   1      48.684  25.857  31.098  1.00  0.00     0.134 A 
ATOM     61  C   UNL A   1      49.130  26.515  28.840  1.00  0.00     0.134 A 
ATOM     62  F   UNL A   1      47.870  25.756  32.161  1.00  0.00    -0.206 F 
ATOM     63  C   UNL A   1      50.004  25.426  31.241  1.00  0.00     0.040 A 
ATOM     64  C   UNL A   1      50.443  26.060  28.961  1.00  0.00     0.040 A 
ATOM     65  F   UNL A   1      48.755  27.045  27.666  1.00  0.00    -0.206 F 
ATOM     66  C   UNL A   1      50.886  25.522  30.168  1.00  0.00     0.006 A 
ENDBRANCH  45  59
BRANCH  46  67
ATOM     67  C   UNL A   1      38.644  29.124  29.062  1.00  0.00     0.057 A 
ATOM     68  C   UNL A   1      37.771  29.049  30.155  1.00  0.00     0.134 A 
ATOM     69  C   UNL A   1      38.125  29.597  27.852  1.00  0.00     0.134 A 
ATOM     70  F   UNL A   1      38.206  28.587  31.336  1.00  0.00    -0.206 F 
ATOM     71  C   UNL A   1      36.428  29.411  30.044  1.00  0.00     0.040 A 
ATOM     72  C   UNL A   1      36.789  29.985  27.733  1.00  0.00     0.040 A 
ATOM     73  F   UNL A   1      38.912  29.699  26.772  1.00  0.00    -0.206 F 
ATOM     74  C   UNL A   1      35.935  29.885  28.830  1.00  0.00     0.006 A 
ENDBRANCH  46  67
BRANCH  58  75
ATOM     75  C   UNL A   1      44.455  32.513  30.837  1.00  0.00     0.057 A 
ATOM     76  C   UNL A   1      44.711  33.490  29.867  1.00  0.00     0.134 A 
ATOM     77  C   UNL A   1      44.424  32.923  32.176  1.00  0.00     0.134 A 
ATOM     78  F   UNL A   1      44.766  33.160  28.568  1.00  0.00    -0.206 F 
ATOM     79  C   UNL A   1      44.957  34.818  30.219  1.00  0.00     0.040 A 
ATOM     80  C   UNL A   1      44.639  34.253  32.538  1.00  0.00     0.040 A 
ATOM     81  F   UNL A   1      44.173  32.039  33.154  1.00  0.00    -0.206 F 
ATOM     82  C   UNL A   1      44.916  35.203  31.557  1.00  0.00     0.006 A 
ENDBRANCH  58  75
ENDBRANCH  32  33
ENDBRANCH  24  27
ENDBRANCH  22  23
ENDBRANCH  21  22
ENDBRANCH   1  21
TORSDOF 14
ENDMDL
MODEL 2
REMARK VINA RESULT:     -10.5      4.517      9.313
REMARK SMILES CC[C@H](NC(=O)c1ccc(C)nc1)C(=O)NCCCCNC(=O)c1ccc(-c2c3nc(c(-c4c(F)cccc4F)c4ccc([nH]4)c(-c4c(F)cccc4F)c4nc(c(-c5c(F)cccc5F)c5ccc2[nH]5)C=C4)C=C3)cc1
REMARK SMILES IDX 18 1 17 2 16 3 14 4 15 5 3 7 2 8 1 9 4 10 5 11 6 13 7 14
REMARK SMILES IDX 8 15 13 16 9 17 12 18 10 19 11 20 19 21 20 22 21 23 22 24
REMARK SMILES IDX 23 26 24 27 25 28 77 29 26 30 76 31 27 32 28 33 29 34 70 35
REMARK SMILES IDX 30 36 75 37 69 38 71 39 31 40 74 41 68 42 67 43 32 45 58 46
REMARK SMILES IDX 41 47 57 48 42 49 45 50 56 51 72 52 43 53 44 54 55 56 73 57
REMARK SMILES IDX 46 58 33 59 34 60 39 61 35 62 36 63 38 64 40 65 37 66 59 67
REMARK SMILES IDX 60 68 65 69 61 70 62 71 64 72 66 73 63 74 47 75 48 76 53 77
REMARK SMILES IDX 49 78 50 79 52 80 54 81 51 82
REMARK H PARENT 16 6 4 12 21 25 71 44 45 55
REMARK Flexibility Score: inf
ROOT
ATOM      1  C   UNL A   1      31.450  30.661  25.749  1.00  0.00     0.023 C 
ENDROOT
BRANCH   1   2
ATOM      2  C   UNL A   1      32.653  29.772  26.049  1.00  0.00     0.116 C 
BRANCH   2   3
ATOM      3  N   UNL A   1      33.538  29.421  24.957  1.00  0.00    -0.354 N 
ATOM      4  C   UNL A   1      33.613  28.291  24.206  1.00  0.00     0.242 C 
ATOM      5  O   UNL A   1      34.064  28.412  23.060  1.00  0.00    -0.273 OA
ATOM      6  H   UNL A   1      34.194  30.116  24.720  1.00  0.00     0.163 HD
BRANCH   4   7
ATOM      7  C   UNL A   1      33.116  26.919  24.691  1.00  0.00     0.171 C 
BRANCH   7   8
ATOM      8  C   UNL A   1      34.128  26.287  25.681  1.00  0.00     0.032 C 
ATOM      9  C   UNL A   1      34.045  24.780  25.891  1.00  0.00     0.006 C 
ENDBRANCH   7   8
BRANCH   7  10
ATOM     10  N   UNL A   1      32.657  25.966  23.685  1.00  0.00    -0.340 N 
ATOM     11  C   UNL A   1      31.399  25.688  23.190  1.00  0.00     0.253 C 
ATOM     12  H   UNL A   1      33.376  25.423  23.287  1.00  0.00     0.164 HD
ATOM     13  O   UNL A   1      31.250  24.556  22.724  1.00  0.00    -0.269 OA
BRANCH  11  14
ATOM     14  C   UNL A   1      30.280  26.666  23.034  1.00  0.00     0.058 A 
ATOM     15  C   UNL A   1      29.043  26.663  23.669  1.00  0.00     0.017 A 
ATOM     16  C   UNL A   1      30.551  27.795  22.259  1.00  0.00     0.125 A 
ATOM     17  C   UNL A   1      28.221  27.798  23.633  1.00  0.00     0.024 A 
ATOM     18  N   UNL A   1      29.761  28.903  22.179  1.00  0.00    -0.261 NA
ATOM     19  C   UNL A   1      28.627  28.911  22.908  1.00  0.00     0.037 A 
ATOM     20  C   UNL A   1      27.809  30.168  22.891  1.00  0.00     0.066 C 
ENDBRANCH  11  14
ENDBRANCH   7  10
ENDBRANCH   4   7
ENDBRANCH   2   3
ENDBRANCH   1   2
BRANCH   1  21
ATOM     21  C   UNL A   1      31.319  31.992  26.479  1.00  0.00     0.023 C 
BRANCH  21  22
ATOM     22  C   UNL A   1      32.536  32.492  27.230  1.00  0.00     0.116 C 
BRANCH  22  23
ATOM     23  N   UNL A   1      32.412  33.882  27.621  1.00  0.00    -0.352 N 
ATOM     24  C   UNL A   1      33.115  34.575  28.570  1.00  0.00     0.251 C 
ATOM     25  H   UNL A   1      31.728  34.400  27.137  1.00  0.00     0.163 HD
ATOM     26  O   UNL A   1      32.741  35.703  28.896  1.00  0.00    -0.269 OA
BRANCH  24  27
ATOM     27  C   UNL A   1      34.310  33.983  29.210  1.00  0.00     0.039 A 
ATOM     28  C   UNL A   1      35.572  34.360  28.744  1.00  0.00     0.014 A 
ATOM     29  C   UNL A   1      34.197  33.017  30.216  1.00  0.00     0.014 A 
ATOM     30  C   UNL A   1      36.716  33.772  29.285  1.00  0.00     0.010 A 
ATOM     31  C   UNL A   1      35.341  32.495  30.813  1.00  0.00     0.010 A 
ATOM     32  C   UNL A   1      36.610  32.832  30.322  1.00  0.00    -0.014 A 
BRANCH  32  33
ATOM     33  C   UNL A   1      37.811  32.125  30.832  1.00  0.00     0.031 A 
ATOM     34  C   UNL A   1      38.387  32.503  32.172  1.00  0.00     0.074 A 
ATOM     35  C   UNL A   1      38.394  31.161  30.095  1.00  0.00     0.049 A 
ATOM     36  N   UNL A   1      39.428  32.014  32.796  1.00  0.00    -0.248 NA
ATOM     37  C   UNL A   1      37.719  33.600  32.893  1.00  0.00     0.031 C 
ATOM     38  C   UNL A   1      37.957  30.730  28.766  1.00  0.00     0.029 A 
ATOM     39  N   UNL A   1      39.478  30.367  30.364  1.00  0.00    -0.354 N 
ATOM     40  C   UNL A   1      39.551  32.755  33.966  1.00  0.00     0.074 A 
ATOM     41  C   UNL A   1      38.517  33.765  33.938  1.00  0.00     0.031 C 
ATOM     42  C   UNL A   1      38.744  29.723  28.353  1.00  0.00     0.029 A 
ATOM     43  C   UNL A   1      39.755  29.458  29.373  1.00  0.00     0.049 A 
ATOM     44  H   UNL A   1      40.009  30.441  31.190  1.00  0.00     0.167 HD
ATOM     45  C   UNL A   1      40.427  32.594  34.985  1.00  0.00     0.037 A 
ATOM     46  C   UNL A   1      40.708  28.511  29.303  1.00  0.00     0.037 A 
ATOM     47  C   UNL A   1      41.428  31.561  35.031  1.00  0.00     0.049 A 
ATOM     48  C   UNL A   1      41.657  28.335  30.456  1.00  0.00     0.074 A 
ATOM     49  C   UNL A   1      42.322  31.270  36.046  1.00  0.00     0.029 A 
ATOM     50  N   UNL A   1      41.662  30.647  34.014  1.00  0.00    -0.354 N 
ATOM     51  N   UNL A   1      41.718  28.998  31.586  1.00  0.00    -0.248 NA
ATOM     52  C   UNL A   1      42.661  27.270  30.329  1.00  0.00     0.031 C 
ATOM     53  C   UNL A   1      43.126  30.203  35.626  1.00  0.00     0.029 A 
ATOM     54  C   UNL A   1      42.697  29.800  34.371  1.00  0.00     0.049 A 
ATOM     55  H   UNL A   1      41.165  30.607  33.166  1.00  0.00     0.167 HD
ATOM     56  C   UNL A   1      42.737  28.403  32.321  1.00  0.00     0.074 A 
ATOM     57  C   UNL A   1      43.261  27.324  31.510  1.00  0.00     0.031 C 
ATOM     58  C   UNL A   1      43.193  28.719  33.558  1.00  0.00     0.037 A 
BRANCH  45  59
ATOM     59  C   UNL A   1      40.338  33.560  36.132  1.00  0.00     0.057 A 
ATOM     60  C   UNL A   1      39.462  33.359  37.208  1.00  0.00     0.134 A 
ATOM     61  C   UNL A   1      41.148  34.703  36.167  1.00  0.00     0.134 A 
ATOM     62  F   UNL A   1      38.648  32.292  37.230  1.00  0.00    -0.206 F 
ATOM     63  C   UNL A   1      39.369  34.275  38.257  1.00  0.00     0.040 A 
ATOM     64  C   UNL A   1      41.085  35.610  37.224  1.00  0.00     0.040 A 
ATOM     65  F   UNL A   1      42.013  34.956  35.172  1.00  0.00    -0.206 F 
ATOM     66  C   UNL A   1      40.187  35.403  38.270  1.00  0.00     0.006 A 
ENDBRANCH  45  59
BRANCH  46  67
ATOM     67  C   UNL A   1      40.779  27.613  28.122  1.00  0.00     0.057 A 
ATOM     68  C   UNL A   1      41.514  27.977  26.986  1.00  0.00     0.134 A 
ATOM     69  C   UNL A   1      40.115  26.382  28.094  1.00  0.00     0.134 A 
ATOM     70  F   UNL A   1      42.157  29.152  26.947  1.00  0.00    -0.206 F 
ATOM     71  C   UNL A   1      41.569  27.158  25.858  1.00  0.00     0.040 A 
ATOM     72  C   UNL A   1      40.181  25.542  26.981  1.00  0.00     0.040 A 
ATOM     73  F   UNL A   1      39.401  25.974  29.153  1.00  0.00    -0.206 F 
ATOM     74  C   UNL A   1      40.904  25.934  25.855  1.00  0.00     0.006 A 
ENDBRANCH  46  67
BRANCH  58  75
ATOM     75  C   UNL A   1      44.274  27.849  34.133  1.00  0.00     0.057 A 
ATOM     76  C   UNL A   1      45.631  28.174  34.018  1.00  0.00     0.134 A 
ATOM     77  C   UNL A   1      43.944  26.683  34.836  1.00  0.00     0.134 A 
ATOM     78  F   UNL A   1      46.014  29.271  33.348  1.00  0.00    -0.206 F 
ATOM     79  C   UNL A   1      46.625  27.354  34.556  1.00  0.00     0.040 A 
ATOM     80  C   UNL A   1      44.927  25.870  35.402  1.00  0.00     0.040 A 
ATOM     81  F   UNL A   1      42.662  26.320  34.992  1.00  0.00    -0.206 F 
ATOM     82  C   UNL A   1      46.272  26.201  35.255  1.00  0.00     0.006 A 
ENDBRANCH  58  75
ENDBRANCH  32  33
ENDBRANCH  24  27
ENDBRANCH  22  23
ENDBRANCH  21  22
ENDBRANCH   1  21
TORSDOF 14
ENDMDL
MODEL 3
REMARK VINA RESULT:     -10.5      1.521      2.665
REMARK SMILES CC[C@H](NC(=O)c1ccc(C)nc1)C(=O)NCCCCNC(=O)c1ccc(-c2c3nc(c(-c4c(F)cccc4F)c4ccc([nH]4)c(-c4c(F)cccc4F)c4nc(c(-c5c(F)cccc5F)c5ccc2[nH]5)C=C4)C=C3)cc1
REMARK SMILES IDX 18 1 17 2 16 3 14 4 15 5 3 7 2 8 1 9 4 10 5 11 6 13 7 14
REMARK SMILES IDX 8 15 13 16 9 17 12 18 10 19 11 20 19 21 20 22 21 23 22 24
REMARK SMILES IDX 23 26 24 27 25 28 77 29 26 30 76 31 27 32 28 33 29 34 70 35
REMARK SMILES IDX 30 36 75 37 69 38 71 39 31 40 74 41 68 42 67 43 32 45 58 46
REMARK SMILES IDX 41 47 57 48 42 49 45 50 56 51 72 52 43 53 44 54 55 56 73 57
REMARK SMILES IDX 46 58 33 59 34 60 39 61 35 62 36 63 38 64 40 65 37 66 59 67
REMARK SMILES IDX 60 68 65 69 61 70 62 71 64 72 66 73 63 74 47 75 48 76 53 77
REMARK SMILES IDX 49 78 50 79 52 80 54 81 51 82
REMARK H PARENT 16 6 4 12 21 25 71 44 45 55
REMARK Flexibility Score: inf
ROOT
ATOM      1  C   UNL A   1      36.546  20.256  25.007  1.00  0.00     0.023 C 
ENDROOT
BRANCH   1   2
ATOM      2  C   UNL A   1      36.473  21.768  25.200  1.00  0.00     0.116 C 
BRANCH   2   3
ATOM      3  N   UNL A   1      35.774  22.280  26.361  1.00  0.00    -0.354 N 
ATOM      4  C   UNL A   1      34.616  22.984  26.458  1.00  0.00     0.242 C 
ATOM      5  O   UNL A   1      33.978  22.866  27.511  1.00  0.00    -0.273 OA
ATOM      6  H   UNL A   1      36.211  22.086  27.222  1.00  0.00     0.163 HD
BRANCH   4   7
ATOM      7  C   UNL A   1      34.055  23.850  25.318  1.00  0.00     0.171 C 
BRANCH   7   8
ATOM      8  C   UNL A   1      34.684  25.267  25.344  1.00  0.00     0.032 C 
ATOM      9  C   UNL A   1      33.768  26.427  25.717  1.00  0.00     0.006 C 
ENDBRANCH   7   8
BRANCH   7  10
ATOM     10  N   UNL A   1      32.606  23.891  25.143  1.00  0.00    -0.340 N 
ATOM     11  C   UNL A   1      31.747  23.092  24.416  1.00  0.00     0.253 C 
ATOM     12  H   UNL A   1      32.162  24.620  25.633  1.00  0.00     0.164 HD
ATOM     13  O   UNL A   1      30.687  23.624  24.076  1.00  0.00    -0.269 OA
BRANCH  11  14
ATOM     14  C   UNL A   1      31.919  21.632  24.147  1.00  0.00     0.058 A 
ATOM     15  C   UNL A   1      32.094  21.000  22.920  1.00  0.00     0.017 A 
ATOM     16  C   UNL A   1      32.054  20.811  25.267  1.00  0.00     0.125 A 
ATOM     17  C   UNL A   1      32.526  19.668  22.860  1.00  0.00     0.024 A 
ATOM     18  N   UNL A   1      32.445  19.505  25.243  1.00  0.00    -0.261 NA
ATOM     19  C   UNL A   1      32.724  18.962  24.040  1.00  0.00     0.037 A 
ATOM     20  C   UNL A   1      33.243  17.555  24.026  1.00  0.00     0.066 C 
ENDBRANCH  11  14
ENDBRANCH   7  10
ENDBRANCH   4   7
ENDBRANCH   2   3
ENDBRANCH   1   2
BRANCH   1  21
ATOM     21  C   UNL A   1      37.912  19.600  24.854  1.00  0.00     0.023 C 
BRANCH  21  22
ATOM     22  C   UNL A   1      38.998  20.027  25.821  1.00  0.00     0.116 C 
BRANCH  22  23
ATOM     23  N   UNL A   1      40.082  19.067  25.895  1.00  0.00    -0.352 N 
ATOM     24  C   UNL A   1      41.416  19.290  26.102  1.00  0.00     0.251 C 
ATOM     25  H   UNL A   1      39.821  18.124  25.782  1.00  0.00     0.163 HD
ATOM     26  O   UNL A   1      42.215  18.366  25.946  1.00  0.00    -0.269 OA
BRANCH  24  27
ATOM     27  C   UNL A   1      41.907  20.627  26.504  1.00  0.00     0.039 A 
ATOM     28  C   UNL A   1      41.982  20.928  27.866  1.00  0.00     0.014 A 
ATOM     29  C   UNL A   1      42.231  21.602  25.554  1.00  0.00     0.014 A 
ATOM     30  C   UNL A   1      42.380  22.202  28.275  1.00  0.00     0.010 A 
ATOM     31  C   UNL A   1      42.711  22.843  25.964  1.00  0.00     0.010 A 
ATOM     32  C   UNL A   1      42.746  23.170  27.327  1.00  0.00    -0.014 A 
BRANCH  32  33
ATOM     33  C   UNL A   1      43.071  24.558  27.745  1.00  0.00     0.031 A 
ATOM     34  C   UNL A   1      44.506  25.016  27.755  1.00  0.00     0.074 A 
ATOM     35  C   UNL A   1      42.091  25.397  28.128  1.00  0.00     0.049 A 
ATOM     36  N   UNL A   1      45.003  26.180  28.087  1.00  0.00    -0.248 NA
ATOM     37  C   UNL A   1      45.522  24.022  27.368  1.00  0.00     0.031 C 
ATOM     38  C   UNL A   1      40.668  25.061  28.200  1.00  0.00     0.029 A 
ATOM     39  N   UNL A   1      42.146  26.708  28.525  1.00  0.00    -0.354 N 
ATOM     40  C   UNL A   1      46.382  26.050  27.971  1.00  0.00     0.074 A 
ATOM     41  C   UNL A   1      46.648  24.681  27.596  1.00  0.00     0.031 C 
ATOM     42  C   UNL A   1      39.982  26.151  28.580  1.00  0.00     0.029 A 
ATOM     43  C   UNL A   1      40.916  27.250  28.806  1.00  0.00     0.049 A 
ATOM     44  H   UNL A   1      42.988  27.212  28.604  1.00  0.00     0.167 HD
ATOM     45  C   UNL A   1      47.340  26.993  28.134  1.00  0.00     0.037 A 
ATOM     46  C   UNL A   1      40.582  28.497  29.188  1.00  0.00     0.037 A 
ATOM     47  C   UNL A   1      47.070  28.367  28.466  1.00  0.00     0.049 A 
ATOM     48  C   UNL A   1      41.662  29.533  29.342  1.00  0.00     0.074 A 
ATOM     49  C   UNL A   1      47.964  29.416  28.591  1.00  0.00     0.029 A 
ATOM     50  N   UNL A   1      45.808  28.881  28.722  1.00  0.00    -0.354 N 
ATOM     51  N   UNL A   1      42.955  29.414  29.162  1.00  0.00    -0.248 NA
ATOM     52  C   UNL A   1      41.231  30.880  29.740  1.00  0.00     0.031 C 
ATOM     53  C   UNL A   1      47.245  30.558  28.962  1.00  0.00     0.029 A 
ATOM     54  C   UNL A   1      45.900  30.229  29.020  1.00  0.00     0.049 A 
ATOM     55  H   UNL A   1      44.972  28.363  28.695  1.00  0.00     0.167 HD
ATOM     56  C   UNL A   1      43.487  30.679  29.383  1.00  0.00     0.074 A 
ATOM     57  C   UNL A   1      42.375  31.549  29.704  1.00  0.00     0.031 C 
ATOM     58  C   UNL A   1      44.779  31.085  29.319  1.00  0.00     0.037 A 
BRANCH  45  59
ATOM     59  C   UNL A   1      48.769  26.563  27.957  1.00  0.00     0.057 A 
ATOM     60  C   UNL A   1      49.398  26.572  26.704  1.00  0.00     0.134 A 
ATOM     61  C   UNL A   1      49.530  26.145  29.056  1.00  0.00     0.134 A 
ATOM     62  F   UNL A   1      48.722  26.948  25.607  1.00  0.00    -0.206 F 
ATOM     63  C   UNL A   1      50.718  26.148  26.545  1.00  0.00     0.040 A 
ATOM     64  C   UNL A   1      50.860  25.747  28.914  1.00  0.00     0.040 A 
ATOM     65  F   UNL A   1      48.994  26.115  30.285  1.00  0.00    -0.206 F 
ATOM     66  C   UNL A   1      51.455  25.739  27.654  1.00  0.00     0.006 A 
ENDBRANCH  45  59
BRANCH  46  67
ATOM     67  C   UNL A   1      39.156  28.853  29.396  1.00  0.00     0.057 A 
ATOM     68  C   UNL A   1      38.382  29.361  28.345  1.00  0.00     0.134 A 
ATOM     69  C   UNL A   1      38.536  28.704  30.642  1.00  0.00     0.134 A 
ATOM     70  F   UNL A   1      38.926  29.543  27.133  1.00  0.00    -0.206 F 
ATOM     71  C   UNL A   1      37.048  29.727  28.530  1.00  0.00     0.040 A 
ATOM     72  C   UNL A   1      37.196  29.044  30.835  1.00  0.00     0.040 A 
ATOM     73  F   UNL A   1      39.222  28.216  31.685  1.00  0.00    -0.206 F 
ATOM     74  C   UNL A   1      36.450  29.564  29.778  1.00  0.00     0.006 A 
ENDBRANCH  46  67
BRANCH  58  75
ATOM     75  C   UNL A   1      45.052  32.544  29.544  1.00  0.00     0.057 A 
ATOM     76  C   UNL A   1      45.362  33.057  30.809  1.00  0.00     0.134 A 
ATOM     77  C   UNL A   1      45.030  33.442  28.469  1.00  0.00     0.134 A 
ATOM     78  F   UNL A   1      45.389  32.251  31.883  1.00  0.00    -0.206 F 
ATOM     79  C   UNL A   1      45.611  34.417  31.003  1.00  0.00     0.040 A 
ATOM     80  C   UNL A   1      45.305  34.799  28.645  1.00  0.00     0.040 A 
ATOM     81  F   UNL A   1      44.751  33.014  27.229  1.00  0.00    -0.206 F 
ATOM     82  C   UNL A   1      45.587  35.290  29.918  1.00  0.00     0.006 A 
ENDBRANCH  58  75
ENDBRANCH  32  33
ENDBRANCH  24  27
ENDBRANCH  22  23
ENDBRANCH  21  22
ENDBRANCH   1  21
TORSDOF 14
ENDMDL
