MODEL 1
REMARK VINA RESULT:     -11.4      0.000      0.000
REMARK SMILES O=C(Cc1ccccc1Nc1c(Cl)cccc1Cl)NCCCCNC(=O)c1ccc(-c2c3nc(c(-c4c(F)cccc4F)c4ccc([nH]4)c(-c4c(F)cccc4F)c4nc(c(-c5c(F)cccc5F)c5ccc2[nH]5)C=C4)C=C3)cc1
REMARK SMILES IDX 21 1 20 2 19 3 1 4 2 5 3 7 4 8 5 9 9 10 6 11 8 12 7 13 10 14
REMARK SMILES IDX 11 16 12 17 17 18 13 19 14 20 16 21 18 22 15 23 22 24 23 25
REMARK SMILES IDX 24 26 25 27 26 29 27 30 28 31 80 32 29 33 79 34 30 35 31 36
REMARK SMILES IDX 32 37 73 38 33 39 78 40 72 41 74 42 34 43 77 44 71 45 70 46
REMARK SMILES IDX 35 48 61 49 44 50 60 51 45 52 48 53 59 54 75 55 46 56 47 57
REMARK SMILES IDX 58 59 76 60 49 61 36 62 37 63 42 64 38 65 39 66 41 67 43 68
REMARK SMILES IDX 40 69 62 70 63 71 68 72 64 73 65 74 67 75 69 76 66 77 50 78
REMARK SMILES IDX 51 79 56 80 52 81 53 82 55 83 57 84 54 85
REMARK H PARENT 19 6 10 15 24 28 74 47 48 58
REMARK Flexibility Score: inf
ROOT
ATOM      1  C   UNL A   1      36.414  20.937  24.972  1.00  0.00     0.023 C 
ENDROOT
BRANCH   1   2
ATOM      2  C   UNL A   1      36.618  22.282  25.658  1.00  0.00     0.116 C 
BRANCH   2   3
ATOM      3  N   UNL A   1      35.979  23.392  24.980  1.00  0.00    -0.356 N 
ATOM      4  O   UNL A   1      34.404  23.725  26.614  1.00  0.00    -0.275 OA
ATOM      5  C   UNL A   1      34.919  24.064  25.550  1.00  0.00     0.224 C 
ATOM      6  H   UNL A   1      36.309  23.673  24.096  1.00  0.00     0.163 HD
BRANCH   5   7
ATOM      7  C   UNL A   1      34.471  25.306  24.821  1.00  0.00     0.137 C 
BRANCH   7   8
ATOM      8  C   UNL A   1      33.368  26.146  25.450  1.00  0.00    -0.015 A 
ATOM      9  C   UNL A   1      33.840  27.168  26.310  1.00  0.00     0.006 A 
ATOM     10  C   UNL A   1      31.976  26.047  25.213  1.00  0.00     0.042 A 
ATOM     11  C   UNL A   1      32.971  28.026  26.978  1.00  0.00     0.000 A 
ATOM     12  C   UNL A   1      31.118  26.888  25.951  1.00  0.00     0.026 A 
ATOM     13  C   UNL A   1      31.605  27.873  26.812  1.00  0.00     0.002 A 
BRANCH  10  14
ATOM     14  N   UNL A   1      31.415  25.090  24.337  1.00  0.00    -0.353 N 
ATOM     15  H   UNL A   1      30.777  25.445  23.677  1.00  0.00     0.167 HD
BRANCH  14  16
ATOM     16  C   UNL A   1      31.645  23.687  24.278  1.00  0.00     0.076 A 
ATOM     17  C   UNL A   1      31.328  22.858  25.372  1.00  0.00     0.066 A 
ATOM     18  C   UNL A   1      32.382  23.110  23.226  1.00  0.00     0.066 A 
ATOM     19  Cl  UNL A   1      30.323  23.402  26.662  1.00  0.00    -0.082 Cl
ATOM     20  C   UNL A   1      31.763  21.530  25.437  1.00  0.00     0.023 A 
ATOM     21  C   UNL A   1      32.784  21.769  23.273  1.00  0.00     0.023 A 
ATOM     22  Cl  UNL A   1      32.850  24.027  21.834  1.00  0.00    -0.082 Cl
ATOM     23  C   UNL A   1      32.495  20.985  24.388  1.00  0.00     0.003 A 
ENDBRANCH  14  16
ENDBRANCH  10  14
ENDBRANCH   7   8
ENDBRANCH   5   7
ENDBRANCH   2   3
ENDBRANCH   1   2
BRANCH   1  24
ATOM     24  C   UNL A   1      37.631  20.013  24.896  1.00  0.00     0.023 C 
BRANCH  24  25
ATOM     25  C   UNL A   1      38.841  20.388  25.747  1.00  0.00     0.116 C 
BRANCH  25  26
ATOM     26  N   UNL A   1      39.906  19.398  25.727  1.00  0.00    -0.352 N 
ATOM     27  C   UNL A   1      41.230  19.543  26.071  1.00  0.00     0.251 C 
ATOM     28  H   UNL A   1      39.642  18.499  25.426  1.00  0.00     0.163 HD
ATOM     29  O   UNL A   1      42.020  18.616  25.907  1.00  0.00    -0.269 OA
BRANCH  27  30
ATOM     30  C   UNL A   1      41.719  20.833  26.604  1.00  0.00     0.039 A 
ATOM     31  C   UNL A   1      42.231  21.781  25.714  1.00  0.00     0.014 A 
ATOM     32  C   UNL A   1      41.668  21.110  27.973  1.00  0.00     0.014 A 
ATOM     33  C   UNL A   1      42.619  23.038  26.186  1.00  0.00     0.010 A 
ATOM     34  C   UNL A   1      42.006  22.383  28.434  1.00  0.00     0.010 A 
ATOM     35  C   UNL A   1      42.471  23.364  27.544  1.00  0.00    -0.014 A 
BRANCH  35  36
ATOM     36  C   UNL A   1      42.759  24.738  28.040  1.00  0.00     0.031 A 
ATOM     37  C   UNL A   1      44.152  25.132  28.447  1.00  0.00     0.074 A 
ATOM     38  C   UNL A   1      41.747  25.616  28.186  1.00  0.00     0.049 A 
ATOM     39  N   UNL A   1      44.577  26.262  28.956  1.00  0.00    -0.248 NA
ATOM     40  C   UNL A   1      45.201  24.116  28.281  1.00  0.00     0.031 C 
ATOM     41  C   UNL A   1      40.343  25.351  27.865  1.00  0.00     0.029 A 
ATOM     42  N   UNL A   1      41.740  26.908  28.652  1.00  0.00    -0.354 N 
ATOM     43  C   UNL A   1      45.937  26.090  29.180  1.00  0.00     0.074 A 
ATOM     44  C   UNL A   1      46.257  24.731  28.794  1.00  0.00     0.031 C 
ATOM     45  C   UNL A   1      39.616  26.449  28.124  1.00  0.00     0.029 A 
ATOM     46  C   UNL A   1      40.492  27.483  28.667  1.00  0.00     0.049 A 
ATOM     47  H   UNL A   1      42.553  27.378  28.948  1.00  0.00     0.167 HD
ATOM     48  C   UNL A   1      46.839  26.986  29.647  1.00  0.00     0.037 A 
ATOM     49  C   UNL A   1      40.093  28.701  29.082  1.00  0.00     0.037 A 
ATOM     50  C   UNL A   1      46.522  28.342  30.017  1.00  0.00     0.049 A 
ATOM     51  C   UNL A   1      41.112  29.668  29.621  1.00  0.00     0.074 A 
ATOM     52  C   UNL A   1      47.381  29.342  30.444  1.00  0.00     0.029 A 
ATOM     53  N   UNL A   1      45.247  28.887  30.016  1.00  0.00    -0.354 N 
ATOM     54  N   UNL A   1      42.405  29.516  29.757  1.00  0.00    -0.248 NA
ATOM     55  C   UNL A   1      40.612  30.979  30.061  1.00  0.00     0.031 C 
ATOM     56  C   UNL A   1      46.620  30.473  30.753  1.00  0.00     0.029 A 
ATOM     57  C   UNL A   1      45.292  30.199  30.463  1.00  0.00     0.049 A 
ATOM     58  H   UNL A   1      44.430  28.412  29.739  1.00  0.00     0.167 HD
ATOM     59  C   UNL A   1      42.879  30.719  30.264  1.00  0.00     0.074 A 
ATOM     60  C   UNL A   1      41.734  31.595  30.401  1.00  0.00     0.031 C 
ATOM     61  C   UNL A   1      44.149  31.067  30.588  1.00  0.00     0.037 A 
BRANCH  48  62
ATOM     62  C   UNL A   1      48.263  26.530  29.790  1.00  0.00     0.057 A 
ATOM     63  C   UNL A   1      49.216  26.752  28.788  1.00  0.00     0.134 A 
ATOM     64  C   UNL A   1      48.697  25.900  30.964  1.00  0.00     0.134 A 
ATOM     65  F   UNL A   1      48.866  27.343  27.635  1.00  0.00    -0.206 F 
ATOM     66  C   UNL A   1      50.543  26.343  28.937  1.00  0.00     0.040 A 
ATOM     67  C   UNL A   1      50.027  25.513  31.137  1.00  0.00     0.040 A 
ATOM     68  F   UNL A   1      47.840  25.664  31.969  1.00  0.00    -0.206 F 
ATOM     69  C   UNL A   1      50.953  25.727  30.118  1.00  0.00     0.006 A 
ENDBRANCH  48  62
BRANCH  49  70
ATOM     70  C   UNL A   1      38.662  29.090  28.988  1.00  0.00     0.057 A 
ATOM     71  C   UNL A   1      38.119  29.559  27.786  1.00  0.00     0.134 A 
ATOM     72  C   UNL A   1      37.810  29.024  30.097  1.00  0.00     0.134 A 
ATOM     73  F   UNL A   1      38.889  29.665  26.694  1.00  0.00    -0.206 F 
ATOM     74  C   UNL A   1      36.788  29.970  27.696  1.00  0.00     0.040 A 
ATOM     75  C   UNL A   1      36.469  29.405  30.014  1.00  0.00     0.040 A 
ATOM     76  F   UNL A   1      38.267  28.579  31.277  1.00  0.00    -0.206 F 
ATOM     77  C   UNL A   1      35.958  29.889  28.811  1.00  0.00     0.006 A 
ENDBRANCH  49  70
BRANCH  61  78
ATOM     78  C   UNL A   1      44.378  32.468  31.079  1.00  0.00     0.057 A 
ATOM     79  C   UNL A   1      44.628  33.532  30.202  1.00  0.00     0.134 A 
ATOM     80  C   UNL A   1      44.310  32.761  32.448  1.00  0.00     0.134 A 
ATOM     81  F   UNL A   1      44.719  33.317  28.881  1.00  0.00    -0.206 F 
ATOM     82  C   UNL A   1      44.828  34.832  30.672  1.00  0.00     0.040 A 
ATOM     83  C   UNL A   1      44.478  34.061  32.926  1.00  0.00     0.040 A 
ATOM     84  F   UNL A   1      44.065  31.791  33.341  1.00  0.00    -0.206 F 
ATOM     85  C   UNL A   1      44.745  35.100  32.037  1.00  0.00     0.006 A 
ENDBRANCH  61  78
ENDBRANCH  35  36
ENDBRANCH  27  30
ENDBRANCH  25  26
ENDBRANCH  24  25
ENDBRANCH   1  24
TORSDOF 14
ENDMDL
MODEL 2
REMARK VINA RESULT:     -11.2      1.780      2.626
REMARK SMILES O=C(Cc1ccccc1Nc1c(Cl)cccc1Cl)NCCCCNC(=O)c1ccc(-c2c3nc(c(-c4c(F)cccc4F)c4ccc([nH]4)c(-c4c(F)cccc4F)c4nc(c(-c5c(F)cccc5F)c5ccc2[nH]5)C=C4)C=C3)cc1
REMARK SMILES IDX 21 1 20 2 19 3 1 4 2 5 3 7 4 8 5 9 9 10 6 11 8 12 7 13 10 14
REMARK SMILES IDX 11 16 12 17 17 18 13 19 14 20 16 21 18 22 15 23 22 24 23 25
REMARK SMILES IDX 24 26 25 27 26 29 27 30 28 31 80 32 29 33 79 34 30 35 31 36
REMARK SMILES IDX 32 37 73 38 33 39 78 40 72 41 74 42 34 43 77 44 71 45 70 46
REMARK SMILES IDX 35 48 61 49 44 50 60 51 45 52 48 53 59 54 75 55 46 56 47 57
REMARK SMILES IDX 58 59 76 60 49 61 36 62 37 63 42 64 38 65 39 66 41 67 43 68
REMARK SMILES IDX 40 69 62 70 63 71 68 72 64 73 65 74 67 75 69 76 66 77 50 78
REMARK SMILES IDX 51 79 56 80 52 81 53 82 55 83 57 84 54 85
REMARK H PARENT 19 6 10 15 24 28 74 47 48 58
REMARK Flexibility Score: inf
ROOT
ATOM      1  C   UNL A   1      36.889  20.325  25.091  1.00  0.00     0.023 C 
ENDROOT
BRANCH   1   2
ATOM      2  C   UNL A   1      37.103  21.830  24.994  1.00  0.00     0.116 C 
BRANCH   2   3
ATOM      3  N   UNL A   1      35.909  22.573  24.644  1.00  0.00    -0.356 N 
ATOM      4  O   UNL A   1      36.623  23.088  22.527  1.00  0.00    -0.275 OA
ATOM      5  C   UNL A   1      35.749  23.123  23.391  1.00  0.00     0.224 C 
ATOM      6  H   UNL A   1      35.196  22.687  25.315  1.00  0.00     0.163 HD
BRANCH   5   7
ATOM      7  C   UNL A   1      34.388  23.710  23.108  1.00  0.00     0.137 C 
BRANCH   7   8
ATOM      8  C   UNL A   1      33.674  24.434  24.240  1.00  0.00    -0.015 A 
ATOM      9  C   UNL A   1      34.200  25.718  24.527  1.00  0.00     0.006 A 
ATOM     10  C   UNL A   1      32.536  23.991  24.957  1.00  0.00     0.042 A 
ATOM     11  C   UNL A   1      33.674  26.518  25.538  1.00  0.00     0.000 A 
ATOM     12  C   UNL A   1      32.066  24.795  26.015  1.00  0.00     0.026 A 
ATOM     13  C   UNL A   1      32.616  26.047  26.296  1.00  0.00     0.002 A 
BRANCH  10  14
ATOM     14  N   UNL A   1      31.913  22.746  24.711  1.00  0.00    -0.353 N 
ATOM     15  H   UNL A   1      30.951  22.788  24.507  1.00  0.00     0.167 HD
BRANCH  14  16
ATOM     16  C   UNL A   1      32.484  21.443  24.716  1.00  0.00     0.076 A 
ATOM     17  C   UNL A   1      32.360  20.596  23.597  1.00  0.00     0.066 A 
ATOM     18  C   UNL A   1      33.004  20.876  25.897  1.00  0.00     0.066 A 
ATOM     19  Cl  UNL A   1      31.862  21.192  22.058  1.00  0.00    -0.082 Cl
ATOM     20  C   UNL A   1      32.695  19.239  23.662  1.00  0.00     0.023 A 
ATOM     21  C   UNL A   1      33.375  19.527  25.950  1.00  0.00     0.023 A 
ATOM     22  Cl  UNL A   1      33.189  21.806  27.345  1.00  0.00    -0.082 Cl
ATOM     23  C   UNL A   1      33.199  18.703  24.841  1.00  0.00     0.003 A 
ENDBRANCH  14  16
ENDBRANCH  10  14
ENDBRANCH   7   8
ENDBRANCH   5   7
ENDBRANCH   2   3
ENDBRANCH   1   2
BRANCH   1  24
ATOM     24  C   UNL A   1      38.135  19.445  24.964  1.00  0.00     0.023 C 
BRANCH  24  25
ATOM     25  C   UNL A   1      39.368  19.871  25.753  1.00  0.00     0.116 C 
BRANCH  25  26
ATOM     26  N   UNL A   1      40.406  18.855  25.820  1.00  0.00    -0.352 N 
ATOM     27  C   UNL A   1      41.747  19.002  26.092  1.00  0.00     0.251 C 
ATOM     28  H   UNL A   1      40.108  17.934  25.647  1.00  0.00     0.163 HD
ATOM     29  O   UNL A   1      42.505  18.038  26.018  1.00  0.00    -0.269 OA
BRANCH  27  30
ATOM     30  C   UNL A   1      42.290  20.334  26.436  1.00  0.00     0.039 A 
ATOM     31  C   UNL A   1      42.865  21.111  25.427  1.00  0.00     0.014 A 
ATOM     32  C   UNL A   1      42.229  20.818  27.746  1.00  0.00     0.014 A 
ATOM     33  C   UNL A   1      43.307  22.405  25.713  1.00  0.00     0.010 A 
ATOM     34  C   UNL A   1      42.621  22.128  28.018  1.00  0.00     0.010 A 
ATOM     35  C   UNL A   1      43.151  22.941  27.002  1.00  0.00    -0.014 A 
BRANCH  35  36
ATOM     36  C   UNL A   1      43.499  24.358  27.292  1.00  0.00     0.031 A 
ATOM     37  C   UNL A   1      44.923  24.833  27.208  1.00  0.00     0.074 A 
ATOM     38  C   UNL A   1      42.534  25.208  27.696  1.00  0.00     0.049 A 
ATOM     39  N   UNL A   1      45.419  26.014  27.483  1.00  0.00    -0.248 NA
ATOM     40  C   UNL A   1      45.925  23.846  26.782  1.00  0.00     0.031 C 
ATOM     41  C   UNL A   1      41.118  24.868  27.857  1.00  0.00     0.029 A 
ATOM     42  N   UNL A   1      42.597  26.533  28.057  1.00  0.00    -0.354 N 
ATOM     43  C   UNL A   1      46.788  25.910  27.272  1.00  0.00     0.074 A 
ATOM     44  C   UNL A   1      47.050  24.537  26.892  1.00  0.00     0.031 C 
ATOM     45  C   UNL A   1      40.447  25.956  28.263  1.00  0.00     0.029 A 
ATOM     46  C   UNL A   1      41.386  27.061  28.433  1.00  0.00     0.049 A 
ATOM     47  H   UNL A   1      43.433  27.053  28.048  1.00  0.00     0.167 HD
ATOM     48  C   UNL A   1      47.736  26.872  27.370  1.00  0.00     0.037 A 
ATOM     49  C   UNL A   1      41.066  28.294  28.874  1.00  0.00     0.037 A 
ATOM     50  C   UNL A   1      47.473  28.241  27.734  1.00  0.00     0.049 A 
ATOM     51  C   UNL A   1      42.144  29.336  28.999  1.00  0.00     0.074 A 
ATOM     52  C   UNL A   1      48.362  29.301  27.801  1.00  0.00     0.029 A 
ATOM     53  N   UNL A   1      46.232  28.738  28.105  1.00  0.00    -0.354 N 
ATOM     54  N   UNL A   1      43.422  29.242  28.725  1.00  0.00    -0.248 NA
ATOM     55  C   UNL A   1      41.732  30.658  29.491  1.00  0.00     0.031 C 
ATOM     56  C   UNL A   1      47.670  30.425  28.263  1.00  0.00     0.029 A 
ATOM     57  C   UNL A   1      46.338  30.081  28.430  1.00  0.00     0.049 A 
ATOM     58  H   UNL A   1      45.399  28.214  28.134  1.00  0.00     0.167 HD
ATOM     59  C   UNL A   1      43.959  30.497  28.977  1.00  0.00     0.074 A 
ATOM     60  C   UNL A   1      42.865  31.340  29.415  1.00  0.00     0.031 C 
ATOM     61  C   UNL A   1      45.243  30.915  28.856  1.00  0.00     0.037 A 
BRANCH  48  62
ATOM     62  C   UNL A   1      49.157  26.480  27.080  1.00  0.00     0.057 A 
ATOM     63  C   UNL A   1      49.994  25.945  28.068  1.00  0.00     0.134 A 
ATOM     64  C   UNL A   1      49.681  26.597  25.786  1.00  0.00     0.134 A 
ATOM     65  F   UNL A   1      49.559  25.813  29.330  1.00  0.00    -0.206 F 
ATOM     66  C   UNL A   1      51.308  25.564  27.786  1.00  0.00     0.040 A 
ATOM     67  C   UNL A   1      50.983  26.192  25.485  1.00  0.00     0.040 A 
ATOM     68  F   UNL A   1      48.932  27.092  24.789  1.00  0.00    -0.206 F 
ATOM     69  C   UNL A   1      51.803  25.681  26.489  1.00  0.00     0.006 A 
ENDBRANCH  48  62
BRANCH  49  70
ATOM     70  C   UNL A   1      39.658  28.621  29.217  1.00  0.00     0.057 A 
ATOM     71  C   UNL A   1      38.794  29.173  28.264  1.00  0.00     0.134 A 
ATOM     72  C   UNL A   1      39.150  28.416  30.505  1.00  0.00     0.134 A 
ATOM     73  F   UNL A   1      39.228  29.413  27.018  1.00  0.00    -0.206 F 
ATOM     74  C   UNL A   1      37.482  29.527  28.584  1.00  0.00     0.040 A 
ATOM     75  C   UNL A   1      37.832  28.739  30.831  1.00  0.00     0.040 A 
ATOM     76  F   UNL A   1      39.925  27.886  31.463  1.00  0.00    -0.206 F 
ATOM     77  C   UNL A   1      36.998  29.307  29.871  1.00  0.00     0.006 A 
ENDBRANCH  49  70
BRANCH  61  78
ATOM     78  C   UNL A   1      45.531  32.358  29.159  1.00  0.00     0.057 A 
ATOM     79  C   UNL A   1      45.910  32.788  30.437  1.00  0.00     0.134 A 
ATOM     80  C   UNL A   1      45.465  33.324  28.146  1.00  0.00     0.134 A 
ATOM     81  F   UNL A   1      45.980  31.916  31.455  1.00  0.00    -0.206 F 
ATOM     82  C   UNL A   1      46.187  34.131  30.702  1.00  0.00     0.040 A 
ATOM     83  C   UNL A   1      45.768  34.664  28.392  1.00  0.00     0.040 A 
ATOM     84  F   UNL A   1      45.117  32.979  26.897  1.00  0.00    -0.206 F 
ATOM     85  C   UNL A   1      46.123  35.072  29.676  1.00  0.00     0.006 A 
ENDBRANCH  61  78
ENDBRANCH  35  36
ENDBRANCH  27  30
ENDBRANCH  25  26
ENDBRANCH  24  25
ENDBRANCH   1  24
TORSDOF 14
ENDMDL
MODEL 3
REMARK VINA RESULT:     -11.2      1.485      6.309
REMARK SMILES O=C(Cc1ccccc1Nc1c(Cl)cccc1Cl)NCCCCNC(=O)c1ccc(-c2c3nc(c(-c4c(F)cccc4F)c4ccc([nH]4)c(-c4c(F)cccc4F)c4nc(c(-c5c(F)cccc5F)c5ccc2[nH]5)C=C4)C=C3)cc1
REMARK SMILES IDX 21 1 20 2 19 3 1 4 2 5 3 7 4 8 5 9 9 10 6 11 8 12 7 13 10 14
REMARK SMILES IDX 11 16 12 17 17 18 13 19 14 20 16 21 18 22 15 23 22 24 23 25
REMARK SMILES IDX 24 26 25 27 26 29 27 30 28 31 80 32 29 33 79 34 30 35 31 36
REMARK SMILES IDX 32 37 73 38 33 39 78 40 72 41 74 42 34 43 77 44 71 45 70 46
REMARK SMILES IDX 35 48 61 49 44 50 60 51 45 52 48 53 59 54 75 55 46 56 47 57
REMARK SMILES IDX 58 59 76 60 49 61 36 62 37 63 42 64 38 65 39 66 41 67 43 68
REMARK SMILES IDX 40 69 62 70 63 71 68 72 64 73 65 74 67 75 69 76 66 77 50 78
REMARK SMILES IDX 51 79 56 80 52 81 53 82 55 83 57 84 54 85
REMARK H PARENT 19 6 10 15 24 28 74 47 48 58
REMARK Flexibility Score: inf
ROOT
ATOM      1  C   UNL A   1      36.536  21.066  25.041  1.00  0.00     0.023 C 
ENDROOT
BRANCH   1   2
ATOM      2  C   UNL A   1      36.903  22.487  25.446  1.00  0.00     0.116 C 
BRANCH   2   3
ATOM      3  N   UNL A   1      36.130  23.511  24.772  1.00  0.00    -0.356 N 
ATOM      4  O   UNL A   1      34.552  23.672  26.428  1.00  0.00    -0.275 OA
ATOM      5  C   UNL A   1      35.009  24.060  25.355  1.00  0.00     0.224 C 
ATOM      6  H   UNL A   1      36.412  23.822  23.881  1.00  0.00     0.163 HD
BRANCH   5   7
ATOM      7  C   UNL A   1      34.409  25.237  24.625  1.00  0.00     0.137 C 
BRANCH   7   8
ATOM      8  C   UNL A   1      33.261  25.981  25.292  1.00  0.00    -0.015 A 
ATOM      9  C   UNL A   1      33.672  27.050  26.126  1.00  0.00     0.006 A 
ATOM     10  C   UNL A   1      31.875  25.756  25.110  1.00  0.00     0.042 A 
ATOM     11  C   UNL A   1      32.755  27.833  26.822  1.00  0.00     0.000 A 
ATOM     12  C   UNL A   1      30.974  26.524  25.875  1.00  0.00     0.026 A 
ATOM     13  C   UNL A   1      31.403  27.557  26.711  1.00  0.00     0.002 A 
BRANCH  10  14
ATOM     14  N   UNL A   1      31.368  24.745  24.262  1.00  0.00    -0.353 N 
ATOM     15  H   UNL A   1      30.725  25.046  23.582  1.00  0.00     0.167 HD
BRANCH  14  16
ATOM     16  C   UNL A   1      31.660  23.352  24.258  1.00  0.00     0.076 A 
ATOM     17  C   UNL A   1      31.355  22.548  25.374  1.00  0.00     0.066 A 
ATOM     18  C   UNL A   1      32.445  22.772  23.242  1.00  0.00     0.066 A 
ATOM     19  Cl  UNL A   1      30.299  23.091  26.624  1.00  0.00    -0.082 Cl
ATOM     20  C   UNL A   1      31.846  21.243  25.495  1.00  0.00     0.023 A 
ATOM     21  C   UNL A   1      32.903  21.452  23.345  1.00  0.00     0.023 A 
ATOM     22  Cl  UNL A   1      32.903  23.660  21.829  1.00  0.00    -0.082 Cl
ATOM     23  C   UNL A   1      32.624  20.695  24.481  1.00  0.00     0.003 A 
ENDBRANCH  14  16
ENDBRANCH  10  14
ENDBRANCH   7   8
ENDBRANCH   5   7
ENDBRANCH   2   3
ENDBRANCH   1   2
BRANCH   1  24
ATOM     24  C   UNL A   1      37.690  20.069  24.907  1.00  0.00     0.023 C 
BRANCH  24  25
ATOM     25  C   UNL A   1      38.933  20.332  25.751  1.00  0.00     0.116 C 
BRANCH  25  26
ATOM     26  N   UNL A   1      39.886  19.233  25.755  1.00  0.00    -0.352 N 
ATOM     27  C   UNL A   1      41.240  19.261  26.000  1.00  0.00     0.251 C 
ATOM     28  H   UNL A   1      39.510  18.346  25.555  1.00  0.00     0.163 HD
ATOM     29  O   UNL A   1      41.915  18.242  25.873  1.00  0.00    -0.269 OA
BRANCH  27  30
ATOM     30  C   UNL A   1      41.896  20.529  26.382  1.00  0.00     0.039 A 
ATOM     31  C   UNL A   1      42.384  21.367  25.376  1.00  0.00     0.014 A 
ATOM     32  C   UNL A   1      42.026  20.896  27.725  1.00  0.00     0.014 A 
ATOM     33  C   UNL A   1      42.932  22.609  25.710  1.00  0.00     0.010 A 
ATOM     34  C   UNL A   1      42.523  22.157  28.053  1.00  0.00     0.010 A 
ATOM     35  C   UNL A   1      42.968  23.033  27.049  1.00  0.00    -0.014 A 
BRANCH  35  36
ATOM     36  C   UNL A   1      43.429  24.401  27.408  1.00  0.00     0.031 A 
ATOM     37  C   UNL A   1      42.446  25.457  27.831  1.00  0.00     0.074 A 
ATOM     38  C   UNL A   1      44.735  24.713  27.291  1.00  0.00     0.049 A 
ATOM     39  N   UNL A   1      42.659  26.716  28.122  1.00  0.00    -0.248 NA
ATOM     40  C   UNL A   1      41.036  25.051  27.916  1.00  0.00     0.031 C 
ATOM     41  C   UNL A   1      45.789  23.794  26.855  1.00  0.00     0.029 A 
ATOM     42  N   UNL A   1      45.400  25.894  27.516  1.00  0.00    -0.354 N 
ATOM     43  C   UNL A   1      41.412  27.255  28.414  1.00  0.00     0.074 A 
ATOM     44  C   UNL A   1      40.442  26.196  28.220  1.00  0.00     0.031 C 
ATOM     45  C   UNL A   1      46.967  24.438  26.864  1.00  0.00     0.029 A 
ATOM     46  C   UNL A   1      46.749  25.825  27.266  1.00  0.00     0.049 A 
ATOM     47  H   UNL A   1      44.951  26.713  27.828  1.00  0.00     0.167 HD
ATOM     48  C   UNL A   1      41.104  28.509  28.823  1.00  0.00     0.037 A 
ATOM     49  C   UNL A   1      47.704  26.773  27.341  1.00  0.00     0.037 A 
ATOM     50  C   UNL A   1      42.071  29.557  29.030  1.00  0.00     0.049 A 
ATOM     51  C   UNL A   1      47.331  28.165  27.772  1.00  0.00     0.074 A 
ATOM     52  C   UNL A   1      41.860  30.843  29.501  1.00  0.00     0.029 A 
ATOM     53  N   UNL A   1      43.428  29.447  28.768  1.00  0.00    -0.354 N 
ATOM     54  N   UNL A   1      46.159  28.638  28.117  1.00  0.00    -0.248 NA
ATOM     55  C   UNL A   1      48.418  29.153  27.828  1.00  0.00     0.031 C 
ATOM     56  C   UNL A   1      43.080  31.526  29.473  1.00  0.00     0.029 A 
ATOM     57  C   UNL A   1      44.062  30.650  29.039  1.00  0.00     0.049 A 
ATOM     58  H   UNL A   1      43.876  28.635  28.438  1.00  0.00     0.167 HD
ATOM     59  C   UNL A   1      46.372  29.966  28.463  1.00  0.00     0.074 A 
ATOM     60  C   UNL A   1      47.788  30.220  28.298  1.00  0.00     0.031 C 
ATOM     61  C   UNL A   1      45.474  30.892  28.881  1.00  0.00     0.037 A 
BRANCH  48  62
ATOM     62  C   UNL A   1      39.657  28.824  29.074  1.00  0.00     0.057 A 
ATOM     63  C   UNL A   1      38.802  29.248  28.049  1.00  0.00     0.134 A 
ATOM     64  C   UNL A   1      39.101  28.657  30.349  1.00  0.00     0.134 A 
ATOM     65  F   UNL A   1      39.272  29.435  26.806  1.00  0.00    -0.206 F 
ATOM     66  C   UNL A   1      37.454  29.519  28.286  1.00  0.00     0.040 A 
ATOM     67  C   UNL A   1      37.747  28.897  30.593  1.00  0.00     0.040 A 
ATOM     68  F   UNL A   1      39.859  28.243  31.376  1.00  0.00    -0.206 F 
ATOM     69  C   UNL A   1      36.921  29.337  29.561  1.00  0.00     0.006 A 
ENDBRANCH  48  62
BRANCH  49  70
ATOM     70  C   UNL A   1      49.115  26.437  27.016  1.00  0.00     0.057 A 
ATOM     71  C   UNL A   1      49.593  26.527  25.704  1.00  0.00     0.134 A 
ATOM     72  C   UNL A   1      50.010  25.998  28.000  1.00  0.00     0.134 A 
ATOM     73  F   UNL A   1      48.779  26.921  24.714  1.00  0.00    -0.206 F 
ATOM     74  C   UNL A   1      50.904  26.172  25.377  1.00  0.00     0.040 A 
ATOM     75  C   UNL A   1      51.330  25.667  27.691  1.00  0.00     0.040 A 
ATOM     76  F   UNL A   1      49.615  25.895  29.277  1.00  0.00    -0.206 F 
ATOM     77  C   UNL A   1      51.777  25.744  26.374  1.00  0.00     0.006 A 
ENDBRANCH  49  70
BRANCH  61  78
ATOM     78  C   UNL A   1      45.999  32.254  29.232  1.00  0.00     0.057 A 
ATOM     79  C   UNL A   1      46.468  32.562  30.516  1.00  0.00     0.134 A 
ATOM     80  C   UNL A   1      46.071  33.262  28.260  1.00  0.00     0.134 A 
ATOM     81  F   UNL A   1      46.415  31.648  31.497  1.00  0.00    -0.206 F 
ATOM     82  C   UNL A   1      46.965  33.830  30.826  1.00  0.00     0.040 A 
ATOM     83  C   UNL A   1      46.593  34.523  28.551  1.00  0.00     0.040 A 
ATOM     84  F   UNL A   1      45.647  33.031  27.008  1.00  0.00    -0.206 F 
ATOM     85  C   UNL A   1      47.035  34.812  29.840  1.00  0.00     0.006 A 
ENDBRANCH  61  78
ENDBRANCH  35  36
ENDBRANCH  27  30
ENDBRANCH  25  26
ENDBRANCH  24  25
ENDBRANCH   1  24
TORSDOF 14
ENDMDL
