MODEL 1
REMARK VINA RESULT:     -12.3      0.000      0.000
REMARK SMILES COc1cc(C)cc2c1O[C@H](C(F)(F)F)C(C(=O)NCCCCNC(=O)c1ccc(-c3c4nc(c(-c5c(F)cccc5F)c5ccc([nH]5)c(-c5c(F)cccc5F)c5nc(c(-c6c(F)cccc6F)c6ccc3[nH]6)C=C5)C=C4)cc1)=C2
REMARK SMILES IDX 22 1 21 2 20 3 19 4 17 5 18 6 16 8 3 9 4 10 9 11 5 12 8 13
REMARK SMILES IDX 10 14 6 15 7 16 81 17 11 18 2 19 1 20 12 21 13 22 14 23
REMARK SMILES IDX 15 24 23 25 24 26 25 27 26 29 27 30 28 31 80 32 29 33 79 34
REMARK SMILES IDX 30 35 31 36 32 37 73 38 33 39 78 40 72 41 74 42 34 43 77 44
REMARK SMILES IDX 71 45 70 46 35 48 61 49 44 50 60 51 45 52 48 53 59 54 75 55
REMARK SMILES IDX 46 56 47 57 58 59 76 60 49 61 36 62 37 63 42 64 38 65 39 66
REMARK SMILES IDX 41 67 43 68 40 69 62 70 63 71 68 72 64 73 65 74 67 75 69 76
REMARK SMILES IDX 66 77 50 78 51 79 56 80 52 81 53 82 55 83 57 84 54 85
REMARK H PARENT 19 7 24 28 74 47 48 58
REMARK Flexibility Score: inf
ROOT
ATOM      1  C   UNL A   1      31.368  31.916  26.759  1.00  0.00     0.023 C 
ENDROOT
BRANCH   1   2
ATOM      2  C   UNL A   1      31.856  30.472  26.892  1.00  0.00     0.023 C 
BRANCH   2   3
ATOM      3  C   UNL A   1      33.265  30.235  26.358  1.00  0.00     0.116 C 
BRANCH   3   4
ATOM      4  N   UNL A   1      33.256  29.777  24.980  1.00  0.00    -0.352 N 
ATOM      5  C   UNL A   1      33.048  28.607  24.331  1.00  0.00     0.251 C 
ATOM      6  O   UNL A   1      33.154  28.665  23.101  1.00  0.00    -0.270 OA
ATOM      7  H   UNL A   1      33.453  30.510  24.353  1.00  0.00     0.163 HD
BRANCH   5   8
ATOM      8  C   UNL A   1      32.712  27.305  24.982  1.00  0.00     0.067 C 
ATOM      9  C   UNL A   1      32.000  23.649  26.921  1.00  0.00     0.161 A 
ATOM     10  C   UNL A   1      32.961  22.638  26.875  1.00  0.00     0.054 A 
ATOM     11  C   UNL A   1      32.253  24.886  26.323  1.00  0.00     0.169 A 
ATOM     12  C   UNL A   1      34.203  22.875  26.270  1.00  0.00    -0.047 A 
ATOM     13  C   UNL A   1      33.482  25.133  25.710  1.00  0.00     0.021 A 
ATOM     14  O   UNL A   1      31.287  25.849  26.419  1.00  0.00    -0.471 OA
ATOM     15  C   UNL A   1      35.247  21.800  26.214  1.00  0.00     0.044 C 
ATOM     16  C   UNL A   1      34.455  24.128  25.690  1.00  0.00     0.015 A 
ATOM     17  C   UNL A   1      33.737  26.445  25.125  1.00  0.00     0.025 C 
ATOM     18  C   UNL A   1      31.332  26.904  25.423  1.00  0.00     0.314 C 
BRANCH   9  19
ATOM     19  O   UNL A   1      30.761  23.429  27.466  1.00  0.00    -0.493 OA
ATOM     20  C   UNL A   1      29.966  22.575  26.647  1.00  0.00     0.278 C 
ENDBRANCH   9  19
BRANCH  18  21
ATOM     21  C   UNL A   1      30.411  26.533  24.245  1.00  0.00     0.429 C 
ATOM     22  F   UNL A   1      29.708  27.618  23.831  1.00  0.00    -0.167 F 
ATOM     23  F   UNL A   1      31.108  26.101  23.165  1.00  0.00    -0.167 F 
ATOM     24  F   UNL A   1      29.524  25.563  24.552  1.00  0.00    -0.167 F 
ENDBRANCH  18  21
ENDBRANCH   5   8
ENDBRANCH   3   4
ENDBRANCH   2   3
ENDBRANCH   1   2
BRANCH   1  25
ATOM     25  C   UNL A   1      32.464  32.976  26.668  1.00  0.00     0.116 C 
BRANCH  25  26
ATOM     26  N   UNL A   1      32.318  34.077  27.612  1.00  0.00    -0.352 N 
ATOM     27  C   UNL A   1      33.165  34.420  28.643  1.00  0.00     0.251 C 
ATOM     28  H   UNL A   1      31.520  34.642  27.498  1.00  0.00     0.163 HD
ATOM     29  O   UNL A   1      32.894  35.338  29.406  1.00  0.00    -0.269 OA
BRANCH  27  30
ATOM     30  C   UNL A   1      34.381  33.609  28.846  1.00  0.00     0.039 A 
ATOM     31  C   UNL A   1      34.273  32.279  29.255  1.00  0.00     0.014 A 
ATOM     32  C   UNL A   1      35.629  34.230  28.751  1.00  0.00     0.014 A 
ATOM     33  C   UNL A   1      35.396  31.626  29.745  1.00  0.00     0.010 A 
ATOM     34  C   UNL A   1      36.768  33.543  29.176  1.00  0.00     0.010 A 
ATOM     35  C   UNL A   1      36.649  32.263  29.738  1.00  0.00    -0.014 A 
BRANCH  35  36
ATOM     36  C   UNL A   1      37.807  31.591  30.378  1.00  0.00     0.031 A 
ATOM     37  C   UNL A   1      38.125  31.837  31.829  1.00  0.00     0.074 A 
ATOM     38  C   UNL A   1      38.528  30.703  29.671  1.00  0.00     0.049 A 
ATOM     39  N   UNL A   1      39.084  31.327  32.562  1.00  0.00    -0.248 NA
ATOM     40  C   UNL A   1      37.256  32.778  32.553  1.00  0.00     0.031 C 
ATOM     41  C   UNL A   1      38.304  30.363  28.265  1.00  0.00     0.029 A 
ATOM     42  N   UNL A   1      39.576  29.902  30.045  1.00  0.00    -0.354 N 
ATOM     43  C   UNL A   1      38.949  31.903  33.820  1.00  0.00     0.074 A 
ATOM     44  C   UNL A   1      37.829  32.816  33.747  1.00  0.00     0.031 C 
ATOM     45  C   UNL A   1      39.155  29.390  27.908  1.00  0.00     0.029 A 
ATOM     46  C   UNL A   1      40.017  29.075  29.044  1.00  0.00     0.049 A 
ATOM     47  H   UNL A   1      39.973  29.919  30.946  1.00  0.00     0.167 HD
ATOM     48  C   UNL A   1      39.684  31.683  34.936  1.00  0.00     0.037 A 
ATOM     49  C   UNL A   1      41.012  28.170  29.036  1.00  0.00     0.037 A 
ATOM     50  C   UNL A   1      40.782  30.754  35.018  1.00  0.00     0.049 A 
ATOM     51  C   UNL A   1      41.827  27.966  30.278  1.00  0.00     0.074 A 
ATOM     52  C   UNL A   1      41.579  30.449  36.108  1.00  0.00     0.029 A 
ATOM     53  N   UNL A   1      41.231  29.972  33.964  1.00  0.00    -0.354 N 
ATOM     54  N   UNL A   1      41.696  28.527  31.455  1.00  0.00    -0.248 NA
ATOM     55  C   UNL A   1      42.940  27.010  30.185  1.00  0.00     0.031 C 
ATOM     56  C   UNL A   1      42.529  29.504  35.706  1.00  0.00     0.029 A 
ATOM     57  C   UNL A   1      42.303  29.196  34.374  1.00  0.00     0.049 A 
ATOM     58  H   UNL A   1      40.845  29.969  33.059  1.00  0.00     0.167 HD
ATOM     59  C   UNL A   1      42.703  27.992  32.244  1.00  0.00     0.074 A 
ATOM     60  C   UNL A   1      43.424  27.043  31.418  1.00  0.00     0.031 C 
ATOM     61  C   UNL A   1      43.011  28.266  33.534  1.00  0.00     0.037 A 
BRANCH  48  62
ATOM     62  C   UNL A   1      39.335  32.476  36.159  1.00  0.00     0.057 A 
ATOM     63  C   UNL A   1      38.378  32.002  37.067  1.00  0.00     0.134 A 
ATOM     64  C   UNL A   1      39.922  33.719  36.429  1.00  0.00     0.134 A 
ATOM     65  F   UNL A   1      37.776  30.821  36.867  1.00  0.00    -0.206 F 
ATOM     66  C   UNL A   1      38.019  32.737  38.198  1.00  0.00     0.040 A 
ATOM     67  C   UNL A   1      39.585  34.454  37.566  1.00  0.00     0.040 A 
ATOM     68  F   UNL A   1      40.857  34.220  35.607  1.00  0.00    -0.206 F 
ATOM     69  C   UNL A   1      38.627  33.966  38.453  1.00  0.00     0.006 A 
ENDBRANCH  48  62
BRANCH  49  70
ATOM     70  C   UNL A   1      41.293  27.397  27.803  1.00  0.00     0.057 A 
ATOM     71  C   UNL A   1      42.132  27.902  26.804  1.00  0.00     0.134 A 
ATOM     72  C   UNL A   1      40.716  26.141  27.594  1.00  0.00     0.134 A 
ATOM     73  F   UNL A   1      42.710  29.104  26.949  1.00  0.00    -0.206 F 
ATOM     74  C   UNL A   1      42.379  27.190  25.630  1.00  0.00     0.040 A 
ATOM     75  C   UNL A   1      40.971  25.408  26.434  1.00  0.00     0.040 A 
ATOM     76  F   UNL A   1      39.917  25.600  28.525  1.00  0.00    -0.206 F 
ATOM     77  C   UNL A   1      41.800  25.936  25.445  1.00  0.00     0.006 A 
ENDBRANCH  49  70
BRANCH  61  78
ATOM     78  C   UNL A   1      44.171  27.523  34.123  1.00  0.00     0.057 A 
ATOM     79  C   UNL A   1      45.463  28.060  34.078  1.00  0.00     0.134 A 
ATOM     80  C   UNL A   1      44.006  26.272  34.729  1.00  0.00     0.134 A 
ATOM     81  F   UNL A   1      45.686  29.254  33.508  1.00  0.00    -0.206 F 
ATOM     82  C   UNL A   1      46.552  27.378  34.621  1.00  0.00     0.040 A 
ATOM     83  C   UNL A   1      45.084  25.589  35.292  1.00  0.00     0.040 A 
ATOM     84  F   UNL A   1      42.789  25.714  34.817  1.00  0.00    -0.206 F 
ATOM     85  C   UNL A   1      46.363  26.142  35.236  1.00  0.00     0.006 A 
ENDBRANCH  61  78
ENDBRANCH  35  36
ENDBRANCH  27  30
ENDBRANCH  25  26
ENDBRANCH   1  25
TORSDOF 13
ENDMDL
MODEL 2
REMARK VINA RESULT:     -12.1      4.405      9.113
REMARK SMILES COc1cc(C)cc2c1O[C@H](C(F)(F)F)C(C(=O)NCCCCNC(=O)c1ccc(-c3c4nc(c(-c5c(F)cccc5F)c5ccc([nH]5)c(-c5c(F)cccc5F)c5nc(c(-c6c(F)cccc6F)c6ccc3[nH]6)C=C5)C=C4)cc1)=C2
REMARK SMILES IDX 22 1 21 2 20 3 19 4 17 5 18 6 16 8 3 9 4 10 9 11 5 12 8 13
REMARK SMILES IDX 10 14 6 15 7 16 81 17 11 18 2 19 1 20 12 21 13 22 14 23
REMARK SMILES IDX 15 24 23 25 24 26 25 27 26 29 27 30 28 31 80 32 29 33 79 34
REMARK SMILES IDX 30 35 31 36 32 37 73 38 33 39 78 40 72 41 74 42 34 43 77 44
REMARK SMILES IDX 71 45 70 46 35 48 61 49 44 50 60 51 45 52 48 53 59 54 75 55
REMARK SMILES IDX 46 56 47 57 58 59 76 60 49 61 36 62 37 63 42 64 38 65 39 66
REMARK SMILES IDX 41 67 43 68 40 69 62 70 63 71 68 72 64 73 65 74 67 75 69 76
REMARK SMILES IDX 66 77 50 78 51 79 56 80 52 81 53 82 55 83 57 84 54 85
REMARK H PARENT 19 7 24 28 74 47 48 58
REMARK Flexibility Score: inf
ROOT
ATOM      1  C   UNL A   1      37.585  21.156  24.952  1.00  0.00     0.023 C 
ENDROOT
BRANCH   1   2
ATOM      2  C   UNL A   1      36.803  19.840  24.914  1.00  0.00     0.023 C 
BRANCH   2   3
ATOM      3  C   UNL A   1      35.288  20.011  24.930  1.00  0.00     0.116 C 
BRANCH   3   4
ATOM      4  N   UNL A   1      34.828  20.697  26.125  1.00  0.00    -0.352 N 
ATOM      5  C   UNL A   1      34.347  21.924  26.434  1.00  0.00     0.251 C 
ATOM      6  O   UNL A   1      34.080  22.096  27.628  1.00  0.00    -0.270 OA
ATOM      7  H   UNL A   1      34.881  20.117  26.919  1.00  0.00     0.163 HD
BRANCH   5   8
ATOM      8  C   UNL A   1      34.126  23.036  25.461  1.00  0.00     0.067 C 
ATOM      9  C   UNL A   1      33.676  26.302  22.861  1.00  0.00     0.161 A 
ATOM     10  C   UNL A   1      33.487  27.585  23.379  1.00  0.00     0.054 A 
ATOM     11  C   UNL A   1      33.879  25.220  23.721  1.00  0.00     0.169 A 
ATOM     12  C   UNL A   1      33.548  27.799  24.763  1.00  0.00    -0.047 A 
ATOM     13  C   UNL A   1      33.934  25.418  25.100  1.00  0.00     0.021 A 
ATOM     14  O   UNL A   1      34.084  23.990  23.159  1.00  0.00    -0.471 OA
ATOM     15  C   UNL A   1      33.350  29.171  25.336  1.00  0.00     0.044 C 
ATOM     16  C   UNL A   1      33.773  26.708  25.617  1.00  0.00     0.015 A 
ATOM     17  C   UNL A   1      34.185  24.279  25.976  1.00  0.00     0.025 C 
ATOM     18  C   UNL A   1      33.806  22.844  24.005  1.00  0.00     0.314 C 
BRANCH   9  19
ATOM     19  O   UNL A   1      33.576  26.057  21.515  1.00  0.00    -0.493 OA
ATOM     20  C   UNL A   1      32.219  25.941  21.097  1.00  0.00     0.278 C 
ENDBRANCH   9  19
BRANCH  18  21
ATOM     21  C   UNL A   1      32.359  22.372  23.767  1.00  0.00     0.429 C 
ATOM     22  F   UNL A   1      32.004  22.560  22.472  1.00  0.00    -0.167 F 
ATOM     23  F   UNL A   1      32.205  21.047  24.012  1.00  0.00    -0.167 F 
ATOM     24  F   UNL A   1      31.459  23.019  24.538  1.00  0.00    -0.167 F 
ENDBRANCH  18  21
ENDBRANCH   5   8
ENDBRANCH   3   4
ENDBRANCH   2   3
ENDBRANCH   1   2
BRANCH   1  25
ATOM     25  C   UNL A   1      38.840  21.150  25.823  1.00  0.00     0.116 C 
BRANCH  25  26
ATOM     26  N   UNL A   1      39.679  19.969  25.664  1.00  0.00    -0.352 N 
ATOM     27  C   UNL A   1      41.010  19.831  25.995  1.00  0.00     0.251 C 
ATOM     28  H   UNL A   1      39.243  19.177  25.276  1.00  0.00     0.163 HD
ATOM     29  O   UNL A   1      41.618  18.797  25.753  1.00  0.00    -0.269 OA
BRANCH  27  30
ATOM     30  C   UNL A   1      41.703  20.988  26.592  1.00  0.00     0.039 A 
ATOM     31  C   UNL A   1      41.710  21.160  27.978  1.00  0.00     0.014 A 
ATOM     32  C   UNL A   1      42.234  21.966  25.747  1.00  0.00     0.014 A 
ATOM     33  C   UNL A   1      42.078  22.389  28.507  1.00  0.00     0.010 A 
ATOM     34  C   UNL A   1      42.673  23.174  26.290  1.00  0.00     0.010 A 
ATOM     35  C   UNL A   1      42.535  23.419  27.665  1.00  0.00    -0.014 A 
BRANCH  35  36
ATOM     36  C   UNL A   1      42.806  24.759  28.241  1.00  0.00     0.031 A 
ATOM     37  C   UNL A   1      44.215  25.178  28.570  1.00  0.00     0.074 A 
ATOM     38  C   UNL A   1      41.791  25.627  28.398  1.00  0.00     0.049 A 
ATOM     39  N   UNL A   1      44.645  26.312  29.063  1.00  0.00    -0.248 NA
ATOM     40  C   UNL A   1      45.280  24.194  28.317  1.00  0.00     0.031 C 
ATOM     41  C   UNL A   1      40.387  25.347  28.094  1.00  0.00     0.029 A 
ATOM     42  N   UNL A   1      41.787  26.930  28.824  1.00  0.00    -0.354 N 
ATOM     43  C   UNL A   1      46.022  26.171  29.201  1.00  0.00     0.074 A 
ATOM     44  C   UNL A   1      46.353  24.833  28.760  1.00  0.00     0.031 C 
ATOM     45  C   UNL A   1      39.665  26.458  28.298  1.00  0.00     0.029 A 
ATOM     46  C   UNL A   1      40.545  27.511  28.795  1.00  0.00     0.049 A 
ATOM     47  H   UNL A   1      42.598  27.403  29.123  1.00  0.00     0.167 HD
ATOM     48  C   UNL A   1      46.926  27.076  29.644  1.00  0.00     0.037 A 
ATOM     49  C   UNL A   1      40.155  28.752  29.139  1.00  0.00     0.037 A 
ATOM     50  C   UNL A   1      46.602  28.417  30.057  1.00  0.00     0.049 A 
ATOM     51  C   UNL A   1      41.174  29.725  29.651  1.00  0.00     0.074 A 
ATOM     52  C   UNL A   1      47.450  29.414  30.507  1.00  0.00     0.029 A 
ATOM     53  N   UNL A   1      45.321  28.951  30.061  1.00  0.00    -0.354 N 
ATOM     54  N   UNL A   1      42.468  29.572  29.789  1.00  0.00    -0.248 NA
ATOM     55  C   UNL A   1      40.674  31.042  30.071  1.00  0.00     0.031 C 
ATOM     56  C   UNL A   1      46.680  30.542  30.810  1.00  0.00     0.029 A 
ATOM     57  C   UNL A   1      45.356  30.258  30.518  1.00  0.00     0.049 A 
ATOM     58  H   UNL A   1      44.509  28.472  29.779  1.00  0.00     0.167 HD
ATOM     59  C   UNL A   1      42.939  30.770  30.305  1.00  0.00     0.074 A 
ATOM     60  C   UNL A   1      41.794  31.649  30.435  1.00  0.00     0.031 C 
ATOM     61  C   UNL A   1      44.204  31.111  30.649  1.00  0.00     0.037 A 
BRANCH  48  62
ATOM     62  C   UNL A   1      48.358  26.638  29.721  1.00  0.00     0.057 A 
ATOM     63  C   UNL A   1      48.844  25.986  30.863  1.00  0.00     0.134 A 
ATOM     64  C   UNL A   1      49.264  26.881  28.681  1.00  0.00     0.134 A 
ATOM     65  F   UNL A   1      48.031  25.726  31.897  1.00  0.00    -0.206 F 
ATOM     66  C   UNL A   1      50.180  25.594  30.966  1.00  0.00     0.040 A 
ATOM     67  C   UNL A   1      50.597  26.476  28.764  1.00  0.00     0.040 A 
ATOM     68  F   UNL A   1      48.857  27.485  27.555  1.00  0.00    -0.206 F 
ATOM     69  C   UNL A   1      51.060  25.834  29.913  1.00  0.00     0.006 A 
ENDBRANCH  48  62
BRANCH  49  70
ATOM     70  C   UNL A   1      38.729  29.134  29.015  1.00  0.00     0.057 A 
ATOM     71  C   UNL A   1      37.865  29.086  30.115  1.00  0.00     0.134 A 
ATOM     72  C   UNL A   1      38.197  29.546  27.789  1.00  0.00     0.134 A 
ATOM     73  F   UNL A   1      38.319  28.695  31.315  1.00  0.00    -0.206 F 
ATOM     74  C   UNL A   1      36.516  29.419  29.998  1.00  0.00     0.040 A 
ATOM     75  C   UNL A   1      36.854  29.903  27.662  1.00  0.00     0.040 A 
ATOM     76  F   UNL A   1      38.983  29.628  26.705  1.00  0.00    -0.206 F 
ATOM     77  C   UNL A   1      36.009  29.835  28.768  1.00  0.00     0.006 A 
ENDBRANCH  49  70
BRANCH  61  78
ATOM     78  C   UNL A   1      44.405  32.493  31.190  1.00  0.00     0.057 A 
ATOM     79  C   UNL A   1      44.341  32.741  32.567  1.00  0.00     0.134 A 
ATOM     80  C   UNL A   1      44.658  33.579  30.344  1.00  0.00     0.134 A 
ATOM     81  F   UNL A   1      44.098  31.741  33.428  1.00  0.00    -0.206 F 
ATOM     82  C   UNL A   1      44.525  34.023  33.083  1.00  0.00     0.040 A 
ATOM     83  C   UNL A   1      44.863  34.863  30.851  1.00  0.00     0.040 A 
ATOM     84  F   UNL A   1      44.749  33.402  29.017  1.00  0.00    -0.206 F 
ATOM     85  C   UNL A   1      44.793  35.088  32.225  1.00  0.00     0.006 A 
ENDBRANCH  61  78
ENDBRANCH  35  36
ENDBRANCH  27  30
ENDBRANCH  25  26
ENDBRANCH   1  25
TORSDOF 13
ENDMDL
MODEL 3
REMARK VINA RESULT:     -12.1      0.428      6.320
REMARK SMILES COc1cc(C)cc2c1O[C@H](C(F)(F)F)C(C(=O)NCCCCNC(=O)c1ccc(-c3c4nc(c(-c5c(F)cccc5F)c5ccc([nH]5)c(-c5c(F)cccc5F)c5nc(c(-c6c(F)cccc6F)c6ccc3[nH]6)C=C5)C=C4)cc1)=C2
REMARK SMILES IDX 22 1 21 2 20 3 19 4 17 5 18 6 16 8 3 9 4 10 9 11 5 12 8 13
REMARK SMILES IDX 10 14 6 15 7 16 81 17 11 18 2 19 1 20 12 21 13 22 14 23
REMARK SMILES IDX 15 24 23 25 24 26 25 27 26 29 27 30 28 31 80 32 29 33 79 34
REMARK SMILES IDX 30 35 31 36 32 37 73 38 33 39 78 40 72 41 74 42 34 43 77 44
REMARK SMILES IDX 71 45 70 46 35 48 61 49 44 50 60 51 45 52 48 53 59 54 75 55
REMARK SMILES IDX 46 56 47 57 58 59 76 60 49 61 36 62 37 63 42 64 38 65 39 66
REMARK SMILES IDX 41 67 43 68 40 69 62 70 63 71 68 72 64 73 65 74 67 75 69 76
REMARK SMILES IDX 66 77 50 78 51 79 56 80 52 81 53 82 55 83 57 84 54 85
REMARK H PARENT 19 7 24 28 74 47 48 58
REMARK Flexibility Score: inf
ROOT
ATOM      1  C   UNL A   1      31.385  32.110  27.004  1.00  0.00     0.023 C 
ENDROOT
BRANCH   1   2
ATOM      2  C   UNL A   1      31.675  30.713  26.449  1.00  0.00     0.023 C 
BRANCH   2   3
ATOM      3  C   UNL A   1      33.132  30.277  26.578  1.00  0.00     0.116 C 
BRANCH   3   4
ATOM      4  N   UNL A   1      33.644  29.713  25.341  1.00  0.00    -0.352 N 
ATOM      5  C   UNL A   1      33.633  28.505  24.730  1.00  0.00     0.251 C 
ATOM      6  O   UNL A   1      34.225  28.462  23.646  1.00  0.00    -0.270 OA
ATOM      7  H   UNL A   1      34.124  30.387  24.808  1.00  0.00     0.163 HD
BRANCH   5   8
ATOM      8  C   UNL A   1      32.976  27.273  25.261  1.00  0.00     0.067 C 
ATOM      9  C   UNL A   1      31.344  23.762  26.887  1.00  0.00     0.161 A 
ATOM     10  C   UNL A   1      32.088  22.581  26.883  1.00  0.00     0.054 A 
ATOM     11  C   UNL A   1      31.901  24.945  26.395  1.00  0.00     0.169 A 
ATOM     12  C   UNL A   1      33.414  22.588  26.429  1.00  0.00    -0.047 A 
ATOM     13  C   UNL A   1      33.217  24.964  25.934  1.00  0.00     0.021 A 
ATOM     14  O   UNL A   1      31.137  26.078  26.446  1.00  0.00    -0.471 OA
ATOM     15  C   UNL A   1      34.229  21.329  26.420  1.00  0.00     0.044 C 
ATOM     16  C   UNL A   1      33.972  23.787  25.956  1.00  0.00     0.015 A 
ATOM     17  C   UNL A   1      33.790  26.220  25.460  1.00  0.00     0.025 C 
ATOM     18  C   UNL A   1      31.502  27.140  25.526  1.00  0.00     0.314 C 
BRANCH   9  19
ATOM     19  O   UNL A   1      30.031  23.774  27.282  1.00  0.00    -0.493 OA
ATOM     20  C   UNL A   1      29.402  22.513  27.072  1.00  0.00     0.278 C 
ENDBRANCH   9  19
BRANCH  18  21
ATOM     21  C   UNL A   1      30.671  27.007  24.237  1.00  0.00     0.429 C 
ATOM     22  F   UNL A   1      29.571  26.243  24.456  1.00  0.00    -0.167 F 
ATOM     23  F   UNL A   1      30.216  28.205  23.793  1.00  0.00    -0.167 F 
ATOM     24  F   UNL A   1      31.360  26.449  23.219  1.00  0.00    -0.167 F 
ENDBRANCH  18  21
ENDBRANCH   5   8
ENDBRANCH   3   4
ENDBRANCH   2   3
ENDBRANCH   1   2
BRANCH   1  25
ATOM     25  C   UNL A   1      32.479  33.150  26.771  1.00  0.00     0.116 C 
BRANCH  25  26
ATOM     26  N   UNL A   1      32.405  34.309  27.651  1.00  0.00    -0.352 N 
ATOM     27  C   UNL A   1      33.263  34.643  28.677  1.00  0.00     0.251 C 
ATOM     28  H   UNL A   1      31.655  34.926  27.494  1.00  0.00     0.163 HD
ATOM     29  O   UNL A   1      33.053  35.620  29.385  1.00  0.00    -0.269 OA
BRANCH  27  30
ATOM     30  C   UNL A   1      34.410  33.755  28.944  1.00  0.00     0.039 A 
ATOM     31  C   UNL A   1      34.195  32.457  29.411  1.00  0.00     0.014 A 
ATOM     32  C   UNL A   1      35.703  34.277  28.848  1.00  0.00     0.014 A 
ATOM     33  C   UNL A   1      35.257  31.747  29.955  1.00  0.00     0.010 A 
ATOM     34  C   UNL A   1      36.779  33.529  29.329  1.00  0.00     0.010 A 
ATOM     35  C   UNL A   1      36.554  32.288  29.947  1.00  0.00    -0.014 A 
BRANCH  35  36
ATOM     36  C   UNL A   1      37.647  31.564  30.642  1.00  0.00     0.031 A 
ATOM     37  C   UNL A   1      38.505  30.578  29.894  1.00  0.00     0.074 A 
ATOM     38  C   UNL A   1      37.913  31.849  31.929  1.00  0.00     0.049 A 
ATOM     39  N   UNL A   1      39.514  29.865  30.330  1.00  0.00    -0.248 NA
ATOM     40  C   UNL A   1      38.190  30.362  28.473  1.00  0.00     0.031 C 
ATOM     41  C   UNL A   1      37.167  32.801  32.754  1.00  0.00     0.029 A 
ATOM     42  N   UNL A   1      38.901  31.388  32.761  1.00  0.00    -0.354 N 
ATOM     43  C   UNL A   1      39.936  29.101  29.248  1.00  0.00     0.074 A 
ATOM     44  C   UNL A   1      39.062  29.421  28.140  1.00  0.00     0.031 C 
ATOM     45  C   UNL A   1      37.752  32.889  33.957  1.00  0.00     0.029 A 
ATOM     46  C   UNL A   1      38.880  31.964  34.005  1.00  0.00     0.049 A 
ATOM     47  H   UNL A   1      39.561  30.709  32.490  1.00  0.00     0.167 HD
ATOM     48  C   UNL A   1      40.963  28.221  29.180  1.00  0.00     0.037 A 
ATOM     49  C   UNL A   1      39.674  31.763  35.072  1.00  0.00     0.037 A 
ATOM     50  C   UNL A   1      41.852  27.922  30.274  1.00  0.00     0.049 A 
ATOM     51  C   UNL A   1      40.789  30.764  34.978  1.00  0.00     0.074 A 
ATOM     52  C   UNL A   1      42.932  27.057  30.300  1.00  0.00     0.029 A 
ATOM     53  N   UNL A   1      41.764  28.490  31.537  1.00  0.00    -0.354 N 
ATOM     54  N   UNL A   1      41.166  30.040  33.953  1.00  0.00    -0.248 NA
ATOM     55  C   UNL A   1      41.579  30.544  36.197  1.00  0.00     0.031 C 
ATOM     56  C   UNL A   1      43.482  27.080  31.587  1.00  0.00     0.029 A 
ATOM     57  C   UNL A   1      42.763  27.983  32.353  1.00  0.00     0.049 A 
ATOM     58  H   UNL A   1      41.093  29.155  31.811  1.00  0.00     0.167 HD
ATOM     59  C   UNL A   1      42.239  29.283  34.399  1.00  0.00     0.074 A 
ATOM     60  C   UNL A   1      42.467  29.652  35.781  1.00  0.00     0.031 C 
ATOM     61  C   UNL A   1      42.966  28.358  33.728  1.00  0.00     0.037 A 
BRANCH  48  62
ATOM     62  C   UNL A   1      41.173  27.504  27.881  1.00  0.00     0.057 A 
ATOM     63  C   UNL A   1      41.968  28.069  26.874  1.00  0.00     0.134 A 
ATOM     64  C   UNL A   1      40.571  26.268  27.612  1.00  0.00     0.134 A 
ATOM     65  F   UNL A   1      42.571  29.251  27.066  1.00  0.00    -0.206 F 
ATOM     66  C   UNL A   1      42.154  27.430  25.647  1.00  0.00     0.040 A 
ATOM     67  C   UNL A   1      40.765  25.610  26.396  1.00  0.00     0.040 A 
ATOM     68  F   UNL A   1      39.812  25.667  28.541  1.00  0.00    -0.206 F 
ATOM     69  C   UNL A   1      41.556  26.194  25.407  1.00  0.00     0.006 A 
ENDBRANCH  48  62
BRANCH  49  70
ATOM     70  C   UNL A   1      39.433  32.523  36.321  1.00  0.00     0.057 A 
ATOM     71  C   UNL A   1      38.489  32.095  37.261  1.00  0.00     0.134 A 
ATOM     72  C   UNL A   1      40.135  33.700  36.595  1.00  0.00     0.134 A 
ATOM     73  F   UNL A   1      37.783  30.974  37.050  1.00  0.00    -0.206 F 
ATOM     74  C   UNL A   1      38.239  32.820  38.426  1.00  0.00     0.040 A 
ATOM     75  C   UNL A   1      39.911  34.424  37.767  1.00  0.00     0.040 A 
ATOM     76  F   UNL A   1      41.064  34.148  35.738  1.00  0.00    -0.206 F 
ATOM     77  C   UNL A   1      38.957  33.987  38.683  1.00  0.00     0.006 A 
ENDBRANCH  49  70
BRANCH  61  78
ATOM     78  C   UNL A   1      44.075  27.693  34.485  1.00  0.00     0.057 A 
ATOM     79  C   UNL A   1      43.842  26.522  35.216  1.00  0.00     0.134 A 
ATOM     80  C   UNL A   1      45.372  28.219  34.492  1.00  0.00     0.134 A 
ATOM     81  F   UNL A   1      42.619  25.971  35.250  1.00  0.00    -0.206 F 
ATOM     82  C   UNL A   1      44.865  25.895  35.926  1.00  0.00     0.040 A 
ATOM     83  C   UNL A   1      46.408  27.591  35.184  1.00  0.00     0.040 A 
ATOM     84  F   UNL A   1      45.659  29.330  33.797  1.00  0.00    -0.206 F 
ATOM     85  C   UNL A   1      46.154  26.425  35.907  1.00  0.00     0.006 A 
ENDBRANCH  61  78
ENDBRANCH  35  36
ENDBRANCH  27  30
ENDBRANCH  25  26
ENDBRANCH   1  25
TORSDOF 13
ENDMDL
