MODEL 1
REMARK VINA RESULT:     -12.2      0.000      0.000
REMARK SMILES COc1ccc(-c2ccc(CCC(=O)NCCCCNC(=O)c3ccc(-c4c5nc(c(-c6c(F)cccc6F)c6ccc([nH]6)c(-c6c(F)cccc6F)c6nc(c(-c7c(F)cccc7F)c7ccc4[nH]7)C=C6)C=C5)cc3)n2-c2ccc(C(C)=O)cc2)cc1
REMARK SMILES IDX 16 1 15 2 13 3 14 4 12 6 11 7 10 8 7 9 8 10 77 11 9 12 6 13
REMARK SMILES IDX 3 14 4 15 88 16 5 17 87 18 2 19 1 20 78 21 79 22 86 23 80 24
REMARK SMILES IDX 85 25 81 26 82 27 83 28 84 29 17 30 18 31 19 32 20 33 21 34
REMARK SMILES IDX 22 36 23 37 24 38 76 39 25 40 75 41 26 42 27 43 28 44 69 45
REMARK SMILES IDX 29 46 74 47 68 48 70 49 30 50 73 51 67 52 66 53 31 55 57 56
REMARK SMILES IDX 40 57 56 58 41 59 44 60 55 61 71 62 42 63 43 64 54 66 72 67
REMARK SMILES IDX 45 68 32 69 33 70 38 71 34 72 35 73 37 74 39 75 36 76 58 77
REMARK SMILES IDX 59 78 64 79 60 80 61 81 63 82 65 83 62 84 46 85 47 86 52 87
REMARK SMILES IDX 48 88 49 89 51 90 53 91 50 92
REMARK H PARENT 15 5 20 35 70 54 44 65
REMARK Flexibility Score: inf
ROOT
ATOM      1  C   UNL A   1      31.936  27.349  26.219  1.00  0.00     0.116 C 
ENDROOT
BRANCH   1   2
ATOM      2  N   UNL A   1      31.707  26.017  26.745  1.00  0.00    -0.356 N 
ATOM      3  C   UNL A   1      30.816  25.071  26.331  1.00  0.00     0.220 C 
ATOM      4  O   UNL A   1      30.627  24.094  27.058  1.00  0.00    -0.275 OA
ATOM      5  H   UNL A   1      32.276  25.759  27.506  1.00  0.00     0.163 HD
BRANCH   3   6
ATOM      6  C   UNL A   1      30.113  25.194  24.992  1.00  0.00     0.106 C 
BRANCH   6   7
ATOM      7  C   UNL A   1      30.600  24.184  23.952  1.00  0.00     0.064 C 
BRANCH   7   8
ATOM      8  C   UNL A   1      32.074  24.275  23.651  1.00  0.00     0.024 A 
ATOM      9  C   UNL A   1      34.283  24.011  24.022  1.00  0.00     0.053 A 
ATOM     10  C   UNL A   1      34.119  24.956  23.017  1.00  0.00     0.029 A 
ATOM     11  N   UNL A   1      33.036  23.401  24.164  1.00  0.00    -0.314 N 
ATOM     12  C   UNL A   1      32.736  25.110  22.774  1.00  0.00     0.024 A 
BRANCH   9  13
ATOM     13  C   UNL A   1      35.549  23.547  24.589  1.00  0.00    -0.001 A 
ATOM     14  C   UNL A   1      38.056  22.728  25.557  1.00  0.00     0.118 A 
ATOM     15  C   UNL A   1      37.488  22.097  24.450  1.00  0.00     0.047 A 
ATOM     16  C   UNL A   1      37.388  23.791  26.165  1.00  0.00     0.047 A 
ATOM     17  C   UNL A   1      36.239  22.499  23.973  1.00  0.00     0.014 A 
ATOM     18  C   UNL A   1      36.136  24.200  25.681  1.00  0.00     0.014 A 
BRANCH  14  19
ATOM     19  O   UNL A   1      39.299  22.283  25.917  1.00  0.00    -0.497 OA
ATOM     20  C   UNL A   1      39.404  20.869  26.043  1.00  0.00     0.278 C 
ENDBRANCH  14  19
ENDBRANCH   9  13
BRANCH  11  21
ATOM     21  C   UNL A   1      32.835  22.005  24.319  1.00  0.00     0.046 A 
ATOM     22  C   UNL A   1      32.480  21.292  23.166  1.00  0.00     0.027 A 
ATOM     23  C   UNL A   1      33.101  21.335  25.509  1.00  0.00     0.027 A 
ATOM     24  C   UNL A   1      32.385  19.906  23.194  1.00  0.00     0.014 A 
ATOM     25  C   UNL A   1      32.977  19.939  25.537  1.00  0.00     0.014 A 
ATOM     26  C   UNL A   1      32.629  19.214  24.381  1.00  0.00     0.017 A 
BRANCH  26  27
ATOM     27  C   UNL A   1      32.544  17.724  24.468  1.00  0.00     0.159 C 
ATOM     28  C   UNL A   1      33.473  16.843  23.667  1.00  0.00     0.093 C 
ATOM     29  O   UNL A   1      31.708  17.215  25.216  1.00  0.00    -0.295 OA
ENDBRANCH  26  27
ENDBRANCH  11  21
ENDBRANCH   7   8
ENDBRANCH   6   7
ENDBRANCH   3   6
ENDBRANCH   1   2
BRANCH   1  30
ATOM     30  C   UNL A   1      33.337  27.449  25.623  1.00  0.00     0.023 C 
BRANCH  30  31
ATOM     31  C   UNL A   1      34.209  28.610  26.087  1.00  0.00     0.023 C 
BRANCH  31  32
ATOM     32  C   UNL A   1      34.029  28.944  27.561  1.00  0.00     0.116 C 
BRANCH  32  33
ATOM     33  N   UNL A   1      34.341  30.337  27.853  1.00  0.00    -0.352 N 
ATOM     34  C   UNL A   1      35.457  30.843  28.482  1.00  0.00     0.251 C 
ATOM     35  H   UNL A   1      33.672  30.998  27.566  1.00  0.00     0.163 HD
ATOM     36  O   UNL A   1      35.477  31.975  28.926  1.00  0.00    -0.269 OA
BRANCH  34  37
ATOM     37  C   UNL A   1      36.632  29.969  28.637  1.00  0.00     0.039 A 
ATOM     38  C   UNL A   1      37.619  29.996  27.649  1.00  0.00     0.014 A 
ATOM     39  C   UNL A   1      36.758  29.160  29.770  1.00  0.00     0.014 A 
ATOM     40  C   UNL A   1      38.792  29.279  27.850  1.00  0.00     0.010 A 
ATOM     41  C   UNL A   1      37.942  28.479  29.995  1.00  0.00     0.010 A 
ATOM     42  C   UNL A   1      38.967  28.565  29.045  1.00  0.00    -0.014 A 
BRANCH  42  43
ATOM     43  C   UNL A   1      40.322  28.075  29.379  1.00  0.00     0.031 A 
ATOM     44  C   UNL A   1      40.674  26.809  28.548  1.00  0.00     0.074 A 
ATOM     45  C   UNL A   1      40.987  28.788  30.338  1.00  0.00     0.049 A 
ATOM     46  N   UNL A   1      41.392  25.761  28.833  1.00  0.00    -0.248 NA
ATOM     47  C   UNL A   1      40.034  26.662  27.205  1.00  0.00     0.031 C 
ATOM     48  C   UNL A   1      40.488  30.026  30.980  1.00  0.00     0.029 A 
ATOM     49  N   UNL A   1      42.195  28.634  30.976  1.00  0.00    -0.354 N 
ATOM     50  C   UNL A   1      41.436  24.942  27.673  1.00  0.00     0.074 A 
ATOM     51  C   UNL A   1      40.480  25.486  26.759  1.00  0.00     0.031 C 
ATOM     52  C   UNL A   1      41.322  30.440  31.957  1.00  0.00     0.029 A 
ATOM     53  C   UNL A   1      42.429  29.517  32.067  1.00  0.00     0.049 A 
ATOM     54  H   UNL A   1      42.854  27.958  30.697  1.00  0.00     0.167 HD
ATOM     55  C   UNL A   1      42.372  23.967  27.466  1.00  0.00     0.037 A 
ATOM     56  C   UNL A   1      43.388  29.440  33.047  1.00  0.00     0.037 A 
ATOM     57  C   UNL A   1      43.257  23.887  28.576  1.00  0.00     0.049 A 
ATOM     58  C   UNL A   1      44.136  28.222  32.708  1.00  0.00     0.074 A 
ATOM     59  C   UNL A   1      43.352  23.172  29.741  1.00  0.00     0.029 A 
ATOM     60  N   UNL A   1      44.281  24.793  28.545  1.00  0.00    -0.354 N 
ATOM     61  N   UNL A   1      44.966  28.107  31.721  1.00  0.00    -0.248 NA
ATOM     62  C   UNL A   1      43.678  26.987  33.336  1.00  0.00     0.031 C 
ATOM     63  C   UNL A   1      44.370  23.812  30.493  1.00  0.00     0.029 A 
ATOM     64  C   UNL A   1      44.689  24.996  29.831  1.00  0.00     0.049 A 
ATOM     65  H   UNL A   1      44.656  25.219  27.741  1.00  0.00     0.167 HD
ATOM     66  C   UNL A   1      44.924  26.764  31.415  1.00  0.00     0.074 A 
ATOM     67  C   UNL A   1      44.199  26.107  32.492  1.00  0.00     0.031 C 
ATOM     68  C   UNL A   1      45.158  26.312  30.159  1.00  0.00     0.037 A 
BRANCH  55  69
ATOM     69  C   UNL A   1      42.852  23.250  26.211  1.00  0.00     0.057 A 
ATOM     70  C   UNL A   1      43.089  21.851  26.292  1.00  0.00     0.134 A 
ATOM     71  C   UNL A   1      43.458  23.886  25.121  1.00  0.00     0.134 A 
ATOM     72  F   UNL A   1      42.504  21.104  27.242  1.00  0.00    -0.206 F 
ATOM     73  C   UNL A   1      43.996  21.179  25.466  1.00  0.00     0.040 A 
ATOM     74  C   UNL A   1      44.324  23.206  24.245  1.00  0.00     0.040 A 
ATOM     75  F   UNL A   1      43.314  25.201  24.908  1.00  0.00    -0.206 F 
ATOM     76  C   UNL A   1      44.637  21.865  24.448  1.00  0.00     0.006 A 
ENDBRANCH  55  69
BRANCH  56  77
ATOM     77  C   UNL A   1      43.659  30.072  34.390  1.00  0.00     0.057 A 
ATOM     78  C   UNL A   1      44.774  30.844  34.724  1.00  0.00     0.134 A 
ATOM     79  C   UNL A   1      42.704  29.958  35.439  1.00  0.00     0.134 A 
ATOM     80  F   UNL A   1      45.831  30.927  33.908  1.00  0.00    -0.206 F 
ATOM     81  C   UNL A   1      44.867  31.552  35.941  1.00  0.00     0.040 A 
ATOM     82  C   UNL A   1      42.766  30.677  36.637  1.00  0.00     0.040 A 
ATOM     83  F   UNL A   1      41.646  29.141  35.344  1.00  0.00    -0.206 F 
ATOM     84  C   UNL A   1      43.845  31.503  36.884  1.00  0.00     0.006 A 
ENDBRANCH  56  77
BRANCH  68  85
ATOM     85  C   UNL A   1      45.478  27.406  29.155  1.00  0.00     0.057 A 
ATOM     86  C   UNL A   1      46.756  27.954  29.063  1.00  0.00     0.134 A 
ATOM     87  C   UNL A   1      44.494  28.022  28.354  1.00  0.00     0.134 A 
ATOM     88  F   UNL A   1      47.760  27.445  29.788  1.00  0.00    -0.206 F 
ATOM     89  C   UNL A   1      47.034  29.047  28.225  1.00  0.00     0.040 A 
ATOM     90  C   UNL A   1      44.754  29.103  27.506  1.00  0.00     0.040 A 
ATOM     91  F   UNL A   1      43.237  27.577  28.360  1.00  0.00    -0.206 F 
ATOM     92  C   UNL A   1      46.035  29.626  27.445  1.00  0.00     0.006 A 
ENDBRANCH  68  85
ENDBRANCH  42  43
ENDBRANCH  34  37
ENDBRANCH  32  33
ENDBRANCH  31  32
ENDBRANCH  30  31
ENDBRANCH   1  30
TORSDOF 17
ENDMDL
MODEL 2
REMARK VINA RESULT:     -12.2      1.310      3.168
REMARK SMILES COc1ccc(-c2ccc(CCC(=O)NCCCCNC(=O)c3ccc(-c4c5nc(c(-c6c(F)cccc6F)c6ccc([nH]6)c(-c6c(F)cccc6F)c6nc(c(-c7c(F)cccc7F)c7ccc4[nH]7)C=C6)C=C5)cc3)n2-c2ccc(C(C)=O)cc2)cc1
REMARK SMILES IDX 16 1 15 2 13 3 14 4 12 6 11 7 10 8 7 9 8 10 77 11 9 12 6 13
REMARK SMILES IDX 3 14 4 15 88 16 5 17 87 18 2 19 1 20 78 21 79 22 86 23 80 24
REMARK SMILES IDX 85 25 81 26 82 27 83 28 84 29 17 30 18 31 19 32 20 33 21 34
REMARK SMILES IDX 22 36 23 37 24 38 76 39 25 40 75 41 26 42 27 43 28 44 69 45
REMARK SMILES IDX 29 46 74 47 68 48 70 49 30 50 73 51 67 52 66 53 31 55 57 56
REMARK SMILES IDX 40 57 56 58 41 59 44 60 55 61 71 62 42 63 43 64 54 66 72 67
REMARK SMILES IDX 45 68 32 69 33 70 38 71 34 72 35 73 37 74 39 75 36 76 58 77
REMARK SMILES IDX 59 78 64 79 60 80 61 81 63 82 65 83 62 84 46 85 47 86 52 87
REMARK SMILES IDX 48 88 49 89 51 90 53 91 50 92
REMARK H PARENT 15 5 20 35 70 54 44 65
REMARK Flexibility Score: inf
ROOT
ATOM      1  C   UNL A   1      32.460  29.313  24.640  1.00  0.00     0.116 C 
ENDROOT
BRANCH   1   2
ATOM      2  N   UNL A   1      33.328  29.302  23.478  1.00  0.00    -0.356 N 
ATOM      3  C   UNL A   1      33.476  28.337  22.525  1.00  0.00     0.220 C 
ATOM      4  O   UNL A   1      34.431  28.427  21.752  1.00  0.00    -0.275 OA
ATOM      5  H   UNL A   1      33.888  30.102  23.361  1.00  0.00     0.163 HD
BRANCH   3   6
ATOM      6  C   UNL A   1      32.467  27.212  22.391  1.00  0.00     0.106 C 
BRANCH   6   7
ATOM      7  C   UNL A   1      33.105  25.852  22.099  1.00  0.00     0.064 C 
BRANCH   7   8
ATOM      8  C   UNL A   1      32.390  24.689  22.737  1.00  0.00     0.024 A 
ATOM      9  C   UNL A   1      32.049  22.538  23.325  1.00  0.00     0.053 A 
ATOM     10  C   UNL A   1      30.846  23.222  23.452  1.00  0.00     0.029 A 
ATOM     11  N   UNL A   1      33.024  23.528  23.186  1.00  0.00    -0.314 N 
ATOM     12  C   UNL A   1      31.063  24.572  23.098  1.00  0.00     0.024 A 
BRANCH   9  13
ATOM     13  C   UNL A   1      32.281  21.118  23.588  1.00  0.00    -0.001 A 
ATOM     14  C   UNL A   1      32.578  18.382  24.151  1.00  0.00     0.118 A 
ATOM     15  C   UNL A   1      32.627  19.322  25.180  1.00  0.00     0.047 A 
ATOM     16  C   UNL A   1      32.349  18.802  22.841  1.00  0.00     0.047 A 
ATOM     17  C   UNL A   1      32.487  20.683  24.900  1.00  0.00     0.014 A 
ATOM     18  C   UNL A   1      32.200  20.169  22.560  1.00  0.00     0.014 A 
BRANCH  14  19
ATOM     19  O   UNL A   1      32.687  17.075  24.539  1.00  0.00    -0.497 OA
ATOM     20  C   UNL A   1      34.013  16.560  24.504  1.00  0.00     0.278 C 
ENDBRANCH  14  19
ENDBRANCH   9  13
BRANCH  11  21
ATOM     21  C   UNL A   1      34.284  23.515  23.838  1.00  0.00     0.046 A 
ATOM     22  C   UNL A   1      34.294  23.893  25.187  1.00  0.00     0.027 A 
ATOM     23  C   UNL A   1      35.439  23.028  23.234  1.00  0.00     0.027 A 
ATOM     24  C   UNL A   1      35.457  23.791  25.941  1.00  0.00     0.014 A 
ATOM     25  C   UNL A   1      36.615  22.954  23.992  1.00  0.00     0.014 A 
ATOM     26  C   UNL A   1      36.632  23.323  25.352  1.00  0.00     0.017 A 
BRANCH  26  27
ATOM     27  C   UNL A   1      37.910  23.191  26.114  1.00  0.00     0.159 C 
ATOM     28  C   UNL A   1      38.828  22.011  25.897  1.00  0.00     0.093 C 
ATOM     29  O   UNL A   1      38.218  24.068  26.923  1.00  0.00    -0.295 OA
ENDBRANCH  26  27
ENDBRANCH  11  21
ENDBRANCH   7   8
ENDBRANCH   6   7
ENDBRANCH   3   6
ENDBRANCH   1   2
BRANCH   1  30
ATOM     30  C   UNL A   1      32.959  28.319  25.683  1.00  0.00     0.023 C 
BRANCH  30  31
ATOM     31  C   UNL A   1      34.376  28.517  26.210  1.00  0.00     0.023 C 
BRANCH  31  32
ATOM     32  C   UNL A   1      34.419  29.106  27.612  1.00  0.00     0.116 C 
BRANCH  32  33
ATOM     33  N   UNL A   1      34.878  30.489  27.615  1.00  0.00    -0.352 N 
ATOM     34  C   UNL A   1      36.098  30.977  28.030  1.00  0.00     0.251 C 
ATOM     35  H   UNL A   1      34.238  31.157  27.280  1.00  0.00     0.163 HD
ATOM     36  O   UNL A   1      36.264  32.160  28.257  1.00  0.00    -0.269 OA
BRANCH  34  37
ATOM     37  C   UNL A   1      37.205  30.026  28.224  1.00  0.00     0.039 A 
ATOM     38  C   UNL A   1      38.244  30.011  27.291  1.00  0.00     0.014 A 
ATOM     39  C   UNL A   1      37.219  29.186  29.342  1.00  0.00     0.014 A 
ATOM     40  C   UNL A   1      39.357  29.217  27.535  1.00  0.00     0.010 A 
ATOM     41  C   UNL A   1      38.343  28.427  29.612  1.00  0.00     0.010 A 
ATOM     42  C   UNL A   1      39.421  28.467  28.720  1.00  0.00    -0.014 A 
BRANCH  42  43
ATOM     43  C   UNL A   1      40.722  27.883  29.112  1.00  0.00     0.031 A 
ATOM     44  C   UNL A   1      41.051  26.632  28.250  1.00  0.00     0.074 A 
ATOM     45  C   UNL A   1      41.367  28.517  30.138  1.00  0.00     0.049 A 
ATOM     46  N   UNL A   1      41.689  25.533  28.532  1.00  0.00    -0.248 NA
ATOM     47  C   UNL A   1      40.489  26.577  26.867  1.00  0.00     0.031 C 
ATOM     48  C   UNL A   1      40.901  29.757  30.802  1.00  0.00     0.029 A 
ATOM     49  N   UNL A   1      42.522  28.266  30.839  1.00  0.00    -0.354 N 
ATOM     50  C   UNL A   1      41.757  24.759  27.343  1.00  0.00     0.074 A 
ATOM     51  C   UNL A   1      40.893  25.395  26.397  1.00  0.00     0.031 C 
ATOM     52  C   UNL A   1      41.696  30.082  31.844  1.00  0.00     0.029 A 
ATOM     53  C   UNL A   1      42.739  29.090  31.980  1.00  0.00     0.049 A 
ATOM     54  H   UNL A   1      43.158  27.563  30.571  1.00  0.00     0.167 HD
ATOM     55  C   UNL A   1      42.647  23.738  27.150  1.00  0.00     0.037 A 
ATOM     56  C   UNL A   1      43.630  28.917  33.010  1.00  0.00     0.037 A 
ATOM     57  C   UNL A   1      43.455  23.561  28.306  1.00  0.00     0.049 A 
ATOM     58  C   UNL A   1      44.327  27.671  32.664  1.00  0.00     0.074 A 
ATOM     59  C   UNL A   1      43.437  22.797  29.443  1.00  0.00     0.029 A 
ATOM     60  N   UNL A   1      44.530  24.405  28.374  1.00  0.00    -0.354 N 
ATOM     61  N   UNL A   1      45.207  27.545  31.725  1.00  0.00    -0.248 NA
ATOM     62  C   UNL A   1      43.760  26.442  33.211  1.00  0.00     0.031 C 
ATOM     63  C   UNL A   1      44.443  23.345  30.281  1.00  0.00     0.029 A 
ATOM     64  C   UNL A   1      44.869  24.532  29.690  1.00  0.00     0.049 A 
ATOM     65  H   UNL A   1      44.977  24.839  27.613  1.00  0.00     0.167 HD
ATOM     66  C   UNL A   1      45.107  26.220  31.359  1.00  0.00     0.074 A 
ATOM     67  C   UNL A   1      44.280  25.565  32.362  1.00  0.00     0.031 C 
ATOM     68  C   UNL A   1      45.391  25.804  30.101  1.00  0.00     0.037 A 
BRANCH  55  69
ATOM     69  C   UNL A   1      43.161  23.043  25.896  1.00  0.00     0.057 A 
ATOM     70  C   UNL A   1      43.255  21.625  25.911  1.00  0.00     0.134 A 
ATOM     71  C   UNL A   1      43.916  23.671  24.898  1.00  0.00     0.134 A 
ATOM     72  F   UNL A   1      42.522  20.892  26.763  1.00  0.00    -0.206 F 
ATOM     73  C   UNL A   1      44.160  20.910  25.120  1.00  0.00     0.040 A 
ATOM     74  C   UNL A   1      44.785  22.954  24.055  1.00  0.00     0.040 A 
ATOM     75  F   UNL A   1      43.919  25.003  24.755  1.00  0.00    -0.206 F 
ATOM     76  C   UNL A   1      44.949  21.580  24.200  1.00  0.00     0.006 A 
ENDBRANCH  55  69
BRANCH  56  77
ATOM     77  C   UNL A   1      43.853  29.478  34.392  1.00  0.00     0.057 A 
ATOM     78  C   UNL A   1      45.018  30.103  34.847  1.00  0.00     0.134 A 
ATOM     79  C   UNL A   1      42.803  29.454  35.353  1.00  0.00     0.134 A 
ATOM     80  F   UNL A   1      46.145  30.078  34.127  1.00  0.00    -0.206 F 
ATOM     81  C   UNL A   1      45.085  30.764  36.091  1.00  0.00     0.040 A 
ATOM     82  C   UNL A   1      42.843  30.131  36.576  1.00  0.00     0.040 A 
ATOM     83  F   UNL A   1      41.668  28.772  35.139  1.00  0.00    -0.206 F 
ATOM     84  C   UNL A   1      43.985  30.815  36.943  1.00  0.00     0.006 A 
ENDBRANCH  56  77
BRANCH  68  85
ATOM     85  C   UNL A   1      45.836  26.915  29.166  1.00  0.00     0.057 A 
ATOM     86  C   UNL A   1      47.147  27.388  29.172  1.00  0.00     0.134 A 
ATOM     87  C   UNL A   1      44.939  27.621  28.336  1.00  0.00     0.134 A 
ATOM     88  F   UNL A   1      48.074  26.790  29.932  1.00  0.00    -0.206 F 
ATOM     89  C   UNL A   1      47.539  28.494  28.400  1.00  0.00     0.040 A 
ATOM     90  C   UNL A   1      45.314  28.717  27.552  1.00  0.00     0.040 A 
ATOM     91  F   UNL A   1      43.661  27.254  28.249  1.00  0.00    -0.206 F 
ATOM     92  C   UNL A   1      46.624  29.163  27.588  1.00  0.00     0.006 A 
ENDBRANCH  68  85
ENDBRANCH  42  43
ENDBRANCH  34  37
ENDBRANCH  32  33
ENDBRANCH  31  32
ENDBRANCH  30  31
ENDBRANCH   1  30
TORSDOF 17
ENDMDL
MODEL 3
REMARK VINA RESULT:     -12.0      1.786      6.438
REMARK SMILES COc1ccc(-c2ccc(CCC(=O)NCCCCNC(=O)c3ccc(-c4c5nc(c(-c6c(F)cccc6F)c6ccc([nH]6)c(-c6c(F)cccc6F)c6nc(c(-c7c(F)cccc7F)c7ccc4[nH]7)C=C6)C=C5)cc3)n2-c2ccc(C(C)=O)cc2)cc1
REMARK SMILES IDX 16 1 15 2 13 3 14 4 12 6 11 7 10 8 7 9 8 10 77 11 9 12 6 13
REMARK SMILES IDX 3 14 4 15 88 16 5 17 87 18 2 19 1 20 78 21 79 22 86 23 80 24
REMARK SMILES IDX 85 25 81 26 82 27 83 28 84 29 17 30 18 31 19 32 20 33 21 34
REMARK SMILES IDX 22 36 23 37 24 38 76 39 25 40 75 41 26 42 27 43 28 44 69 45
REMARK SMILES IDX 29 46 74 47 68 48 70 49 30 50 73 51 67 52 66 53 31 55 57 56
REMARK SMILES IDX 40 57 56 58 41 59 44 60 55 61 71 62 42 63 43 64 54 66 72 67
REMARK SMILES IDX 45 68 32 69 33 70 38 71 34 72 35 73 37 74 39 75 36 76 58 77
REMARK SMILES IDX 59 78 64 79 60 80 61 81 63 82 65 83 62 84 46 85 47 86 52 87
REMARK SMILES IDX 48 88 49 89 51 90 53 91 50 92
REMARK H PARENT 15 5 20 35 70 54 44 65
REMARK Flexibility Score: inf
ROOT
ATOM      1  C   UNL A   1      31.386  27.703  26.062  1.00  0.00     0.116 C 
ENDROOT
BRANCH   1   2
ATOM      2  N   UNL A   1      31.034  26.376  26.532  1.00  0.00    -0.356 N 
ATOM      3  C   UNL A   1      30.201  25.457  25.966  1.00  0.00     0.220 C 
ATOM      4  O   UNL A   1      29.863  24.485  26.643  1.00  0.00    -0.275 OA
ATOM      5  H   UNL A   1      31.456  26.102  27.378  1.00  0.00     0.163 HD
BRANCH   3   6
ATOM      6  C   UNL A   1      29.741  25.602  24.527  1.00  0.00     0.106 C 
BRANCH   6   7
ATOM      7  C   UNL A   1      30.324  24.543  23.590  1.00  0.00     0.064 C 
BRANCH   7   8
ATOM      8  C   UNL A   1      31.811  24.664  23.376  1.00  0.00     0.024 A 
ATOM      9  C   UNL A   1      33.999  24.431  23.868  1.00  0.00     0.053 A 
ATOM     10  C   UNL A   1      33.875  25.390  22.871  1.00  0.00     0.029 A 
ATOM     11  N   UNL A   1      32.757  23.797  23.928  1.00  0.00    -0.314 N 
ATOM     12  C   UNL A   1      32.506  25.526  22.552  1.00  0.00     0.024 A 
BRANCH   9  13
ATOM     13  C   UNL A   1      35.239  23.978  24.498  1.00  0.00    -0.001 A 
ATOM     14  C   UNL A   1      37.700  23.208  25.613  1.00  0.00     0.118 A 
ATOM     15  C   UNL A   1      37.326  22.752  24.350  1.00  0.00     0.047 A 
ATOM     16  C   UNL A   1      36.860  24.076  26.311  1.00  0.00     0.047 A 
ATOM     17  C   UNL A   1      36.100  23.128  23.797  1.00  0.00     0.014 A 
ATOM     18  C   UNL A   1      35.631  24.460  25.754  1.00  0.00     0.014 A 
BRANCH  14  19
ATOM     19  O   UNL A   1      38.937  22.812  26.042  1.00  0.00    -0.497 OA
ATOM     20  C   UNL A   1      39.193  21.419  25.892  1.00  0.00     0.278 C 
ENDBRANCH  14  19
ENDBRANCH   9  13
BRANCH  11  21
ATOM     21  C   UNL A   1      32.572  22.396  24.048  1.00  0.00     0.046 A 
ATOM     22  C   UNL A   1      32.482  21.672  22.852  1.00  0.00     0.027 A 
ATOM     23  C   UNL A   1      32.612  21.734  25.271  1.00  0.00     0.027 A 
ATOM     24  C   UNL A   1      32.427  20.284  22.868  1.00  0.00     0.014 A 
ATOM     25  C   UNL A   1      32.529  20.335  25.282  1.00  0.00     0.014 A 
ATOM     26  C   UNL A   1      32.446  19.599  24.084  1.00  0.00     0.017 A 
BRANCH  26  27
ATOM     27  C   UNL A   1      32.392  18.107  24.162  1.00  0.00     0.159 C 
ATOM     28  C   UNL A   1      32.991  17.249  23.073  1.00  0.00     0.093 C 
ATOM     29  O   UNL A   1      31.858  17.578  25.138  1.00  0.00    -0.295 OA
ENDBRANCH  26  27
ENDBRANCH  11  21
ENDBRANCH   7   8
ENDBRANCH   6   7
ENDBRANCH   3   6
ENDBRANCH   1   2
BRANCH   1  30
ATOM     30  C   UNL A   1      32.817  27.714  25.534  1.00  0.00     0.023 C 
BRANCH  30  31
ATOM     31  C   UNL A   1      33.780  28.719  26.156  1.00  0.00     0.023 C 
BRANCH  31  32
ATOM     32  C   UNL A   1      33.405  29.108  27.578  1.00  0.00     0.116 C 
BRANCH  32  33
ATOM     33  N   UNL A   1      33.597  30.530  27.830  1.00  0.00    -0.352 N 
ATOM     34  C   UNL A   1      34.680  31.151  28.412  1.00  0.00     0.251 C 
ATOM     35  H   UNL A   1      32.862  31.121  27.549  1.00  0.00     0.163 HD
ATOM     36  O   UNL A   1      34.609  32.291  28.830  1.00  0.00    -0.269 OA
BRANCH  34  37
ATOM     37  C   UNL A   1      35.934  30.391  28.550  1.00  0.00     0.039 A 
ATOM     38  C   UNL A   1      36.806  30.339  27.461  1.00  0.00     0.014 A 
ATOM     39  C   UNL A   1      36.245  29.769  29.763  1.00  0.00     0.014 A 
ATOM     40  C   UNL A   1      38.049  29.741  27.622  1.00  0.00     0.010 A 
ATOM     41  C   UNL A   1      37.499  29.210  29.941  1.00  0.00     0.010 A 
ATOM     42  C   UNL A   1      38.408  29.224  28.877  1.00  0.00    -0.014 A 
BRANCH  42  43
ATOM     43  C   UNL A   1      39.826  28.882  29.117  1.00  0.00     0.031 A 
ATOM     44  C   UNL A   1      40.616  30.120  29.627  1.00  0.00     0.074 A 
ATOM     45  C   UNL A   1      40.176  27.590  28.839  1.00  0.00     0.049 A 
ATOM     46  N   UNL A   1      41.851  30.491  29.447  1.00  0.00    -0.248 NA
ATOM     47  C   UNL A   1      39.860  31.156  30.394  1.00  0.00     0.031 C 
ATOM     48  C   UNL A   1      39.239  26.527  28.407  1.00  0.00     0.029 A 
ATOM     49  N   UNL A   1      41.365  26.899  28.849  1.00  0.00    -0.354 N 
ATOM     50  C   UNL A   1      42.060  31.673  30.205  1.00  0.00     0.074 A 
ATOM     51  C   UNL A   1      40.770  32.097  30.655  1.00  0.00     0.031 C 
ATOM     52  C   UNL A   1      39.897  25.386  28.112  1.00  0.00     0.029 A 
ATOM     53  C   UNL A   1      41.316  25.587  28.299  1.00  0.00     0.049 A 
ATOM     54  H   UNL A   1      42.194  27.286  29.212  1.00  0.00     0.167 HD
ATOM     55  C   UNL A   1      43.295  32.141  30.560  1.00  0.00     0.037 A 
ATOM     56  C   UNL A   1      42.356  24.772  27.926  1.00  0.00     0.037 A 
ATOM     57  C   UNL A   1      44.313  31.294  30.042  1.00  0.00     0.049 A 
ATOM     58  C   UNL A   1      43.552  25.568  28.232  1.00  0.00     0.074 A 
ATOM     59  C   UNL A   1      45.099  31.229  28.922  1.00  0.00     0.029 A 
ATOM     60  N   UNL A   1      44.575  30.195  30.813  1.00  0.00    -0.354 N 
ATOM     61  N   UNL A   1      44.008  25.803  29.420  1.00  0.00    -0.248 NA
ATOM     62  C   UNL A   1      44.072  26.394  27.147  1.00  0.00     0.031 C 
ATOM     63  C   UNL A   1      45.712  29.950  28.965  1.00  0.00     0.029 A 
ATOM     64  C   UNL A   1      45.105  29.237  29.996  1.00  0.00     0.049 A 
ATOM     65  H   UNL A   1      44.412  30.111  31.779  1.00  0.00     0.167 HD
ATOM     66  C   UNL A   1      44.672  27.003  29.283  1.00  0.00     0.074 A 
ATOM     67  C   UNL A   1      44.767  27.273  27.856  1.00  0.00     0.031 C 
ATOM     68  C   UNL A   1      44.791  27.874  30.314  1.00  0.00     0.037 A 
BRANCH  55  69
ATOM     69  C   UNL A   1      43.758  33.115  31.636  1.00  0.00     0.057 A 
ATOM     70  C   UNL A   1      43.431  32.820  32.987  1.00  0.00     0.134 A 
ATOM     71  C   UNL A   1      44.115  34.447  31.395  1.00  0.00     0.134 A 
ATOM     72  F   UNL A   1      43.148  31.566  33.372  1.00  0.00    -0.206 F 
ATOM     73  C   UNL A   1      43.295  33.802  33.973  1.00  0.00     0.040 A 
ATOM     74  C   UNL A   1      44.041  35.433  32.396  1.00  0.00     0.040 A 
ATOM     75  F   UNL A   1      44.459  34.870  30.172  1.00  0.00    -0.206 F 
ATOM     76  C   UNL A   1      43.580  35.123  33.672  1.00  0.00     0.006 A 
ENDBRANCH  55  69
BRANCH  56  77
ATOM     77  C   UNL A   1      42.547  23.514  27.116  1.00  0.00     0.057 A 
ATOM     78  C   UNL A   1      42.932  23.451  25.774  1.00  0.00     0.134 A 
ATOM     79  C   UNL A   1      42.393  22.238  27.728  1.00  0.00     0.134 A 
ATOM     80  F   UNL A   1      42.975  24.550  25.012  1.00  0.00    -0.206 F 
ATOM     81  C   UNL A   1      43.267  22.237  25.138  1.00  0.00     0.040 A 
ATOM     82  C   UNL A   1      42.750  21.029  27.122  1.00  0.00     0.040 A 
ATOM     83  F   UNL A   1      41.891  22.106  28.964  1.00  0.00    -0.206 F 
ATOM     84  C   UNL A   1      43.215  21.026  25.822  1.00  0.00     0.006 A 
ENDBRANCH  56  77
BRANCH  68  85
ATOM     85  C   UNL A   1      44.149  27.398  31.606  1.00  0.00     0.057 A 
ATOM     86  C   UNL A   1      42.897  27.859  32.007  1.00  0.00     0.134 A 
ATOM     87  C   UNL A   1      44.820  26.575  32.535  1.00  0.00     0.134 A 
ATOM     88  F   UNL A   1      42.182  28.652  31.198  1.00  0.00    -0.206 F 
ATOM     89  C   UNL A   1      42.348  27.520  33.255  1.00  0.00     0.040 A 
ATOM     90  C   UNL A   1      44.285  26.219  33.777  1.00  0.00     0.040 A 
ATOM     91  F   UNL A   1      46.023  26.074  32.256  1.00  0.00    -0.206 F 
ATOM     92  C   UNL A   1      43.040  26.700  34.145  1.00  0.00     0.006 A 
ENDBRANCH  68  85
ENDBRANCH  42  43
ENDBRANCH  34  37
ENDBRANCH  32  33
ENDBRANCH  31  32
ENDBRANCH  30  31
ENDBRANCH   1  30
TORSDOF 17
ENDMDL
