MODEL 1
REMARK VINA RESULT:     -12.6      0.000      0.000
REMARK SMILES O=C(NCCCCNC(=O)c1c[nH]c(=O)c(-c2cccc([N+](=O)[O-])c2)c1)c1ccc(-c2c3nc(c(-c4c(F)cccc4F)c4ccc([nH]4)c(-c4c(F)cccc4F)c4nc(c(-c5c(F)cccc5F)c5ccc2[nH]5)C=C4)C=C3)cc1
REMARK SMILES IDX 5 1 4 2 3 3 1 4 2 5 27 7 28 8 80 9 29 10 79 11 30 12 31 13
REMARK SMILES IDX 32 14 73 15 33 16 78 17 72 18 74 19 34 20 77 21 71 22 70 23
REMARK SMILES IDX 35 25 61 26 44 27 60 28 45 29 48 30 59 31 75 32 46 33 47 34
REMARK SMILES IDX 58 36 76 37 49 38 36 39 37 40 42 41 38 42 39 43 41 44 43 45
REMARK SMILES IDX 40 46 62 47 63 48 68 49 64 50 65 51 67 52 69 53 66 54 50 55
REMARK SMILES IDX 51 56 56 57 52 58 53 59 55 60 57 61 54 62 6 63 7 64 8 65
REMARK SMILES IDX 9 66 10 68 11 69 12 70 26 71 13 72 16 73 14 74 15 76 17 77
REMARK SMILES IDX 18 78 25 79 19 80 21 81 20 82 22 83 23 84 24 85
REMARK H PARENT 3 6 74 24 48 35 8 67 13 75
REMARK Flexibility Score: inf
ROOT
ATOM      1  C   UNL A   1      31.751  29.479  26.926  1.00  0.00     0.023 C 
ENDROOT
BRANCH   1   2
ATOM      2  C   UNL A   1      32.537  30.541  26.169  1.00  0.00     0.116 C 
BRANCH   2   3
ATOM      3  N   UNL A   1      32.240  31.901  26.594  1.00  0.00    -0.352 N 
ATOM      4  O   UNL A   1      32.512  33.810  27.774  1.00  0.00    -0.269 OA
ATOM      5  C   UNL A   1      32.957  32.716  27.441  1.00  0.00     0.251 C 
ATOM      6  H   UNL A   1      31.415  32.291  26.225  1.00  0.00     0.163 HD
BRANCH   5   7
ATOM      7  C   UNL A   1      34.254  32.249  27.978  1.00  0.00     0.039 A 
ATOM      8  C   UNL A   1      34.385  30.953  28.475  1.00  0.00     0.014 A 
ATOM      9  C   UNL A   1      35.338  33.131  28.019  1.00  0.00     0.014 A 
ATOM     10  C   UNL A   1      35.535  30.598  29.168  1.00  0.00     0.010 A 
ATOM     11  C   UNL A   1      36.534  32.736  28.629  1.00  0.00     0.010 A 
ATOM     12  C   UNL A   1      36.627  31.479  29.246  1.00  0.00    -0.014 A 
BRANCH  12  13
ATOM     13  C   UNL A   1      37.860  31.017  29.932  1.00  0.00     0.031 A 
ATOM     14  C   UNL A   1      38.146  31.367  31.366  1.00  0.00     0.074 A 
ATOM     15  C   UNL A   1      38.691  30.197  29.259  1.00  0.00     0.049 A 
ATOM     16  N   UNL A   1      39.127  30.956  32.131  1.00  0.00    -0.248 NA
ATOM     17  C   UNL A   1      37.224  32.302  32.029  1.00  0.00     0.031 C 
ATOM     18  C   UNL A   1      38.531  29.809  27.855  1.00  0.00     0.029 A 
ATOM     19  N   UNL A   1      39.804  29.509  29.669  1.00  0.00    -0.354 N 
ATOM     20  C   UNL A   1      38.950  31.586  33.356  1.00  0.00     0.074 A 
ATOM     21  C   UNL A   1      37.780  32.430  33.226  1.00  0.00     0.031 C 
ATOM     22  C   UNL A   1      39.465  28.901  27.541  1.00  0.00     0.029 A 
ATOM     23  C   UNL A   1      40.323  28.685  28.700  1.00  0.00     0.049 A 
ATOM     24  H   UNL A   1      40.193  29.598  30.569  1.00  0.00     0.167 HD
ATOM     25  C   UNL A   1      39.688  31.464  34.486  1.00  0.00     0.037 A 
ATOM     26  C   UNL A   1      41.374  27.847  28.736  1.00  0.00     0.037 A 
ATOM     27  C   UNL A   1      40.845  30.613  34.615  1.00  0.00     0.049 A 
ATOM     28  C   UNL A   1      42.159  27.718  30.006  1.00  0.00     0.074 A 
ATOM     29  C   UNL A   1      41.655  30.419  35.721  1.00  0.00     0.029 A 
ATOM     30  N   UNL A   1      41.353  29.811  33.605  1.00  0.00    -0.354 N 
ATOM     31  N   UNL A   1      41.966  28.311  31.158  1.00  0.00    -0.248 NA
ATOM     32  C   UNL A   1      43.309  26.805  29.980  1.00  0.00     0.031 C 
ATOM     33  C   UNL A   1      42.670  29.521  35.372  1.00  0.00     0.029 A 
ATOM     34  C   UNL A   1      42.470  29.128  34.059  1.00  0.00     0.049 A 
ATOM     35  H   UNL A   1      40.976  29.738  32.698  1.00  0.00     0.167 HD
ATOM     36  C   UNL A   1      42.971  27.850  31.994  1.00  0.00     0.074 A 
ATOM     37  C   UNL A   1      43.748  26.896  31.228  1.00  0.00     0.031 C 
ATOM     38  C   UNL A   1      43.237  28.194  33.278  1.00  0.00     0.037 A 
BRANCH  25  39
ATOM     39  C   UNL A   1      39.274  32.272  35.681  1.00  0.00     0.057 A 
ATOM     40  C   UNL A   1      39.710  33.590  35.863  1.00  0.00     0.134 A 
ATOM     41  C   UNL A   1      38.381  31.750  36.626  1.00  0.00     0.134 A 
ATOM     42  F   UNL A   1      40.574  34.147  35.001  1.00  0.00    -0.206 F 
ATOM     43  C   UNL A   1      39.281  34.358  36.948  1.00  0.00     0.040 A 
ATOM     44  C   UNL A   1      37.930  32.514  37.704  1.00  0.00     0.040 A 
ATOM     45  F   UNL A   1      37.920  30.496  36.507  1.00  0.00    -0.206 F 
ATOM     46  C   UNL A   1      38.382  33.822  37.869  1.00  0.00     0.006 A 
ENDBRANCH  25  39
BRANCH  26  47
ATOM     47  C   UNL A   1      41.739  27.074  27.525  1.00  0.00     0.057 A 
ATOM     48  C   UNL A   1      42.581  27.612  26.545  1.00  0.00     0.134 A 
ATOM     49  C   UNL A   1      41.267  25.771  27.329  1.00  0.00     0.134 A 
ATOM     50  F   UNL A   1      43.052  28.861  26.670  1.00  0.00    -0.206 F 
ATOM     51  C   UNL A   1      42.929  26.885  25.406  1.00  0.00     0.040 A 
ATOM     52  C   UNL A   1      41.629  25.022  26.209  1.00  0.00     0.040 A 
ATOM     53  F   UNL A   1      40.465  25.197  28.238  1.00  0.00    -0.206 F 
ATOM     54  C   UNL A   1      42.458  25.583  25.239  1.00  0.00     0.006 A 
ENDBRANCH  26  47
BRANCH  38  55
ATOM     55  C   UNL A   1      44.419  27.532  33.918  1.00  0.00     0.057 A 
ATOM     56  C   UNL A   1      44.300  26.305  34.583  1.00  0.00     0.134 A 
ATOM     57  C   UNL A   1      45.686  28.126  33.872  1.00  0.00     0.134 A 
ATOM     58  F   UNL A   1      43.109  25.695  34.675  1.00  0.00    -0.206 F 
ATOM     59  C   UNL A   1      45.394  25.705  35.206  1.00  0.00     0.040 A 
ATOM     60  C   UNL A   1      46.793  27.525  34.472  1.00  0.00     0.040 A 
ATOM     61  F   UNL A   1      45.866  29.298  33.246  1.00  0.00    -0.206 F 
ATOM     62  C   UNL A   1      46.647  26.314  35.148  1.00  0.00     0.006 A 
ENDBRANCH  38  55
ENDBRANCH  12  13
ENDBRANCH   5   7
ENDBRANCH   2   3
ENDBRANCH   1   2
BRANCH   1  63
ATOM     63  C   UNL A   1      31.778  28.085  26.309  1.00  0.00     0.023 C 
BRANCH  63  64
ATOM     64  C   UNL A   1      32.409  27.999  24.924  1.00  0.00     0.116 C 
BRANCH  64  65
ATOM     65  N   UNL A   1      32.412  26.647  24.382  1.00  0.00    -0.352 N 
ATOM     66  C   UNL A   1      31.404  25.945  23.782  1.00  0.00     0.252 C 
ATOM     67  H   UNL A   1      33.268  26.166  24.460  1.00  0.00     0.163 HD
ATOM     68  O   UNL A   1      31.567  24.770  23.465  1.00  0.00    -0.269 OA
BRANCH  66  69
ATOM     69  C   UNL A   1      30.108  26.633  23.561  1.00  0.00     0.056 A 
ATOM     70  C   UNL A   1      28.981  25.961  23.837  1.00  0.00     0.099 A 
ATOM     71  C   UNL A   1      30.036  28.018  23.145  1.00  0.00     0.029 A 
ATOM     72  N   UNL A   1      27.769  26.608  23.792  1.00  0.00    -0.328 N 
ATOM     73  C   UNL A   1      28.875  28.699  23.164  1.00  0.00     0.048 A 
ATOM     74  C   UNL A   1      27.616  27.949  23.513  1.00  0.00     0.255 A 
ATOM     75  H   UNL A   1      26.958  26.079  23.973  1.00  0.00     0.169 HD
ATOM     76  O   UNL A   1      26.518  28.493  23.555  1.00  0.00    -0.269 OA
BRANCH  73  77
ATOM     77  C   UNL A   1      28.900  30.159  22.978  1.00  0.00    -0.006 A 
ATOM     78  C   UNL A   1      29.397  31.014  23.974  1.00  0.00     0.009 A 
ATOM     79  C   UNL A   1      28.333  30.715  21.821  1.00  0.00     0.094 A 
ATOM     80  C   UNL A   1      29.323  32.401  23.826  1.00  0.00     0.008 A 
ATOM     81  C   UNL A   1      28.257  32.107  21.680  1.00  0.00     0.270 A 
ATOM     82  C   UNL A   1      28.749  32.954  22.681  1.00  0.00     0.085 A 
BRANCH  81  83
ATOM     83  N   UNL A   1      27.625  32.681  20.487  1.00  0.00     0.062 N 
ATOM     84  O   UNL A   1      27.319  33.882  20.518  1.00  0.00    -0.258 OA
ATOM     85  O   UNL A   1      27.416  31.928  19.525  1.00  0.00    -0.258 OA
ENDBRANCH  81  83
ENDBRANCH  73  77
ENDBRANCH  66  69
ENDBRANCH  64  65
ENDBRANCH  63  64
ENDBRANCH   1  63
TORSDOF 13
ENDMDL
MODEL 2
REMARK VINA RESULT:     -12.4      4.244      8.810
REMARK SMILES O=C(NCCCCNC(=O)c1c[nH]c(=O)c(-c2cccc([N+](=O)[O-])c2)c1)c1ccc(-c2c3nc(c(-c4c(F)cccc4F)c4ccc([nH]4)c(-c4c(F)cccc4F)c4nc(c(-c5c(F)cccc5F)c5ccc2[nH]5)C=C4)C=C3)cc1
REMARK SMILES IDX 5 1 4 2 3 3 1 4 2 5 27 7 28 8 80 9 29 10 79 11 30 12 31 13
REMARK SMILES IDX 32 14 73 15 33 16 78 17 72 18 74 19 34 20 77 21 71 22 70 23
REMARK SMILES IDX 35 25 61 26 44 27 60 28 45 29 48 30 59 31 75 32 46 33 47 34
REMARK SMILES IDX 58 36 76 37 49 38 36 39 37 40 42 41 38 42 39 43 41 44 43 45
REMARK SMILES IDX 40 46 62 47 63 48 68 49 64 50 65 51 67 52 69 53 66 54 50 55
REMARK SMILES IDX 51 56 56 57 52 58 53 59 55 60 57 61 54 62 6 63 7 64 8 65
REMARK SMILES IDX 9 66 10 68 11 69 12 70 26 71 13 72 16 73 14 74 15 76 17 77
REMARK SMILES IDX 18 78 25 79 19 80 21 81 20 82 22 83 23 84 24 85
REMARK H PARENT 3 6 74 24 48 35 8 67 13 75
REMARK Flexibility Score: inf
ROOT
ATOM      1  C   UNL A   1      38.940  21.351  25.573  1.00  0.00     0.023 C 
ENDROOT
BRANCH   1   2
ATOM      2  C   UNL A   1      39.349  20.148  26.410  1.00  0.00     0.116 C 
BRANCH   2   3
ATOM      3  N   UNL A   1      40.488  19.421  25.870  1.00  0.00    -0.352 N 
ATOM      4  O   UNL A   1      42.636  19.106  25.238  1.00  0.00    -0.269 OA
ATOM      5  C   UNL A   1      41.810  19.803  25.821  1.00  0.00     0.251 C 
ATOM      6  H   UNL A   1      40.286  18.536  25.490  1.00  0.00     0.163 HD
BRANCH   5   7
ATOM      7  C   UNL A   1      42.225  21.079  26.444  1.00  0.00     0.039 A 
ATOM      8  C   UNL A   1      42.251  21.209  27.832  1.00  0.00     0.014 A 
ATOM      9  C   UNL A   1      42.554  22.166  25.629  1.00  0.00     0.014 A 
ATOM     10  C   UNL A   1      42.431  22.463  28.399  1.00  0.00     0.010 A 
ATOM     11  C   UNL A   1      42.836  23.409  26.208  1.00  0.00     0.010 A 
ATOM     12  C   UNL A   1      42.736  23.577  27.597  1.00  0.00    -0.014 A 
BRANCH  12  13
ATOM     13  C   UNL A   1      42.997  24.878  28.264  1.00  0.00     0.031 A 
ATOM     14  C   UNL A   1      44.387  25.313  28.633  1.00  0.00     0.074 A 
ATOM     15  C   UNL A   1      41.955  25.710  28.460  1.00  0.00     0.049 A 
ATOM     16  N   UNL A   1      44.784  26.460  29.126  1.00  0.00    -0.248 NA
ATOM     17  C   UNL A   1      45.474  24.342  28.433  1.00  0.00     0.031 C 
ATOM     18  C   UNL A   1      40.556  25.386  28.166  1.00  0.00     0.029 A 
ATOM     19  N   UNL A   1      41.908  27.004  28.908  1.00  0.00    -0.354 N 
ATOM     20  C   UNL A   1      46.157  26.347  29.308  1.00  0.00     0.074 A 
ATOM     21  C   UNL A   1      46.524  25.008  28.895  1.00  0.00     0.031 C 
ATOM     22  C   UNL A   1      39.800  26.472  28.374  1.00  0.00     0.029 A 
ATOM     23  C   UNL A   1      40.648  27.550  28.869  1.00  0.00     0.049 A 
ATOM     24  H   UNL A   1      42.700  27.494  29.227  1.00  0.00     0.167 HD
ATOM     25  C   UNL A   1      47.030  27.277  29.765  1.00  0.00     0.037 A 
ATOM     26  C   UNL A   1      40.219  28.781  29.196  1.00  0.00     0.037 A 
ATOM     27  C   UNL A   1      46.663  28.613  30.163  1.00  0.00     0.049 A 
ATOM     28  C   UNL A   1      41.211  29.795  29.680  1.00  0.00     0.074 A 
ATOM     29  C   UNL A   1      47.478  29.628  30.637  1.00  0.00     0.029 A 
ATOM     30  N   UNL A   1      45.373  29.121  30.131  1.00  0.00    -0.354 N 
ATOM     31  N   UNL A   1      42.507  29.673  29.829  1.00  0.00    -0.248 NA
ATOM     32  C   UNL A   1      40.681  31.116  30.042  1.00  0.00     0.031 C 
ATOM     33  C   UNL A   1      46.677  30.741  30.916  1.00  0.00     0.029 A 
ATOM     34  C   UNL A   1      45.368  30.431  30.584  1.00  0.00     0.049 A 
ATOM     35  H   UNL A   1      44.577  28.625  29.831  1.00  0.00     0.167 HD
ATOM     36  C   UNL A   1      42.948  30.896  30.308  1.00  0.00     0.074 A 
ATOM     37  C   UNL A   1      41.787  31.760  30.386  1.00  0.00     0.031 C 
ATOM     38  C   UNL A   1      44.202  31.270  30.666  1.00  0.00     0.037 A 
BRANCH  25  39
ATOM     39  C   UNL A   1      48.475  26.886  29.867  1.00  0.00     0.057 A 
ATOM     40  C   UNL A   1      49.388  27.169  28.843  1.00  0.00     0.134 A 
ATOM     41  C   UNL A   1      48.973  26.276  31.026  1.00  0.00     0.134 A 
ATOM     42  F   UNL A   1      48.974  27.741  27.703  1.00  0.00    -0.206 F 
ATOM     43  C   UNL A   1      50.742  26.851  28.964  1.00  0.00     0.040 A 
ATOM     44  C   UNL A   1      50.328  25.970  31.166  1.00  0.00     0.040 A 
ATOM     45  F   UNL A   1      48.154  25.983  32.047  1.00  0.00    -0.206 F 
ATOM     46  C   UNL A   1      51.218  26.256  30.132  1.00  0.00     0.006 A 
ENDBRANCH  25  39
BRANCH  26  47
ATOM     47  C   UNL A   1      38.778  29.112  29.077  1.00  0.00     0.057 A 
ATOM     48  C   UNL A   1      37.917  29.019  30.175  1.00  0.00     0.134 A 
ATOM     49  C   UNL A   1      38.233  29.547  27.862  1.00  0.00     0.134 A 
ATOM     50  F   UNL A   1      38.378  28.595  31.361  1.00  0.00    -0.206 F 
ATOM     51  C   UNL A   1      36.562  29.334  30.067  1.00  0.00     0.040 A 
ATOM     52  C   UNL A   1      36.887  29.891  27.746  1.00  0.00     0.040 A 
ATOM     53  F   UNL A   1      39.010  29.667  26.776  1.00  0.00    -0.206 F 
ATOM     54  C   UNL A   1      36.045  29.778  28.851  1.00  0.00     0.006 A 
ENDBRANCH  26  47
BRANCH  38  55
ATOM     55  C   UNL A   1      44.365  32.670  31.173  1.00  0.00     0.057 A 
ATOM     56  C   UNL A   1      44.267  32.971  32.537  1.00  0.00     0.134 A 
ATOM     57  C   UNL A   1      44.620  33.727  30.291  1.00  0.00     0.134 A 
ATOM     58  F   UNL A   1      44.008  32.003  33.430  1.00  0.00    -0.206 F 
ATOM     59  C   UNL A   1      44.388  34.279  33.005  1.00  0.00     0.040 A 
ATOM     60  C   UNL A   1      44.765  35.037  30.749  1.00  0.00     0.040 A 
ATOM     61  F   UNL A   1      44.729  33.503  28.973  1.00  0.00    -0.206 F 
ATOM     62  C   UNL A   1      44.641  35.317  32.109  1.00  0.00     0.006 A 
ENDBRANCH  38  55
ENDBRANCH  12  13
ENDBRANCH   5   7
ENDBRANCH   2   3
ENDBRANCH   1   2
BRANCH   1  63
ATOM     63  C   UNL A   1      38.737  22.648  26.349  1.00  0.00     0.023 C 
BRANCH  63  64
ATOM     64  C   UNL A   1      37.687  23.592  25.774  1.00  0.00     0.116 C 
BRANCH  64  65
ATOM     65  N   UNL A   1      37.413  23.348  24.364  1.00  0.00    -0.352 N 
ATOM     66  C   UNL A   1      36.222  23.353  23.693  1.00  0.00     0.252 C 
ATOM     67  H   UNL A   1      38.204  23.150  23.812  1.00  0.00     0.163 HD
ATOM     68  O   UNL A   1      36.174  23.033  22.509  1.00  0.00    -0.269 OA
BRANCH  66  69
ATOM     69  C   UNL A   1      34.996  23.719  24.446  1.00  0.00     0.056 A 
ATOM     70  C   UNL A   1      34.449  22.795  25.249  1.00  0.00     0.099 A 
ATOM     71  C   UNL A   1      34.440  25.055  24.401  1.00  0.00     0.029 A 
ATOM     72  N   UNL A   1      33.408  23.138  26.078  1.00  0.00    -0.328 N 
ATOM     73  C   UNL A   1      33.471  25.442  25.253  1.00  0.00     0.048 A 
ATOM     74  C   UNL A   1      32.886  24.410  26.180  1.00  0.00     0.255 A 
ATOM     75  H   UNL A   1      33.010  22.430  26.634  1.00  0.00     0.169 HD
ATOM     76  O   UNL A   1      32.002  24.678  26.987  1.00  0.00    -0.269 OA
BRANCH  73  77
ATOM     77  C   UNL A   1      33.121  26.869  25.336  1.00  0.00    -0.006 A 
ATOM     78  C   UNL A   1      33.703  27.709  26.298  1.00  0.00     0.009 A 
ATOM     79  C   UNL A   1      32.120  27.382  24.497  1.00  0.00     0.094 A 
ATOM     80  C   UNL A   1      33.290  29.037  26.430  1.00  0.00     0.008 A 
ATOM     81  C   UNL A   1      31.706  28.713  24.638  1.00  0.00     0.270 A 
ATOM     82  C   UNL A   1      32.286  29.544  25.604  1.00  0.00     0.085 A 
BRANCH  81  83
ATOM     83  N   UNL A   1      30.629  29.231  23.786  1.00  0.00     0.062 N 
ATOM     84  O   UNL A   1      30.343  28.591  22.764  1.00  0.00    -0.258 OA
ATOM     85  O   UNL A   1      30.082  30.290  24.128  1.00  0.00    -0.258 OA
ENDBRANCH  81  83
ENDBRANCH  73  77
ENDBRANCH  66  69
ENDBRANCH  64  65
ENDBRANCH  63  64
ENDBRANCH   1  63
TORSDOF 13
ENDMDL
MODEL 3
REMARK VINA RESULT:     -12.4      2.220      3.110
REMARK SMILES O=C(NCCCCNC(=O)c1c[nH]c(=O)c(-c2cccc([N+](=O)[O-])c2)c1)c1ccc(-c2c3nc(c(-c4c(F)cccc4F)c4ccc([nH]4)c(-c4c(F)cccc4F)c4nc(c(-c5c(F)cccc5F)c5ccc2[nH]5)C=C4)C=C3)cc1
REMARK SMILES IDX 5 1 4 2 3 3 1 4 2 5 27 7 28 8 80 9 29 10 79 11 30 12 31 13
REMARK SMILES IDX 32 14 73 15 33 16 78 17 72 18 74 19 34 20 77 21 71 22 70 23
REMARK SMILES IDX 35 25 61 26 44 27 60 28 45 29 48 30 59 31 75 32 46 33 47 34
REMARK SMILES IDX 58 36 76 37 49 38 36 39 37 40 42 41 38 42 39 43 41 44 43 45
REMARK SMILES IDX 40 46 62 47 63 48 68 49 64 50 65 51 67 52 69 53 66 54 50 55
REMARK SMILES IDX 51 56 56 57 52 58 53 59 55 60 57 61 54 62 6 63 7 64 8 65
REMARK SMILES IDX 9 66 10 68 11 69 12 70 26 71 13 72 16 73 14 74 15 76 17 77
REMARK SMILES IDX 18 78 25 79 19 80 21 81 20 82 22 83 23 84 24 85
REMARK H PARENT 3 6 74 24 48 35 8 67 13 75
REMARK Flexibility Score: inf
ROOT
ATOM      1  C   UNL A   1      33.276  31.714  27.744  1.00  0.00     0.023 C 
ENDROOT
BRANCH   1   2
ATOM      2  C   UNL A   1      33.224  33.110  27.140  1.00  0.00     0.116 C 
BRANCH   2   3
ATOM      3  N   UNL A   1      32.712  34.123  28.051  1.00  0.00    -0.352 N 
ATOM      4  O   UNL A   1      32.657  35.391  29.922  1.00  0.00    -0.269 OA
ATOM      5  C   UNL A   1      33.273  34.599  29.214  1.00  0.00     0.251 C 
ATOM      6  H   UNL A   1      31.848  34.521  27.801  1.00  0.00     0.163 HD
BRANCH   5   7
ATOM      7  C   UNL A   1      34.611  34.121  29.628  1.00  0.00     0.039 A 
ATOM      8  C   UNL A   1      35.744  34.484  28.901  1.00  0.00     0.014 A 
ATOM      9  C   UNL A   1      34.726  33.272  30.733  1.00  0.00     0.014 A 
ATOM     10  C   UNL A   1      36.957  33.861  29.166  1.00  0.00     0.010 A 
ATOM     11  C   UNL A   1      35.971  32.724  31.062  1.00  0.00     0.010 A 
ATOM     12  C   UNL A   1      37.089  32.982  30.255  1.00  0.00    -0.014 A 
BRANCH  12  13
ATOM     13  C   UNL A   1      38.428  32.407  30.539  1.00  0.00     0.031 A 
ATOM     14  C   UNL A   1      39.348  33.011  31.563  1.00  0.00     0.074 A 
ATOM     15  C   UNL A   1      38.774  31.266  29.911  1.00  0.00     0.049 A 
ATOM     16  N   UNL A   1      40.503  32.566  31.994  1.00  0.00    -0.248 NA
ATOM     17  C   UNL A   1      38.931  34.280  32.180  1.00  0.00     0.031 C 
ATOM     18  C   UNL A   1      37.974  30.601  28.879  1.00  0.00     0.029 A 
ATOM     19  N   UNL A   1      39.858  30.441  30.074  1.00  0.00    -0.354 N 
ATOM     20  C   UNL A   1      40.955  33.499  32.918  1.00  0.00     0.074 A 
ATOM     21  C   UNL A   1      39.962  34.552  32.969  1.00  0.00     0.031 C 
ATOM     22  C   UNL A   1      38.557  29.439  28.552  1.00  0.00     0.029 A 
ATOM     23  C   UNL A   1      39.797  29.304  29.307  1.00  0.00     0.049 A 
ATOM     24  H   UNL A   1      40.605  30.646  30.681  1.00  0.00     0.167 HD
ATOM     25  C   UNL A   1      42.087  33.474  33.662  1.00  0.00     0.037 A 
ATOM     26  C   UNL A   1      40.645  28.264  29.217  1.00  0.00     0.037 A 
ATOM     27  C   UNL A   1      43.068  32.418  33.618  1.00  0.00     0.049 A 
ATOM     28  C   UNL A   1      41.879  28.254  30.067  1.00  0.00     0.074 A 
ATOM     29  C   UNL A   1      44.245  32.302  34.337  1.00  0.00     0.029 A 
ATOM     30  N   UNL A   1      42.983  31.293  32.811  1.00  0.00    -0.354 N 
ATOM     31  N   UNL A   1      42.281  29.139  30.946  1.00  0.00    -0.248 NA
ATOM     32  C   UNL A   1      42.779  27.104  29.911  1.00  0.00     0.031 C 
ATOM     33  C   UNL A   1      44.886  31.120  33.946  1.00  0.00     0.029 A 
ATOM     34  C   UNL A   1      44.089  30.483  33.009  1.00  0.00     0.049 A 
ATOM     35  H   UNL A   1      42.244  31.098  32.189  1.00  0.00     0.167 HD
ATOM     36  C   UNL A   1      43.481  28.657  31.445  1.00  0.00     0.074 A 
ATOM     37  C   UNL A   1      43.722  27.382  30.800  1.00  0.00     0.031 C 
ATOM     38  C   UNL A   1      44.318  29.225  32.348  1.00  0.00     0.037 A 
BRANCH  25  39
ATOM     39  C   UNL A   1      42.337  34.626  34.591  1.00  0.00     0.057 A 
ATOM     40  C   UNL A   1      43.010  35.778  34.168  1.00  0.00     0.134 A 
ATOM     41  C   UNL A   1      41.846  34.609  35.903  1.00  0.00     0.134 A 
ATOM     42  F   UNL A   1      43.515  35.855  32.927  1.00  0.00    -0.206 F 
ATOM     43  C   UNL A   1      43.195  36.870  35.019  1.00  0.00     0.040 A 
ATOM     44  C   UNL A   1      42.008  35.701  36.757  1.00  0.00     0.040 A 
ATOM     45  F   UNL A   1      41.187  33.538  36.369  1.00  0.00    -0.206 F 
ATOM     46  C   UNL A   1      42.686  36.836  36.317  1.00  0.00     0.006 A 
ENDBRANCH  25  39
BRANCH  26  47
ATOM     47  C   UNL A   1      40.348  27.153  28.280  1.00  0.00     0.057 A 
ATOM     48  C   UNL A   1      40.903  27.116  26.996  1.00  0.00     0.134 A 
ATOM     49  C   UNL A   1      39.515  26.093  28.656  1.00  0.00     0.134 A 
ATOM     50  F   UNL A   1      41.696  28.112  26.575  1.00  0.00    -0.206 F 
ATOM     51  C   UNL A   1      40.628  26.070  26.115  1.00  0.00     0.040 A 
ATOM     52  C   UNL A   1      39.255  25.026  27.795  1.00  0.00     0.040 A 
ATOM     53  F   UNL A   1      38.962  26.066  29.878  1.00  0.00    -0.206 F 
ATOM     54  C   UNL A   1      39.807  25.018  26.516  1.00  0.00     0.006 A 
ENDBRANCH  26  47
BRANCH  38  55
ATOM     55  C   UNL A   1      45.566  28.464  32.676  1.00  0.00     0.057 A 
ATOM     56  C   UNL A   1      46.755  28.664  31.964  1.00  0.00     0.134 A 
ATOM     57  C   UNL A   1      45.579  27.521  33.712  1.00  0.00     0.134 A 
ATOM     58  F   UNL A   1      46.800  29.542  30.950  1.00  0.00    -0.206 F 
ATOM     59  C   UNL A   1      47.907  27.932  32.250  1.00  0.00     0.040 A 
ATOM     60  C   UNL A   1      46.731  26.799  34.022  1.00  0.00     0.040 A 
ATOM     61  F   UNL A   1      44.474  27.288  34.434  1.00  0.00    -0.206 F 
ATOM     62  C   UNL A   1      47.898  26.998  33.285  1.00  0.00     0.006 A 
ENDBRANCH  38  55
ENDBRANCH  12  13
ENDBRANCH   5   7
ENDBRANCH   2   3
ENDBRANCH   1   2
BRANCH   1  63
ATOM     63  C   UNL A   1      34.604  30.982  27.583  1.00  0.00     0.023 C 
BRANCH  63  64
ATOM     64  C   UNL A   1      34.493  29.518  27.171  1.00  0.00     0.116 C 
BRANCH  64  65
ATOM     65  N   UNL A   1      33.462  28.797  27.906  1.00  0.00    -0.352 N 
ATOM     66  C   UNL A   1      32.349  28.151  27.443  1.00  0.00     0.252 C 
ATOM     67  H   UNL A   1      33.585  28.770  28.883  1.00  0.00     0.163 HD
ATOM     68  O   UNL A   1      31.538  27.670  28.228  1.00  0.00    -0.269 OA
BRANCH  66  69
ATOM     69  C   UNL A   1      32.140  28.085  25.975  1.00  0.00     0.056 A 
ATOM     70  C   UNL A   1      32.793  27.138  25.287  1.00  0.00     0.099 A 
ATOM     71  C   UNL A   1      31.197  28.947  25.295  1.00  0.00     0.029 A 
ATOM     72  N   UNL A   1      32.514  26.942  23.955  1.00  0.00    -0.328 N 
ATOM     73  C   UNL A   1      30.846  28.733  24.013  1.00  0.00     0.048 A 
ATOM     74  C   UNL A   1      31.555  27.642  23.254  1.00  0.00     0.255 A 
ATOM     75  H   UNL A   1      33.031  26.258  23.472  1.00  0.00     0.169 HD
ATOM     76  O   UNL A   1      31.296  27.381  22.085  1.00  0.00    -0.269 OA
BRANCH  73  77
ATOM     77  C   UNL A   1      29.705  29.475  23.451  1.00  0.00    -0.006 A 
ATOM     78  C   UNL A   1      28.619  28.807  22.864  1.00  0.00     0.009 A 
ATOM     79  C   UNL A   1      29.745  30.877  23.418  1.00  0.00     0.094 A 
ATOM     80  C   UNL A   1      27.590  29.524  22.247  1.00  0.00     0.008 A 
ATOM     81  C   UNL A   1      28.713  31.589  22.793  1.00  0.00     0.270 A 
ATOM     82  C   UNL A   1      27.634  30.917  22.204  1.00  0.00     0.085 A 
BRANCH  81  83
ATOM     83  N   UNL A   1      28.781  33.054  22.725  1.00  0.00     0.062 N 
ATOM     84  O   UNL A   1      29.604  33.627  23.453  1.00  0.00    -0.258 OA
ATOM     85  O   UNL A   1      27.997  33.633  21.959  1.00  0.00    -0.258 OA
ENDBRANCH  81  83
ENDBRANCH  73  77
ENDBRANCH  66  69
ENDBRANCH  64  65
ENDBRANCH  63  64
ENDBRANCH   1  63
TORSDOF 13
ENDMDL
