MODEL 1
REMARK VINA RESULT:     -12.0      0.000      0.000
REMARK SMILES COc1cccc(CSc2nc3ccccc3c(=O)n2CCC(=O)NCCCCNC(=O)c2ccc(-c3c4nc(c(-c5c(F)cccc5F)c5ccc([nH]5)c(-c5c(F)cccc5F)c5nc(c(-c6c(F)cccc6F)c6ccc3[nH]6)C=C5)C=C4)cc2)c1
REMARK SMILES IDX 23 1 24 2 25 3 22 5 21 6 20 7 10 8 11 9 12 10 18 11 13 12
REMARK SMILES IDX 17 13 19 14 14 15 16 16 15 17 9 18 8 19 7 20 3 21 4 22 87 23
REMARK SMILES IDX 5 24 6 25 2 26 1 27 26 28 27 29 28 30 29 31 30 32 31 33
REMARK SMILES IDX 32 35 33 36 34 37 86 38 35 39 85 40 36 41 37 42 38 43 79 44
REMARK SMILES IDX 39 45 84 46 78 47 80 48 40 49 83 50 77 51 76 52 41 54 67 55
REMARK SMILES IDX 50 56 66 57 51 58 54 59 65 60 81 61 52 62 53 63 64 65 82 66
REMARK SMILES IDX 55 67 42 68 43 69 48 70 44 71 45 72 47 73 49 74 46 75 68 76
REMARK SMILES IDX 69 77 74 78 70 79 71 80 73 81 75 82 72 83 56 84 57 85 62 86
REMARK SMILES IDX 58 87 59 88 61 89 63 90 60 91
REMARK H PARENT 25 4 30 34 80 53 54 64
REMARK Flexibility Score: inf
ROOT
ATOM      1  C   UNL A   1      34.530  24.921  24.475  1.00  0.00     0.221 C 
ATOM      2  O   UNL A   1      34.482  25.737  25.398  1.00  0.00    -0.275 OA
ATOM      3  N   UNL A   1      35.276  23.789  24.639  1.00  0.00    -0.356 N 
ATOM      4  H   UNL A   1      35.636  23.638  25.543  1.00  0.00     0.163 HD
ENDROOT
BRANCH   1   5
ATOM      5  C   UNL A   1      33.776  25.162  23.178  1.00  0.00     0.122 C 
BRANCH   5   6
ATOM      6  C   UNL A   1      32.343  24.606  23.262  1.00  0.00     0.138 C 
BRANCH   6   7
ATOM      7  N   UNL A   1      31.532  25.302  24.264  1.00  0.00    -0.287 N 
ATOM      8  C   UNL A   1      31.211  24.842  25.529  1.00  0.00     0.171 A 
ATOM      9  N   UNL A   1      31.136  25.652  26.543  1.00  0.00    -0.224 NA
ATOM     10  C   UNL A   1      31.353  27.020  26.344  1.00  0.00     0.079 A 
ATOM     11  C   UNL A   1      31.270  26.641  23.948  1.00  0.00     0.262 A 
ATOM     12  C   UNL A   1      31.669  27.852  27.422  1.00  0.00     0.029 A 
ATOM     13  C   UNL A   1      31.273  27.581  25.078  1.00  0.00     0.066 A 
ATOM     14  O   UNL A   1      31.152  27.076  22.805  1.00  0.00    -0.269 OA
ATOM     15  C   UNL A   1      31.860  29.224  27.228  1.00  0.00     0.002 A 
ATOM     16  C   UNL A   1      31.393  28.961  24.878  1.00  0.00     0.016 A 
ATOM     17  C   UNL A   1      31.686  29.785  25.962  1.00  0.00     0.001 A 
BRANCH   8  18
ATOM     18  S   UNL A   1      30.970  23.173  26.010  1.00  0.00    -0.083 SA
BRANCH  18  19
ATOM     19  C   UNL A   1      32.454  22.177  26.013  1.00  0.00     0.113 C 
BRANCH  19  20
ATOM     20  C   UNL A   1      32.438  21.017  25.060  1.00  0.00    -0.034 A 
ATOM     21  C   UNL A   1      32.811  18.658  24.605  1.00  0.00     0.119 A 
ATOM     22  C   UNL A   1      32.546  18.888  23.255  1.00  0.00     0.046 A 
ATOM     23  C   UNL A   1      32.703  19.714  25.508  1.00  0.00     0.051 A 
ATOM     24  C   UNL A   1      32.196  20.162  22.807  1.00  0.00     0.004 A 
ATOM     25  C   UNL A   1      32.151  21.224  23.704  1.00  0.00     0.005 A 
BRANCH  21  26
ATOM     26  O   UNL A   1      33.163  17.375  24.923  1.00  0.00    -0.497 OA
ATOM     27  C   UNL A   1      34.023  16.704  24.007  1.00  0.00     0.278 C 
ENDBRANCH  21  26
ENDBRANCH  19  20
ENDBRANCH  18  19
ENDBRANCH   8  18
ENDBRANCH   6   7
ENDBRANCH   5   6
ENDBRANCH   1   5
BRANCH   3  28
ATOM     28  C   UNL A   1      35.605  22.774  23.647  1.00  0.00     0.116 C 
BRANCH  28  29
ATOM     29  C   UNL A   1      37.001  22.232  23.909  1.00  0.00     0.023 C 
BRANCH  29  30
ATOM     30  C   UNL A   1      37.188  21.340  25.128  1.00  0.00     0.023 C 
BRANCH  30  31
ATOM     31  C   UNL A   1      38.575  21.430  25.730  1.00  0.00     0.116 C 
BRANCH  31  32
ATOM     32  N   UNL A   1      39.371  20.218  25.575  1.00  0.00    -0.352 N 
ATOM     33  C   UNL A   1      40.657  19.953  25.993  1.00  0.00     0.251 C 
ATOM     34  H   UNL A   1      38.924  19.480  25.102  1.00  0.00     0.163 HD
ATOM     35  O   UNL A   1      41.166  18.864  25.780  1.00  0.00    -0.269 OA
BRANCH  33  36
ATOM     36  C   UNL A   1      41.452  21.053  26.584  1.00  0.00     0.039 A 
ATOM     37  C   UNL A   1      42.064  21.958  25.715  1.00  0.00     0.014 A 
ATOM     38  C   UNL A   1      41.440  21.290  27.955  1.00  0.00     0.014 A 
ATOM     39  C   UNL A   1      42.527  23.175  26.210  1.00  0.00     0.010 A 
ATOM     40  C   UNL A   1      41.770  22.552  28.423  1.00  0.00     0.010 A 
ATOM     41  C   UNL A   1      42.298  23.515  27.552  1.00  0.00    -0.014 A 
BRANCH  41  42
ATOM     42  C   UNL A   1      42.573  24.876  28.071  1.00  0.00     0.031 A 
ATOM     43  C   UNL A   1      43.968  25.240  28.492  1.00  0.00     0.074 A 
ATOM     44  C   UNL A   1      41.551  25.731  28.274  1.00  0.00     0.049 A 
ATOM     45  N   UNL A   1      44.390  26.306  29.121  1.00  0.00    -0.248 NA
ATOM     46  C   UNL A   1      45.019  24.243  28.228  1.00  0.00     0.031 C 
ATOM     47  C   UNL A   1      40.138  25.457  27.993  1.00  0.00     0.029 A 
ATOM     48  N   UNL A   1      41.542  27.007  28.777  1.00  0.00    -0.354 N 
ATOM     49  C   UNL A   1      45.737  26.080  29.372  1.00  0.00     0.074 A 
ATOM     50  C   UNL A   1      46.046  24.755  28.884  1.00  0.00     0.031 C 
ATOM     51  C   UNL A   1      39.409  26.548  28.281  1.00  0.00     0.029 A 
ATOM     52  C   UNL A   1      40.294  27.582  28.803  1.00  0.00     0.049 A 
ATOM     53  H   UNL A   1      42.354  27.468  29.089  1.00  0.00     0.167 HD
ATOM     54  C   UNL A   1      46.643  26.917  29.929  1.00  0.00     0.037 A 
ATOM     55  C   UNL A   1      39.912  28.810  29.200  1.00  0.00     0.037 A 
ATOM     56  C   UNL A   1      46.344  28.263  30.329  1.00  0.00     0.049 A 
ATOM     57  C   UNL A   1      40.955  29.759  29.717  1.00  0.00     0.074 A 
ATOM     58  C   UNL A   1      47.202  29.231  30.819  1.00  0.00     0.029 A 
ATOM     59  N   UNL A   1      45.084  28.839  30.257  1.00  0.00    -0.354 N 
ATOM     60  N   UNL A   1      42.239  29.555  29.896  1.00  0.00    -0.248 NA
ATOM     61  C   UNL A   1      40.503  31.109  30.081  1.00  0.00     0.031 C 
ATOM     62  C   UNL A   1      46.457  30.392  31.054  1.00  0.00     0.029 A 
ATOM     63  C   UNL A   1      45.142  30.153  30.687  1.00  0.00     0.049 A 
ATOM     64  H   UNL A   1      44.270  28.382  29.946  1.00  0.00     0.167 HD
ATOM     65  C   UNL A   1      42.751  30.755  30.371  1.00  0.00     0.074 A 
ATOM     66  C   UNL A   1      41.642  31.685  30.439  1.00  0.00     0.031 C 
ATOM     67  C   UNL A   1      44.023  31.059  30.723  1.00  0.00     0.037 A 
BRANCH  54  68
ATOM     68  C   UNL A   1      48.038  26.395  30.102  1.00  0.00     0.057 A 
ATOM     69  C   UNL A   1      48.991  26.482  29.078  1.00  0.00     0.134 A 
ATOM     70  C   UNL A   1      48.429  25.782  31.298  1.00  0.00     0.134 A 
ATOM     71  F   UNL A   1      48.672  27.040  27.899  1.00  0.00    -0.206 F 
ATOM     72  C   UNL A   1      50.269  25.942  29.220  1.00  0.00     0.040 A 
ATOM     73  C   UNL A   1      49.715  25.261  31.463  1.00  0.00     0.040 A 
ATOM     74  F   UNL A   1      47.568  25.665  32.320  1.00  0.00    -0.206 F 
ATOM     75  C   UNL A   1      50.635  25.331  30.419  1.00  0.00     0.006 A 
ENDBRANCH  54  68
BRANCH  55  76
ATOM     76  C   UNL A   1      38.495  29.232  29.071  1.00  0.00     0.057 A 
ATOM     77  C   UNL A   1      37.992  29.677  27.843  1.00  0.00     0.134 A 
ATOM     78  C   UNL A   1      37.615  29.203  30.157  1.00  0.00     0.134 A 
ATOM     79  F   UNL A   1      38.793  29.740  26.768  1.00  0.00    -0.206 F 
ATOM     80  C   UNL A   1      36.669  30.099  27.702  1.00  0.00     0.040 A 
ATOM     81  C   UNL A   1      36.282  29.603  30.026  1.00  0.00     0.040 A 
ATOM     82  F   UNL A   1      38.032  28.776  31.357  1.00  0.00    -0.206 F 
ATOM     83  C   UNL A   1      35.809  30.060  28.797  1.00  0.00     0.006 A 
ENDBRANCH  55  76
BRANCH  67  84
ATOM     84  C   UNL A   1      44.286  32.460  31.178  1.00  0.00     0.057 A 
ATOM     85  C   UNL A   1      44.604  33.478  30.270  1.00  0.00     0.134 A 
ATOM     86  C   UNL A   1      44.168  32.803  32.530  1.00  0.00     0.134 A 
ATOM     87  F   UNL A   1      44.744  33.205  28.965  1.00  0.00    -0.206 F 
ATOM     88  C   UNL A   1      44.808  34.790  30.696  1.00  0.00     0.040 A 
ATOM     89  C   UNL A   1      44.350  34.115  32.964  1.00  0.00     0.040 A 
ATOM     90  F   UNL A   1      43.860  31.871  33.444  1.00  0.00    -0.206 F 
ATOM     91  C   UNL A   1      44.673  35.113  32.046  1.00  0.00     0.006 A 
ENDBRANCH  67  84
ENDBRANCH  41  42
ENDBRANCH  33  36
ENDBRANCH  31  32
ENDBRANCH  30  31
ENDBRANCH  29  30
ENDBRANCH  28  29
ENDBRANCH   3  28
TORSDOF 17
ENDMDL
MODEL 2
REMARK VINA RESULT:     -11.7      2.008      6.845
REMARK SMILES COc1cccc(CSc2nc3ccccc3c(=O)n2CCC(=O)NCCCCNC(=O)c2ccc(-c3c4nc(c(-c5c(F)cccc5F)c5ccc([nH]5)c(-c5c(F)cccc5F)c5nc(c(-c6c(F)cccc6F)c6ccc3[nH]6)C=C5)C=C4)cc2)c1
REMARK SMILES IDX 23 1 24 2 25 3 22 5 21 6 20 7 10 8 11 9 12 10 18 11 13 12
REMARK SMILES IDX 17 13 19 14 14 15 16 16 15 17 9 18 8 19 7 20 3 21 4 22 87 23
REMARK SMILES IDX 5 24 6 25 2 26 1 27 26 28 27 29 28 30 29 31 30 32 31 33
REMARK SMILES IDX 32 35 33 36 34 37 86 38 35 39 85 40 36 41 37 42 38 43 79 44
REMARK SMILES IDX 39 45 84 46 78 47 80 48 40 49 83 50 77 51 76 52 41 54 67 55
REMARK SMILES IDX 50 56 66 57 51 58 54 59 65 60 81 61 52 62 53 63 64 65 82 66
REMARK SMILES IDX 55 67 42 68 43 69 48 70 44 71 45 72 47 73 49 74 46 75 68 76
REMARK SMILES IDX 69 77 74 78 70 79 71 80 73 81 75 82 72 83 56 84 57 85 62 86
REMARK SMILES IDX 58 87 59 88 61 89 63 90 60 91
REMARK H PARENT 25 4 30 34 80 53 54 64
REMARK Flexibility Score: inf
ROOT
ATOM      1  C   UNL A   1      33.551  23.960  22.496  1.00  0.00     0.221 C 
ATOM      2  O   UNL A   1      33.377  23.569  21.340  1.00  0.00    -0.275 OA
ATOM      3  N   UNL A   1      34.706  23.613  23.138  1.00  0.00    -0.356 N 
ATOM      4  H   UNL A   1      35.388  23.167  22.586  1.00  0.00     0.163 HD
ENDROOT
BRANCH   1   5
ATOM      5  C   UNL A   1      32.508  24.812  23.199  1.00  0.00     0.122 C 
BRANCH   5   6
ATOM      6  C   UNL A   1      31.734  25.680  22.190  1.00  0.00     0.138 C 
BRANCH   6   7
ATOM      7  N   UNL A   1      31.315  26.961  22.764  1.00  0.00    -0.287 N 
ATOM      8  C   UNL A   1      31.999  28.162  22.689  1.00  0.00     0.171 A 
ATOM      9  N   UNL A   1      31.369  29.292  22.565  1.00  0.00    -0.224 NA
ATOM     10  C   UNL A   1      29.970  29.296  22.539  1.00  0.00     0.079 A 
ATOM     11  C   UNL A   1      29.993  26.968  23.227  1.00  0.00     0.262 A 
ATOM     12  C   UNL A   1      29.274  30.393  22.026  1.00  0.00     0.029 A 
ATOM     13  C   UNL A   1      29.242  28.212  23.010  1.00  0.00     0.066 A 
ATOM     14  O   UNL A   1      29.413  25.988  23.688  1.00  0.00    -0.269 OA
ATOM     15  C   UNL A   1      27.874  30.409  22.025  1.00  0.00     0.002 A 
ATOM     16  C   UNL A   1      27.845  28.242  23.080  1.00  0.00     0.016 A 
ATOM     17  C   UNL A   1      27.160  29.350  22.585  1.00  0.00     0.001 A 
BRANCH   8  18
ATOM     18  S   UNL A   1      33.739  28.378  22.632  1.00  0.00    -0.083 SA
BRANCH  18  19
ATOM     19  C   UNL A   1      34.553  28.291  24.222  1.00  0.00     0.113 C 
BRANCH  19  20
ATOM     20  C   UNL A   1      33.627  28.217  25.402  1.00  0.00    -0.034 A 
ATOM     21  C   UNL A   1      32.087  26.956  26.797  1.00  0.00     0.119 A 
ATOM     22  C   UNL A   1      31.796  28.119  27.509  1.00  0.00     0.046 A 
ATOM     23  C   UNL A   1      33.041  27.001  25.782  1.00  0.00     0.051 A 
ATOM     24  C   UNL A   1      32.435  29.320  27.199  1.00  0.00     0.004 A 
ATOM     25  C   UNL A   1      33.341  29.371  26.144  1.00  0.00     0.005 A 
BRANCH  21  26
ATOM     26  O   UNL A   1      31.384  25.845  27.177  1.00  0.00    -0.497 OA
ATOM     27  C   UNL A   1      31.782  24.608  26.593  1.00  0.00     0.278 C 
ENDBRANCH  21  26
ENDBRANCH  19  20
ENDBRANCH  18  19
ENDBRANCH   8  18
ENDBRANCH   6   7
ENDBRANCH   5   6
ENDBRANCH   1   5
BRANCH   3  28
ATOM     28  C   UNL A   1      35.058  23.821  24.536  1.00  0.00     0.116 C 
BRANCH  28  29
ATOM     29  C   UNL A   1      36.557  23.647  24.721  1.00  0.00     0.023 C 
BRANCH  29  30
ATOM     30  C   UNL A   1      37.117  22.237  24.606  1.00  0.00     0.023 C 
BRANCH  30  31
ATOM     31  C   UNL A   1      38.203  21.938  25.617  1.00  0.00     0.116 C 
BRANCH  31  32
ATOM     32  N   UNL A   1      38.830  20.632  25.451  1.00  0.00    -0.352 N 
ATOM     33  C   UNL A   1      40.052  20.181  25.899  1.00  0.00     0.251 C 
ATOM     34  H   UNL A   1      38.302  19.975  24.942  1.00  0.00     0.163 HD
ATOM     35  O   UNL A   1      40.413  19.037  25.669  1.00  0.00    -0.269 OA
BRANCH  33  36
ATOM     36  C   UNL A   1      40.970  21.144  26.547  1.00  0.00     0.039 A 
ATOM     37  C   UNL A   1      41.680  22.023  25.727  1.00  0.00     0.014 A 
ATOM     38  C   UNL A   1      40.989  21.297  27.930  1.00  0.00     0.014 A 
ATOM     39  C   UNL A   1      42.282  23.147  26.291  1.00  0.00     0.010 A 
ATOM     40  C   UNL A   1      41.463  22.482  28.470  1.00  0.00     0.010 A 
ATOM     41  C   UNL A   1      42.096  23.429  27.652  1.00  0.00    -0.014 A 
BRANCH  41  42
ATOM     42  C   UNL A   1      42.528  24.716  28.249  1.00  0.00     0.031 A 
ATOM     43  C   UNL A   1      41.512  25.793  28.501  1.00  0.00     0.074 A 
ATOM     44  C   UNL A   1      43.840  24.953  28.445  1.00  0.00     0.049 A 
ATOM     45  N   UNL A   1      41.697  27.038  28.854  1.00  0.00    -0.248 NA
ATOM     46  C   UNL A   1      40.103  25.440  28.261  1.00  0.00     0.031 C 
ATOM     47  C   UNL A   1      44.932  24.019  28.149  1.00  0.00     0.029 A 
ATOM     48  N   UNL A   1      44.483  26.062  28.932  1.00  0.00    -0.354 N 
ATOM     49  C   UNL A   1      40.438  27.624  28.825  1.00  0.00     0.074 A 
ATOM     50  C   UNL A   1      39.510  26.618  28.361  1.00  0.00     0.031 C 
ATOM     51  C   UNL A   1      46.101  24.576  28.506  1.00  0.00     0.029 A 
ATOM     52  C   UNL A   1      45.847  25.917  29.018  1.00  0.00     0.049 A 
ATOM     53  H   UNL A   1      44.012  26.885  29.197  1.00  0.00     0.167 HD
ATOM     54  C   UNL A   1      40.084  28.879  29.186  1.00  0.00     0.037 A 
ATOM     55  C   UNL A   1      46.784  26.772  29.467  1.00  0.00     0.037 A 
ATOM     56  C   UNL A   1      41.001  29.841  29.729  1.00  0.00     0.049 A 
ATOM     57  C   UNL A   1      46.353  28.124  29.961  1.00  0.00     0.074 A 
ATOM     58  C   UNL A   1      40.737  31.109  30.214  1.00  0.00     0.029 A 
ATOM     59  N   UNL A   1      42.362  29.625  29.883  1.00  0.00    -0.354 N 
ATOM     60  N   UNL A   1      45.150  28.647  29.983  1.00  0.00    -0.248 NA
ATOM     61  C   UNL A   1      47.401  29.001  30.498  1.00  0.00     0.031 C 
ATOM     62  C   UNL A   1      41.944  31.666  30.653  1.00  0.00     0.029 A 
ATOM     63  C   UNL A   1      42.952  30.733  30.462  1.00  0.00     0.049 A 
ATOM     64  H   UNL A   1      42.837  28.804  29.620  1.00  0.00     0.167 HD
ATOM     65  C   UNL A   1      45.294  29.903  30.556  1.00  0.00     0.074 A 
ATOM     66  C   UNL A   1      46.698  30.057  30.878  1.00  0.00     0.031 C 
ATOM     67  C   UNL A   1      44.350  30.847  30.790  1.00  0.00     0.037 A 
BRANCH  54  68
ATOM     68  C   UNL A   1      38.640  29.253  29.026  1.00  0.00     0.057 A 
ATOM     69  C   UNL A   1      37.742  29.205  30.102  1.00  0.00     0.134 A 
ATOM     70  C   UNL A   1      38.137  29.646  27.781  1.00  0.00     0.134 A 
ATOM     71  F   UNL A   1      38.158  28.815  31.317  1.00  0.00    -0.206 F 
ATOM     72  C   UNL A   1      36.388  29.495  29.936  1.00  0.00     0.040 A 
ATOM     73  C   UNL A   1      36.788  29.967  27.608  1.00  0.00     0.040 A 
ATOM     74  F   UNL A   1      38.941  29.715  26.709  1.00  0.00    -0.206 F 
ATOM     75  C   UNL A   1      35.908  29.881  28.686  1.00  0.00     0.006 A 
ENDBRANCH  54  68
BRANCH  55  76
ATOM     76  C   UNL A   1      48.209  26.360  29.524  1.00  0.00     0.057 A 
ATOM     77  C   UNL A   1      49.058  26.571  28.431  1.00  0.00     0.134 A 
ATOM     78  C   UNL A   1      48.756  25.751  30.658  1.00  0.00     0.134 A 
ATOM     79  F   UNL A   1      48.586  27.139  27.311  1.00  0.00    -0.206 F 
ATOM     80  C   UNL A   1      50.395  26.172  28.454  1.00  0.00     0.040 A 
ATOM     81  C   UNL A   1      50.098  25.364  30.702  1.00  0.00     0.040 A 
ATOM     82  F   UNL A   1      47.999  25.531  31.742  1.00  0.00    -0.206 F 
ATOM     83  C   UNL A   1      50.919  25.569  29.594  1.00  0.00     0.006 A 
ENDBRANCH  55  76
BRANCH  67  84
ATOM     84  C   UNL A   1      44.801  32.109  31.455  1.00  0.00     0.057 A 
ATOM     85  C   UNL A   1      45.201  33.226  30.713  1.00  0.00     0.134 A 
ATOM     86  C   UNL A   1      44.784  32.222  32.851  1.00  0.00     0.134 A 
ATOM     87  F   UNL A   1      45.250  33.172  29.374  1.00  0.00    -0.206 F 
ATOM     88  C   UNL A   1      45.582  34.413  31.340  1.00  0.00     0.040 A 
ATOM     89  C   UNL A   1      45.143  33.410  33.487  1.00  0.00     0.040 A 
ATOM     90  F   UNL A   1      44.404  31.186  33.613  1.00  0.00    -0.206 F 
ATOM     91  C   UNL A   1      45.546  34.509  32.730  1.00  0.00     0.006 A 
ENDBRANCH  67  84
ENDBRANCH  41  42
ENDBRANCH  33  36
ENDBRANCH  31  32
ENDBRANCH  30  31
ENDBRANCH  29  30
ENDBRANCH  28  29
ENDBRANCH   3  28
TORSDOF 17
ENDMDL
MODEL 3
REMARK VINA RESULT:     -11.7      4.385      9.293
REMARK SMILES COc1cccc(CSc2nc3ccccc3c(=O)n2CCC(=O)NCCCCNC(=O)c2ccc(-c3c4nc(c(-c5c(F)cccc5F)c5ccc([nH]5)c(-c5c(F)cccc5F)c5nc(c(-c6c(F)cccc6F)c6ccc3[nH]6)C=C5)C=C4)cc2)c1
REMARK SMILES IDX 23 1 24 2 25 3 22 5 21 6 20 7 10 8 11 9 12 10 18 11 13 12
REMARK SMILES IDX 17 13 19 14 14 15 16 16 15 17 9 18 8 19 7 20 3 21 4 22 87 23
REMARK SMILES IDX 5 24 6 25 2 26 1 27 26 28 27 29 28 30 29 31 30 32 31 33
REMARK SMILES IDX 32 35 33 36 34 37 86 38 35 39 85 40 36 41 37 42 38 43 79 44
REMARK SMILES IDX 39 45 84 46 78 47 80 48 40 49 83 50 77 51 76 52 41 54 67 55
REMARK SMILES IDX 50 56 66 57 51 58 54 59 65 60 81 61 52 62 53 63 64 65 82 66
REMARK SMILES IDX 55 67 42 68 43 69 48 70 44 71 45 72 47 73 49 74 46 75 68 76
REMARK SMILES IDX 69 77 74 78 70 79 71 80 73 81 75 82 72 83 56 84 57 85 62 86
REMARK SMILES IDX 58 87 59 88 61 89 63 90 60 91
REMARK H PARENT 25 4 30 34 80 53 54 64
REMARK Flexibility Score: inf
ROOT
ATOM      1  C   UNL A   1      32.064  28.061  27.434  1.00  0.00     0.221 C 
ATOM      2  O   UNL A   1      31.008  28.027  28.068  1.00  0.00    -0.275 OA
ATOM      3  N   UNL A   1      33.107  28.789  27.934  1.00  0.00    -0.356 N 
ATOM      4  H   UNL A   1      32.984  29.146  28.843  1.00  0.00     0.163 HD
ENDROOT
BRANCH   1   5
ATOM      5  C   UNL A   1      32.213  27.311  26.120  1.00  0.00     0.122 C 
BRANCH   5   6
ATOM      6  C   UNL A   1      31.039  26.338  25.906  1.00  0.00     0.138 C 
BRANCH   6   7
ATOM      7  N   UNL A   1      31.469  25.067  25.318  1.00  0.00    -0.287 N 
ATOM      8  C   UNL A   1      31.876  24.859  24.012  1.00  0.00     0.171 A 
ATOM      9  N   UNL A   1      32.829  24.023  23.726  1.00  0.00    -0.224 NA
ATOM     10  C   UNL A   1      33.433  23.295  24.757  1.00  0.00     0.079 A 
ATOM     11  C   UNL A   1      31.681  24.051  26.258  1.00  0.00     0.262 A 
ATOM     12  C   UNL A   1      34.684  22.702  24.569  1.00  0.00     0.029 A 
ATOM     13  C   UNL A   1      32.814  23.154  25.991  1.00  0.00     0.066 A 
ATOM     14  O   UNL A   1      31.063  23.941  27.314  1.00  0.00    -0.269 OA
ATOM     15  C   UNL A   1      35.276  21.951  25.591  1.00  0.00     0.002 A 
ATOM     16  C   UNL A   1      33.361  22.350  26.998  1.00  0.00     0.016 A 
ATOM     17  C   UNL A   1      34.598  21.745  26.792  1.00  0.00     0.001 A 
BRANCH   8  18
ATOM     18  S   UNL A   1      31.308  25.709  22.587  1.00  0.00    -0.083 SA
BRANCH  18  19
ATOM     19  C   UNL A   1      31.548  27.480  22.629  1.00  0.00     0.113 C 
BRANCH  19  20
ATOM     20  C   UNL A   1      30.283  28.289  22.611  1.00  0.00    -0.034 A 
ATOM     21  C   UNL A   1      29.124  30.377  22.156  1.00  0.00     0.119 A 
ATOM     22  C   UNL A   1      27.963  29.840  22.711  1.00  0.00     0.046 A 
ATOM     23  C   UNL A   1      30.263  29.580  22.062  1.00  0.00     0.051 A 
ATOM     24  C   UNL A   1      27.942  28.528  23.183  1.00  0.00     0.004 A 
ATOM     25  C   UNL A   1      29.100  27.758  23.141  1.00  0.00     0.005 A 
BRANCH  21  26
ATOM     26  O   UNL A   1      29.030  31.679  21.746  1.00  0.00    -0.497 OA
ATOM     27  C   UNL A   1      28.013  31.976  20.794  1.00  0.00     0.278 C 
ENDBRANCH  21  26
ENDBRANCH  19  20
ENDBRANCH  18  19
ENDBRANCH   8  18
ENDBRANCH   6   7
ENDBRANCH   5   6
ENDBRANCH   1   5
BRANCH   3  28
ATOM     28  C   UNL A   1      34.378  29.101  27.295  1.00  0.00     0.116 C 
BRANCH  28  29
ATOM     29  C   UNL A   1      34.997  30.325  27.951  1.00  0.00     0.023 C 
BRANCH  29  30
ATOM     30  C   UNL A   1      34.058  31.455  28.349  1.00  0.00     0.023 C 
BRANCH  30  31
ATOM     31  C   UNL A   1      33.902  32.512  27.276  1.00  0.00     0.116 C 
BRANCH  31  32
ATOM     32  N   UNL A   1      33.049  33.631  27.660  1.00  0.00    -0.352 N 
ATOM     33  C   UNL A   1      33.251  34.601  28.617  1.00  0.00     0.251 C 
ATOM     34  H   UNL A   1      32.203  33.703  27.163  1.00  0.00     0.163 HD
ATOM     35  O   UNL A   1      32.419  35.477  28.796  1.00  0.00    -0.269 OA
BRANCH  33  36
ATOM     36  C   UNL A   1      34.427  34.486  29.507  1.00  0.00     0.039 A 
ATOM     37  C   UNL A   1      34.216  34.047  30.816  1.00  0.00     0.014 A 
ATOM     38  C   UNL A   1      35.720  34.629  29.011  1.00  0.00     0.014 A 
ATOM     39  C   UNL A   1      35.300  33.606  31.572  1.00  0.00     0.010 A 
ATOM     40  C   UNL A   1      36.774  34.060  29.707  1.00  0.00     0.010 A 
ATOM     41  C   UNL A   1      36.572  33.524  30.986  1.00  0.00    -0.014 A 
BRANCH  41  42
ATOM     42  C   UNL A   1      37.706  32.861  31.673  1.00  0.00     0.031 A 
ATOM     43  C   UNL A   1      38.404  31.709  31.007  1.00  0.00     0.074 A 
ATOM     44  C   UNL A   1      38.021  33.214  32.935  1.00  0.00     0.049 A 
ATOM     45  N   UNL A   1      39.298  30.890  31.495  1.00  0.00    -0.248 NA
ATOM     46  C   UNL A   1      37.995  31.399  29.627  1.00  0.00     0.031 C 
ATOM     47  C   UNL A   1      37.352  34.254  33.724  1.00  0.00     0.029 A 
ATOM     48  N   UNL A   1      38.981  32.728  33.785  1.00  0.00    -0.354 N 
ATOM     49  C   UNL A   1      39.513  29.941  30.503  1.00  0.00     0.074 A 
ATOM     50  C   UNL A   1      38.615  30.250  29.414  1.00  0.00     0.031 C 
ATOM     51  C   UNL A   1      37.955  34.360  34.920  1.00  0.00     0.029 A 
ATOM     52  C   UNL A   1      39.023  33.371  34.998  1.00  0.00     0.049 A 
ATOM     53  H   UNL A   1      39.585  31.988  33.547  1.00  0.00     0.167 HD
ATOM     54  C   UNL A   1      40.405  28.924  30.489  1.00  0.00     0.037 A 
ATOM     55  C   UNL A   1      39.838  33.183  36.052  1.00  0.00     0.037 A 
ATOM     56  C   UNL A   1      41.354  28.681  31.540  1.00  0.00     0.049 A 
ATOM     57  C   UNL A   1      40.891  32.115  35.971  1.00  0.00     0.074 A 
ATOM     58  C   UNL A   1      42.364  27.738  31.592  1.00  0.00     0.029 A 
ATOM     59  N   UNL A   1      41.422  29.411  32.716  1.00  0.00    -0.354 N 
ATOM     60  N   UNL A   1      41.125  31.261  35.003  1.00  0.00    -0.248 NA
ATOM     61  C   UNL A   1      41.798  31.987  37.120  1.00  0.00     0.031 C 
ATOM     62  C   UNL A   1      43.039  27.891  32.808  1.00  0.00     0.029 A 
ATOM     63  C   UNL A   1      42.463  28.945  33.500  1.00  0.00     0.049 A 
ATOM     64  H   UNL A   1      40.820  30.152  32.958  1.00  0.00     0.167 HD
ATOM     65  C   UNL A   1      42.217  30.510  35.416  1.00  0.00     0.074 A 
ATOM     66  C   UNL A   1      42.607  31.019  36.715  1.00  0.00     0.031 C 
ATOM     67  C   UNL A   1      42.838  29.488  34.780  1.00  0.00     0.037 A 
BRANCH  54  68
ATOM     68  C   UNL A   1      40.403  28.030  29.285  1.00  0.00     0.057 A 
ATOM     69  C   UNL A   1      41.191  28.307  28.159  1.00  0.00     0.134 A 
ATOM     70  C   UNL A   1      39.590  26.892  29.241  1.00  0.00     0.134 A 
ATOM     71  F   UNL A   1      41.976  29.395  28.130  1.00  0.00    -0.206 F 
ATOM     72  C   UNL A   1      41.140  27.507  27.017  1.00  0.00     0.040 A 
ATOM     73  C   UNL A   1      39.551  26.067  28.114  1.00  0.00     0.040 A 
ATOM     74  F   UNL A   1      38.811  26.567  30.283  1.00  0.00    -0.206 F 
ATOM     75  C   UNL A   1      40.320  26.381  26.994  1.00  0.00     0.006 A 
ENDBRANCH  54  68
BRANCH  55  76
ATOM     76  C   UNL A   1      39.732  34.059  37.246  1.00  0.00     0.057 A 
ATOM     77  C   UNL A   1      40.410  35.282  37.298  1.00  0.00     0.134 A 
ATOM     78  C   UNL A   1      38.958  33.703  38.356  1.00  0.00     0.134 A 
ATOM     79  F   UNL A   1      41.179  35.670  36.269  1.00  0.00    -0.206 F 
ATOM     80  C   UNL A   1      40.342  36.111  38.418  1.00  0.00     0.040 A 
ATOM     81  C   UNL A   1      38.865  34.532  39.476  1.00  0.00     0.040 A 
ATOM     82  F   UNL A   1      38.275  32.549  38.365  1.00  0.00    -0.206 F 
ATOM     83  C   UNL A   1      39.565  35.737  39.511  1.00  0.00     0.006 A 
ENDBRANCH  55  76
BRANCH  67  84
ATOM     84  C   UNL A   1      44.023  28.882  35.464  1.00  0.00     0.057 A 
ATOM     85  C   UNL A   1      43.887  27.807  36.351  1.00  0.00     0.134 A 
ATOM     86  C   UNL A   1      45.316  29.344  35.191  1.00  0.00     0.134 A 
ATOM     87  F   UNL A   1      42.672  27.331  36.660  1.00  0.00    -0.206 F 
ATOM     88  C   UNL A   1      44.999  27.220  36.954  1.00  0.00     0.040 A 
ATOM     89  C   UNL A   1      46.436  28.752  35.773  1.00  0.00     0.040 A 
ATOM     90  F   UNL A   1      45.508  30.367  34.345  1.00  0.00    -0.206 F 
ATOM     91  C   UNL A   1      46.279  27.688  36.659  1.00  0.00     0.006 A 
ENDBRANCH  67  84
ENDBRANCH  41  42
ENDBRANCH  33  36
ENDBRANCH  31  32
ENDBRANCH  30  31
ENDBRANCH  29  30
ENDBRANCH  28  29
ENDBRANCH   3  28
TORSDOF 17
ENDMDL
