MODEL 1
REMARK VINA RESULT:     -10.8      0.000      0.000
REMARK SMILES C[C@H](C(=O)NCCCCNC(=O)c1ccc(-c2c3nc(c(-c4c(F)cccc4F)c4ccc([nH]4)c(-c4c(F)cccc4F)c4nc(c(-c5c(F)cccc5F)c5ccc2[nH]5)C=C4)C=C3)cc1)c1ccc2c(c1)[nH]c1ccc(Cl)cc12
REMARK SMILES IDX 8 1 7 2 6 3 5 4 3 5 4 6 2 8 1 9 67 10 68 11 72 12 69 13
REMARK SMILES IDX 71 14 70 15 73 16 80 17 74 18 79 20 75 21 77 22 76 23 78 24
REMARK SMILES IDX 9 25 10 26 11 27 12 29 13 30 14 31 66 32 15 33 65 34 16 35
REMARK SMILES IDX 17 36 18 37 59 38 19 39 64 40 58 41 60 42 20 43 63 44 57 45
REMARK SMILES IDX 56 46 21 48 47 49 30 50 46 51 31 52 34 53 45 54 61 55 32 56
REMARK SMILES IDX 33 57 44 59 62 60 35 61 22 62 23 63 28 64 24 65 25 66 27 67
REMARK SMILES IDX 29 68 26 69 48 70 49 71 54 72 50 73 51 74 53 75 55 76 52 77
REMARK SMILES IDX 36 78 37 79 42 80 38 81 39 82 41 83 43 84 40 85
REMARK H PARENT 5 7 73 19 10 28 60 47 34 58
REMARK Flexibility Score: inf
ROOT
ATOM      1  C   UNL A   1      33.636  33.672  28.402  1.00  0.00     0.023 C 
ENDROOT
BRANCH   1   2
ATOM      2  C   UNL A   1      34.253  35.055  28.626  1.00  0.00     0.023 C 
BRANCH   2   3
ATOM      3  C   UNL A   1      33.344  36.072  29.310  1.00  0.00     0.116 C 
BRANCH   3   4
ATOM      4  N   UNL A   1      32.574  35.494  30.394  1.00  0.00    -0.356 N 
ATOM      5  C   UNL A   1      32.862  35.377  31.720  1.00  0.00     0.227 C 
ATOM      6  O   UNL A   1      31.945  34.998  32.457  1.00  0.00    -0.274 OA
ATOM      7  H   UNL A   1      31.700  35.126  30.129  1.00  0.00     0.163 HD
BRANCH   5   8
ATOM      8  C   UNL A   1      34.255  35.647  32.286  1.00  0.00     0.105 C 
ATOM      9  C   UNL A   1      34.159  36.384  33.631  1.00  0.00     0.023 C 
BRANCH   8  10
ATOM     10  C   UNL A   1      35.243  34.482  32.309  1.00  0.00    -0.034 A 
ATOM     11  C   UNL A   1      34.901  33.161  31.989  1.00  0.00     0.005 A 
ATOM     12  C   UNL A   1      36.576  34.764  32.667  1.00  0.00     0.031 A 
ATOM     13  C   UNL A   1      35.826  32.109  32.110  1.00  0.00     0.011 A 
ATOM     14  C   UNL A   1      37.482  33.706  32.795  1.00  0.00     0.047 A 
ATOM     15  C   UNL A   1      37.138  32.382  32.545  1.00  0.00     0.007 A 
ATOM     16  N   UNL A   1      38.800  33.721  33.179  1.00  0.00    -0.355 N 
ATOM     17  C   UNL A   1      38.290  31.580  32.836  1.00  0.00     0.009 A 
ATOM     18  C   UNL A   1      39.299  32.444  33.268  1.00  0.00     0.047 A 
ATOM     19  H   UNL A   1      39.319  34.536  33.364  1.00  0.00     0.167 HD
ATOM     20  C   UNL A   1      38.561  30.196  32.802  1.00  0.00     0.031 A 
ATOM     21  C   UNL A   1      40.553  31.999  33.699  1.00  0.00     0.028 A 
ATOM     22  C   UNL A   1      39.813  29.740  33.229  1.00  0.00     0.041 A 
ATOM     23  C   UNL A   1      40.791  30.623  33.680  1.00  0.00     0.022 A 
ATOM     24  Cl  UNL A   1      40.148  28.049  33.207  1.00  0.00    -0.084 Cl
ENDBRANCH   8  10
ENDBRANCH   5   8
ENDBRANCH   3   4
ENDBRANCH   2   3
ENDBRANCH   1   2
BRANCH   1  25
ATOM     25  C   UNL A   1      34.605  32.495  28.454  1.00  0.00     0.116 C 
BRANCH  25  26
ATOM     26  N   UNL A   1      33.986  31.224  28.115  1.00  0.00    -0.352 N 
ATOM     27  C   UNL A   1      34.561  29.984  27.966  1.00  0.00     0.251 C 
ATOM     28  H   UNL A   1      33.012  31.256  27.971  1.00  0.00     0.163 HD
ATOM     29  O   UNL A   1      33.892  29.039  27.569  1.00  0.00    -0.269 OA
BRANCH  27  30
ATOM     30  C   UNL A   1      36.001  29.802  28.250  1.00  0.00     0.039 A 
ATOM     31  C   UNL A   1      36.384  29.348  29.514  1.00  0.00     0.014 A 
ATOM     32  C   UNL A   1      36.967  30.057  27.272  1.00  0.00     0.014 A 
ATOM     33  C   UNL A   1      37.728  29.071  29.773  1.00  0.00     0.010 A 
ATOM     34  C   UNL A   1      38.295  29.710  27.508  1.00  0.00     0.010 A 
ATOM     35  C   UNL A   1      38.689  29.209  28.758  1.00  0.00    -0.014 A 
BRANCH  35  36
ATOM     36  C   UNL A   1      40.104  28.820  28.980  1.00  0.00     0.031 A 
ATOM     37  C   UNL A   1      41.083  29.806  29.553  1.00  0.00     0.074 A 
ATOM     38  C   UNL A   1      40.527  27.598  28.596  1.00  0.00     0.049 A 
ATOM     39  N   UNL A   1      42.371  29.675  29.748  1.00  0.00    -0.248 NA
ATOM     40  C   UNL A   1      40.549  31.123  29.932  1.00  0.00     0.031 C 
ATOM     41  C   UNL A   1      39.691  26.567  27.977  1.00  0.00     0.029 A 
ATOM     42  N   UNL A   1      41.772  27.022  28.657  1.00  0.00    -0.354 N 
ATOM     43  C   UNL A   1      42.803  30.896  30.251  1.00  0.00     0.074 A 
ATOM     44  C   UNL A   1      41.650  31.769  30.288  1.00  0.00     0.031 C 
ATOM     45  C   UNL A   1      40.440  25.481  27.734  1.00  0.00     0.029 A 
ATOM     46  C   UNL A   1      41.815  25.748  28.144  1.00  0.00     0.049 A 
ATOM     47  H   UNL A   1      42.559  27.478  29.033  1.00  0.00     0.167 HD
ATOM     48  C   UNL A   1      44.042  31.249  30.667  1.00  0.00     0.037 A 
ATOM     49  C   UNL A   1      42.847  24.894  28.010  1.00  0.00     0.037 A 
ATOM     50  C   UNL A   1      45.181  30.370  30.659  1.00  0.00     0.049 A 
ATOM     51  C   UNL A   1      44.212  25.307  28.486  1.00  0.00     0.074 A 
ATOM     52  C   UNL A   1      46.461  30.614  31.125  1.00  0.00     0.029 A 
ATOM     53  N   UNL A   1      45.179  29.078  30.156  1.00  0.00    -0.354 N 
ATOM     54  N   UNL A   1      44.590  26.439  29.028  1.00  0.00    -0.248 NA
ATOM     55  C   UNL A   1      45.293  24.322  28.339  1.00  0.00     0.031 C 
ATOM     56  C   UNL A   1      47.244  29.485  30.865  1.00  0.00     0.029 A 
ATOM     57  C   UNL A   1      46.441  28.520  30.281  1.00  0.00     0.049 A 
ATOM     58  H   UNL A   1      44.395  28.624  29.768  1.00  0.00     0.167 HD
ATOM     59  C   UNL A   1      45.942  26.295  29.310  1.00  0.00     0.074 A 
ATOM     60  C   UNL A   1      46.316  24.960  28.892  1.00  0.00     0.031 C 
ATOM     61  C   UNL A   1      46.797  27.187  29.866  1.00  0.00     0.037 A 
BRANCH  48  62
ATOM     62  C   UNL A   1      44.230  32.651  31.171  1.00  0.00     0.057 A 
ATOM     63  C   UNL A   1      44.163  32.961  32.536  1.00  0.00     0.134 A 
ATOM     64  C   UNL A   1      44.516  33.697  30.285  1.00  0.00     0.134 A 
ATOM     65  F   UNL A   1      43.881  32.008  33.436  1.00  0.00    -0.206 F 
ATOM     66  C   UNL A   1      44.350  34.264  32.998  1.00  0.00     0.040 A 
ATOM     67  C   UNL A   1      44.732  34.999  30.738  1.00  0.00     0.040 A 
ATOM     68  F   UNL A   1      44.601  33.468  28.965  1.00  0.00    -0.206 F 
ATOM     69  C   UNL A   1      44.642  35.287  32.099  1.00  0.00     0.006 A 
ENDBRANCH  48  62
BRANCH  49  70
ATOM     70  C   UNL A   1      42.627  23.550  27.419  1.00  0.00     0.057 A 
ATOM     71  C   UNL A   1      42.713  23.347  26.037  1.00  0.00     0.134 A 
ATOM     72  C   UNL A   1      42.322  22.441  28.217  1.00  0.00     0.134 A 
ATOM     73  F   UNL A   1      42.983  24.375  25.220  1.00  0.00    -0.206 F 
ATOM     74  C   UNL A   1      42.486  22.093  25.466  1.00  0.00     0.040 A 
ATOM     75  C   UNL A   1      42.117  21.176  27.662  1.00  0.00     0.040 A 
ATOM     76  F   UNL A   1      42.232  22.568  29.549  1.00  0.00    -0.206 F 
ATOM     77  C   UNL A   1      42.192  21.002  26.282  1.00  0.00     0.006 A 
ENDBRANCH  49  70
BRANCH  61  78
ATOM     78  C   UNL A   1      48.212  26.740  30.083  1.00  0.00     0.057 A 
ATOM     79  C   UNL A   1      48.593  26.016  31.220  1.00  0.00     0.134 A 
ATOM     80  C   UNL A   1      49.196  27.000  29.121  1.00  0.00     0.134 A 
ATOM     81  F   UNL A   1      47.702  25.746  32.184  1.00  0.00    -0.206 F 
ATOM     82  C   UNL A   1      49.909  25.586  31.402  1.00  0.00     0.040 A 
ATOM     83  C   UNL A   1      50.509  26.553  29.279  1.00  0.00     0.040 A 
ATOM     84  F   UNL A   1      48.895  27.681  28.005  1.00  0.00    -0.206 F 
ATOM     85  C   UNL A   1      50.869  25.848  30.426  1.00  0.00     0.006 A 
ENDBRANCH  61  78
ENDBRANCH  35  36
ENDBRANCH  27  30
ENDBRANCH  25  26
ENDBRANCH   1  25
TORSDOF 12
ENDMDL
MODEL 2
REMARK VINA RESULT:     -10.5      4.399      9.904
REMARK SMILES C[C@H](C(=O)NCCCCNC(=O)c1ccc(-c2c3nc(c(-c4c(F)cccc4F)c4ccc([nH]4)c(-c4c(F)cccc4F)c4nc(c(-c5c(F)cccc5F)c5ccc2[nH]5)C=C4)C=C3)cc1)c1ccc2c(c1)[nH]c1ccc(Cl)cc12
REMARK SMILES IDX 8 1 7 2 6 3 5 4 3 5 4 6 2 8 1 9 67 10 68 11 72 12 69 13
REMARK SMILES IDX 71 14 70 15 73 16 80 17 74 18 79 20 75 21 77 22 76 23 78 24
REMARK SMILES IDX 9 25 10 26 11 27 12 29 13 30 14 31 66 32 15 33 65 34 16 35
REMARK SMILES IDX 17 36 18 37 59 38 19 39 64 40 58 41 60 42 20 43 63 44 57 45
REMARK SMILES IDX 56 46 21 48 47 49 30 50 46 51 31 52 34 53 45 54 61 55 32 56
REMARK SMILES IDX 33 57 44 59 62 60 35 61 22 62 23 63 28 64 24 65 25 66 27 67
REMARK SMILES IDX 29 68 26 69 48 70 49 71 54 72 50 73 51 74 53 75 55 76 52 77
REMARK SMILES IDX 36 78 37 79 42 80 38 81 39 82 41 83 43 84 40 85
REMARK H PARENT 5 7 73 19 10 28 60 47 34 58
REMARK Flexibility Score: inf
ROOT
ATOM      1  C   UNL A   1      38.032  19.937  24.626  1.00  0.00     0.023 C 
ENDROOT
BRANCH   1   2
ATOM      2  C   UNL A   1      36.599  19.548  25.001  1.00  0.00     0.023 C 
BRANCH   2   3
ATOM      3  C   UNL A   1      35.678  20.712  25.352  1.00  0.00     0.116 C 
BRANCH   3   4
ATOM      4  N   UNL A   1      34.294  20.305  25.502  1.00  0.00    -0.356 N 
ATOM      5  C   UNL A   1      33.199  20.599  24.750  1.00  0.00     0.227 C 
ATOM      6  O   UNL A   1      32.164  19.972  25.004  1.00  0.00    -0.274 OA
ATOM      7  H   UNL A   1      34.118  19.721  26.276  1.00  0.00     0.163 HD
BRANCH   5   8
ATOM      8  C   UNL A   1      33.207  21.681  23.671  1.00  0.00     0.105 C 
ATOM      9  C   UNL A   1      32.096  21.428  22.641  1.00  0.00     0.023 C 
BRANCH   8  10
ATOM     10  C   UNL A   1      33.275  23.136  24.135  1.00  0.00    -0.034 A 
ATOM     11  C   UNL A   1      34.348  23.995  23.857  1.00  0.00     0.005 A 
ATOM     12  C   UNL A   1      32.188  23.636  24.877  1.00  0.00     0.031 A 
ATOM     13  C   UNL A   1      34.404  25.299  24.380  1.00  0.00     0.011 A 
ATOM     14  C   UNL A   1      32.263  24.931  25.400  1.00  0.00     0.047 A 
ATOM     15  C   UNL A   1      33.351  25.771  25.188  1.00  0.00     0.007 A 
ATOM     16  N   UNL A   1      31.369  25.612  26.189  1.00  0.00    -0.355 N 
ATOM     17  C   UNL A   1      33.105  26.979  25.920  1.00  0.00     0.009 A 
ATOM     18  C   UNL A   1      31.877  26.831  26.566  1.00  0.00     0.047 A 
ATOM     19  H   UNL A   1      30.482  25.273  26.449  1.00  0.00     0.167 HD
ATOM     20  C   UNL A   1      33.829  28.174  26.118  1.00  0.00     0.031 A 
ATOM     21  C   UNL A   1      31.344  27.798  27.426  1.00  0.00     0.028 A 
ATOM     22  C   UNL A   1      33.305  29.149  26.974  1.00  0.00     0.041 A 
ATOM     23  C   UNL A   1      32.088  28.962  27.626  1.00  0.00     0.022 A 
ATOM     24  Cl  UNL A   1      34.188  30.606  27.236  1.00  0.00    -0.084 Cl
ENDBRANCH   8  10
ENDBRANCH   5   8
ENDBRANCH   3   4
ENDBRANCH   2   3
ENDBRANCH   1   2
BRANCH   1  25
ATOM     25  C   UNL A   1      39.003  20.100  25.791  1.00  0.00     0.116 C 
BRANCH  25  26
ATOM     26  N   UNL A   1      40.032  19.072  25.830  1.00  0.00    -0.352 N 
ATOM     27  C   UNL A   1      41.382  19.197  26.056  1.00  0.00     0.251 C 
ATOM     28  H   UNL A   1      39.715  18.154  25.670  1.00  0.00     0.163 HD
ATOM     29  O   UNL A   1      42.118  18.226  25.942  1.00  0.00    -0.269 OA
BRANCH  27  30
ATOM     30  C   UNL A   1      41.953  20.519  26.398  1.00  0.00     0.039 A 
ATOM     31  C   UNL A   1      42.338  21.371  25.361  1.00  0.00     0.014 A 
ATOM     32  C   UNL A   1      42.087  20.923  27.729  1.00  0.00     0.014 A 
ATOM     33  C   UNL A   1      42.783  22.663  25.655  1.00  0.00     0.010 A 
ATOM     34  C   UNL A   1      42.460  22.234  28.016  1.00  0.00     0.010 A 
ATOM     35  C   UNL A   1      42.807  23.119  26.984  1.00  0.00    -0.014 A 
BRANCH  35  36
ATOM     36  C   UNL A   1      43.175  24.520  27.309  1.00  0.00     0.031 A 
ATOM     37  C   UNL A   1      44.613  24.956  27.272  1.00  0.00     0.074 A 
ATOM     38  C   UNL A   1      42.220  25.383  27.712  1.00  0.00     0.049 A 
ATOM     39  N   UNL A   1      45.135  26.112  27.596  1.00  0.00    -0.248 NA
ATOM     40  C   UNL A   1      45.597  23.953  26.839  1.00  0.00     0.031 C 
ATOM     41  C   UNL A   1      40.795  25.071  27.843  1.00  0.00     0.029 A 
ATOM     42  N   UNL A   1      42.307  26.698  28.098  1.00  0.00    -0.354 N 
ATOM     43  C   UNL A   1      46.506  25.968  27.426  1.00  0.00     0.074 A 
ATOM     44  C   UNL A   1      46.740  24.600  27.016  1.00  0.00     0.031 C 
ATOM     45  C   UNL A   1      40.141  26.165  28.260  1.00  0.00     0.029 A 
ATOM     46  C   UNL A   1      41.101  27.247  28.461  1.00  0.00     0.049 A 
ATOM     47  H   UNL A   1      43.155  27.199  28.114  1.00  0.00     0.167 HD
ATOM     48  C   UNL A   1      47.480  26.897  27.576  1.00  0.00     0.037 A 
ATOM     49  C   UNL A   1      40.802  28.479  28.914  1.00  0.00     0.037 A 
ATOM     50  C   UNL A   1      47.244  28.265  27.955  1.00  0.00     0.049 A 
ATOM     51  C   UNL A   1      41.901  29.494  29.065  1.00  0.00     0.074 A 
ATOM     52  C   UNL A   1      48.157  29.298  28.065  1.00  0.00     0.029 A 
ATOM     53  N   UNL A   1      46.004  28.790  28.289  1.00  0.00    -0.354 N 
ATOM     54  N   UNL A   1      43.183  29.365  28.829  1.00  0.00    -0.248 NA
ATOM     55  C   UNL A   1      41.508  30.830  29.537  1.00  0.00     0.031 C 
ATOM     56  C   UNL A   1      47.478  30.438  28.506  1.00  0.00     0.029 A 
ATOM     57  C   UNL A   1      46.134  30.128  28.626  1.00  0.00     0.049 A 
ATOM     58  H   UNL A   1      45.158  28.286  28.287  1.00  0.00     0.167 HD
ATOM     59  C   UNL A   1      43.748  30.605  29.099  1.00  0.00     0.074 A 
ATOM     60  C   UNL A   1      42.665  31.478  29.502  1.00  0.00     0.031 C 
ATOM     61  C   UNL A   1      45.046  30.986  29.019  1.00  0.00     0.037 A 
BRANCH  48  62
ATOM     62  C   UNL A   1      48.895  26.463  27.326  1.00  0.00     0.057 A 
ATOM     63  C   UNL A   1      49.717  25.990  28.358  1.00  0.00     0.134 A 
ATOM     64  C   UNL A   1      49.432  26.486  26.033  1.00  0.00     0.134 A 
ATOM     65  F   UNL A   1      49.268  25.952  29.621  1.00  0.00    -0.206 F 
ATOM     66  C   UNL A   1      51.028  25.578  28.116  1.00  0.00     0.040 A 
ATOM     67  C   UNL A   1      50.733  26.051  25.774  1.00  0.00     0.040 A 
ATOM     68  F   UNL A   1      48.697  26.922  24.998  1.00  0.00    -0.206 F 
ATOM     69  C   UNL A   1      51.538  25.601  26.819  1.00  0.00     0.006 A 
ENDBRANCH  48  62
BRANCH  49  70
ATOM     70  C   UNL A   1      39.396  28.830  29.237  1.00  0.00     0.057 A 
ATOM     71  C   UNL A   1      38.550  29.383  28.269  1.00  0.00     0.134 A 
ATOM     72  C   UNL A   1      38.868  28.626  30.516  1.00  0.00     0.134 A 
ATOM     73  F   UNL A   1      39.007  29.620  27.030  1.00  0.00    -0.206 F 
ATOM     74  C   UNL A   1      37.233  29.738  28.565  1.00  0.00     0.040 A 
ATOM     75  C   UNL A   1      37.545  28.953  30.820  1.00  0.00     0.040 A 
ATOM     76  F   UNL A   1      39.624  28.092  31.486  1.00  0.00    -0.206 F 
ATOM     77  C   UNL A   1      36.726  29.517  29.845  1.00  0.00     0.006 A 
ENDBRANCH  49  70
BRANCH  61  78
ATOM     78  C   UNL A   1      45.363  32.416  29.344  1.00  0.00     0.057 A 
ATOM     79  C   UNL A   1      45.722  32.820  30.635  1.00  0.00     0.134 A 
ATOM     80  C   UNL A   1      45.351  33.393  28.339  1.00  0.00     0.134 A 
ATOM     81  F   UNL A   1      45.740  31.936  31.644  1.00  0.00    -0.206 F 
ATOM     82  C   UNL A   1      46.035  34.150  30.922  1.00  0.00     0.040 A 
ATOM     83  C   UNL A   1      45.688  34.720  28.608  1.00  0.00     0.040 A 
ATOM     84  F   UNL A   1      45.025  33.070  27.079  1.00  0.00    -0.206 F 
ATOM     85  C   UNL A   1      46.026  35.102  29.905  1.00  0.00     0.006 A 
ENDBRANCH  61  78
ENDBRANCH  35  36
ENDBRANCH  27  30
ENDBRANCH  25  26
ENDBRANCH   1  25
TORSDOF 12
ENDMDL
MODEL 3
REMARK VINA RESULT:     -10.5      4.414      9.658
REMARK SMILES C[C@H](C(=O)NCCCCNC(=O)c1ccc(-c2c3nc(c(-c4c(F)cccc4F)c4ccc([nH]4)c(-c4c(F)cccc4F)c4nc(c(-c5c(F)cccc5F)c5ccc2[nH]5)C=C4)C=C3)cc1)c1ccc2c(c1)[nH]c1ccc(Cl)cc12
REMARK SMILES IDX 8 1 7 2 6 3 5 4 3 5 4 6 2 8 1 9 67 10 68 11 72 12 69 13
REMARK SMILES IDX 71 14 70 15 73 16 80 17 74 18 79 20 75 21 77 22 76 23 78 24
REMARK SMILES IDX 9 25 10 26 11 27 12 29 13 30 14 31 66 32 15 33 65 34 16 35
REMARK SMILES IDX 17 36 18 37 59 38 19 39 64 40 58 41 60 42 20 43 63 44 57 45
REMARK SMILES IDX 56 46 21 48 47 49 30 50 46 51 31 52 34 53 45 54 61 55 32 56
REMARK SMILES IDX 33 57 44 59 62 60 35 61 22 62 23 63 28 64 24 65 25 66 27 67
REMARK SMILES IDX 29 68 26 69 48 70 49 71 54 72 50 73 51 74 53 75 55 76 52 77
REMARK SMILES IDX 36 78 37 79 42 80 38 81 39 82 41 83 43 84 40 85
REMARK H PARENT 5 7 73 19 10 28 60 47 34 58
REMARK Flexibility Score: inf
ROOT
ATOM      1  C   UNL A   1      38.003  20.203  24.633  1.00  0.00     0.023 C 
ENDROOT
BRANCH   1   2
ATOM      2  C   UNL A   1      36.594  19.730  24.999  1.00  0.00     0.023 C 
BRANCH   2   3
ATOM      3  C   UNL A   1      35.606  20.837  25.351  1.00  0.00     0.116 C 
BRANCH   3   4
ATOM      4  N   UNL A   1      34.243  20.354  25.468  1.00  0.00    -0.356 N 
ATOM      5  C   UNL A   1      33.152  20.588  24.688  1.00  0.00     0.227 C 
ATOM      6  O   UNL A   1      32.148  19.905  24.917  1.00  0.00    -0.274 OA
ATOM      7  H   UNL A   1      34.080  19.761  26.237  1.00  0.00     0.163 HD
BRANCH   5   8
ATOM      8  C   UNL A   1      33.128  21.670  23.609  1.00  0.00     0.105 C 
ATOM      9  C   UNL A   1      31.981  21.421  22.618  1.00  0.00     0.023 C 
BRANCH   8  10
ATOM     10  C   UNL A   1      33.217  23.125  24.070  1.00  0.00    -0.034 A 
ATOM     11  C   UNL A   1      34.313  23.960  23.810  1.00  0.00     0.005 A 
ATOM     12  C   UNL A   1      32.127  23.650  24.790  1.00  0.00     0.031 A 
ATOM     13  C   UNL A   1      34.386  25.264  24.330  1.00  0.00     0.011 A 
ATOM     14  C   UNL A   1      32.220  24.945  25.310  1.00  0.00     0.047 A 
ATOM     15  C   UNL A   1      33.328  25.761  25.117  1.00  0.00     0.007 A 
ATOM     16  N   UNL A   1      31.325  25.647  26.081  1.00  0.00    -0.355 N 
ATOM     17  C   UNL A   1      33.095  26.976  25.840  1.00  0.00     0.009 A 
ATOM     18  C   UNL A   1      31.852  26.856  26.464  1.00  0.00     0.047 A 
ATOM     19  H   UNL A   1      30.427  25.327  26.325  1.00  0.00     0.167 HD
ATOM     20  C   UNL A   1      33.839  28.156  26.048  1.00  0.00     0.031 A 
ATOM     21  C   UNL A   1      31.324  27.837  27.310  1.00  0.00     0.028 A 
ATOM     22  C   UNL A   1      33.320  29.145  26.891  1.00  0.00     0.041 A 
ATOM     23  C   UNL A   1      32.088  28.986  27.521  1.00  0.00     0.022 A 
ATOM     24  Cl  UNL A   1      34.229  30.584  27.165  1.00  0.00    -0.084 Cl
ENDBRANCH   8  10
ENDBRANCH   5   8
ENDBRANCH   3   4
ENDBRANCH   2   3
ENDBRANCH   1   2
BRANCH   1  25
ATOM     25  C   UNL A   1      38.994  20.299  25.789  1.00  0.00     0.116 C 
BRANCH  25  26
ATOM     26  N   UNL A   1      39.954  19.206  25.817  1.00  0.00    -0.352 N 
ATOM     27  C   UNL A   1      41.303  19.236  26.078  1.00  0.00     0.251 C 
ATOM     28  H   UNL A   1      39.582  18.316  25.619  1.00  0.00     0.163 HD
ATOM     29  O   UNL A   1      41.977  18.222  25.948  1.00  0.00    -0.269 OA
BRANCH  27  30
ATOM     30  C   UNL A   1      41.948  20.506  26.478  1.00  0.00     0.039 A 
ATOM     31  C   UNL A   1      42.423  21.359  25.480  1.00  0.00     0.014 A 
ATOM     32  C   UNL A   1      42.065  20.862  27.824  1.00  0.00     0.014 A 
ATOM     33  C   UNL A   1      42.944  22.609  25.827  1.00  0.00     0.010 A 
ATOM     34  C   UNL A   1      42.515  22.136  28.163  1.00  0.00     0.010 A 
ATOM     35  C   UNL A   1      42.953  23.024  27.169  1.00  0.00    -0.014 A 
BRANCH  35  36
ATOM     36  C   UNL A   1      43.402  24.388  27.549  1.00  0.00     0.031 A 
ATOM     37  C   UNL A   1      42.400  25.432  27.955  1.00  0.00     0.074 A 
ATOM     38  C   UNL A   1      44.709  24.708  27.456  1.00  0.00     0.049 A 
ATOM     39  N   UNL A   1      42.593  26.694  28.246  1.00  0.00    -0.248 NA
ATOM     40  C   UNL A   1      40.993  25.010  28.016  1.00  0.00     0.031 C 
ATOM     41  C   UNL A   1      45.776  23.803  27.024  1.00  0.00     0.029 A 
ATOM     42  N   UNL A   1      45.360  25.891  27.709  1.00  0.00    -0.354 N 
ATOM     43  C   UNL A   1      41.333  27.219  28.503  1.00  0.00     0.074 A 
ATOM     44  C   UNL A   1      40.379  26.152  28.288  1.00  0.00     0.031 C 
ATOM     45  C   UNL A   1      46.948  24.456  27.059  1.00  0.00     0.029 A 
ATOM     46  C   UNL A   1      46.714  25.834  27.480  1.00  0.00     0.049 A 
ATOM     47  H   UNL A   1      44.900  26.703  28.023  1.00  0.00     0.167 HD
ATOM     48  C   UNL A   1      41.002  28.469  28.904  1.00  0.00     0.037 A 
ATOM     49  C   UNL A   1      47.660  26.786  27.589  1.00  0.00     0.037 A 
ATOM     50  C   UNL A   1      41.954  29.521  29.147  1.00  0.00     0.049 A 
ATOM     51  C   UNL A   1      47.268  28.164  28.043  1.00  0.00     0.074 A 
ATOM     52  C   UNL A   1      41.723  30.799  29.622  1.00  0.00     0.029 A 
ATOM     53  N   UNL A   1      43.320  29.416  28.929  1.00  0.00    -0.354 N 
ATOM     54  N   UNL A   1      46.081  28.626  28.354  1.00  0.00    -0.248 NA
ATOM     55  C   UNL A   1      48.348  29.153  28.169  1.00  0.00     0.031 C 
ATOM     56  C   UNL A   1      42.942  31.483  29.653  1.00  0.00     0.029 A 
ATOM     57  C   UNL A   1      43.940  30.615  29.241  1.00  0.00     0.049 A 
ATOM     58  H   UNL A   1      43.780  28.609  28.602  1.00  0.00     0.167 HD
ATOM     59  C   UNL A   1      46.274  29.947  28.737  1.00  0.00     0.074 A 
ATOM     60  C   UNL A   1      47.694  30.210  28.632  1.00  0.00     0.031 C 
ATOM     61  C   UNL A   1      45.356  30.860  29.138  1.00  0.00     0.037 A 
BRANCH  48  62
ATOM     62  C   UNL A   1      39.545  28.768  29.110  1.00  0.00     0.057 A 
ATOM     63  C   UNL A   1      38.936  28.645  30.366  1.00  0.00     0.134 A 
ATOM     64  C   UNL A   1      38.751  29.217  28.048  1.00  0.00     0.134 A 
ATOM     65  F   UNL A   1      39.638  28.209  31.421  1.00  0.00    -0.206 F 
ATOM     66  C   UNL A   1      37.584  28.936  30.552  1.00  0.00     0.040 A 
ATOM     67  C   UNL A   1      37.404  29.537  28.228  1.00  0.00     0.040 A 
ATOM     68  F   UNL A   1      39.273  29.363  26.820  1.00  0.00    -0.206 F 
ATOM     69  C   UNL A   1      36.815  29.390  29.482  1.00  0.00     0.006 A 
ENDBRANCH  48  62
BRANCH  49  70
ATOM     70  C   UNL A   1      49.076  26.463  27.284  1.00  0.00     0.057 A 
ATOM     71  C   UNL A   1      49.584  26.599  25.987  1.00  0.00     0.134 A 
ATOM     72  C   UNL A   1      49.952  26.009  28.277  1.00  0.00     0.134 A 
ATOM     73  F   UNL A   1      48.787  27.012  24.991  1.00  0.00    -0.206 F 
ATOM     74  C   UNL A   1      50.908  26.278  25.682  1.00  0.00     0.040 A 
ATOM     75  C   UNL A   1      51.286  25.708  27.991  1.00  0.00     0.040 A 
ATOM     76  F   UNL A   1      49.530  25.864  29.541  1.00  0.00    -0.206 F 
ATOM     77  C   UNL A   1      51.764  25.836  26.689  1.00  0.00     0.006 A 
ENDBRANCH  49  70
BRANCH  61  78
ATOM     78  C   UNL A   1      45.863  32.218  29.526  1.00  0.00     0.057 A 
ATOM     79  C   UNL A   1      45.931  33.272  28.606  1.00  0.00     0.134 A 
ATOM     80  C   UNL A   1      46.246  32.484  30.846  1.00  0.00     0.134 A 
ATOM     81  F   UNL A   1      45.591  33.080  27.324  1.00  0.00    -0.206 F 
ATOM     82  C   UNL A   1      46.384  34.538  28.983  1.00  0.00     0.040 A 
ATOM     83  C   UNL A   1      46.676  33.752  31.240  1.00  0.00     0.040 A 
ATOM     84  F   UNL A   1      46.196  31.521  31.778  1.00  0.00    -0.206 F 
ATOM     85  C   UNL A   1      46.751  34.782  30.305  1.00  0.00     0.006 A 
ENDBRANCH  61  78
ENDBRANCH  35  36
ENDBRANCH  27  30
ENDBRANCH  25  26
ENDBRANCH   1  25
TORSDOF 12
ENDMDL
