MODEL 1
REMARK VINA RESULT:     -12.3      0.000      0.000
REMARK SMILES CC(C)Cc1cc2c(cc1Cl)C=C(C(=O)NCCCCNC(=O)c1ccc(-c3c4nc(c(-c5c(F)cccc5F)c5ccc([nH]5)c(-c5c(F)cccc5F)c5nc(c(-c6c(F)cccc6F)c6ccc3[nH]6)C=C5)C=C4)cc1)[C@H](C(F)(F)F)O2
REMARK SMILES IDX 18 1 17 2 16 3 14 4 15 5 13 7 5 8 6 9 10 10 7 11 9 12 11 13
REMARK SMILES IDX 8 14 83 15 12 16 78 17 4 18 2 19 1 20 3 21 79 22 80 23 81 24
REMARK SMILES IDX 82 25 19 26 20 27 21 28 22 29 23 31 24 32 25 33 77 34 26 35
REMARK SMILES IDX 76 36 27 37 28 38 29 39 70 40 30 41 75 42 69 43 71 44 31 45
REMARK SMILES IDX 74 46 68 47 67 48 32 50 58 51 41 52 57 53 42 54 45 55 56 56
REMARK SMILES IDX 72 57 43 58 44 59 55 61 73 62 46 63 33 64 34 65 39 66 35 67
REMARK SMILES IDX 36 68 38 69 40 70 37 71 59 72 60 73 65 74 61 75 62 76 64 77
REMARK SMILES IDX 66 78 63 79 47 80 48 81 53 82 49 83 50 84 52 85 54 86 51 87
REMARK H PARENT 16 6 21 30 71 49 45 60
REMARK Flexibility Score: inf
ROOT
ATOM      1  C   UNL A   1      37.167  21.680  24.462  1.00  0.00     0.023 C 
ENDROOT
BRANCH   1   2
ATOM      2  C   UNL A   1      36.814  22.710  25.535  1.00  0.00     0.116 C 
BRANCH   2   3
ATOM      3  N   UNL A   1      35.876  22.175  26.501  1.00  0.00    -0.352 N 
ATOM      4  C   UNL A   1      34.539  22.234  26.703  1.00  0.00     0.251 C 
ATOM      5  O   UNL A   1      34.115  21.531  27.626  1.00  0.00    -0.270 OA
ATOM      6  H   UNL A   1      36.326  21.629  27.186  1.00  0.00     0.163 HD
BRANCH   4   7
ATOM      7  C   UNL A   1      33.583  23.069  25.916  1.00  0.00     0.067 C 
ATOM      8  C   UNL A   1      31.416  26.956  23.539  1.00  0.00    -0.025 A 
ATOM      9  C   UNL A   1      31.109  25.593  23.680  1.00  0.00     0.052 A 
ATOM     10  C   UNL A   1      32.485  27.481  24.283  1.00  0.00     0.045 A 
ATOM     11  C   UNL A   1      31.883  24.772  24.494  1.00  0.00     0.128 A 
ATOM     12  C   UNL A   1      33.249  26.652  25.115  1.00  0.00     0.032 A 
ATOM     13  Cl  UNL A   1      32.910  29.154  24.220  1.00  0.00    -0.084 Cl
ATOM     14  C   UNL A   1      32.957  25.291  25.212  1.00  0.00     0.019 A 
ATOM     15  O   UNL A   1      31.519  23.458  24.565  1.00  0.00    -0.475 OA
ATOM     16  C   UNL A   1      33.753  24.399  26.045  1.00  0.00     0.025 C 
ATOM     17  C   UNL A   1      32.575  22.528  24.936  1.00  0.00     0.314 C 
BRANCH   8  18
ATOM     18  C   UNL A   1      30.608  27.773  22.554  1.00  0.00     0.040 C 
BRANCH  18  19
ATOM     19  C   UNL A   1      29.567  28.704  23.213  1.00  0.00    -0.013 C 
ATOM     20  C   UNL A   1      29.530  30.098  22.581  1.00  0.00     0.008 C 
ATOM     21  C   UNL A   1      28.179  28.065  23.126  1.00  0.00     0.008 C 
ENDBRANCH  18  19
ENDBRANCH   8  18
BRANCH  17  22
ATOM     22  C   UNL A   1      33.198  21.918  23.669  1.00  0.00     0.429 C 
ATOM     23  F   UNL A   1      34.249  22.632  23.205  1.00  0.00    -0.167 F 
ATOM     24  F   UNL A   1      33.659  20.668  23.934  1.00  0.00    -0.167 F 
ATOM     25  F   UNL A   1      32.318  21.809  22.649  1.00  0.00    -0.167 F 
ENDBRANCH  17  22
ENDBRANCH   4   7
ENDBRANCH   2   3
ENDBRANCH   1   2
BRANCH   1  26
ATOM     26  C   UNL A   1      37.766  20.381  25.002  1.00  0.00     0.023 C 
BRANCH  26  27
ATOM     27  C   UNL A   1      39.056  20.544  25.796  1.00  0.00     0.116 C 
BRANCH  27  28
ATOM     28  N   UNL A   1      39.933  19.382  25.751  1.00  0.00    -0.352 N 
ATOM     29  C   UNL A   1      41.287  19.325  25.990  1.00  0.00     0.251 C 
ATOM     30  H   UNL A   1      39.502  18.527  25.519  1.00  0.00     0.163 HD
ATOM     31  O   UNL A   1      41.906  18.278  25.842  1.00  0.00    -0.269 OA
BRANCH  29  32
ATOM     32  C   UNL A   1      41.993  20.564  26.373  1.00  0.00     0.039 A 
ATOM     33  C   UNL A   1      42.199  20.868  27.720  1.00  0.00     0.014 A 
ATOM     34  C   UNL A   1      42.369  21.467  25.376  1.00  0.00     0.014 A 
ATOM     35  C   UNL A   1      42.605  22.147  28.074  1.00  0.00     0.010 A 
ATOM     36  C   UNL A   1      42.864  22.722  25.735  1.00  0.00     0.010 A 
ATOM     37  C   UNL A   1      42.931  23.093  27.087  1.00  0.00    -0.014 A 
BRANCH  37  38
ATOM     38  C   UNL A   1      43.313  24.465  27.503  1.00  0.00     0.031 A 
ATOM     39  C   UNL A   1      44.739  24.935  27.394  1.00  0.00     0.074 A 
ATOM     40  C   UNL A   1      42.351  25.314  27.910  1.00  0.00     0.049 A 
ATOM     41  N   UNL A   1      45.244  26.110  27.678  1.00  0.00    -0.248 NA
ATOM     42  C   UNL A   1      45.729  23.962  26.907  1.00  0.00     0.031 C 
ATOM     43  C   UNL A   1      40.932  24.978  28.045  1.00  0.00     0.029 A 
ATOM     44  N   UNL A   1      42.412  26.641  28.250  1.00  0.00    -0.354 N 
ATOM     45  C   UNL A   1      46.608  26.009  27.432  1.00  0.00     0.074 A 
ATOM     46  C   UNL A   1      46.857  24.653  26.995  1.00  0.00     0.031 C 
ATOM     47  C   UNL A   1      40.248  26.083  28.375  1.00  0.00     0.029 A 
ATOM     48  C   UNL A   1      41.186  27.188  28.535  1.00  0.00     0.049 A 
ATOM     49  H   UNL A   1      43.254  27.151  28.284  1.00  0.00     0.167 HD
ATOM     50  C   UNL A   1      47.563  26.963  27.550  1.00  0.00     0.037 A 
ATOM     51  C   UNL A   1      40.854  28.440  28.895  1.00  0.00     0.037 A 
ATOM     52  C   UNL A   1      47.309  28.321  27.959  1.00  0.00     0.049 A 
ATOM     53  C   UNL A   1      41.934  29.471  29.038  1.00  0.00     0.074 A 
ATOM     54  C   UNL A   1      48.208  29.365  28.094  1.00  0.00     0.029 A 
ATOM     55  N   UNL A   1      46.060  28.824  28.289  1.00  0.00    -0.354 N 
ATOM     56  N   UNL A   1      43.220  29.357  28.807  1.00  0.00    -0.248 NA
ATOM     57  C   UNL A   1      41.518  30.800  29.504  1.00  0.00     0.031 C 
ATOM     58  C   UNL A   1      47.506  30.492  28.537  1.00  0.00     0.029 A 
ATOM     59  C   UNL A   1      46.165  30.159  28.642  1.00  0.00     0.049 A 
ATOM     60  H   UNL A   1      45.222  28.308  28.275  1.00  0.00     0.167 HD
ATOM     61  C   UNL A   1      43.766  30.600  29.091  1.00  0.00     0.074 A 
ATOM     62  C   UNL A   1      42.668  31.460  29.488  1.00  0.00     0.031 C 
ATOM     63  C   UNL A   1      45.061  30.995  29.037  1.00  0.00     0.037 A 
BRANCH  50  64
ATOM     64  C   UNL A   1      48.978  26.564  27.251  1.00  0.00     0.057 A 
ATOM     65  C   UNL A   1      49.477  26.635  25.943  1.00  0.00     0.134 A 
ATOM     66  C   UNL A   1      49.839  26.084  28.246  1.00  0.00     0.134 A 
ATOM     67  F   UNL A   1      48.704  27.081  24.943  1.00  0.00    -0.206 F 
ATOM     68  C   UNL A   1      50.782  26.243  25.637  1.00  0.00     0.040 A 
ATOM     69  C   UNL A   1      51.152  25.708  27.956  1.00  0.00     0.040 A 
ATOM     70  F   UNL A   1      49.427  26.005  29.520  1.00  0.00    -0.206 F 
ATOM     71  C   UNL A   1      51.626  25.783  26.647  1.00  0.00     0.006 A 
ENDBRANCH  50  64
BRANCH  51  72
ATOM     72  C   UNL A   1      39.434  28.785  29.149  1.00  0.00     0.057 A 
ATOM     73  C   UNL A   1      38.610  29.272  28.128  1.00  0.00     0.134 A 
ATOM     74  C   UNL A   1      38.873  28.638  30.422  1.00  0.00     0.134 A 
ATOM     75  F   UNL A   1      39.093  29.439  26.888  1.00  0.00    -0.206 F 
ATOM     76  C   UNL A   1      37.278  29.613  28.367  1.00  0.00     0.040 A 
ATOM     77  C   UNL A   1      37.536  28.954  30.669  1.00  0.00     0.040 A 
ATOM     78  F   UNL A   1      39.610  28.160  31.435  1.00  0.00    -0.206 F 
ATOM     79  C   UNL A   1      36.737  29.449  29.640  1.00  0.00     0.006 A 
ENDBRANCH  51  72
BRANCH  63  80
ATOM     80  C   UNL A   1      45.346  32.420  29.400  1.00  0.00     0.057 A 
ATOM     81  C   UNL A   1      45.291  33.428  28.430  1.00  0.00     0.134 A 
ATOM     82  C   UNL A   1      45.678  32.792  30.708  1.00  0.00     0.134 A 
ATOM     83  F   UNL A   1      44.981  33.135  27.158  1.00  0.00    -0.206 F 
ATOM     84  C   UNL A   1      45.552  34.761  28.752  1.00  0.00     0.040 A 
ATOM     85  C   UNL A   1      45.920  34.124  31.046  1.00  0.00     0.040 A 
ATOM     86  F   UNL A   1      45.729  31.872  31.684  1.00  0.00    -0.206 F 
ATOM     87  C   UNL A   1      45.861  35.112  30.065  1.00  0.00     0.006 A 
ENDBRANCH  63  80
ENDBRANCH  37  38
ENDBRANCH  29  32
ENDBRANCH  27  28
ENDBRANCH  26  27
ENDBRANCH   1  26
TORSDOF 14
ENDMDL
MODEL 2
REMARK VINA RESULT:     -12.2      1.223      2.121
REMARK SMILES CC(C)Cc1cc2c(cc1Cl)C=C(C(=O)NCCCCNC(=O)c1ccc(-c3c4nc(c(-c5c(F)cccc5F)c5ccc([nH]5)c(-c5c(F)cccc5F)c5nc(c(-c6c(F)cccc6F)c6ccc3[nH]6)C=C5)C=C4)cc1)[C@H](C(F)(F)F)O2
REMARK SMILES IDX 18 1 17 2 16 3 14 4 15 5 13 7 5 8 6 9 10 10 7 11 9 12 11 13
REMARK SMILES IDX 8 14 83 15 12 16 78 17 4 18 2 19 1 20 3 21 79 22 80 23 81 24
REMARK SMILES IDX 82 25 19 26 20 27 21 28 22 29 23 31 24 32 25 33 77 34 26 35
REMARK SMILES IDX 76 36 27 37 28 38 29 39 70 40 30 41 75 42 69 43 71 44 31 45
REMARK SMILES IDX 74 46 68 47 67 48 32 50 58 51 41 52 57 53 42 54 45 55 56 56
REMARK SMILES IDX 72 57 43 58 44 59 55 61 73 62 46 63 33 64 34 65 39 66 35 67
REMARK SMILES IDX 36 68 38 69 40 70 37 71 59 72 60 73 65 74 61 75 62 76 64 77
REMARK SMILES IDX 66 78 63 79 47 80 48 81 53 82 49 83 50 84 52 85 54 86 51 87
REMARK H PARENT 16 6 21 30 71 49 45 60
REMARK Flexibility Score: inf
ROOT
ATOM      1  C   UNL A   1      37.155  22.051  24.485  1.00  0.00     0.023 C 
ENDROOT
BRANCH   1   2
ATOM      2  C   UNL A   1      36.767  23.015  25.605  1.00  0.00     0.116 C 
BRANCH   2   3
ATOM      3  N   UNL A   1      35.835  22.407  26.534  1.00  0.00    -0.352 N 
ATOM      4  C   UNL A   1      34.493  22.396  26.707  1.00  0.00     0.251 C 
ATOM      5  O   UNL A   1      34.084  21.647  27.599  1.00  0.00    -0.270 OA
ATOM      6  H   UNL A   1      36.296  21.862  27.212  1.00  0.00     0.163 HD
BRANCH   4   7
ATOM      7  C   UNL A   1      33.515  23.209  25.923  1.00  0.00     0.067 C 
ATOM      8  C   UNL A   1      31.296  27.017  23.467  1.00  0.00    -0.025 A 
ATOM      9  C   UNL A   1      30.980  25.665  23.679  1.00  0.00     0.052 A 
ATOM     10  C   UNL A   1      32.401  27.560  24.144  1.00  0.00     0.045 A 
ATOM     11  C   UNL A   1      31.778  24.871  24.498  1.00  0.00     0.128 A 
ATOM     12  C   UNL A   1      33.188  26.758  24.981  1.00  0.00     0.032 A 
ATOM     13  Cl  UNL A   1      32.841  29.223  23.991  1.00  0.00    -0.084 Cl
ATOM     14  C   UNL A   1      32.886  25.406  25.148  1.00  0.00     0.019 A 
ATOM     15  O   UNL A   1      31.402  23.566  24.640  1.00  0.00    -0.475 OA
ATOM     16  C   UNL A   1      33.705  24.541  25.987  1.00  0.00     0.025 C 
ATOM     17  C   UNL A   1      32.462  22.639  25.009  1.00  0.00     0.314 C 
BRANCH   8  18
ATOM     18  C   UNL A   1      30.458  27.801  22.481  1.00  0.00     0.040 C 
BRANCH  18  19
ATOM     19  C   UNL A   1      29.474  28.792  23.139  1.00  0.00    -0.013 C 
ATOM     20  C   UNL A   1      29.446  30.155  22.442  1.00  0.00     0.008 C 
ATOM     21  C   UNL A   1      28.067  28.191  23.145  1.00  0.00     0.008 C 
ENDBRANCH  18  19
ENDBRANCH   8  18
BRANCH  17  22
ATOM     22  C   UNL A   1      33.026  21.967  23.745  1.00  0.00     0.429 C 
ATOM     23  F   UNL A   1      33.365  20.673  23.945  1.00  0.00    -0.167 F 
ATOM     24  F   UNL A   1      32.094  21.980  22.758  1.00  0.00    -0.167 F 
ATOM     25  F   UNL A   1      34.124  22.590  23.262  1.00  0.00    -0.167 F 
ENDBRANCH  17  22
ENDBRANCH   4   7
ENDBRANCH   2   3
ENDBRANCH   1   2
BRANCH   1  26
ATOM     26  C   UNL A   1      37.724  20.715  24.966  1.00  0.00     0.023 C 
BRANCH  26  27
ATOM     27  C   UNL A   1      38.947  20.819  25.867  1.00  0.00     0.116 C 
BRANCH  27  28
ATOM     28  N   UNL A   1      39.899  19.728  25.706  1.00  0.00    -0.352 N 
ATOM     29  C   UNL A   1      41.244  19.720  25.998  1.00  0.00     0.251 C 
ATOM     30  H   UNL A   1      39.535  18.890  25.340  1.00  0.00     0.163 HD
ATOM     31  O   UNL A   1      41.936  18.742  25.738  1.00  0.00    -0.269 OA
BRANCH  29  32
ATOM     32  C   UNL A   1      41.852  20.933  26.578  1.00  0.00     0.039 A 
ATOM     33  C   UNL A   1      41.898  21.104  27.963  1.00  0.00     0.014 A 
ATOM     34  C   UNL A   1      42.299  21.944  25.723  1.00  0.00     0.014 A 
ATOM     35  C   UNL A   1      42.209  22.352  28.485  1.00  0.00     0.010 A 
ATOM     36  C   UNL A   1      42.700  23.170  26.258  1.00  0.00     0.010 A 
ATOM     37  C   UNL A   1      42.603  23.402  27.638  1.00  0.00    -0.014 A 
BRANCH  37  38
ATOM     38  C   UNL A   1      42.881  24.736  28.228  1.00  0.00     0.031 A 
ATOM     39  C   UNL A   1      44.290  25.164  28.538  1.00  0.00     0.074 A 
ATOM     40  C   UNL A   1      41.859  25.593  28.412  1.00  0.00     0.049 A 
ATOM     41  N   UNL A   1      44.719  26.303  29.021  1.00  0.00    -0.248 NA
ATOM     42  C   UNL A   1      45.359  24.187  28.276  1.00  0.00     0.031 C 
ATOM     43  C   UNL A   1      40.451  25.297  28.138  1.00  0.00     0.029 A 
ATOM     44  N   UNL A   1      41.848  26.895  28.839  1.00  0.00    -0.354 N 
ATOM     45  C   UNL A   1      46.096  26.171  29.147  1.00  0.00     0.074 A 
ATOM     46  C   UNL A   1      46.432  24.833  28.709  1.00  0.00     0.031 C 
ATOM     47  C   UNL A   1      39.723  26.404  28.339  1.00  0.00     0.029 A 
ATOM     48  C   UNL A   1      40.599  27.467  28.816  1.00  0.00     0.049 A 
ATOM     49  H   UNL A   1      42.657  27.374  29.131  1.00  0.00     0.167 HD
ATOM     50  C   UNL A   1      46.999  27.084  29.578  1.00  0.00     0.037 A 
ATOM     51  C   UNL A   1      40.204  28.707  29.151  1.00  0.00     0.037 A 
ATOM     52  C   UNL A   1      46.667  28.424  29.987  1.00  0.00     0.049 A 
ATOM     53  C   UNL A   1      41.222  29.691  29.645  1.00  0.00     0.074 A 
ATOM     54  C   UNL A   1      47.513  29.429  30.426  1.00  0.00     0.029 A 
ATOM     55  N   UNL A   1      45.384  28.950  29.999  1.00  0.00    -0.354 N 
ATOM     56  N   UNL A   1      42.520  29.548  29.763  1.00  0.00    -0.248 NA
ATOM     57  C   UNL A   1      40.718  31.005  30.064  1.00  0.00     0.031 C 
ATOM     58  C   UNL A   1      46.737  30.553  30.732  1.00  0.00     0.029 A 
ATOM     59  C   UNL A   1      45.412  30.258  30.451  1.00  0.00     0.049 A 
ATOM     60  H   UNL A   1      44.573  28.463  29.727  1.00  0.00     0.167 HD
ATOM     61  C   UNL A   1      42.989  30.754  30.262  1.00  0.00     0.074 A 
ATOM     62  C   UNL A   1      41.839  31.626  30.401  1.00  0.00     0.031 C 
ATOM     63  C   UNL A   1      44.257  31.108  30.585  1.00  0.00     0.037 A 
BRANCH  50  64
ATOM     64  C   UNL A   1      48.436  26.655  29.647  1.00  0.00     0.057 A 
ATOM     65  C   UNL A   1      48.930  25.997  30.782  1.00  0.00     0.134 A 
ATOM     66  C   UNL A   1      49.338  26.915  28.607  1.00  0.00     0.134 A 
ATOM     67  F   UNL A   1      48.120  25.722  31.815  1.00  0.00    -0.206 F 
ATOM     68  C   UNL A   1      50.269  25.614  30.879  1.00  0.00     0.040 A 
ATOM     69  C   UNL A   1      50.674  26.518  28.684  1.00  0.00     0.040 A 
ATOM     70  F   UNL A   1      48.924  27.529  27.488  1.00  0.00    -0.206 F 
ATOM     71  C   UNL A   1      51.144  25.869  29.825  1.00  0.00     0.006 A 
ENDBRANCH  50  64
BRANCH  51  72
ATOM     72  C   UNL A   1      38.774  29.083  29.033  1.00  0.00     0.057 A 
ATOM     73  C   UNL A   1      37.908  29.008  30.129  1.00  0.00     0.134 A 
ATOM     74  C   UNL A   1      38.243  29.523  27.815  1.00  0.00     0.134 A 
ATOM     75  F   UNL A   1      38.359  28.588  31.321  1.00  0.00    -0.206 F 
ATOM     76  C   UNL A   1      36.559  29.344  30.017  1.00  0.00     0.040 A 
ATOM     77  C   UNL A   1      36.901  29.885  27.695  1.00  0.00     0.040 A 
ATOM     78  F   UNL A   1      39.029  29.631  26.735  1.00  0.00    -0.206 F 
ATOM     79  C   UNL A   1      36.054  29.790  28.798  1.00  0.00     0.006 A 
ENDBRANCH  51  72
BRANCH  63  80
ATOM     80  C   UNL A   1      44.456  32.500  31.099  1.00  0.00     0.057 A 
ATOM     81  C   UNL A   1      44.408  32.767  32.473  1.00  0.00     0.134 A 
ATOM     82  C   UNL A   1      44.693  33.575  30.235  1.00  0.00     0.134 A 
ATOM     83  F   UNL A   1      44.182  31.780  33.352  1.00  0.00    -0.206 F 
ATOM     84  C   UNL A   1      44.593  34.059  32.969  1.00  0.00     0.040 A 
ATOM     85  C   UNL A   1      44.900  34.867  30.721  1.00  0.00     0.040 A 
ATOM     86  F   UNL A   1      44.768  33.378  28.909  1.00  0.00    -0.206 F 
ATOM     87  C   UNL A   1      44.847  35.111  32.091  1.00  0.00     0.006 A 
ENDBRANCH  63  80
ENDBRANCH  37  38
ENDBRANCH  29  32
ENDBRANCH  27  28
ENDBRANCH  26  27
ENDBRANCH   1  26
TORSDOF 14
ENDMDL
MODEL 3
REMARK VINA RESULT:     -12.2      2.777      7.809
REMARK SMILES CC(C)Cc1cc2c(cc1Cl)C=C(C(=O)NCCCCNC(=O)c1ccc(-c3c4nc(c(-c5c(F)cccc5F)c5ccc([nH]5)c(-c5c(F)cccc5F)c5nc(c(-c6c(F)cccc6F)c6ccc3[nH]6)C=C5)C=C4)cc1)[C@H](C(F)(F)F)O2
REMARK SMILES IDX 18 1 17 2 16 3 14 4 15 5 13 7 5 8 6 9 10 10 7 11 9 12 11 13
REMARK SMILES IDX 8 14 83 15 12 16 78 17 4 18 2 19 1 20 3 21 79 22 80 23 81 24
REMARK SMILES IDX 82 25 19 26 20 27 21 28 22 29 23 31 24 32 25 33 77 34 26 35
REMARK SMILES IDX 76 36 27 37 28 38 29 39 70 40 30 41 75 42 69 43 71 44 31 45
REMARK SMILES IDX 74 46 68 47 67 48 32 50 58 51 41 52 57 53 42 54 45 55 56 56
REMARK SMILES IDX 72 57 43 58 44 59 55 61 73 62 46 63 33 64 34 65 39 66 35 67
REMARK SMILES IDX 36 68 38 69 40 70 37 71 59 72 60 73 65 74 61 75 62 76 64 77
REMARK SMILES IDX 66 78 63 79 47 80 48 81 53 82 49 83 50 84 52 85 54 86 51 87
REMARK H PARENT 16 6 21 30 71 49 45 60
REMARK Flexibility Score: inf
ROOT
ATOM      1  C   UNL A   1      32.000  29.278  26.660  1.00  0.00     0.023 C 
ENDROOT
BRANCH   1   2
ATOM      2  C   UNL A   1      31.577  28.776  25.280  1.00  0.00     0.116 C 
BRANCH   2   3
ATOM      3  N   UNL A   1      32.516  29.183  24.253  1.00  0.00    -0.352 N 
ATOM      4  C   UNL A   1      33.338  28.561  23.377  1.00  0.00     0.251 C 
ATOM      5  O   UNL A   1      33.922  29.306  22.583  1.00  0.00    -0.270 OA
ATOM      6  H   UNL A   1      32.570  30.163  24.173  1.00  0.00     0.163 HD
BRANCH   4   7
ATOM      7  C   UNL A   1      33.581  27.089  23.318  1.00  0.00     0.067 C 
ATOM      8  C   UNL A   1      34.212  22.257  24.629  1.00  0.00    -0.025 A 
ATOM      9  C   UNL A   1      34.157  22.947  23.406  1.00  0.00     0.052 A 
ATOM     10  C   UNL A   1      34.216  23.005  25.818  1.00  0.00     0.045 A 
ATOM     11  C   UNL A   1      34.053  24.334  23.379  1.00  0.00     0.128 A 
ATOM     12  C   UNL A   1      34.130  24.402  25.782  1.00  0.00     0.032 A 
ATOM     13  Cl  UNL A   1      34.333  22.254  27.370  1.00  0.00    -0.084 Cl
ATOM     14  C   UNL A   1      34.033  25.070  24.560  1.00  0.00     0.019 A 
ATOM     15  O   UNL A   1      33.996  24.921  22.148  1.00  0.00    -0.475 OA
ATOM     16  C   UNL A   1      33.911  26.521  24.493  1.00  0.00     0.025 C 
ATOM     17  C   UNL A   1      33.361  26.230  22.099  1.00  0.00     0.314 C 
BRANCH   8  18
ATOM     18  C   UNL A   1      34.211  20.744  24.597  1.00  0.00     0.040 C 
BRANCH  18  19
ATOM     19  C   UNL A   1      32.801  20.116  24.563  1.00  0.00    -0.013 C 
ATOM     20  C   UNL A   1      32.426  19.571  23.182  1.00  0.00     0.008 C 
ATOM     21  C   UNL A   1      32.715  18.992  25.598  1.00  0.00     0.008 C 
ENDBRANCH  18  19
ENDBRANCH   8  18
BRANCH  17  22
ATOM     22  C   UNL A   1      31.883  26.075  21.701  1.00  0.00     0.429 C 
ATOM     23  F   UNL A   1      31.719  25.826  20.382  1.00  0.00    -0.167 F 
ATOM     24  F   UNL A   1      31.330  25.030  22.369  1.00  0.00    -0.167 F 
ATOM     25  F   UNL A   1      31.142  27.168  21.989  1.00  0.00    -0.167 F 
ENDBRANCH  17  22
ENDBRANCH   4   7
ENDBRANCH   2   3
ENDBRANCH   1   2
BRANCH   1  26
ATOM     26  C   UNL A   1      33.112  28.459  27.319  1.00  0.00     0.023 C 
BRANCH  26  27
ATOM     27  C   UNL A   1      34.476  29.135  27.360  1.00  0.00     0.116 C 
BRANCH  27  28
ATOM     28  N   UNL A   1      34.597  30.169  28.379  1.00  0.00    -0.352 N 
ATOM     29  C   UNL A   1      35.705  30.507  29.122  1.00  0.00     0.251 C 
ATOM     30  H   UNL A   1      33.783  30.691  28.560  1.00  0.00     0.163 HD
ATOM     31  O   UNL A   1      35.633  31.359  30.001  1.00  0.00    -0.269 OA
BRANCH  29  32
ATOM     32  C   UNL A   1      36.970  29.785  28.881  1.00  0.00     0.039 A 
ATOM     33  C   UNL A   1      37.605  29.111  29.925  1.00  0.00     0.014 A 
ATOM     34  C   UNL A   1      37.565  29.862  27.620  1.00  0.00     0.014 A 
ATOM     35  C   UNL A   1      38.914  28.680  29.761  1.00  0.00     0.010 A 
ATOM     36  C   UNL A   1      38.849  29.345  27.432  1.00  0.00     0.010 A 
ATOM     37  C   UNL A   1      39.555  28.802  28.517  1.00  0.00    -0.014 A 
BRANCH  37  38
ATOM     38  C   UNL A   1      40.971  28.376  28.392  1.00  0.00     0.031 A 
ATOM     39  C   UNL A   1      41.320  26.957  28.029  1.00  0.00     0.074 A 
ATOM     40  C   UNL A   1      41.943  29.296  28.532  1.00  0.00     0.049 A 
ATOM     41  N   UNL A   1      42.500  26.420  27.844  1.00  0.00    -0.248 NA
ATOM     42  C   UNL A   1      40.203  26.015  27.857  1.00  0.00     0.031 C 
ATOM     43  C   UNL A   1      41.729  30.704  28.871  1.00  0.00     0.029 A 
ATOM     44  N   UNL A   1      43.301  29.195  28.374  1.00  0.00    -0.354 N 
ATOM     45  C   UNL A   1      42.270  25.079  27.561  1.00  0.00     0.074 A 
ATOM     46  C   UNL A   1      40.838  24.877  27.620  1.00  0.00     0.031 C 
ATOM     47  C   UNL A   1      42.903  31.350  28.830  1.00  0.00     0.029 A 
ATOM     48  C   UNL A   1      43.959  30.391  28.526  1.00  0.00     0.049 A 
ATOM     49  H   UNL A   1      43.760  28.348  28.170  1.00  0.00     0.167 HD
ATOM     50  C   UNL A   1      43.168  24.108  27.270  1.00  0.00     0.037 A 
ATOM     51  C   UNL A   1      45.268  30.682  28.438  1.00  0.00     0.037 A 
ATOM     52  C   UNL A   1      44.591  24.316  27.185  1.00  0.00     0.049 A 
ATOM     53  C   UNL A   1      46.243  29.583  28.134  1.00  0.00     0.074 A 
ATOM     54  C   UNL A   1      45.582  23.399  26.881  1.00  0.00     0.029 A 
ATOM     55  N   UNL A   1      45.223  25.532  27.395  1.00  0.00    -0.354 N 
ATOM     56  N   UNL A   1      46.008  28.320  27.875  1.00  0.00    -0.248 NA
ATOM     57  C   UNL A   1      47.665  29.949  28.123  1.00  0.00     0.031 C 
ATOM     58  C   UNL A   1      46.818  24.054  26.939  1.00  0.00     0.029 A 
ATOM     59  C   UNL A   1      46.592  25.386  27.244  1.00  0.00     0.049 A 
ATOM     60  H   UNL A   1      44.766  26.374  27.621  1.00  0.00     0.167 HD
ATOM     61  C   UNL A   1      47.250  27.741  27.662  1.00  0.00     0.074 A 
ATOM     62  C   UNL A   1      48.235  28.797  27.799  1.00  0.00     0.031 C 
ATOM     63  C   UNL A   1      47.553  26.449  27.387  1.00  0.00     0.037 A 
BRANCH  50  64
ATOM     64  C   UNL A   1      42.638  22.723  27.040  1.00  0.00     0.057 A 
ATOM     65  C   UNL A   1      42.206  21.937  28.116  1.00  0.00     0.134 A 
ATOM     66  C   UNL A   1      42.578  22.155  25.760  1.00  0.00     0.134 A 
ATOM     67  F   UNL A   1      42.240  22.418  29.368  1.00  0.00    -0.206 F 
ATOM     68  C   UNL A   1      41.734  20.636  27.928  1.00  0.00     0.040 A 
ATOM     69  C   UNL A   1      42.089  20.864  25.557  1.00  0.00     0.040 A 
ATOM     70  F   UNL A   1      42.963  22.861  24.686  1.00  0.00    -0.206 F 
ATOM     71  C   UNL A   1      41.670  20.098  26.644  1.00  0.00     0.006 A 
ENDBRANCH  50  64
BRANCH  51  72
ATOM     72  C   UNL A   1      45.731  32.076  28.645  1.00  0.00     0.057 A 
ATOM     73  C   UNL A   1      46.072  32.548  29.917  1.00  0.00     0.134 A 
ATOM     74  C   UNL A   1      45.836  32.967  27.572  1.00  0.00     0.134 A 
ATOM     75  F   UNL A   1      45.985  31.741  30.985  1.00  0.00    -0.206 F 
ATOM     76  C   UNL A   1      46.491  33.863  30.118  1.00  0.00     0.040 A 
ATOM     77  C   UNL A   1      46.277  34.279  27.756  1.00  0.00     0.040 A 
ATOM     78  F   UNL A   1      45.539  32.566  26.328  1.00  0.00    -0.206 F 
ATOM     79  C   UNL A   1      46.599  34.731  29.034  1.00  0.00     0.006 A 
ENDBRANCH  51  72
BRANCH  63  80
ATOM     80  C   UNL A   1      49.003  26.123  27.200  1.00  0.00     0.057 A 
ATOM     81  C   UNL A   1      49.792  25.725  28.286  1.00  0.00     0.134 A 
ATOM     82  C   UNL A   1      49.618  26.207  25.945  1.00  0.00     0.134 A 
ATOM     83  F   UNL A   1      49.261  25.628  29.514  1.00  0.00    -0.206 F 
ATOM     84  C   UNL A   1      51.144  25.416  28.129  1.00  0.00     0.040 A 
ATOM     85  C   UNL A   1      50.964  25.881  25.771  1.00  0.00     0.040 A 
ATOM     86  F   UNL A   1      48.909  26.566  24.863  1.00  0.00    -0.206 F 
ATOM     87  C   UNL A   1      51.731  25.488  26.867  1.00  0.00     0.006 A 
ENDBRANCH  63  80
ENDBRANCH  37  38
ENDBRANCH  29  32
ENDBRANCH  27  28
ENDBRANCH  26  27
ENDBRANCH   1  26
TORSDOF 14
ENDMDL
