MODEL 1
REMARK VINA RESULT:     -11.9      0.000      0.000
REMARK SMILES Cc1cc(Cl)c2c(c1)C=C(C(=O)NCCCCNC(=O)c1ccc(-c3c4nc(c(-c5c(F)cccc5F)c5ccc([nH]5)c(-c5c(F)cccc5F)c5nc(c(-c6c(F)cccc6F)c6ccc3[nH]6)C=C5)C=C4)cc1)[C@@H](C(F)(F)F)O2
REMARK SMILES IDX 16 1 15 2 14 3 13 4 11 5 12 6 10 8 1 9 2 10 3 11 8 12 4 13
REMARK SMILES IDX 7 14 5 15 6 16 9 17 80 18 75 19 76 20 77 21 78 22 79 23
REMARK SMILES IDX 17 24 18 25 19 26 20 28 21 29 22 30 74 31 23 32 73 33 24 34
REMARK SMILES IDX 25 35 26 36 67 37 27 38 72 39 66 40 68 41 28 42 71 43 65 44
REMARK SMILES IDX 64 45 29 47 55 48 38 49 54 50 39 51 42 52 53 53 69 54 40 55
REMARK SMILES IDX 41 56 52 58 70 59 43 60 30 61 31 62 36 63 32 64 33 65 35 66
REMARK SMILES IDX 37 67 34 68 56 69 57 70 62 71 58 72 59 73 61 74 63 75 60 76
REMARK SMILES IDX 44 77 45 78 50 79 46 80 47 81 49 82 51 83 48 84
REMARK H PARENT 13 7 18 27 68 46 42 57
REMARK Flexibility Score: inf
ROOT
ATOM      1  C   UNL A   1      33.962  28.545  25.696  1.00  0.00     0.023 C 
ENDROOT
BRANCH   1   2
ATOM      2  C   UNL A   1      32.745  28.931  24.853  1.00  0.00     0.023 C 
BRANCH   2   3
ATOM      3  C   UNL A   1      32.007  27.742  24.243  1.00  0.00     0.116 C 
BRANCH   3   4
ATOM      4  N   UNL A   1      31.120  27.108  25.202  1.00  0.00    -0.352 N 
ATOM      5  C   UNL A   1      31.010  25.895  25.791  1.00  0.00     0.251 C 
ATOM      6  O   UNL A   1      30.059  25.779  26.573  1.00  0.00    -0.270 OA
ATOM      7  H   UNL A   1      30.413  27.724  25.503  1.00  0.00     0.163 HD
BRANCH   5   8
ATOM      8  C   UNL A   1      31.925  24.736  25.567  1.00  0.00     0.067 C 
ATOM      9  C   UNL A   1      37.941  23.280  25.837  1.00  0.00     0.044 C 
ATOM     10  C   UNL A   1      36.467  23.046  25.681  1.00  0.00    -0.049 A 
ATOM     11  C   UNL A   1      35.998  21.766  25.361  1.00  0.00     0.028 A 
ATOM     12  C   UNL A   1      35.546  24.088  25.856  1.00  0.00     0.015 A 
ATOM     13  C   UNL A   1      34.629  21.532  25.218  1.00  0.00     0.084 A 
ATOM     14  C   UNL A   1      34.173  23.858  25.708  1.00  0.00     0.019 A 
ATOM     15  Cl  UNL A   1      34.100  19.936  24.826  1.00  0.00    -0.080 Cl
ATOM     16  C   UNL A   1      33.717  22.580  25.381  1.00  0.00     0.146 A 
ATOM     17  C   UNL A   1      33.208  24.931  25.925  1.00  0.00     0.025 C 
ATOM     18  O   UNL A   1      32.381  22.307  25.263  1.00  0.00    -0.474 OA
ATOM     19  C   UNL A   1      31.516  23.431  24.947  1.00  0.00     0.314 C 
BRANCH  19  20
ATOM     20  C   UNL A   1      31.339  23.530  23.419  1.00  0.00     0.429 C 
ATOM     21  F   UNL A   1      30.089  23.955  23.111  1.00  0.00    -0.167 F 
ATOM     22  F   UNL A   1      32.193  24.418  22.856  1.00  0.00    -0.167 F 
ATOM     23  F   UNL A   1      31.534  22.348  22.793  1.00  0.00    -0.167 F 
ENDBRANCH  19  20
ENDBRANCH   5   8
ENDBRANCH   3   4
ENDBRANCH   2   3
ENDBRANCH   1   2
BRANCH   1  24
ATOM     24  C   UNL A   1      33.765  28.631  27.209  1.00  0.00     0.116 C 
BRANCH  24  25
ATOM     25  N   UNL A   1      33.712  29.993  27.721  1.00  0.00    -0.352 N 
ATOM     26  C   UNL A   1      34.718  30.712  28.321  1.00  0.00     0.251 C 
ATOM     27  H   UNL A   1      32.848  30.456  27.625  1.00  0.00     0.163 HD
ATOM     28  O   UNL A   1      34.509  31.833  28.770  1.00  0.00    -0.269 OA
BRANCH  26  29
ATOM     29  C   UNL A   1      36.046  30.089  28.458  1.00  0.00     0.039 A 
ATOM     30  C   UNL A   1      36.953  30.204  27.403  1.00  0.00     0.014 A 
ATOM     31  C   UNL A   1      36.410  29.463  29.653  1.00  0.00     0.014 A 
ATOM     32  C   UNL A   1      38.261  29.753  27.576  1.00  0.00     0.010 A 
ATOM     33  C   UNL A   1      37.730  29.068  29.843  1.00  0.00     0.010 A 
ATOM     34  C   UNL A   1      38.666  29.218  28.809  1.00  0.00    -0.014 A 
BRANCH  34  35
ATOM     35  C   UNL A   1      40.072  28.809  29.037  1.00  0.00     0.031 A 
ATOM     36  C   UNL A   1      41.026  29.754  29.705  1.00  0.00     0.074 A 
ATOM     37  C   UNL A   1      40.496  27.611  28.592  1.00  0.00     0.049 A 
ATOM     38  N   UNL A   1      42.304  29.607  29.939  1.00  0.00    -0.248 NA
ATOM     39  C   UNL A   1      40.475  31.045  30.149  1.00  0.00     0.031 C 
ATOM     40  C   UNL A   1      39.671  26.624  27.895  1.00  0.00     0.029 A 
ATOM     41  N   UNL A   1      41.733  27.022  28.661  1.00  0.00    -0.354 N 
ATOM     42  C   UNL A   1      42.712  30.786  30.547  1.00  0.00     0.074 A 
ATOM     43  C   UNL A   1      41.559  31.658  30.601  1.00  0.00     0.031 C 
ATOM     44  C   UNL A   1      40.415  25.539  27.626  1.00  0.00     0.029 A 
ATOM     45  C   UNL A   1      41.776  25.766  28.105  1.00  0.00     0.049 A 
ATOM     46  H   UNL A   1      42.516  27.457  29.069  1.00  0.00     0.167 HD
ATOM     47  C   UNL A   1      43.931  31.102  31.040  1.00  0.00     0.037 A 
ATOM     48  C   UNL A   1      42.798  24.897  27.999  1.00  0.00     0.037 A 
ATOM     49  C   UNL A   1      45.069  30.223  31.010  1.00  0.00     0.049 A 
ATOM     50  C   UNL A   1      44.144  25.274  28.547  1.00  0.00     0.074 A 
ATOM     51  C   UNL A   1      46.336  30.435  31.523  1.00  0.00     0.029 A 
ATOM     52  N   UNL A   1      45.072  28.959  30.438  1.00  0.00    -0.354 N 
ATOM     53  N   UNL A   1      44.507  26.377  29.156  1.00  0.00    -0.248 NA
ATOM     54  C   UNL A   1      45.223  24.288  28.394  1.00  0.00     0.031 C 
ATOM     55  C   UNL A   1      47.115  29.308  31.238  1.00  0.00     0.029 A 
ATOM     56  C   UNL A   1      46.323  28.384  30.576  1.00  0.00     0.049 A 
ATOM     57  H   UNL A   1      44.299  28.535  30.000  1.00  0.00     0.167 HD
ATOM     58  C   UNL A   1      45.847  26.212  29.475  1.00  0.00     0.074 A 
ATOM     59  C   UNL A   1      46.233  24.898  29.002  1.00  0.00     0.031 C 
ATOM     60  C   UNL A   1      46.685  27.073  30.102  1.00  0.00     0.037 A 
BRANCH  47  61
ATOM     61  C   UNL A   1      44.089  32.452  31.669  1.00  0.00     0.057 A 
ATOM     62  C   UNL A   1      43.859  32.652  33.037  1.00  0.00     0.134 A 
ATOM     63  C   UNL A   1      44.500  33.555  30.914  1.00  0.00     0.134 A 
ATOM     64  F   UNL A   1      43.448  31.637  33.812  1.00  0.00    -0.206 F 
ATOM     65  C   UNL A   1      44.014  33.907  33.627  1.00  0.00     0.040 A 
ATOM     66  C   UNL A   1      44.679  34.811  31.495  1.00  0.00     0.040 A 
ATOM     67  F   UNL A   1      44.738  33.430  29.599  1.00  0.00    -0.206 F 
ATOM     68  C   UNL A   1      44.433  34.990  32.856  1.00  0.00     0.006 A 
ENDBRANCH  47  61
BRANCH  48  69
ATOM     69  C   UNL A   1      42.574  23.568  27.381  1.00  0.00     0.057 A 
ATOM     70  C   UNL A   1      42.214  22.467  28.167  1.00  0.00     0.134 A 
ATOM     71  C   UNL A   1      42.699  23.366  26.002  1.00  0.00     0.134 A 
ATOM     72  F   UNL A   1      42.095  22.597  29.496  1.00  0.00    -0.206 F 
ATOM     73  C   UNL A   1      41.994  21.208  27.604  1.00  0.00     0.040 A 
ATOM     74  C   UNL A   1      42.464  22.117  25.424  1.00  0.00     0.040 A 
ATOM     75  F   UNL A   1      43.035  24.383  25.197  1.00  0.00    -0.206 F 
ATOM     76  C   UNL A   1      42.113  21.033  26.227  1.00  0.00     0.006 A 
ENDBRANCH  48  69
BRANCH  60  77
ATOM     77  C   UNL A   1      48.094  26.620  30.329  1.00  0.00     0.057 A 
ATOM     78  C   UNL A   1      48.452  25.886  31.465  1.00  0.00     0.134 A 
ATOM     79  C   UNL A   1      49.084  26.859  29.368  1.00  0.00     0.134 A 
ATOM     80  F   UNL A   1      47.550  25.635  32.425  1.00  0.00    -0.206 F 
ATOM     81  C   UNL A   1      49.752  25.411  31.643  1.00  0.00     0.040 A 
ATOM     82  C   UNL A   1      50.382  26.372  29.525  1.00  0.00     0.040 A 
ATOM     83  F   UNL A   1      48.800  27.550  28.254  1.00  0.00    -0.206 F 
ATOM     84  C   UNL A   1      50.719  25.646  30.667  1.00  0.00     0.006 A 
ENDBRANCH  60  77
ENDBRANCH  34  35
ENDBRANCH  26  29
ENDBRANCH  24  25
ENDBRANCH   1  24
TORSDOF 12
ENDMDL
MODEL 2
REMARK VINA RESULT:     -11.9      0.169      1.317
REMARK SMILES Cc1cc(Cl)c2c(c1)C=C(C(=O)NCCCCNC(=O)c1ccc(-c3c4nc(c(-c5c(F)cccc5F)c5ccc([nH]5)c(-c5c(F)cccc5F)c5nc(c(-c6c(F)cccc6F)c6ccc3[nH]6)C=C5)C=C4)cc1)[C@@H](C(F)(F)F)O2
REMARK SMILES IDX 16 1 15 2 14 3 13 4 11 5 12 6 10 8 1 9 2 10 3 11 8 12 4 13
REMARK SMILES IDX 7 14 5 15 6 16 9 17 80 18 75 19 76 20 77 21 78 22 79 23
REMARK SMILES IDX 17 24 18 25 19 26 20 28 21 29 22 30 74 31 23 32 73 33 24 34
REMARK SMILES IDX 25 35 26 36 67 37 27 38 72 39 66 40 68 41 28 42 71 43 65 44
REMARK SMILES IDX 64 45 29 47 55 48 38 49 54 50 39 51 42 52 53 53 69 54 40 55
REMARK SMILES IDX 41 56 52 58 70 59 43 60 30 61 31 62 36 63 32 64 33 65 35 66
REMARK SMILES IDX 37 67 34 68 56 69 57 70 62 71 58 72 59 73 61 74 63 75 60 76
REMARK SMILES IDX 44 77 45 78 50 79 46 80 47 81 49 82 51 83 48 84
REMARK H PARENT 13 7 18 27 68 46 42 57
REMARK Flexibility Score: inf
ROOT
ATOM      1  C   UNL A   1      33.994  28.462  25.760  1.00  0.00     0.023 C 
ENDROOT
BRANCH   1   2
ATOM      2  C   UNL A   1      32.816  28.756  24.829  1.00  0.00     0.023 C 
BRANCH   2   3
ATOM      3  C   UNL A   1      32.127  27.508  24.283  1.00  0.00     0.116 C 
BRANCH   3   4
ATOM      4  N   UNL A   1      31.282  26.877  25.281  1.00  0.00    -0.352 N 
ATOM      5  C   UNL A   1      31.199  25.667  25.882  1.00  0.00     0.251 C 
ATOM      6  O   UNL A   1      30.281  25.554  26.702  1.00  0.00    -0.270 OA
ATOM      7  H   UNL A   1      30.586  27.493  25.606  1.00  0.00     0.163 HD
BRANCH   5   8
ATOM      8  C   UNL A   1      32.108  24.509  25.627  1.00  0.00     0.067 C 
ATOM      9  C   UNL A   1      38.107  22.993  25.923  1.00  0.00     0.044 C 
ATOM     10  C   UNL A   1      36.634  22.777  25.739  1.00  0.00    -0.049 A 
ATOM     11  C   UNL A   1      36.159  21.513  25.367  1.00  0.00     0.028 A 
ATOM     12  C   UNL A   1      35.720  23.820  25.940  1.00  0.00     0.015 A 
ATOM     13  C   UNL A   1      34.790  21.297  25.197  1.00  0.00     0.084 A 
ATOM     14  C   UNL A   1      34.346  23.608  25.765  1.00  0.00     0.019 A 
ATOM     15  Cl  UNL A   1      34.254  19.720  24.742  1.00  0.00    -0.080 Cl
ATOM     16  C   UNL A   1      33.884  22.346  25.386  1.00  0.00     0.146 A 
ATOM     17  C   UNL A   1      33.387  24.680  26.009  1.00  0.00     0.025 C 
ATOM     18  O   UNL A   1      32.548  22.090  25.241  1.00  0.00    -0.474 OA
ATOM     19  C   UNL A   1      31.696  23.232  24.955  1.00  0.00     0.314 C 
BRANCH  19  20
ATOM     20  C   UNL A   1      31.541  23.387  23.429  1.00  0.00     0.429 C 
ATOM     21  F   UNL A   1      30.274  23.757  23.115  1.00  0.00    -0.167 F 
ATOM     22  F   UNL A   1      32.354  24.344  22.922  1.00  0.00    -0.167 F 
ATOM     23  F   UNL A   1      31.812  22.246  22.758  1.00  0.00    -0.167 F 
ENDBRANCH  19  20
ENDBRANCH   5   8
ENDBRANCH   3   4
ENDBRANCH   2   3
ENDBRANCH   1   2
BRANCH   1  24
ATOM     24  C   UNL A   1      33.695  28.582  27.253  1.00  0.00     0.116 C 
BRANCH  24  25
ATOM     25  N   UNL A   1      33.649  29.954  27.738  1.00  0.00    -0.352 N 
ATOM     26  C   UNL A   1      34.664  30.685  28.308  1.00  0.00     0.251 C 
ATOM     27  H   UNL A   1      32.784  30.415  27.645  1.00  0.00     0.163 HD
ATOM     28  O   UNL A   1      34.462  31.816  28.738  1.00  0.00    -0.269 OA
BRANCH  26  29
ATOM     29  C   UNL A   1      35.994  30.065  28.439  1.00  0.00     0.039 A 
ATOM     30  C   UNL A   1      36.893  30.177  27.378  1.00  0.00     0.014 A 
ATOM     31  C   UNL A   1      36.367  29.444  29.634  1.00  0.00     0.014 A 
ATOM     32  C   UNL A   1      38.204  29.729  27.543  1.00  0.00     0.010 A 
ATOM     33  C   UNL A   1      37.689  29.051  29.816  1.00  0.00     0.010 A 
ATOM     34  C   UNL A   1      38.618  29.199  28.775  1.00  0.00    -0.014 A 
BRANCH  34  35
ATOM     35  C   UNL A   1      40.026  28.793  28.995  1.00  0.00     0.031 A 
ATOM     36  C   UNL A   1      40.984  29.745  29.648  1.00  0.00     0.074 A 
ATOM     37  C   UNL A   1      40.448  27.592  28.556  1.00  0.00     0.049 A 
ATOM     38  N   UNL A   1      42.264  29.600  29.872  1.00  0.00    -0.248 NA
ATOM     39  C   UNL A   1      40.436  31.038  30.085  1.00  0.00     0.031 C 
ATOM     40  C   UNL A   1      39.617  26.599  27.873  1.00  0.00     0.029 A 
ATOM     41  N   UNL A   1      41.686  27.005  28.620  1.00  0.00    -0.354 N 
ATOM     42  C   UNL A   1      42.676  30.785  30.468  1.00  0.00     0.074 A 
ATOM     43  C   UNL A   1      41.523  31.656  30.524  1.00  0.00     0.031 C 
ATOM     44  C   UNL A   1      40.361  25.513  27.608  1.00  0.00     0.029 A 
ATOM     45  C   UNL A   1      41.725  25.745  28.074  1.00  0.00     0.049 A 
ATOM     46  H   UNL A   1      42.471  27.444  29.018  1.00  0.00     0.167 HD
ATOM     47  C   UNL A   1      43.899  31.106  30.948  1.00  0.00     0.037 A 
ATOM     48  C   UNL A   1      42.747  24.875  27.966  1.00  0.00     0.037 A 
ATOM     49  C   UNL A   1      45.037  30.227  30.916  1.00  0.00     0.049 A 
ATOM     50  C   UNL A   1      44.097  25.258  28.501  1.00  0.00     0.074 A 
ATOM     51  C   UNL A   1      46.308  30.444  31.417  1.00  0.00     0.029 A 
ATOM     52  N   UNL A   1      45.037  28.959  30.355  1.00  0.00    -0.354 N 
ATOM     53  N   UNL A   1      44.464  26.366  29.098  1.00  0.00    -0.248 NA
ATOM     54  C   UNL A   1      45.176  24.272  28.347  1.00  0.00     0.031 C 
ATOM     55  C   UNL A   1      47.086  29.316  31.136  1.00  0.00     0.029 A 
ATOM     56  C   UNL A   1      46.290  28.386  30.487  1.00  0.00     0.049 A 
ATOM     57  H   UNL A   1      44.261  28.531  29.926  1.00  0.00     0.167 HD
ATOM     58  C   UNL A   1      45.807  26.205  29.407  1.00  0.00     0.074 A 
ATOM     59  C   UNL A   1      46.190  24.887  28.942  1.00  0.00     0.031 C 
ATOM     60  C   UNL A   1      46.648  27.071  30.021  1.00  0.00     0.037 A 
BRANCH  47  61
ATOM     61  C   UNL A   1      44.060  32.461  31.566  1.00  0.00     0.057 A 
ATOM     62  C   UNL A   1      44.417  33.577  30.797  1.00  0.00     0.134 A 
ATOM     63  C   UNL A   1      43.831  32.661  32.932  1.00  0.00     0.134 A 
ATOM     64  F   UNL A   1      44.666  33.447  29.486  1.00  0.00    -0.206 F 
ATOM     65  C   UNL A   1      44.559  34.841  31.370  1.00  0.00     0.040 A 
ATOM     66  C   UNL A   1      43.949  33.924  33.512  1.00  0.00     0.040 A 
ATOM     67  F   UNL A   1      43.485  31.634  33.722  1.00  0.00    -0.206 F 
ATOM     68  C   UNL A   1      44.317  35.019  32.730  1.00  0.00     0.006 A 
ENDBRANCH  47  61
BRANCH  48  69
ATOM     69  C   UNL A   1      42.520  23.541  27.361  1.00  0.00     0.057 A 
ATOM     70  C   UNL A   1      42.712  23.336  25.990  1.00  0.00     0.134 A 
ATOM     71  C   UNL A   1      42.123  22.442  28.130  1.00  0.00     0.134 A 
ATOM     72  F   UNL A   1      43.076  24.357  25.201  1.00  0.00    -0.206 F 
ATOM     73  C   UNL A   1      42.508  22.087  25.402  1.00  0.00     0.040 A 
ATOM     74  C   UNL A   1      41.933  21.182  27.558  1.00  0.00     0.040 A 
ATOM     75  F   UNL A   1      41.929  22.573  29.450  1.00  0.00    -0.206 F 
ATOM     76  C   UNL A   1      42.123  21.003  26.189  1.00  0.00     0.006 A 
ENDBRANCH  48  69
BRANCH  60  77
ATOM     77  C   UNL A   1      48.060  26.622  30.240  1.00  0.00     0.057 A 
ATOM     78  C   UNL A   1      48.432  25.914  31.389  1.00  0.00     0.134 A 
ATOM     79  C   UNL A   1      49.037  26.835  29.261  1.00  0.00     0.134 A 
ATOM     80  F   UNL A   1      47.542  25.688  32.366  1.00  0.00    -0.206 F 
ATOM     81  C   UNL A   1      49.734  25.441  31.560  1.00  0.00     0.040 A 
ATOM     82  C   UNL A   1      50.337  26.350  29.412  1.00  0.00     0.040 A 
ATOM     83  F   UNL A   1      48.740  27.500  28.134  1.00  0.00    -0.206 F 
ATOM     84  C   UNL A   1      50.687  25.651  30.566  1.00  0.00     0.006 A 
ENDBRANCH  60  77
ENDBRANCH  34  35
ENDBRANCH  26  29
ENDBRANCH  24  25
ENDBRANCH   1  24
TORSDOF 12
ENDMDL
MODEL 3
REMARK VINA RESULT:     -11.8      3.620      5.240
REMARK SMILES Cc1cc(Cl)c2c(c1)C=C(C(=O)NCCCCNC(=O)c1ccc(-c3c4nc(c(-c5c(F)cccc5F)c5ccc([nH]5)c(-c5c(F)cccc5F)c5nc(c(-c6c(F)cccc6F)c6ccc3[nH]6)C=C5)C=C4)cc1)[C@@H](C(F)(F)F)O2
REMARK SMILES IDX 16 1 15 2 14 3 13 4 11 5 12 6 10 8 1 9 2 10 3 11 8 12 4 13
REMARK SMILES IDX 7 14 5 15 6 16 9 17 80 18 75 19 76 20 77 21 78 22 79 23
REMARK SMILES IDX 17 24 18 25 19 26 20 28 21 29 22 30 74 31 23 32 73 33 24 34
REMARK SMILES IDX 25 35 26 36 67 37 27 38 72 39 66 40 68 41 28 42 71 43 65 44
REMARK SMILES IDX 64 45 29 47 55 48 38 49 54 50 39 51 42 52 53 53 69 54 40 55
REMARK SMILES IDX 41 56 52 58 70 59 43 60 30 61 31 62 36 63 32 64 33 65 35 66
REMARK SMILES IDX 37 67 34 68 56 69 57 70 62 71 58 72 59 73 61 74 63 75 60 76
REMARK SMILES IDX 44 77 45 78 50 79 46 80 47 81 49 82 51 83 48 84
REMARK H PARENT 13 7 18 27 68 46 42 57
REMARK Flexibility Score: inf
ROOT
ATOM      1  C   UNL A   1      31.572  32.027  26.645  1.00  0.00     0.023 C 
ENDROOT
BRANCH   1   2
ATOM      2  C   UNL A   1      31.780  30.513  26.581  1.00  0.00     0.023 C 
BRANCH   2   3
ATOM      3  C   UNL A   1      33.189  30.095  26.167  1.00  0.00     0.116 C 
BRANCH   3   4
ATOM      4  N   UNL A   1      33.247  29.703  24.770  1.00  0.00    -0.352 N 
ATOM      5  C   UNL A   1      33.046  28.573  24.054  1.00  0.00     0.251 C 
ATOM      6  O   UNL A   1      33.221  28.689  22.836  1.00  0.00    -0.270 OA
ATOM      7  H   UNL A   1      33.500  30.459  24.193  1.00  0.00     0.163 HD
BRANCH   5   8
ATOM      8  C   UNL A   1      32.642  27.250  24.618  1.00  0.00     0.067 C 
ATOM      9  C   UNL A   1      35.133  21.900  26.502  1.00  0.00     0.044 C 
ATOM     10  C   UNL A   1      34.058  22.922  26.280  1.00  0.00    -0.049 A 
ATOM     11  C   UNL A   1      32.734  22.622  26.626  1.00  0.00     0.028 A 
ATOM     12  C   UNL A   1      34.355  24.179  25.736  1.00  0.00     0.015 A 
ATOM     13  C   UNL A   1      31.724  23.566  26.430  1.00  0.00     0.084 A 
ATOM     14  C   UNL A   1      33.343  25.125  25.533  1.00  0.00     0.019 A 
ATOM     15  Cl  UNL A   1      30.108  23.150  26.876  1.00  0.00    -0.080 Cl
ATOM     16  C   UNL A   1      32.026  24.813  25.874  1.00  0.00     0.146 A 
ATOM     17  C   UNL A   1      33.653  26.448  25.002  1.00  0.00     0.025 C 
ATOM     18  O   UNL A   1      31.015  25.724  25.725  1.00  0.00    -0.474 OA
ATOM     19  C   UNL A   1      31.225  26.768  24.736  1.00  0.00     0.314 C 
BRANCH  19  20
ATOM     20  C   UNL A   1      30.636  26.320  23.384  1.00  0.00     0.429 C 
ATOM     21  F   UNL A   1      29.947  27.335  22.805  1.00  0.00    -0.167 F 
ATOM     22  F   UNL A   1      31.594  25.957  22.497  1.00  0.00    -0.167 F 
ATOM     23  F   UNL A   1      29.794  25.271  23.503  1.00  0.00    -0.167 F 
ENDBRANCH  19  20
ENDBRANCH   5   8
ENDBRANCH   3   4
ENDBRANCH   2   3
ENDBRANCH   1   2
BRANCH   1  24
ATOM     24  C   UNL A   1      32.723  32.823  27.256  1.00  0.00     0.116 C 
BRANCH  24  25
ATOM     25  N   UNL A   1      32.367  34.186  27.626  1.00  0.00    -0.352 N 
ATOM     26  C   UNL A   1      32.981  35.002  28.546  1.00  0.00     0.251 C 
ATOM     27  H   UNL A   1      31.591  34.571  27.158  1.00  0.00     0.163 HD
ATOM     28  O   UNL A   1      32.528  36.110  28.808  1.00  0.00    -0.269 OA
BRANCH  26  29
ATOM     29  C   UNL A   1      34.174  34.498  29.251  1.00  0.00     0.039 A 
ATOM     30  C   UNL A   1      34.005  33.846  30.473  1.00  0.00     0.014 A 
ATOM     31  C   UNL A   1      35.437  34.607  28.664  1.00  0.00     0.014 A 
ATOM     32  C   UNL A   1      35.101  33.232  31.077  1.00  0.00     0.010 A 
ATOM     33  C   UNL A   1      36.517  33.945  29.238  1.00  0.00     0.010 A 
ATOM     34  C   UNL A   1      36.354  33.246  30.444  1.00  0.00    -0.014 A 
BRANCH  34  35
ATOM     35  C   UNL A   1      37.512  32.531  31.030  1.00  0.00     0.031 A 
ATOM     36  C   UNL A   1      38.115  33.012  32.317  1.00  0.00     0.074 A 
ATOM     37  C   UNL A   1      38.049  31.485  30.374  1.00  0.00     0.049 A 
ATOM     38  N   UNL A   1      39.163  32.562  32.955  1.00  0.00    -0.248 NA
ATOM     39  C   UNL A   1      37.467  34.168  32.958  1.00  0.00     0.031 C 
ATOM     40  C   UNL A   1      37.573  30.950  29.097  1.00  0.00     0.029 A 
ATOM     41  N   UNL A   1      39.117  30.686  30.692  1.00  0.00    -0.354 N 
ATOM     42  C   UNL A   1      39.306  33.382  34.066  1.00  0.00     0.074 A 
ATOM     43  C   UNL A   1      38.270  34.387  33.989  1.00  0.00     0.031 C 
ATOM     44  C   UNL A   1      38.326  29.892  28.756  1.00  0.00     0.029 A 
ATOM     45  C   UNL A   1      39.356  29.694  29.772  1.00  0.00     0.049 A 
ATOM     46  H   UNL A   1      39.661  30.811  31.503  1.00  0.00     0.167 HD
ATOM     47  C   UNL A   1      40.205  33.287  35.073  1.00  0.00     0.037 A 
ATOM     48  C   UNL A   1      40.296  28.731  29.755  1.00  0.00     0.037 A 
ATOM     49  C   UNL A   1      41.217  32.269  35.161  1.00  0.00     0.049 A 
ATOM     50  C   UNL A   1      41.287  28.652  30.882  1.00  0.00     0.074 A 
ATOM     51  C   UNL A   1      42.146  32.063  36.165  1.00  0.00     0.029 A 
ATOM     52  N   UNL A   1      41.426  31.282  34.210  1.00  0.00    -0.354 N 
ATOM     53  N   UNL A   1      41.387  29.409  31.946  1.00  0.00    -0.248 NA
ATOM     54  C   UNL A   1      42.296  27.586  30.804  1.00  0.00     0.031 C 
ATOM     55  C   UNL A   1      42.936  30.966  35.808  1.00  0.00     0.029 A 
ATOM     56  C   UNL A   1      42.478  30.471  34.598  1.00  0.00     0.049 A 
ATOM     57  H   UNL A   1      40.904  31.176  33.382  1.00  0.00     0.167 HD
ATOM     58  C   UNL A   1      42.454  28.903  32.675  1.00  0.00     0.074 A 
ATOM     59  C   UNL A   1      42.965  27.766  31.936  1.00  0.00     0.031 C 
ATOM     60  C   UNL A   1      42.967  29.342  33.849  1.00  0.00     0.037 A 
BRANCH  47  61
ATOM     61  C   UNL A   1      40.118  34.305  36.168  1.00  0.00     0.057 A 
ATOM     62  C   UNL A   1      39.353  34.077  37.320  1.00  0.00     0.134 A 
ATOM     63  C   UNL A   1      40.825  35.510  36.088  1.00  0.00     0.134 A 
ATOM     64  F   UNL A   1      38.640  32.948  37.448  1.00  0.00    -0.206 F 
ATOM     65  C   UNL A   1      39.278  35.021  38.344  1.00  0.00     0.040 A 
ATOM     66  C   UNL A   1      40.776  36.453  37.116  1.00  0.00     0.040 A 
ATOM     67  F   UNL A   1      41.577  35.789  35.013  1.00  0.00    -0.206 F 
ATOM     68  C   UNL A   1      39.997  36.210  38.247  1.00  0.00     0.006 A 
ENDBRANCH  47  61
BRANCH  48  69
ATOM     69  C   UNL A   1      40.319  27.741  28.653  1.00  0.00     0.057 A 
ATOM     70  C   UNL A   1      41.057  27.984  27.489  1.00  0.00     0.134 A 
ATOM     71  C   UNL A   1      39.622  26.530  28.736  1.00  0.00     0.134 A 
ATOM     72  F   UNL A   1      41.731  29.135  27.346  1.00  0.00    -0.206 F 
ATOM     73  C   UNL A   1      41.095  27.063  26.441  1.00  0.00     0.040 A 
ATOM     74  C   UNL A   1      39.667  25.591  27.703  1.00  0.00     0.040 A 
ATOM     75  F   UNL A   1      38.903  26.236  29.828  1.00  0.00    -0.206 F 
ATOM     76  C   UNL A   1      40.403  25.858  26.551  1.00  0.00     0.006 A 
ENDBRANCH  48  69
BRANCH  60  77
ATOM     77  C   UNL A   1      44.127  28.585  34.419  1.00  0.00     0.057 A 
ATOM     78  C   UNL A   1      45.448  28.973  34.167  1.00  0.00     0.134 A 
ATOM     79  C   UNL A   1      43.919  27.505  35.285  1.00  0.00     0.134 A 
ATOM     80  F   UNL A   1      45.710  29.994  33.337  1.00  0.00    -0.206 F 
ATOM     81  C   UNL A   1      46.525  28.305  34.751  1.00  0.00     0.040 A 
ATOM     82  C   UNL A   1      44.987  26.842  35.890  1.00  0.00     0.040 A 
ATOM     83  F   UNL A   1      42.675  27.091  35.572  1.00  0.00    -0.206 F 
ATOM     84  C   UNL A   1      46.295  27.242  35.622  1.00  0.00     0.006 A 
ENDBRANCH  60  77
ENDBRANCH  34  35
ENDBRANCH  26  29
ENDBRANCH  24  25
ENDBRANCH   1  24
TORSDOF 12
ENDMDL
