MODEL 1
REMARK VINA RESULT:     -11.8      0.000      0.000
REMARK SMILES O=C(NCCCCNC(=O)[C@H]1CCCCN1C(=O)CCc1cccnc1)c1ccc(-c2c3nc(c(-c4c(F)cccc4F)c4ccc([nH]4)c(-c4c(F)cccc4F)c4nc(c(-c5c(F)cccc5F)c5ccc2[nH]5)C=C4)C=C3)cc1
REMARK SMILES IDX 6 1 5 2 4 3 3 4 1 5 2 6 27 8 28 9 80 10 29 11 79 12 30 13
REMARK SMILES IDX 31 14 32 15 73 16 33 17 78 18 72 19 74 20 34 21 77 22 71 23
REMARK SMILES IDX 70 24 35 26 61 27 44 28 60 29 45 30 48 31 59 32 75 33 46 34
REMARK SMILES IDX 47 35 58 37 76 38 49 39 36 40 37 41 42 42 38 43 39 44 41 45
REMARK SMILES IDX 43 46 40 47 62 48 63 49 68 50 64 51 65 52 67 53 69 54 66 55
REMARK SMILES IDX 50 56 51 57 56 58 52 59 53 60 55 61 57 62 54 63 7 64 8 65
REMARK SMILES IDX 9 66 10 68 11 69 12 70 16 71 13 72 15 73 14 74 17 75 18 76
REMARK SMILES IDX 19 77 20 78 21 79 22 80 26 81 23 82 25 83 24 84
REMARK H PARENT 3 7 74 25 48 36 8 67
REMARK Flexibility Score: inf
ROOT
ATOM      1  C   UNL A   1      31.790  30.416  26.668  1.00  0.00     0.023 C 
ENDROOT
BRANCH   1   2
ATOM      2  C   UNL A   1      31.557  31.915  26.827  1.00  0.00     0.023 C 
BRANCH   2   3
ATOM      3  C   UNL A   1      32.816  32.750  27.030  1.00  0.00     0.116 C 
BRANCH   3   4
ATOM      4  N   UNL A   1      32.549  34.057  27.617  1.00  0.00    -0.352 N 
ATOM      5  O   UNL A   1      32.732  35.708  29.154  1.00  0.00    -0.269 OA
ATOM      6  C   UNL A   1      33.152  34.650  28.698  1.00  0.00     0.251 C 
ATOM      7  H   UNL A   1      31.842  34.585  27.180  1.00  0.00     0.163 HD
BRANCH   6   8
ATOM      8  C   UNL A   1      34.308  33.978  29.319  1.00  0.00     0.039 A 
ATOM      9  C   UNL A   1      35.603  34.345  28.946  1.00  0.00     0.014 A 
ATOM     10  C   UNL A   1      34.090  32.955  30.243  1.00  0.00     0.014 A 
ATOM     11  C   UNL A   1      36.681  33.601  29.401  1.00  0.00     0.010 A 
ATOM     12  C   UNL A   1      35.183  32.260  30.763  1.00  0.00     0.010 A 
ATOM     13  C   UNL A   1      36.483  32.567  30.331  1.00  0.00    -0.014 A 
BRANCH  13  14
ATOM     14  C   UNL A   1      37.663  31.908  30.934  1.00  0.00     0.031 A 
ATOM     15  C   UNL A   1      38.428  30.845  30.204  1.00  0.00     0.074 A 
ATOM     16  C   UNL A   1      38.027  32.291  32.173  1.00  0.00     0.049 A 
ATOM     17  N   UNL A   1      39.460  30.152  30.613  1.00  0.00    -0.248 NA
ATOM     18  C   UNL A   1      37.981  30.508  28.843  1.00  0.00     0.031 C 
ATOM     19  C   UNL A   1      37.333  33.304  32.977  1.00  0.00     0.029 A 
ATOM     20  N   UNL A   1      39.060  31.885  32.974  1.00  0.00    -0.354 N 
ATOM     21  C   UNL A   1      39.772  29.283  29.577  1.00  0.00     0.074 A 
ATOM     22  C   UNL A   1      38.817  29.528  28.518  1.00  0.00     0.031 C 
ATOM     23  C   UNL A   1      37.973  33.455  34.143  1.00  0.00     0.029 A 
ATOM     24  C   UNL A   1      39.077  32.507  34.198  1.00  0.00     0.049 A 
ATOM     25  H   UNL A   1      39.725  31.212  32.699  1.00  0.00     0.167 HD
ATOM     26  C   UNL A   1      40.767  28.366  29.527  1.00  0.00     0.037 A 
ATOM     27  C   UNL A   1      39.869  32.308  35.266  1.00  0.00     0.037 A 
ATOM     28  C   UNL A   1      41.728  28.155  30.579  1.00  0.00     0.049 A 
ATOM     29  C   UNL A   1      40.944  31.266  35.183  1.00  0.00     0.074 A 
ATOM     30  C   UNL A   1      42.826  27.313  30.588  1.00  0.00     0.029 A 
ATOM     31  N   UNL A   1      41.695  28.782  31.816  1.00  0.00    -0.354 N 
ATOM     32  N   UNL A   1      41.265  30.495  34.173  1.00  0.00    -0.248 NA
ATOM     33  C   UNL A   1      41.755  31.057  36.388  1.00  0.00     0.031 C 
ATOM     34  C   UNL A   1      43.430  27.393  31.846  1.00  0.00     0.029 A 
ATOM     35  C   UNL A   1      42.731  28.314  32.609  1.00  0.00     0.049 A 
ATOM     36  H   UNL A   1      41.035  29.460  32.090  1.00  0.00     0.167 HD
ATOM     37  C   UNL A   1      42.314  29.707  34.620  1.00  0.00     0.074 A 
ATOM     38  C   UNL A   1      42.595  30.117  35.982  1.00  0.00     0.031 C 
ATOM     39  C   UNL A   1      42.980  28.725  33.966  1.00  0.00     0.037 A 
BRANCH  26  40
ATOM     40  C   UNL A   1      40.877  27.502  28.305  1.00  0.00     0.057 A 
ATOM     41  C   UNL A   1      40.159  26.307  28.176  1.00  0.00     0.134 A 
ATOM     42  C   UNL A   1      41.631  27.927  27.204  1.00  0.00     0.134 A 
ATOM     43  F   UNL A   1      39.422  25.843  29.196  1.00  0.00    -0.206 F 
ATOM     44  C   UNL A   1      40.190  25.564  26.994  1.00  0.00     0.040 A 
ATOM     45  C   UNL A   1      41.656  27.202  26.011  1.00  0.00     0.040 A 
ATOM     46  F   UNL A   1      42.336  29.067  27.260  1.00  0.00    -0.206 F 
ATOM     47  C   UNL A   1      40.930  26.017  25.903  1.00  0.00     0.006 A 
ENDBRANCH  26  40
BRANCH  27  48
ATOM     48  C   UNL A   1      39.636  33.078  36.510  1.00  0.00     0.057 A 
ATOM     49  C   UNL A   1      40.306  34.278  36.760  1.00  0.00     0.134 A 
ATOM     50  C   UNL A   1      38.724  32.632  37.477  1.00  0.00     0.134 A 
ATOM     51  F   UNL A   1      41.201  34.748  35.879  1.00  0.00    -0.206 F 
ATOM     52  C   UNL A   1      40.090  35.003  37.933  1.00  0.00     0.040 A 
ATOM     53  C   UNL A   1      38.478  33.359  38.640  1.00  0.00     0.040 A 
ATOM     54  F   UNL A   1      38.043  31.491  37.291  1.00  0.00    -0.206 F 
ATOM     55  C   UNL A   1      39.169  34.545  38.875  1.00  0.00     0.006 A 
ENDBRANCH  27  48
BRANCH  39  56
ATOM     56  C   UNL A   1      44.066  28.028  34.726  1.00  0.00     0.057 A 
ATOM     57  C   UNL A   1      45.372  28.530  34.754  1.00  0.00     0.134 A 
ATOM     58  C   UNL A   1      43.801  26.859  35.448  1.00  0.00     0.134 A 
ATOM     59  F   UNL A   1      45.691  29.637  34.064  1.00  0.00    -0.206 F 
ATOM     60  C   UNL A   1      46.385  27.882  35.460  1.00  0.00     0.040 A 
ATOM     61  C   UNL A   1      44.800  26.214  36.178  1.00  0.00     0.040 A 
ATOM     62  F   UNL A   1      42.568  26.332  35.463  1.00  0.00    -0.206 F 
ATOM     63  C   UNL A   1      46.098  26.724  36.181  1.00  0.00     0.006 A 
ENDBRANCH  39  56
ENDBRANCH  13  14
ENDBRANCH   6   8
ENDBRANCH   3   4
ENDBRANCH   2   3
ENDBRANCH   1   2
BRANCH   1  64
ATOM     64  C   UNL A   1      31.602  29.887  25.253  1.00  0.00     0.116 C 
BRANCH  64  65
ATOM     65  N   UNL A   1      32.853  29.583  24.595  1.00  0.00    -0.354 N 
ATOM     66  C   UNL A   1      33.346  28.475  23.987  1.00  0.00     0.242 C 
ATOM     67  H   UNL A   1      33.481  30.342  24.587  1.00  0.00     0.163 HD
ATOM     68  O   UNL A   1      34.478  28.628  23.500  1.00  0.00    -0.273 OA
BRANCH  66  69
ATOM     69  C   UNL A   1      32.618  27.100  23.832  1.00  0.00     0.174 C 
ATOM     70  C   UNL A   1      33.333  25.837  23.343  1.00  0.00     0.035 C 
ATOM     71  N   UNL A   1      32.030  26.748  25.148  1.00  0.00    -0.331 N 
ATOM     72  C   UNL A   1      34.349  25.288  24.357  1.00  0.00     0.004 C 
ATOM     73  C   UNL A   1      33.035  26.477  26.164  1.00  0.00     0.120 C 
ATOM     74  C   UNL A   1      33.766  25.196  25.766  1.00  0.00     0.022 C 
BRANCH  71  75
ATOM     75  C   UNL A   1      30.714  26.318  25.210  1.00  0.00     0.223 C 
ATOM     76  O   UNL A   1      30.154  26.104  26.288  1.00  0.00    -0.275 OA
BRANCH  75  77
ATOM     77  C   UNL A   1      29.937  26.086  23.917  1.00  0.00     0.105 C 
BRANCH  77  78
ATOM     78  C   UNL A   1      28.614  26.867  23.813  1.00  0.00     0.047 C 
BRANCH  78  79
ATOM     79  C   UNL A   1      28.677  28.197  23.099  1.00  0.00    -0.029 A 
ATOM     80  C   UNL A   1      27.599  29.090  23.070  1.00  0.00     0.007 A 
ATOM     81  C   UNL A   1      29.826  28.583  22.411  1.00  0.00     0.114 A 
ATOM     82  C   UNL A   1      27.653  30.220  22.258  1.00  0.00     0.020 A 
ATOM     83  N   UNL A   1      29.912  29.681  21.623  1.00  0.00    -0.264 NA
ATOM     84  C   UNL A   1      28.814  30.461  21.547  1.00  0.00     0.111 A 
ENDBRANCH  78  79
ENDBRANCH  77  78
ENDBRANCH  75  77
ENDBRANCH  71  75
ENDBRANCH  66  69
ENDBRANCH  64  65
ENDBRANCH   1  64
TORSDOF 15
ENDMDL
MODEL 2
REMARK VINA RESULT:     -11.6      5.686     10.631
REMARK SMILES O=C(NCCCCNC(=O)[C@H]1CCCCN1C(=O)CCc1cccnc1)c1ccc(-c2c3nc(c(-c4c(F)cccc4F)c4ccc([nH]4)c(-c4c(F)cccc4F)c4nc(c(-c5c(F)cccc5F)c5ccc2[nH]5)C=C4)C=C3)cc1
REMARK SMILES IDX 6 1 5 2 4 3 3 4 1 5 2 6 27 8 28 9 80 10 29 11 79 12 30 13
REMARK SMILES IDX 31 14 32 15 73 16 33 17 78 18 72 19 74 20 34 21 77 22 71 23
REMARK SMILES IDX 70 24 35 26 61 27 44 28 60 29 45 30 48 31 59 32 75 33 46 34
REMARK SMILES IDX 47 35 58 37 76 38 49 39 36 40 37 41 42 42 38 43 39 44 41 45
REMARK SMILES IDX 43 46 40 47 62 48 63 49 68 50 64 51 65 52 67 53 69 54 66 55
REMARK SMILES IDX 50 56 51 57 56 58 52 59 53 60 55 61 57 62 54 63 7 64 8 65
REMARK SMILES IDX 9 66 10 68 11 69 12 70 16 71 13 72 15 73 14 74 17 75 18 76
REMARK SMILES IDX 19 77 20 78 21 79 22 80 26 81 23 82 25 83 24 84
REMARK H PARENT 3 7 74 25 48 36 8 67
REMARK Flexibility Score: inf
ROOT
ATOM      1  C   UNL A   1      36.859  20.255  24.986  1.00  0.00     0.023 C 
ENDROOT
BRANCH   1   2
ATOM      2  C   UNL A   1      38.067  19.324  24.990  1.00  0.00     0.023 C 
BRANCH   2   3
ATOM      3  C   UNL A   1      39.280  19.836  25.757  1.00  0.00     0.116 C 
BRANCH   3   4
ATOM      4  N   UNL A   1      40.360  18.861  25.842  1.00  0.00    -0.352 N 
ATOM      5  O   UNL A   1      42.507  18.165  26.006  1.00  0.00    -0.269 OA
ATOM      6  C   UNL A   1      41.693  19.078  26.090  1.00  0.00     0.251 C 
ATOM      7  H   UNL A   1      40.099  17.922  25.704  1.00  0.00     0.163 HD
BRANCH   6   8
ATOM      8  C   UNL A   1      42.134  20.440  26.440  1.00  0.00     0.039 A 
ATOM      9  C   UNL A   1      42.211  20.817  27.783  1.00  0.00     0.014 A 
ATOM     10  C   UNL A   1      42.430  21.347  25.421  1.00  0.00     0.014 A 
ATOM     11  C   UNL A   1      42.461  22.143  28.106  1.00  0.00     0.010 A 
ATOM     12  C   UNL A   1      42.761  22.661  25.752  1.00  0.00     0.010 A 
ATOM     13  C   UNL A   1      42.762  23.071  27.095  1.00  0.00    -0.014 A 
BRANCH  13  14
ATOM     14  C   UNL A   1      43.197  24.433  27.478  1.00  0.00     0.031 A 
ATOM     15  C   UNL A   1      42.215  25.479  27.914  1.00  0.00     0.074 A 
ATOM     16  C   UNL A   1      44.514  24.708  27.414  1.00  0.00     0.049 A 
ATOM     17  N   UNL A   1      42.441  26.724  28.247  1.00  0.00    -0.248 NA
ATOM     18  C   UNL A   1      40.799  25.086  27.984  1.00  0.00     0.031 C 
ATOM     19  C   UNL A   1      45.549  23.762  26.981  1.00  0.00     0.029 A 
ATOM     20  N   UNL A   1      45.211  25.848  27.711  1.00  0.00    -0.354 N 
ATOM     21  C   UNL A   1      41.199  27.272  28.540  1.00  0.00     0.074 A 
ATOM     22  C   UNL A   1      40.218  26.225  28.343  1.00  0.00     0.031 C 
ATOM     23  C   UNL A   1      46.748  24.353  27.063  1.00  0.00     0.029 A 
ATOM     24  C   UNL A   1      46.561  25.735  27.487  1.00  0.00     0.049 A 
ATOM     25  H   UNL A   1      44.786  26.668  28.051  1.00  0.00     0.167 HD
ATOM     26  C   UNL A   1      40.916  28.535  28.938  1.00  0.00     0.037 A 
ATOM     27  C   UNL A   1      47.539  26.652  27.573  1.00  0.00     0.037 A 
ATOM     28  C   UNL A   1      41.908  29.556  29.158  1.00  0.00     0.049 A 
ATOM     29  C   UNL A   1      47.185  28.047  27.991  1.00  0.00     0.074 A 
ATOM     30  C   UNL A   1      41.730  30.839  29.645  1.00  0.00     0.029 A 
ATOM     31  N   UNL A   1      43.261  29.414  28.891  1.00  0.00    -0.354 N 
ATOM     32  N   UNL A   1      46.014  28.533  28.325  1.00  0.00    -0.248 NA
ATOM     33  C   UNL A   1      48.280  29.024  28.029  1.00  0.00     0.031 C 
ATOM     34  C   UNL A   1      42.967  31.490  29.627  1.00  0.00     0.029 A 
ATOM     35  C   UNL A   1      43.923  30.600  29.165  1.00  0.00     0.049 A 
ATOM     36  H   UNL A   1      43.689  28.592  28.558  1.00  0.00     0.167 HD
ATOM     37  C   UNL A   1      46.230  29.872  28.612  1.00  0.00     0.074 A 
ATOM     38  C   UNL A   1      47.649  30.113  28.443  1.00  0.00     0.031 C 
ATOM     39  C   UNL A   1      45.333  30.820  28.973  1.00  0.00     0.037 A 
BRANCH  26  40
ATOM     40  C   UNL A   1      39.478  28.907  29.152  1.00  0.00     0.057 A 
ATOM     41  C   UNL A   1      38.658  29.334  28.101  1.00  0.00     0.134 A 
ATOM     42  C   UNL A   1      38.883  28.735  30.409  1.00  0.00     0.134 A 
ATOM     43  F   UNL A   1      39.167  29.522  26.874  1.00  0.00    -0.206 F 
ATOM     44  C   UNL A   1      37.296  29.578  28.294  1.00  0.00     0.040 A 
ATOM     45  C   UNL A   1      37.521  28.961  30.610  1.00  0.00     0.040 A 
ATOM     46  F   UNL A   1      39.613  28.322  31.457  1.00  0.00    -0.206 F 
ATOM     47  C   UNL A   1      36.722  29.381  29.549  1.00  0.00     0.006 A 
ENDBRANCH  26  40
BRANCH  27  48
ATOM     48  C   UNL A   1      48.928  26.286  27.208  1.00  0.00     0.057 A 
ATOM     49  C   UNL A   1      49.830  25.809  28.163  1.00  0.00     0.134 A 
ATOM     50  C   UNL A   1      49.383  26.397  25.887  1.00  0.00     0.134 A 
ATOM     51  F   UNL A   1      49.456  25.695  29.447  1.00  0.00    -0.206 F 
ATOM     52  C   UNL A   1      51.139  25.467  27.823  1.00  0.00     0.040 A 
ATOM     53  C   UNL A   1      50.679  26.033  25.527  1.00  0.00     0.040 A 
ATOM     54  F   UNL A   1      48.563  26.840  24.923  1.00  0.00    -0.206 F 
ATOM     55  C   UNL A   1      51.565  25.574  26.500  1.00  0.00     0.006 A 
ENDBRANCH  27  48
BRANCH  39  56
ATOM     56  C   UNL A   1      45.867  32.200  29.199  1.00  0.00     0.057 A 
ATOM     57  C   UNL A   1      45.888  33.150  28.170  1.00  0.00     0.134 A 
ATOM     58  C   UNL A   1      46.347  32.590  30.455  1.00  0.00     0.134 A 
ATOM     59  F   UNL A   1      45.460  32.830  26.939  1.00  0.00    -0.206 F 
ATOM     60  C   UNL A   1      46.385  34.436  28.379  1.00  0.00     0.040 A 
ATOM     61  C   UNL A   1      46.825  33.880  30.682  1.00  0.00     0.040 A 
ATOM     62  F   UNL A   1      46.349  31.725  31.480  1.00  0.00    -0.206 F 
ATOM     63  C   UNL A   1      46.850  34.805  29.640  1.00  0.00     0.006 A 
ENDBRANCH  39  56
ENDBRANCH  13  14
ENDBRANCH   6   8
ENDBRANCH   3   4
ENDBRANCH   2   3
ENDBRANCH   1   2
BRANCH   1  64
ATOM     64  C   UNL A   1      37.017  21.503  24.129  1.00  0.00     0.116 C 
BRANCH  64  65
ATOM     65  N   UNL A   1      37.098  22.717  24.912  1.00  0.00    -0.354 N 
ATOM     66  C   UNL A   1      36.173  23.498  25.525  1.00  0.00     0.242 C 
ATOM     67  H   UNL A   1      38.019  23.045  25.025  1.00  0.00     0.163 HD
ATOM     68  O   UNL A   1      36.656  24.460  26.144  1.00  0.00    -0.273 OA
BRANCH  66  69
ATOM     69  C   UNL A   1      34.626  23.271  25.536  1.00  0.00     0.174 C 
ATOM     70  C   UNL A   1      33.667  24.157  26.336  1.00  0.00     0.035 C 
ATOM     71  N   UNL A   1      34.151  23.324  24.132  1.00  0.00    -0.331 N 
ATOM     72  C   UNL A   1      33.544  25.579  25.769  1.00  0.00     0.004 C 
ATOM     73  C   UNL A   1      34.286  24.644  23.536  1.00  0.00     0.120 C 
ATOM     74  C   UNL A   1      33.318  25.581  24.258  1.00  0.00     0.022 C 
BRANCH  71  75
ATOM     75  C   UNL A   1      33.297  22.336  23.667  1.00  0.00     0.223 C 
ATOM     76  O   UNL A   1      32.519  22.542  22.731  1.00  0.00    -0.275 OA
BRANCH  75  77
ATOM     77  C   UNL A   1      33.302  20.962  24.332  1.00  0.00     0.105 C 
BRANCH  77  78
ATOM     78  C   UNL A   1      32.532  19.872  23.564  1.00  0.00     0.047 C 
BRANCH  78  79
ATOM     79  C   UNL A   1      32.780  18.446  23.997  1.00  0.00    -0.029 A 
ATOM     80  C   UNL A   1      32.603  18.016  25.317  1.00  0.00     0.007 A 
ATOM     81  C   UNL A   1      33.226  17.492  23.084  1.00  0.00     0.114 A 
ATOM     82  C   UNL A   1      33.009  16.738  25.693  1.00  0.00     0.020 A 
ATOM     83  N   UNL A   1      33.617  16.240  23.418  1.00  0.00    -0.264 NA
ATOM     84  C   UNL A   1      33.521  15.900  24.720  1.00  0.00     0.111 A 
ENDBRANCH  78  79
ENDBRANCH  77  78
ENDBRANCH  75  77
ENDBRANCH  71  75
ENDBRANCH  66  69
ENDBRANCH  64  65
ENDBRANCH   1  64
TORSDOF 15
ENDMDL
MODEL 3
REMARK VINA RESULT:     -11.6      1.304      3.460
REMARK SMILES O=C(NCCCCNC(=O)[C@H]1CCCCN1C(=O)CCc1cccnc1)c1ccc(-c2c3nc(c(-c4c(F)cccc4F)c4ccc([nH]4)c(-c4c(F)cccc4F)c4nc(c(-c5c(F)cccc5F)c5ccc2[nH]5)C=C4)C=C3)cc1
REMARK SMILES IDX 6 1 5 2 4 3 3 4 1 5 2 6 27 8 28 9 80 10 29 11 79 12 30 13
REMARK SMILES IDX 31 14 32 15 73 16 33 17 78 18 72 19 74 20 34 21 77 22 71 23
REMARK SMILES IDX 70 24 35 26 61 27 44 28 60 29 45 30 48 31 59 32 75 33 46 34
REMARK SMILES IDX 47 35 58 37 76 38 49 39 36 40 37 41 42 42 38 43 39 44 41 45
REMARK SMILES IDX 43 46 40 47 62 48 63 49 68 50 64 51 65 52 67 53 69 54 66 55
REMARK SMILES IDX 50 56 51 57 56 58 52 59 53 60 55 61 57 62 54 63 7 64 8 65
REMARK SMILES IDX 9 66 10 68 11 69 12 70 16 71 13 72 15 73 14 74 17 75 18 76
REMARK SMILES IDX 19 77 20 78 21 79 22 80 26 81 23 82 25 83 24 84
REMARK H PARENT 3 7 74 25 48 36 8 67
REMARK Flexibility Score: inf
ROOT
ATOM      1  C   UNL A   1      31.250  30.598  25.592  1.00  0.00     0.023 C 
ENDROOT
BRANCH   1   2
ATOM      2  C   UNL A   1      31.140  31.818  26.501  1.00  0.00     0.023 C 
BRANCH   2   3
ATOM      3  C   UNL A   1      32.466  32.471  26.876  1.00  0.00     0.116 C 
BRANCH   3   4
ATOM      4  N   UNL A   1      32.315  33.834  27.370  1.00  0.00    -0.352 N 
ATOM      5  O   UNL A   1      32.713  35.591  28.738  1.00  0.00    -0.269 OA
ATOM      6  C   UNL A   1      33.040  34.478  28.341  1.00  0.00     0.251 C 
ATOM      7  H   UNL A   1      31.599  34.363  26.950  1.00  0.00     0.163 HD
BRANCH   6   8
ATOM      8  C   UNL A   1      34.213  33.796  28.916  1.00  0.00     0.039 A 
ATOM      9  C   UNL A   1      34.028  32.702  29.765  1.00  0.00     0.014 A 
ATOM     10  C   UNL A   1      35.493  34.279  28.636  1.00  0.00     0.014 A 
ATOM     11  C   UNL A   1      35.117  32.169  30.438  1.00  0.00     0.010 A 
ATOM     12  C   UNL A   1      36.596  33.687  29.253  1.00  0.00     0.010 A 
ATOM     13  C   UNL A   1      36.413  32.640  30.170  1.00  0.00    -0.014 A 
BRANCH  13  14
ATOM     14  C   UNL A   1      37.571  31.937  30.767  1.00  0.00     0.031 A 
ATOM     15  C   UNL A   1      38.337  30.898  30.004  1.00  0.00     0.074 A 
ATOM     16  C   UNL A   1      37.914  32.259  32.029  1.00  0.00     0.049 A 
ATOM     17  N   UNL A   1      39.351  30.173  30.403  1.00  0.00    -0.248 NA
ATOM     18  C   UNL A   1      37.915  30.628  28.621  1.00  0.00     0.031 C 
ATOM     19  C   UNL A   1      37.217  33.245  32.863  1.00  0.00     0.029 A 
ATOM     20  N   UNL A   1      38.924  31.803  32.831  1.00  0.00    -0.354 N 
ATOM     21  C   UNL A   1      39.673  29.346  29.335  1.00  0.00     0.074 A 
ATOM     22  C   UNL A   1      38.743  29.652  28.269  1.00  0.00     0.031 C 
ATOM     23  C   UNL A   1      37.835  33.335  34.047  1.00  0.00     0.029 A 
ATOM     24  C   UNL A   1      38.925  32.368  34.082  1.00  0.00     0.049 A 
ATOM     25  H   UNL A   1      39.586  31.134  32.540  1.00  0.00     0.167 HD
ATOM     26  C   UNL A   1      40.657  28.419  29.264  1.00  0.00     0.037 A 
ATOM     27  C   UNL A   1      39.691  32.111  35.156  1.00  0.00     0.037 A 
ATOM     28  C   UNL A   1      41.592  28.147  30.325  1.00  0.00     0.049 A 
ATOM     29  C   UNL A   1      40.753  31.059  35.048  1.00  0.00     0.074 A 
ATOM     30  C   UNL A   1      42.679  27.290  30.318  1.00  0.00     0.029 A 
ATOM     31  N   UNL A   1      41.542  28.718  31.588  1.00  0.00    -0.354 N 
ATOM     32  N   UNL A   1      41.085  30.330  34.011  1.00  0.00    -0.248 NA
ATOM     33  C   UNL A   1      41.536  30.784  36.259  1.00  0.00     0.031 C 
ATOM     34  C   UNL A   1      43.257  27.305  31.591  1.00  0.00     0.029 A 
ATOM     35  C   UNL A   1      42.554  28.200  32.380  1.00  0.00     0.049 A 
ATOM     36  H   UNL A   1      40.885  29.392  31.878  1.00  0.00     0.167 HD
ATOM     37  C   UNL A   1      42.114  29.507  34.443  1.00  0.00     0.074 A 
ATOM     38  C   UNL A   1      42.372  29.851  35.827  1.00  0.00     0.031 C 
ATOM     39  C   UNL A   1      42.780  28.546  33.759  1.00  0.00     0.037 A 
BRANCH  26  40
ATOM     40  C   UNL A   1      40.780  27.609  28.007  1.00  0.00     0.057 A 
ATOM     41  C   UNL A   1      41.586  28.018  26.938  1.00  0.00     0.134 A 
ATOM     42  C   UNL A   1      40.165  26.354  27.911  1.00  0.00     0.134 A 
ATOM     43  F   UNL A   1      42.198  29.211  26.965  1.00  0.00    -0.206 F 
ATOM     44  C   UNL A   1      41.773  27.207  25.816  1.00  0.00     0.040 A 
ATOM     45  C   UNL A   1      40.358  25.528  26.803  1.00  0.00     0.040 A 
ATOM     46  F   UNL A   1      39.385  25.901  28.904  1.00  0.00    -0.206 F 
ATOM     47  C   UNL A   1      41.168  25.953  25.751  1.00  0.00     0.006 A 
ENDBRANCH  26  40
BRANCH  27  48
ATOM     48  C   UNL A   1      39.442  32.827  36.429  1.00  0.00     0.057 A 
ATOM     49  C   UNL A   1      38.500  32.364  37.352  1.00  0.00     0.134 A 
ATOM     50  C   UNL A   1      40.151  33.990  36.756  1.00  0.00     0.134 A 
ATOM     51  F   UNL A   1      37.779  31.264  37.087  1.00  0.00    -0.206 F 
ATOM     52  C   UNL A   1      38.261  33.039  38.549  1.00  0.00     0.040 A 
ATOM     53  C   UNL A   1      39.943  34.659  37.961  1.00  0.00     0.040 A 
ATOM     54  F   UNL A   1      41.075  34.479  35.916  1.00  0.00    -0.206 F 
ATOM     55  C   UNL A   1      38.988  34.188  38.859  1.00  0.00     0.006 A 
ENDBRANCH  27  48
BRANCH  39  56
ATOM     56  C   UNL A   1      43.840  27.800  34.508  1.00  0.00     0.057 A 
ATOM     57  C   UNL A   1      43.565  26.579  35.137  1.00  0.00     0.134 A 
ATOM     58  C   UNL A   1      45.148  28.293  34.586  1.00  0.00     0.134 A 
ATOM     59  F   UNL A   1      42.326  26.065  35.114  1.00  0.00    -0.206 F 
ATOM     60  C   UNL A   1      44.552  25.883  35.835  1.00  0.00     0.040 A 
ATOM     61  C   UNL A   1      46.149  27.595  35.261  1.00  0.00     0.040 A 
ATOM     62  F   UNL A   1      45.473  29.455  34.000  1.00  0.00    -0.206 F 
ATOM     63  C   UNL A   1      45.850  26.388  35.892  1.00  0.00     0.006 A 
ENDBRANCH  39  56
ENDBRANCH  13  14
ENDBRANCH   6   8
ENDBRANCH   3   4
ENDBRANCH   2   3
ENDBRANCH   1   2
BRANCH   1  64
ATOM     64  C   UNL A   1      32.525  29.785  25.765  1.00  0.00     0.116 C 
BRANCH  64  65
ATOM     65  N   UNL A   1      33.290  29.671  24.542  1.00  0.00    -0.354 N 
ATOM     66  C   UNL A   1      33.567  28.641  23.704  1.00  0.00     0.242 C 
ATOM     67  H   UNL A   1      33.695  30.522  24.258  1.00  0.00     0.163 HD
ATOM     68  O   UNL A   1      34.246  28.962  22.716  1.00  0.00    -0.273 OA
BRANCH  66  69
ATOM     69  C   UNL A   1      33.090  27.160  23.865  1.00  0.00     0.174 C 
ATOM     70  C   UNL A   1      32.164  26.709  24.998  1.00  0.00     0.035 C 
ATOM     71  N   UNL A   1      32.414  26.763  22.606  1.00  0.00    -0.331 N 
ATOM     72  C   UNL A   1      30.732  27.249  24.858  1.00  0.00     0.004 C 
ATOM     73  C   UNL A   1      31.173  27.485  22.376  1.00  0.00     0.120 C 
ATOM     74  C   UNL A   1      30.176  27.050  23.449  1.00  0.00     0.022 C 
BRANCH  71  75
ATOM     75  C   UNL A   1      32.740  25.553  22.013  1.00  0.00     0.223 C 
ATOM     76  O   UNL A   1      33.278  25.501  20.904  1.00  0.00    -0.275 OA
BRANCH  75  77
ATOM     77  C   UNL A   1      32.416  24.249  22.737  1.00  0.00     0.105 C 
BRANCH  77  78
ATOM     78  C   UNL A   1      33.515  23.174  22.651  1.00  0.00     0.047 C 
BRANCH  78  79
ATOM     79  C   UNL A   1      34.644  23.290  23.648  1.00  0.00    -0.029 A 
ATOM     80  C   UNL A   1      34.463  23.805  24.937  1.00  0.00     0.007 A 
ATOM     81  C   UNL A   1      35.939  22.901  23.308  1.00  0.00     0.114 A 
ATOM     82  C   UNL A   1      35.566  24.048  25.751  1.00  0.00     0.020 A 
ATOM     83  N   UNL A   1      37.028  23.112  24.083  1.00  0.00    -0.264 NA
ATOM     84  C   UNL A   1      36.819  23.703  25.278  1.00  0.00     0.111 A 
ENDBRANCH  78  79
ENDBRANCH  77  78
ENDBRANCH  75  77
ENDBRANCH  71  75
ENDBRANCH  66  69
ENDBRANCH  64  65
ENDBRANCH   1  64
TORSDOF 15
ENDMDL
