MODEL 1
REMARK VINA RESULT:     -12.1      0.000      0.000
REMARK SMILES CC(C)CN(C)c1cc2c(cc1Cl)C=C(C(=O)NCCCCNC(=O)c1ccc(-c3c4nc(c(-c5c(F)cccc5F)c5ccc([nH]5)c(-c5c(F)cccc5F)c5nc(c(-c6c(F)cccc6F)c6ccc3[nH]6)C=C5)C=C4)cc1)[C@@H](C(F)(F)F)O2
REMARK SMILES IDX 20 1 19 2 18 3 16 4 17 5 15 7 7 8 8 9 12 10 9 11 11 12 13 13
REMARK SMILES IDX 10 14 85 15 14 16 80 17 5 18 6 19 4 20 2 21 1 22 3 23 81 24
REMARK SMILES IDX 82 25 83 26 84 27 21 28 22 29 23 30 24 31 25 33 26 34 27 35
REMARK SMILES IDX 79 36 28 37 78 38 29 39 30 40 31 41 72 42 32 43 77 44 71 45
REMARK SMILES IDX 73 46 33 47 76 48 70 49 69 50 34 52 60 53 43 54 59 55 44 56
REMARK SMILES IDX 47 57 58 58 74 59 45 60 46 61 57 63 75 64 48 65 35 66 36 67
REMARK SMILES IDX 41 68 37 69 38 70 40 71 42 72 39 73 61 74 62 75 67 76 63 77
REMARK SMILES IDX 64 78 66 79 68 80 65 81 49 82 50 83 55 84 51 85 52 86 54 87
REMARK SMILES IDX 56 88 53 89
REMARK H PARENT 18 6 23 32 73 51 47 62
REMARK Flexibility Score: inf
ROOT
ATOM      1  C   UNL A   1      36.154  22.379  25.635  1.00  0.00     0.023 C 
ENDROOT
BRANCH   1   2
ATOM      2  C   UNL A   1      35.164  21.368  26.205  1.00  0.00     0.116 C 
BRANCH   2   3
ATOM      3  N   UNL A   1      34.299  20.819  25.177  1.00  0.00    -0.352 N 
ATOM      4  C   UNL A   1      33.324  21.288  24.362  1.00  0.00     0.251 C 
ATOM      5  O   UNL A   1      32.855  20.461  23.574  1.00  0.00    -0.270 OA
ATOM      6  H   UNL A   1      34.463  19.858  25.036  1.00  0.00     0.163 HD
BRANCH   4   7
ATOM      7  C   UNL A   1      32.799  22.681  24.367  1.00  0.00     0.067 C 
ATOM      8  C   UNL A   1      31.718  27.488  23.294  1.00  0.00     0.059 A 
ATOM      9  C   UNL A   1      30.996  26.419  23.846  1.00  0.00     0.074 A 
ATOM     10  C   UNL A   1      33.037  27.230  22.852  1.00  0.00     0.065 A 
ATOM     11  C   UNL A   1      31.571  25.155  23.950  1.00  0.00     0.130 A 
ATOM     12  C   UNL A   1      33.574  25.936  22.875  1.00  0.00     0.034 A 
ATOM     13  Cl  UNL A   1      34.085  28.495  22.305  1.00  0.00    -0.082 Cl
ATOM     14  C   UNL A   1      32.838  24.893  23.425  1.00  0.00     0.019 A 
ATOM     15  O   UNL A   1      30.856  24.185  24.606  1.00  0.00    -0.475 OA
ATOM     16  C   UNL A   1      33.350  23.527  23.476  1.00  0.00     0.025 C 
ATOM     17  C   UNL A   1      31.704  23.193  25.263  1.00  0.00     0.314 C 
BRANCH   8  18
ATOM     18  N   UNL A   1      31.137  28.763  23.214  1.00  0.00    -0.373 N 
ATOM     19  C   UNL A   1      31.085  29.500  24.475  1.00  0.00     0.143 C 
BRANCH  18  20
ATOM     20  C   UNL A   1      29.970  28.905  22.321  1.00  0.00     0.119 C 
BRANCH  20  21
ATOM     21  C   UNL A   1      28.894  29.839  22.908  1.00  0.00     0.002 C 
ATOM     22  C   UNL A   1      28.721  31.108  22.067  1.00  0.00     0.009 C 
ATOM     23  C   UNL A   1      27.545  29.123  23.013  1.00  0.00     0.009 C 
ENDBRANCH  20  21
ENDBRANCH  18  20
ENDBRANCH   8  18
BRANCH  17  24
ATOM     24  C   UNL A   1      32.249  23.741  26.605  1.00  0.00     0.429 C 
ATOM     25  F   UNL A   1      31.428  24.706  27.089  1.00  0.00    -0.167 F 
ATOM     26  F   UNL A   1      32.319  22.781  27.560  1.00  0.00    -0.167 F 
ATOM     27  F   UNL A   1      33.486  24.276  26.507  1.00  0.00    -0.167 F 
ENDBRANCH  17  24
ENDBRANCH   4   7
ENDBRANCH   2   3
ENDBRANCH   1   2
BRANCH   1  28
ATOM     28  C   UNL A   1      37.337  21.752  24.897  1.00  0.00     0.023 C 
BRANCH  28  29
ATOM     29  C   UNL A   1      38.605  21.573  25.728  1.00  0.00     0.116 C 
BRANCH  29  30
ATOM     30  N   UNL A   1      39.267  20.286  25.551  1.00  0.00    -0.352 N 
ATOM     31  C   UNL A   1      40.552  19.950  25.919  1.00  0.00     0.251 C 
ATOM     32  H   UNL A   1      38.735  19.577  25.120  1.00  0.00     0.163 HD
ATOM     33  O   UNL A   1      41.018  18.842  25.683  1.00  0.00    -0.269 OA
BRANCH  31  34
ATOM     34  C   UNL A   1      41.375  20.997  26.551  1.00  0.00     0.039 A 
ATOM     35  C   UNL A   1      41.325  21.171  27.935  1.00  0.00     0.014 A 
ATOM     36  C   UNL A   1      42.030  21.917  25.730  1.00  0.00     0.014 A 
ATOM     37  C   UNL A   1      41.766  22.369  28.481  1.00  0.00     0.010 A 
ATOM     38  C   UNL A   1      42.530  23.091  26.290  1.00  0.00     0.010 A 
ATOM     39  C   UNL A   1      42.331  23.357  27.656  1.00  0.00    -0.014 A 
BRANCH  39  40
ATOM     40  C   UNL A   1      42.608  24.704  28.212  1.00  0.00     0.031 A 
ATOM     41  C   UNL A   1      44.022  25.108  28.542  1.00  0.00     0.074 A 
ATOM     42  C   UNL A   1      41.604  25.586  28.357  1.00  0.00     0.049 A 
ATOM     43  N   UNL A   1      44.464  26.226  29.061  1.00  0.00    -0.248 NA
ATOM     44  C   UNL A   1      45.080  24.125  28.253  1.00  0.00     0.031 C 
ATOM     45  C   UNL A   1      40.202  25.331  28.030  1.00  0.00     0.029 A 
ATOM     46  N   UNL A   1      41.616  26.884  28.796  1.00  0.00    -0.354 N 
ATOM     47  C   UNL A   1      45.838  26.068  29.194  1.00  0.00     0.074 A 
ATOM     48  C   UNL A   1      46.159  24.742  28.711  1.00  0.00     0.031 C 
ATOM     49  C   UNL A   1      39.495  26.452  28.235  1.00  0.00     0.029 A 
ATOM     50  C   UNL A   1      40.382  27.483  28.762  1.00  0.00     0.049 A 
ATOM     51  H   UNL A   1      42.431  27.343  29.104  1.00  0.00     0.167 HD
ATOM     52  C   UNL A   1      46.750  26.949  29.670  1.00  0.00     0.037 A 
ATOM     53  C   UNL A   1      40.008  28.722  29.129  1.00  0.00     0.037 A 
ATOM     54  C   UNL A   1      46.439  28.283  30.109  1.00  0.00     0.049 A 
ATOM     55  C   UNL A   1      41.032  29.665  29.690  1.00  0.00     0.074 A 
ATOM     56  C   UNL A   1      47.298  29.261  30.581  1.00  0.00     0.029 A 
ATOM     57  N   UNL A   1      45.165  28.830  30.120  1.00  0.00    -0.354 N 
ATOM     58  N   UNL A   1      42.323  29.493  29.835  1.00  0.00    -0.248 NA
ATOM     59  C   UNL A   1      40.540  30.968  30.156  1.00  0.00     0.031 C 
ATOM     60  C   UNL A   1      46.538  30.391  30.904  1.00  0.00     0.029 A 
ATOM     61  C   UNL A   1      45.212  30.126  30.605  1.00  0.00     0.049 A 
ATOM     62  H   UNL A   1      44.349  28.366  29.826  1.00  0.00     0.167 HD
ATOM     63  C   UNL A   1      42.801  30.667  30.398  1.00  0.00     0.074 A 
ATOM     64  C   UNL A   1      41.662  31.550  30.555  1.00  0.00     0.031 C 
ATOM     65  C   UNL A   1      44.067  30.986  30.756  1.00  0.00     0.037 A 
BRANCH  52  66
ATOM     66  C   UNL A   1      48.173  26.485  29.762  1.00  0.00     0.057 A 
ATOM     67  C   UNL A   1      49.053  26.679  28.689  1.00  0.00     0.134 A 
ATOM     68  C   UNL A   1      48.669  25.830  30.895  1.00  0.00     0.134 A 
ATOM     69  F   UNL A   1      48.640  27.300  27.574  1.00  0.00    -0.206 F 
ATOM     70  C   UNL A   1      50.376  26.237  28.740  1.00  0.00     0.040 A 
ATOM     71  C   UNL A   1      49.995  25.398  30.965  1.00  0.00     0.040 A 
ATOM     72  F   UNL A   1      47.882  25.629  31.962  1.00  0.00    -0.206 F 
ATOM     73  C   UNL A   1      50.851  25.597  29.883  1.00  0.00     0.006 A 
ENDBRANCH  52  66
BRANCH  53  74
ATOM     74  C   UNL A   1      38.594  29.136  28.981  1.00  0.00     0.057 A 
ATOM     75  C   UNL A   1      38.097  29.613  27.763  1.00  0.00     0.134 A 
ATOM     76  C   UNL A   1      37.711  29.073  30.063  1.00  0.00     0.134 A 
ATOM     77  F   UNL A   1      38.899  29.697  26.691  1.00  0.00    -0.206 F 
ATOM     78  C   UNL A   1      36.772  30.029  27.630  1.00  0.00     0.040 A 
ATOM     79  C   UNL A   1      36.380  29.468  29.939  1.00  0.00     0.040 A 
ATOM     80  F   UNL A   1      38.129  28.607  31.249  1.00  0.00    -0.206 F 
ATOM     81  C   UNL A   1      35.909  29.954  28.720  1.00  0.00     0.006 A 
ENDBRANCH  53  74
BRANCH  65  82
ATOM     82  C   UNL A   1      44.283  32.351  31.333  1.00  0.00     0.057 A 
ATOM     83  C   UNL A   1      44.224  32.560  32.715  1.00  0.00     0.134 A 
ATOM     84  C   UNL A   1      44.533  33.459  30.515  1.00  0.00     0.134 A 
ATOM     85  F   UNL A   1      43.984  31.538  33.549  1.00  0.00    -0.206 F 
ATOM     86  C   UNL A   1      44.410  33.829  33.266  1.00  0.00     0.040 A 
ATOM     87  C   UNL A   1      44.738  34.728  31.056  1.00  0.00     0.040 A 
ATOM     88  F   UNL A   1      44.616  33.317  29.184  1.00  0.00    -0.206 F 
ATOM     89  C   UNL A   1      44.673  34.916  32.435  1.00  0.00     0.006 A 
ENDBRANCH  65  82
ENDBRANCH  39  40
ENDBRANCH  31  34
ENDBRANCH  29  30
ENDBRANCH  28  29
ENDBRANCH   1  28
TORSDOF 15
ENDMDL
MODEL 2
REMARK VINA RESULT:     -11.9      4.009      7.998
REMARK SMILES CC(C)CN(C)c1cc2c(cc1Cl)C=C(C(=O)NCCCCNC(=O)c1ccc(-c3c4nc(c(-c5c(F)cccc5F)c5ccc([nH]5)c(-c5c(F)cccc5F)c5nc(c(-c6c(F)cccc6F)c6ccc3[nH]6)C=C5)C=C4)cc1)[C@@H](C(F)(F)F)O2
REMARK SMILES IDX 20 1 19 2 18 3 16 4 17 5 15 7 7 8 8 9 12 10 9 11 11 12 13 13
REMARK SMILES IDX 10 14 85 15 14 16 80 17 5 18 6 19 4 20 2 21 1 22 3 23 81 24
REMARK SMILES IDX 82 25 83 26 84 27 21 28 22 29 23 30 24 31 25 33 26 34 27 35
REMARK SMILES IDX 79 36 28 37 78 38 29 39 30 40 31 41 72 42 32 43 77 44 71 45
REMARK SMILES IDX 73 46 33 47 76 48 70 49 69 50 34 52 60 53 43 54 59 55 44 56
REMARK SMILES IDX 47 57 58 58 74 59 45 60 46 61 57 63 75 64 48 65 35 66 36 67
REMARK SMILES IDX 41 68 37 69 38 70 40 71 42 72 39 73 61 74 62 75 67 76 63 77
REMARK SMILES IDX 64 78 66 79 68 80 65 81 49 82 50 83 55 84 51 85 52 86 54 87
REMARK SMILES IDX 56 88 53 89
REMARK H PARENT 18 6 23 32 73 51 47 62
REMARK Flexibility Score: inf
ROOT
ATOM      1  C   UNL A   1      37.297  22.112  24.581  1.00  0.00     0.023 C 
ENDROOT
BRANCH   1   2
ATOM      2  C   UNL A   1      36.792  21.086  25.590  1.00  0.00     0.116 C 
BRANCH   2   3
ATOM      3  N   UNL A   1      35.517  20.519  25.194  1.00  0.00    -0.352 N 
ATOM      4  C   UNL A   1      34.340  20.991  24.717  1.00  0.00     0.251 C 
ATOM      5  O   UNL A   1      33.493  20.128  24.461  1.00  0.00    -0.270 OA
ATOM      6  H   UNL A   1      35.503  19.540  25.298  1.00  0.00     0.163 HD
BRANCH   4   7
ATOM      7  C   UNL A   1      34.015  22.428  24.503  1.00  0.00     0.067 C 
ATOM      8  C   UNL A   1      32.892  27.310  25.078  1.00  0.00     0.059 A 
ATOM      9  C   UNL A   1      33.683  26.584  24.174  1.00  0.00     0.074 A 
ATOM     10  C   UNL A   1      32.288  26.597  26.140  1.00  0.00     0.065 A 
ATOM     11  C   UNL A   1      33.855  25.211  24.328  1.00  0.00     0.130 A 
ATOM     12  C   UNL A   1      32.541  25.234  26.341  1.00  0.00     0.034 A 
ATOM     13  Cl  UNL A   1      31.163  27.345  27.223  1.00  0.00    -0.082 Cl
ATOM     14  C   UNL A   1      33.329  24.537  25.432  1.00  0.00     0.019 A 
ATOM     15  O   UNL A   1      34.540  24.543  23.345  1.00  0.00    -0.475 OA
ATOM     16  C   UNL A   1      33.623  23.116  25.593  1.00  0.00     0.025 C 
ATOM     17  C   UNL A   1      34.113  23.154  23.190  1.00  0.00     0.314 C 
BRANCH   8  18
ATOM     18  N   UNL A   1      32.708  28.690  24.902  1.00  0.00    -0.373 N 
ATOM     19  C   UNL A   1      32.330  29.095  23.549  1.00  0.00     0.143 C 
BRANCH  18  20
ATOM     20  C   UNL A   1      33.642  29.581  25.617  1.00  0.00     0.119 C 
BRANCH  20  21
ATOM     21  C   UNL A   1      33.009  30.203  26.877  1.00  0.00     0.002 C 
ATOM     22  C   UNL A   1      34.000  31.097  27.630  1.00  0.00     0.009 C 
ATOM     23  C   UNL A   1      31.770  31.026  26.518  1.00  0.00     0.009 C 
ENDBRANCH  20  21
ENDBRANCH  18  20
ENDBRANCH   8  18
BRANCH  17  24
ATOM     24  C   UNL A   1      32.801  23.073  22.372  1.00  0.00     0.429 C 
ATOM     25  F   UNL A   1      32.664  21.843  21.818  1.00  0.00    -0.167 F 
ATOM     26  F   UNL A   1      31.703  23.272  23.145  1.00  0.00    -0.167 F 
ATOM     27  F   UNL A   1      32.733  23.978  21.371  1.00  0.00    -0.167 F 
ENDBRANCH  17  24
ENDBRANCH   4   7
ENDBRANCH   2   3
ENDBRANCH   1   2
BRANCH   1  28
ATOM     28  C   UNL A   1      37.517  23.510  25.161  1.00  0.00     0.023 C 
BRANCH  28  29
ATOM     29  C   UNL A   1      38.398  23.569  26.406  1.00  0.00     0.116 C 
BRANCH  29  30
ATOM     30  N   UNL A   1      39.831  23.573  26.133  1.00  0.00    -0.352 N 
ATOM     31  C   UNL A   1      40.750  24.528  26.507  1.00  0.00     0.251 C 
ATOM     32  H   UNL A   1      40.180  22.805  25.623  1.00  0.00     0.163 HD
ATOM     33  O   UNL A   1      41.929  24.446  26.186  1.00  0.00    -0.269 OA
BRANCH  31  34
ATOM     34  C   UNL A   1      40.252  25.696  27.256  1.00  0.00     0.039 A 
ATOM     35  C   UNL A   1      40.777  26.962  26.989  1.00  0.00     0.014 A 
ATOM     36  C   UNL A   1      39.412  25.478  28.350  1.00  0.00     0.014 A 
ATOM     37  C   UNL A   1      40.617  27.971  27.930  1.00  0.00     0.010 A 
ATOM     38  C   UNL A   1      39.200  26.513  29.259  1.00  0.00     0.010 A 
ATOM     39  C   UNL A   1      39.864  27.740  29.094  1.00  0.00    -0.014 A 
BRANCH  39  40
ATOM     40  C   UNL A   1      39.871  28.749  30.181  1.00  0.00     0.031 A 
ATOM     41  C   UNL A   1      38.857  29.865  30.180  1.00  0.00     0.074 A 
ATOM     42  C   UNL A   1      40.737  28.628  31.201  1.00  0.00     0.049 A 
ATOM     43  N   UNL A   1      38.718  30.858  31.023  1.00  0.00    -0.248 NA
ATOM     44  C   UNL A   1      37.871  29.868  29.086  1.00  0.00     0.031 C 
ATOM     45  C   UNL A   1      41.734  27.567  31.340  1.00  0.00     0.029 A 
ATOM     46  N   UNL A   1      40.901  29.392  32.326  1.00  0.00    -0.354 N 
ATOM     47  C   UNL A   1      37.659  31.619  30.544  1.00  0.00     0.074 A 
ATOM     48  C   UNL A   1      37.196  30.982  29.330  1.00  0.00     0.031 C 
ATOM     49  C   UNL A   1      42.375  27.720  32.508  1.00  0.00     0.029 A 
ATOM     50  C   UNL A   1      41.875  28.921  33.170  1.00  0.00     0.049 A 
ATOM     51  H   UNL A   1      40.370  30.201  32.512  1.00  0.00     0.167 HD
ATOM     52  C   UNL A   1      37.118  32.744  31.070  1.00  0.00     0.037 A 
ATOM     53  C   UNL A   1      42.322  29.411  34.339  1.00  0.00     0.037 A 
ATOM     54  C   UNL A   1      37.548  33.354  32.299  1.00  0.00     0.049 A 
ATOM     55  C   UNL A   1      41.733  30.680  34.880  1.00  0.00     0.074 A 
ATOM     56  C   UNL A   1      37.044  34.479  32.929  1.00  0.00     0.029 A 
ATOM     57  N   UNL A   1      38.582  32.882  33.091  1.00  0.00    -0.354 N 
ATOM     58  N   UNL A   1      40.750  31.404  34.403  1.00  0.00    -0.248 NA
ATOM     59  C   UNL A   1      42.330  31.210  36.113  1.00  0.00     0.031 C 
ATOM     60  C   UNL A   1      37.793  34.703  34.090  1.00  0.00     0.029 A 
ATOM     61  C   UNL A   1      38.743  33.700  34.196  1.00  0.00     0.049 A 
ATOM     62  H   UNL A   1      39.123  32.082  32.898  1.00  0.00     0.167 HD
ATOM     63  C   UNL A   1      40.602  32.469  35.281  1.00  0.00     0.074 A 
ATOM     64  C   UNL A   1      41.588  32.287  36.328  1.00  0.00     0.031 C 
ATOM     65  C   UNL A   1      39.731  33.504  35.225  1.00  0.00     0.037 A 
BRANCH  52  66
ATOM     66  C   UNL A   1      36.012  33.402  30.300  1.00  0.00     0.057 A 
ATOM     67  C   UNL A   1      34.683  33.287  30.729  1.00  0.00     0.134 A 
ATOM     68  C   UNL A   1      36.253  34.127  29.127  1.00  0.00     0.134 A 
ATOM     69  F   UNL A   1      34.385  32.604  31.845  1.00  0.00    -0.206 F 
ATOM     70  C   UNL A   1      33.633  33.870  30.018  1.00  0.00     0.040 A 
ATOM     71  C   UNL A   1      35.212  34.730  28.416  1.00  0.00     0.040 A 
ATOM     72  F   UNL A   1      37.504  34.289  28.673  1.00  0.00    -0.206 F 
ATOM     73  C   UNL A   1      33.898  34.598  28.860  1.00  0.00     0.006 A 
ENDBRANCH  52  66
BRANCH  53  74
ATOM     74  C   UNL A   1      43.392  28.697  35.073  1.00  0.00     0.057 A 
ATOM     75  C   UNL A   1      43.096  27.799  36.105  1.00  0.00     0.134 A 
ATOM     76  C   UNL A   1      44.739  28.910  34.764  1.00  0.00     0.134 A 
ATOM     77  F   UNL A   1      41.822  27.557  36.446  1.00  0.00    -0.206 F 
ATOM     78  C   UNL A   1      44.105  27.147  36.815  1.00  0.00     0.040 A 
ATOM     79  C   UNL A   1      45.757  28.251  35.453  1.00  0.00     0.040 A 
ATOM     80  F   UNL A   1      45.080  29.747  33.773  1.00  0.00    -0.206 F 
ATOM     81  C   UNL A   1      45.440  27.371  36.487  1.00  0.00     0.006 A 
ENDBRANCH  53  74
BRANCH  65  82
ATOM     82  C   UNL A   1      39.799  34.504  36.337  1.00  0.00     0.057 A 
ATOM     83  C   UNL A   1      39.072  34.310  37.518  1.00  0.00     0.134 A 
ATOM     84  C   UNL A   1      40.573  35.666  36.231  1.00  0.00     0.134 A 
ATOM     85  F   UNL A   1      38.309  33.218  37.676  1.00  0.00    -0.206 F 
ATOM     86  C   UNL A   1      39.114  35.240  38.557  1.00  0.00     0.040 A 
ATOM     87  C   UNL A   1      40.636  36.593  37.271  1.00  0.00     0.040 A 
ATOM     88  F   UNL A   1      41.303  35.897  35.129  1.00  0.00    -0.206 F 
ATOM     89  C   UNL A   1      39.903  36.382  38.437  1.00  0.00     0.006 A 
ENDBRANCH  65  82
ENDBRANCH  39  40
ENDBRANCH  31  34
ENDBRANCH  29  30
ENDBRANCH  28  29
ENDBRANCH   1  28
TORSDOF 15
ENDMDL
MODEL 3
REMARK VINA RESULT:     -11.9      2.060      6.053
REMARK SMILES CC(C)CN(C)c1cc2c(cc1Cl)C=C(C(=O)NCCCCNC(=O)c1ccc(-c3c4nc(c(-c5c(F)cccc5F)c5ccc([nH]5)c(-c5c(F)cccc5F)c5nc(c(-c6c(F)cccc6F)c6ccc3[nH]6)C=C5)C=C4)cc1)[C@@H](C(F)(F)F)O2
REMARK SMILES IDX 20 1 19 2 18 3 16 4 17 5 15 7 7 8 8 9 12 10 9 11 11 12 13 13
REMARK SMILES IDX 10 14 85 15 14 16 80 17 5 18 6 19 4 20 2 21 1 22 3 23 81 24
REMARK SMILES IDX 82 25 83 26 84 27 21 28 22 29 23 30 24 31 25 33 26 34 27 35
REMARK SMILES IDX 79 36 28 37 78 38 29 39 30 40 31 41 72 42 32 43 77 44 71 45
REMARK SMILES IDX 73 46 33 47 76 48 70 49 69 50 34 52 60 53 43 54 59 55 44 56
REMARK SMILES IDX 47 57 58 58 74 59 45 60 46 61 57 63 75 64 48 65 35 66 36 67
REMARK SMILES IDX 41 68 37 69 38 70 40 71 42 72 39 73 61 74 62 75 67 76 63 77
REMARK SMILES IDX 64 78 66 79 68 80 65 81 49 82 50 83 55 84 51 85 52 86 54 87
REMARK SMILES IDX 56 88 53 89
REMARK H PARENT 18 6 23 32 73 51 47 62
REMARK Flexibility Score: inf
ROOT
ATOM      1  C   UNL A   1      35.247  21.527  25.414  1.00  0.00     0.023 C 
ENDROOT
BRANCH   1   2
ATOM      2  C   UNL A   1      33.870  20.901  25.614  1.00  0.00     0.116 C 
BRANCH   2   3
ATOM      3  N   UNL A   1      33.204  20.644  24.350  1.00  0.00    -0.352 N 
ATOM      4  C   UNL A   1      32.477  21.363  23.462  1.00  0.00     0.251 C 
ATOM      5  O   UNL A   1      32.117  20.744  22.455  1.00  0.00    -0.270 OA
ATOM      6  H   UNL A   1      33.309  19.707  24.065  1.00  0.00     0.163 HD
BRANCH   4   7
ATOM      7  C   UNL A   1      32.090  22.791  23.626  1.00  0.00     0.067 C 
ATOM      8  C   UNL A   1      31.643  27.798  23.225  1.00  0.00     0.059 A 
ATOM      9  C   UNL A   1      30.748  26.750  23.489  1.00  0.00     0.074 A 
ATOM     10  C   UNL A   1      32.984  27.456  22.929  1.00  0.00     0.065 A 
ATOM     11  C   UNL A   1      31.178  25.426  23.460  1.00  0.00     0.130 A 
ATOM     12  C   UNL A   1      33.386  26.119  22.810  1.00  0.00     0.034 A 
ATOM     13  Cl  UNL A   1      34.217  28.657  22.746  1.00  0.00    -0.082 Cl
ATOM     14  C   UNL A   1      32.481  25.099  23.076  1.00  0.00     0.019 A 
ATOM     15  O   UNL A   1      30.284  24.459  23.844  1.00  0.00    -0.475 OA
ATOM     16  C   UNL A   1      32.848  23.690  22.969  1.00  0.00     0.025 C 
ATOM     17  C   UNL A   1      30.925  23.287  24.437  1.00  0.00     0.314 C 
BRANCH   8  18
ATOM     18  N   UNL A   1      31.204  29.129  23.279  1.00  0.00    -0.373 N 
ATOM     19  C   UNL A   1      31.109  29.696  24.623  1.00  0.00     0.143 C 
BRANCH  18  20
ATOM     20  C   UNL A   1      30.145  29.517  22.325  1.00  0.00     0.119 C 
BRANCH  20  21
ATOM     21  C   UNL A   1      28.899  30.084  23.033  1.00  0.00     0.002 C 
ATOM     22  C   UNL A   1      28.547  31.487  22.531  1.00  0.00     0.009 C 
ATOM     23  C   UNL A   1      27.691  29.165  22.831  1.00  0.00     0.009 C 
ENDBRANCH  20  21
ENDBRANCH  18  20
ENDBRANCH   8  18
BRANCH  17  24
ATOM     24  C   UNL A   1      31.308  23.561  25.912  1.00  0.00     0.429 C 
ATOM     25  F   UNL A   1      30.539  24.555  26.423  1.00  0.00    -0.167 F 
ATOM     26  F   UNL A   1      31.110  22.476  26.702  1.00  0.00    -0.167 F 
ATOM     27  F   UNL A   1      32.599  23.925  26.076  1.00  0.00    -0.167 F 
ENDBRANCH  17  24
ENDBRANCH   4   7
ENDBRANCH   2   3
ENDBRANCH   1   2
BRANCH   1  28
ATOM     28  C   UNL A   1      36.340  20.532  25.023  1.00  0.00     0.023 C 
BRANCH  28  29
ATOM     29  C   UNL A   1      37.761  21.089  25.027  1.00  0.00     0.116 C 
BRANCH  29  30
ATOM     30  N   UNL A   1      38.794  20.109  25.342  1.00  0.00    -0.352 N 
ATOM     31  C   UNL A   1      39.889  20.282  26.161  1.00  0.00     0.251 C 
ATOM     32  H   UNL A   1      38.697  19.223  24.921  1.00  0.00     0.163 HD
ATOM     33  O   UNL A   1      40.717  19.395  26.321  1.00  0.00    -0.269 OA
BRANCH  31  34
ATOM     34  C   UNL A   1      40.066  21.604  26.789  1.00  0.00     0.039 A 
ATOM     35  C   UNL A   1      39.417  22.716  26.250  1.00  0.00     0.014 A 
ATOM     36  C   UNL A   1      41.035  21.745  27.785  1.00  0.00     0.014 A 
ATOM     37  C   UNL A   1      39.876  23.987  26.571  1.00  0.00     0.010 A 
ATOM     38  C   UNL A   1      41.447  23.024  28.154  1.00  0.00     0.010 A 
ATOM     39  C   UNL A   1      40.925  24.148  27.492  1.00  0.00    -0.014 A 
BRANCH  39  40
ATOM     40  C   UNL A   1      41.541  25.486  27.672  1.00  0.00     0.031 A 
ATOM     41  C   UNL A   1      40.831  26.541  28.480  1.00  0.00     0.074 A 
ATOM     42  C   UNL A   1      42.764  25.731  27.170  1.00  0.00     0.049 A 
ATOM     43  N   UNL A   1      41.190  27.775  28.728  1.00  0.00    -0.248 NA
ATOM     44  C   UNL A   1      39.545  26.159  29.089  1.00  0.00     0.031 C 
ATOM     45  C   UNL A   1      43.572  24.778  26.410  1.00  0.00     0.029 A 
ATOM     46  N   UNL A   1      43.548  26.852  27.245  1.00  0.00    -0.354 N 
ATOM     47  C   UNL A   1      40.163  28.327  29.486  1.00  0.00     0.074 A 
ATOM     48  C   UNL A   1      39.161  27.297  29.651  1.00  0.00     0.031 C 
ATOM     49  C   UNL A   1      44.757  25.338  26.128  1.00  0.00     0.029 A 
ATOM     50  C   UNL A   1      44.769  26.707  26.636  1.00  0.00     0.049 A 
ATOM     51  H   UNL A   1      43.263  27.682  27.693  1.00  0.00     0.167 HD
ATOM     52  C   UNL A   1      40.067  29.575  30.002  1.00  0.00     0.037 A 
ATOM     53  C   UNL A   1      45.778  27.584  26.493  1.00  0.00     0.037 A 
ATOM     54  C   UNL A   1      41.083  30.586  29.877  1.00  0.00     0.049 A 
ATOM     55  C   UNL A   1      45.630  28.973  27.040  1.00  0.00     0.074 A 
ATOM     56  C   UNL A   1      41.091  31.872  30.388  1.00  0.00     0.029 A 
ATOM     57  N   UNL A   1      42.278  30.419  29.195  1.00  0.00    -0.354 N 
ATOM     58  N   UNL A   1      44.643  29.488  27.731  1.00  0.00    -0.248 NA
ATOM     59  C   UNL A   1      46.730  29.907  26.769  1.00  0.00     0.031 C 
ATOM     60  C   UNL A   1      42.281  32.493  29.993  1.00  0.00     0.029 A 
ATOM     61  C   UNL A   1      43.025  31.583  29.260  1.00  0.00     0.049 A 
ATOM     62  H   UNL A   1      42.556  29.595  28.734  1.00  0.00     0.167 HD
ATOM     63  C   UNL A   1      45.005  30.803  27.988  1.00  0.00     0.074 A 
ATOM     64  C   UNL A   1      46.311  31.001  27.389  1.00  0.00     0.031 C 
ATOM     65  C   UNL A   1      44.320  31.761  28.656  1.00  0.00     0.037 A 
BRANCH  52  66
ATOM     66  C   UNL A   1      38.805  29.924  30.732  1.00  0.00     0.057 A 
ATOM     67  C   UNL A   1      37.744  30.544  30.059  1.00  0.00     0.134 A 
ATOM     68  C   UNL A   1      38.644  29.670  32.100  1.00  0.00     0.134 A 
ATOM     69  F   UNL A   1      37.836  30.815  28.749  1.00  0.00    -0.206 F 
ATOM     70  C   UNL A   1      36.568  30.899  30.721  1.00  0.00     0.040 A 
ATOM     71  C   UNL A   1      37.465  30.004  32.769  1.00  0.00     0.040 A 
ATOM     72  F   UNL A   1      39.615  29.062  32.797  1.00  0.00    -0.206 F 
ATOM     73  C   UNL A   1      36.425  30.625  32.080  1.00  0.00     0.006 A 
ENDBRANCH  52  66
BRANCH  53  74
ATOM     74  C   UNL A   1      47.016  27.170  25.793  1.00  0.00     0.057 A 
ATOM     75  C   UNL A   1      48.047  26.504  26.466  1.00  0.00     0.134 A 
ATOM     76  C   UNL A   1      47.198  27.446  24.435  1.00  0.00     0.134 A 
ATOM     77  F   UNL A   1      47.928  26.215  27.770  1.00  0.00    -0.206 F 
ATOM     78  C   UNL A   1      49.225  26.139  25.814  1.00  0.00     0.040 A 
ATOM     79  C   UNL A   1      48.363  27.070  23.766  1.00  0.00     0.040 A 
ATOM     80  F   UNL A   1      46.236  28.066  23.737  1.00  0.00    -0.206 F 
ATOM     81  C   UNL A   1      49.383  26.420  24.459  1.00  0.00     0.006 A 
ENDBRANCH  53  74
BRANCH  65  82
ATOM     82  C   UNL A   1      44.981  33.098  28.786  1.00  0.00     0.057 A 
ATOM     83  C   UNL A   1      44.753  34.104  27.840  1.00  0.00     0.134 A 
ATOM     84  C   UNL A   1      45.856  33.381  29.842  1.00  0.00     0.134 A 
ATOM     85  F   UNL A   1      43.928  33.890  26.805  1.00  0.00    -0.206 F 
ATOM     86  C   UNL A   1      45.372  35.350  27.942  1.00  0.00     0.040 A 
ATOM     87  C   UNL A   1      46.467  34.629  29.963  1.00  0.00     0.040 A 
ATOM     88  F   UNL A   1      46.101  32.461  30.787  1.00  0.00    -0.206 F 
ATOM     89  C   UNL A   1      46.228  35.616  29.009  1.00  0.00     0.006 A 
ENDBRANCH  65  82
ENDBRANCH  39  40
ENDBRANCH  31  34
ENDBRANCH  29  30
ENDBRANCH  28  29
ENDBRANCH   1  28
TORSDOF 15
ENDMDL
