MODEL 1
REMARK VINA RESULT:     -12.6      0.000      0.000
REMARK SMILES Cc1ccc(C)c(NS(=O)(=O)c2cc(C(=O)NCCCCNC(=O)c3ccc(-c4c5nc(c(-c6c(F)cccc6F)c6ccc([nH]6)c(-c6c(F)cccc6F)c6nc(c(-c7c(F)cccc7F)c7ccc4[nH]7)C=C6)C=C5)cc3)ccc2Cl)c1
REMARK SMILES IDX 19 1 18 2 17 3 15 4 16 5 14 7 12 8 13 9 81 10 80 11 82 12
REMARK SMILES IDX 79 13 9 14 10 15 11 16 8 17 7 19 1 20 2 21 3 22 83 23 4 24
REMARK SMILES IDX 5 25 6 26 20 27 21 28 22 29 23 30 24 32 25 33 26 34 78 35
REMARK SMILES IDX 27 36 77 37 28 38 29 39 30 40 71 41 31 42 76 43 70 44 72 45
REMARK SMILES IDX 32 46 75 47 69 48 68 49 33 51 59 52 42 53 58 54 43 55 46 56
REMARK SMILES IDX 57 57 73 58 44 59 45 60 56 62 74 63 47 64 34 65 35 66 40 67
REMARK SMILES IDX 36 68 37 69 39 70 41 71 38 72 60 73 61 74 66 75 62 76 63 77
REMARK SMILES IDX 65 78 67 79 64 80 48 81 49 82 54 83 50 84 51 85 53 86 55 87
REMARK SMILES IDX 52 88
REMARK H PARENT 17 6 8 18 22 31 72 50 46 61
REMARK Flexibility Score: inf
ROOT
ATOM      1  C   UNL A   1      41.007  20.954  26.399  1.00  0.00     0.023 C 
ENDROOT
BRANCH   1   2
ATOM      2  C   UNL A   1      39.578  21.367  26.038  1.00  0.00     0.116 C 
BRANCH   2   3
ATOM      3  N   UNL A   1      38.677  20.281  25.719  1.00  0.00    -0.352 N 
ATOM      4  C   UNL A   1      37.487  20.239  25.040  1.00  0.00     0.251 C 
ATOM      5  O   UNL A   1      37.131  19.132  24.635  1.00  0.00    -0.269 OA
ATOM      6  H   UNL A   1      38.975  19.406  26.054  1.00  0.00     0.163 HD
BRANCH   4   7
ATOM      7  C   UNL A   1      36.585  21.412  24.811  1.00  0.00     0.041 A 
ATOM      8  C   UNL A   1      34.699  22.719  25.687  1.00  0.00     0.107 A 
ATOM      9  C   UNL A   1      35.566  21.610  25.755  1.00  0.00     0.037 A 
ATOM     10  C   UNL A   1      34.936  23.724  24.763  1.00  0.00     0.061 A 
ATOM     11  C   UNL A   1      35.885  23.496  23.765  1.00  0.00     0.023 A 
ATOM     12  Cl  UNL A   1      34.208  25.284  24.814  1.00  0.00    -0.083 Cl
ATOM     13  C   UNL A   1      36.678  22.338  23.773  1.00  0.00     0.015 A 
BRANCH   8  14
ATOM     14  S   UNL A   1      33.228  22.627  26.666  1.00  0.00     0.263 S 
ATOM     15  O   UNL A   1      32.682  23.947  26.728  1.00  0.00    -0.201 OA
ATOM     16  O   UNL A   1      33.585  21.918  27.897  1.00  0.00    -0.201 OA
BRANCH  14  17
ATOM     17  N   UNL A   1      32.078  21.673  25.901  1.00  0.00    -0.279 N 
ATOM     18  H   UNL A   1      31.140  21.855  26.134  1.00  0.00     0.180 HD
BRANCH  17  19
ATOM     19  C   UNL A   1      32.303  20.627  24.948  1.00  0.00     0.052 A 
ATOM     20  C   UNL A   1      33.119  16.919  25.441  1.00  0.00     0.044 C 
ATOM     21  C   UNL A   1      32.762  18.217  24.781  1.00  0.00    -0.049 A 
ATOM     22  C   UNL A   1      32.538  18.284  23.411  1.00  0.00     0.004 A 
ATOM     23  C   UNL A   1      32.608  19.383  25.538  1.00  0.00     0.030 A 
ATOM     24  C   UNL A   1      32.334  19.523  22.803  1.00  0.00     0.006 A 
ATOM     25  C   UNL A   1      32.309  20.720  23.550  1.00  0.00    -0.027 A 
ATOM     26  C   UNL A   1      32.352  22.002  22.773  1.00  0.00     0.046 C 
ENDBRANCH  17  19
ENDBRANCH  14  17
ENDBRANCH   8  14
ENDBRANCH   4   7
ENDBRANCH   2   3
ENDBRANCH   1   2
BRANCH   1  27
ATOM     27  C   UNL A   1      41.482  19.520  26.097  1.00  0.00     0.023 C 
BRANCH  27  28
ATOM     28  C   UNL A   1      42.964  19.130  26.241  1.00  0.00     0.116 C 
BRANCH  28  29
ATOM     29  N   UNL A   1      43.794  19.352  25.050  1.00  0.00    -0.352 N 
ATOM     30  C   UNL A   1      44.274  20.477  24.396  1.00  0.00     0.251 C 
ATOM     31  H   UNL A   1      44.071  18.512  24.619  1.00  0.00     0.163 HD
ATOM     32  O   UNL A   1      44.671  20.354  23.238  1.00  0.00    -0.269 OA
BRANCH  30  33
ATOM     33  C   UNL A   1      44.394  21.801  25.059  1.00  0.00     0.039 A 
ATOM     34  C   UNL A   1      45.263  22.051  26.131  1.00  0.00     0.014 A 
ATOM     35  C   UNL A   1      43.527  22.809  24.688  1.00  0.00     0.014 A 
ATOM     36  C   UNL A   1      45.143  23.258  26.839  1.00  0.00     0.010 A 
ATOM     37  C   UNL A   1      43.520  24.049  25.242  1.00  0.00     0.010 A 
ATOM     38  C   UNL A   1      44.219  24.221  26.407  1.00  0.00    -0.014 A 
BRANCH  38  39
ATOM     39  C   UNL A   1      43.906  25.446  27.108  1.00  0.00     0.031 A 
ATOM     40  C   UNL A   1      44.786  26.579  26.786  1.00  0.00     0.074 A 
ATOM     41  C   UNL A   1      42.724  25.702  27.708  1.00  0.00     0.049 A 
ATOM     42  N   UNL A   1      45.712  27.068  27.532  1.00  0.00    -0.248 NA
ATOM     43  C   UNL A   1      44.698  27.170  25.444  1.00  0.00     0.031 C 
ATOM     44  C   UNL A   1      41.487  24.909  27.713  1.00  0.00     0.029 A 
ATOM     45  N   UNL A   1      42.370  26.826  28.388  1.00  0.00    -0.354 N 
ATOM     46  C   UNL A   1      46.198  28.167  26.842  1.00  0.00     0.074 A 
ATOM     47  C   UNL A   1      45.682  28.069  25.500  1.00  0.00     0.031 C 
ATOM     48  C   UNL A   1      40.479  25.652  28.229  1.00  0.00     0.029 A 
ATOM     49  C   UNL A   1      41.030  26.900  28.732  1.00  0.00     0.049 A 
ATOM     50  H   UNL A   1      43.015  27.534  28.617  1.00  0.00     0.167 HD
ATOM     51  C   UNL A   1      46.793  29.196  27.499  1.00  0.00     0.037 A 
ATOM     52  C   UNL A   1      40.427  27.928  29.374  1.00  0.00     0.037 A 
ATOM     53  C   UNL A   1      47.057  28.863  28.879  1.00  0.00     0.049 A 
ATOM     54  C   UNL A   1      41.488  28.718  30.047  1.00  0.00     0.074 A 
ATOM     55  C   UNL A   1      47.772  27.873  29.526  1.00  0.00     0.029 A 
ATOM     56  N   UNL A   1      46.213  29.390  29.825  1.00  0.00    -0.354 N 
ATOM     57  N   UNL A   1      42.198  28.297  31.056  1.00  0.00    -0.248 NA
ATOM     58  C   UNL A   1      42.022  29.884  29.359  1.00  0.00     0.031 C 
ATOM     59  C   UNL A   1      47.006  27.554  30.688  1.00  0.00     0.029 A 
ATOM     60  C   UNL A   1      45.884  28.385  30.700  1.00  0.00     0.049 A 
ATOM     61  H   UNL A   1      45.899  30.323  29.868  1.00  0.00     0.167 HD
ATOM     62  C   UNL A   1      43.449  28.864  30.873  1.00  0.00     0.074 A 
ATOM     63  C   UNL A   1      43.239  29.932  29.903  1.00  0.00     0.031 C 
ATOM     64  C   UNL A   1      44.579  28.231  31.306  1.00  0.00     0.037 A 
BRANCH  51  65
ATOM     65  C   UNL A   1      46.823  30.609  26.998  1.00  0.00     0.057 A 
ATOM     66  C   UNL A   1      48.043  31.300  26.977  1.00  0.00     0.134 A 
ATOM     67  C   UNL A   1      45.675  31.394  26.768  1.00  0.00     0.134 A 
ATOM     68  F   UNL A   1      49.197  30.662  27.222  1.00  0.00    -0.206 F 
ATOM     69  C   UNL A   1      48.114  32.682  26.776  1.00  0.00     0.040 A 
ATOM     70  C   UNL A   1      45.739  32.764  26.505  1.00  0.00     0.040 A 
ATOM     71  F   UNL A   1      44.436  30.899  26.884  1.00  0.00    -0.206 F 
ATOM     72  C   UNL A   1      46.961  33.418  26.534  1.00  0.00     0.006 A 
ENDBRANCH  51  65
BRANCH  52  73
ATOM     73  C   UNL A   1      39.029  28.399  29.306  1.00  0.00     0.057 A 
ATOM     74  C   UNL A   1      38.213  28.418  30.446  1.00  0.00     0.134 A 
ATOM     75  C   UNL A   1      38.550  29.100  28.188  1.00  0.00     0.134 A 
ATOM     76  F   UNL A   1      38.604  27.805  31.573  1.00  0.00    -0.206 F 
ATOM     77  C   UNL A   1      37.004  29.122  30.484  1.00  0.00     0.040 A 
ATOM     78  C   UNL A   1      37.339  29.801  28.209  1.00  0.00     0.040 A 
ATOM     79  F   UNL A   1      39.287  29.208  27.072  1.00  0.00    -0.206 F 
ATOM     80  C   UNL A   1      36.570  29.827  29.366  1.00  0.00     0.006 A 
ENDBRANCH  52  73
BRANCH  64  81
ATOM     81  C   UNL A   1      44.412  27.112  32.298  1.00  0.00     0.057 A 
ATOM     82  C   UNL A   1      44.315  25.756  31.951  1.00  0.00     0.134 A 
ATOM     83  C   UNL A   1      44.466  27.410  33.665  1.00  0.00     0.134 A 
ATOM     84  F   UNL A   1      44.358  25.361  30.672  1.00  0.00    -0.206 F 
ATOM     85  C   UNL A   1      44.223  24.751  32.920  1.00  0.00     0.040 A 
ATOM     86  C   UNL A   1      44.411  26.413  34.641  1.00  0.00     0.040 A 
ATOM     87  F   UNL A   1      44.614  28.680  34.074  1.00  0.00    -0.206 F 
ATOM     88  C   UNL A   1      44.276  25.078  34.270  1.00  0.00     0.006 A 
ENDBRANCH  64  81
ENDBRANCH  38  39
ENDBRANCH  30  33
ENDBRANCH  28  29
ENDBRANCH  27  28
ENDBRANCH   1  27
TORSDOF 14
ENDMDL
MODEL 2
REMARK VINA RESULT:     -12.4      2.079      3.012
REMARK SMILES Cc1ccc(C)c(NS(=O)(=O)c2cc(C(=O)NCCCCNC(=O)c3ccc(-c4c5nc(c(-c6c(F)cccc6F)c6ccc([nH]6)c(-c6c(F)cccc6F)c6nc(c(-c7c(F)cccc7F)c7ccc4[nH]7)C=C6)C=C5)cc3)ccc2Cl)c1
REMARK SMILES IDX 19 1 18 2 17 3 15 4 16 5 14 7 12 8 13 9 81 10 80 11 82 12
REMARK SMILES IDX 79 13 9 14 10 15 11 16 8 17 7 19 1 20 2 21 3 22 83 23 4 24
REMARK SMILES IDX 5 25 6 26 20 27 21 28 22 29 23 30 24 32 25 33 26 34 78 35
REMARK SMILES IDX 27 36 77 37 28 38 29 39 30 40 71 41 31 42 76 43 70 44 72 45
REMARK SMILES IDX 32 46 75 47 69 48 68 49 33 51 59 52 42 53 58 54 43 55 46 56
REMARK SMILES IDX 57 57 73 58 44 59 45 60 56 62 74 63 47 64 34 65 35 66 40 67
REMARK SMILES IDX 36 68 37 69 39 70 41 71 38 72 60 73 61 74 66 75 62 76 63 77
REMARK SMILES IDX 65 78 67 79 64 80 48 81 49 82 54 83 50 84 51 85 53 86 55 87
REMARK SMILES IDX 52 88
REMARK H PARENT 17 6 8 18 22 31 72 50 46 61
REMARK Flexibility Score: inf
ROOT
ATOM      1  C   UNL A   1      40.417  20.907  26.431  1.00  0.00     0.023 C 
ENDROOT
BRANCH   1   2
ATOM      2  C   UNL A   1      39.118  21.297  25.721  1.00  0.00     0.116 C 
BRANCH   2   3
ATOM      3  N   UNL A   1      38.771  22.700  25.782  1.00  0.00    -0.352 N 
ATOM      4  C   UNL A   1      37.567  23.350  25.856  1.00  0.00     0.251 C 
ATOM      5  O   UNL A   1      37.603  24.520  26.241  1.00  0.00    -0.269 OA
ATOM      6  H   UNL A   1      39.549  23.302  25.768  1.00  0.00     0.163 HD
BRANCH   4   7
ATOM      7  C   UNL A   1      36.248  22.765  25.458  1.00  0.00     0.041 A 
ATOM      8  C   UNL A   1      34.439  22.792  23.797  1.00  0.00     0.107 A 
ATOM      9  C   UNL A   1      35.645  23.307  24.312  1.00  0.00     0.037 A 
ATOM     10  C   UNL A   1      33.898  21.633  24.332  1.00  0.00     0.061 A 
ATOM     11  C   UNL A   1      34.435  21.141  25.523  1.00  0.00     0.023 A 
ATOM     12  Cl  UNL A   1      32.667  20.696  23.578  1.00  0.00    -0.083 Cl
ATOM     13  C   UNL A   1      35.578  21.720  26.094  1.00  0.00     0.015 A 
BRANCH   8  14
ATOM     14  S   UNL A   1      33.587  23.810  22.627  1.00  0.00     0.263 S 
ATOM     15  O   UNL A   1      33.372  23.016  21.457  1.00  0.00    -0.201 OA
ATOM     16  O   UNL A   1      34.335  25.066  22.538  1.00  0.00    -0.201 OA
BRANCH  14  17
ATOM     17  N   UNL A   1      32.066  24.219  23.208  1.00  0.00    -0.279 N 
ATOM     18  H   UNL A   1      31.359  23.547  23.080  1.00  0.00     0.180 HD
BRANCH  17  19
ATOM     19  C   UNL A   1      31.679  25.429  23.869  1.00  0.00     0.052 A 
ATOM     20  C   UNL A   1      29.878  28.540  22.552  1.00  0.00     0.044 C 
ATOM     21  C   UNL A   1      30.509  27.560  23.494  1.00  0.00    -0.049 A 
ATOM     22  C   UNL A   1      30.539  27.801  24.862  1.00  0.00     0.004 A 
ATOM     23  C   UNL A   1      31.050  26.361  23.018  1.00  0.00     0.030 A 
ATOM     24  C   UNL A   1      31.244  26.938  25.702  1.00  0.00     0.006 A 
ATOM     25  C   UNL A   1      31.903  25.793  25.204  1.00  0.00    -0.027 A 
ATOM     26  C   UNL A   1      32.842  25.094  26.140  1.00  0.00     0.046 C 
ENDBRANCH  17  19
ENDBRANCH  14  17
ENDBRANCH   8  14
ENDBRANCH   4   7
ENDBRANCH   2   3
ENDBRANCH   1   2
BRANCH   1  27
ATOM     27  C   UNL A   1      41.079  19.553  26.114  1.00  0.00     0.023 C 
BRANCH  27  28
ATOM     28  C   UNL A   1      42.526  19.258  26.545  1.00  0.00     0.116 C 
BRANCH  28  29
ATOM     29  N   UNL A   1      43.531  19.335  25.477  1.00  0.00    -0.352 N 
ATOM     30  C   UNL A   1      44.166  20.374  24.812  1.00  0.00     0.251 C 
ATOM     31  H   UNL A   1      43.818  18.448  25.161  1.00  0.00     0.163 HD
ATOM     32  O   UNL A   1      44.717  20.131  23.740  1.00  0.00    -0.269 OA
BRANCH  30  33
ATOM     33  C   UNL A   1      44.267  21.744  25.376  1.00  0.00     0.039 A 
ATOM     34  C   UNL A   1      45.234  22.122  26.318  1.00  0.00     0.014 A 
ATOM     35  C   UNL A   1      43.291  22.667  25.055  1.00  0.00     0.014 A 
ATOM     36  C   UNL A   1      45.111  23.364  26.963  1.00  0.00     0.010 A 
ATOM     37  C   UNL A   1      43.260  23.939  25.531  1.00  0.00     0.010 A 
ATOM     38  C   UNL A   1      44.076  24.233  26.591  1.00  0.00    -0.014 A 
BRANCH  38  39
ATOM     39  C   UNL A   1      43.760  25.480  27.250  1.00  0.00     0.031 A 
ATOM     40  C   UNL A   1      44.644  26.602  26.901  1.00  0.00     0.074 A 
ATOM     41  C   UNL A   1      42.573  25.756  27.833  1.00  0.00     0.049 A 
ATOM     42  N   UNL A   1      45.565  27.112  27.639  1.00  0.00    -0.248 NA
ATOM     43  C   UNL A   1      44.568  27.151  25.540  1.00  0.00     0.031 C 
ATOM     44  C   UNL A   1      41.335  24.966  27.853  1.00  0.00     0.029 A 
ATOM     45  N   UNL A   1      42.215  26.901  28.475  1.00  0.00    -0.354 N 
ATOM     46  C   UNL A   1      46.058  28.188  26.919  1.00  0.00     0.074 A 
ATOM     47  C   UNL A   1      45.553  28.050  25.576  1.00  0.00     0.031 C 
ATOM     48  C   UNL A   1      40.324  25.725  28.338  1.00  0.00     0.029 A 
ATOM     49  C   UNL A   1      40.873  26.987  28.806  1.00  0.00     0.049 A 
ATOM     50  H   UNL A   1      42.860  27.615  28.687  1.00  0.00     0.167 HD
ATOM     51  C   UNL A   1      46.649  29.236  27.549  1.00  0.00     0.037 A 
ATOM     52  C   UNL A   1      40.267  28.036  29.411  1.00  0.00     0.037 A 
ATOM     53  C   UNL A   1      46.902  28.946  28.940  1.00  0.00     0.049 A 
ATOM     54  C   UNL A   1      41.323  28.845  30.067  1.00  0.00     0.074 A 
ATOM     55  C   UNL A   1      47.610  27.976  29.623  1.00  0.00     0.029 A 
ATOM     56  N   UNL A   1      46.051  29.504  29.863  1.00  0.00    -0.354 N 
ATOM     57  N   UNL A   1      42.024  28.454  31.095  1.00  0.00    -0.248 NA
ATOM     58  C   UNL A   1      41.865  29.988  29.348  1.00  0.00     0.031 C 
ATOM     59  C   UNL A   1      46.835  27.694  30.788  1.00  0.00     0.029 A 
ATOM     60  C   UNL A   1      45.714  28.526  30.765  1.00  0.00     0.049 A 
ATOM     61  H   UNL A   1      45.738  30.438  29.874  1.00  0.00     0.167 HD
ATOM     62  C   UNL A   1      43.278  29.014  30.904  1.00  0.00     0.074 A 
ATOM     63  C   UNL A   1      43.078  30.051  29.900  1.00  0.00     0.031 C 
ATOM     64  C   UNL A   1      44.403  28.393  31.366  1.00  0.00     0.037 A 
BRANCH  51  65
ATOM     65  C   UNL A   1      46.685  30.633  27.004  1.00  0.00     0.057 A 
ATOM     66  C   UNL A   1      47.907  31.320  26.968  1.00  0.00     0.134 A 
ATOM     67  C   UNL A   1      45.541  31.414  26.745  1.00  0.00     0.134 A 
ATOM     68  F   UNL A   1      49.059  30.686  27.237  1.00  0.00    -0.206 F 
ATOM     69  C   UNL A   1      47.984  32.694  26.724  1.00  0.00     0.040 A 
ATOM     70  C   UNL A   1      45.610  32.775  26.440  1.00  0.00     0.040 A 
ATOM     71  F   UNL A   1      44.300  30.926  26.870  1.00  0.00    -0.206 F 
ATOM     72  C   UNL A   1      46.834  33.426  26.454  1.00  0.00     0.006 A 
ENDBRANCH  51  65
BRANCH  52  73
ATOM     73  C   UNL A   1      38.870  28.507  29.317  1.00  0.00     0.057 A 
ATOM     74  C   UNL A   1      38.036  28.535  30.444  1.00  0.00     0.134 A 
ATOM     75  C   UNL A   1      38.409  29.199  28.186  1.00  0.00     0.134 A 
ATOM     76  F   UNL A   1      38.409  27.931  31.582  1.00  0.00    -0.206 F 
ATOM     77  C   UNL A   1      36.826  29.239  30.457  1.00  0.00     0.040 A 
ATOM     78  C   UNL A   1      37.198  29.900  28.182  1.00  0.00     0.040 A 
ATOM     79  F   UNL A   1      39.163  29.297  27.081  1.00  0.00    -0.206 F 
ATOM     80  C   UNL A   1      36.410  29.935  29.327  1.00  0.00     0.006 A 
ENDBRANCH  52  73
BRANCH  64  81
ATOM     81  C   UNL A   1      44.226  27.305  32.390  1.00  0.00     0.057 A 
ATOM     82  C   UNL A   1      44.172  25.936  32.089  1.00  0.00     0.134 A 
ATOM     83  C   UNL A   1      44.228  27.652  33.747  1.00  0.00     0.134 A 
ATOM     84  F   UNL A   1      44.266  25.498  30.827  1.00  0.00    -0.206 F 
ATOM     85  C   UNL A   1      44.068  24.964  33.089  1.00  0.00     0.040 A 
ATOM     86  C   UNL A   1      44.160  26.688  34.756  1.00  0.00     0.040 A 
ATOM     87  F   UNL A   1      44.334  28.938  34.115  1.00  0.00    -0.206 F 
ATOM     88  C   UNL A   1      44.067  25.338  34.428  1.00  0.00     0.006 A 
ENDBRANCH  64  81
ENDBRANCH  38  39
ENDBRANCH  30  33
ENDBRANCH  28  29
ENDBRANCH  27  28
ENDBRANCH   1  27
TORSDOF 14
ENDMDL
MODEL 3
REMARK VINA RESULT:     -12.2      2.981      7.755
REMARK SMILES Cc1ccc(C)c(NS(=O)(=O)c2cc(C(=O)NCCCCNC(=O)c3ccc(-c4c5nc(c(-c6c(F)cccc6F)c6ccc([nH]6)c(-c6c(F)cccc6F)c6nc(c(-c7c(F)cccc7F)c7ccc4[nH]7)C=C6)C=C5)cc3)ccc2Cl)c1
REMARK SMILES IDX 19 1 18 2 17 3 15 4 16 5 14 7 12 8 13 9 81 10 80 11 82 12
REMARK SMILES IDX 79 13 9 14 10 15 11 16 8 17 7 19 1 20 2 21 3 22 83 23 4 24
REMARK SMILES IDX 5 25 6 26 20 27 21 28 22 29 23 30 24 32 25 33 26 34 78 35
REMARK SMILES IDX 27 36 77 37 28 38 29 39 30 40 71 41 31 42 76 43 70 44 72 45
REMARK SMILES IDX 32 46 75 47 69 48 68 49 33 51 59 52 42 53 58 54 43 55 46 56
REMARK SMILES IDX 57 57 73 58 44 59 45 60 56 62 74 63 47 64 34 65 35 66 40 67
REMARK SMILES IDX 36 68 37 69 39 70 41 71 38 72 60 73 61 74 66 75 62 76 63 77
REMARK SMILES IDX 65 78 67 79 64 80 48 81 49 82 54 83 50 84 51 85 53 86 55 87
REMARK SMILES IDX 52 88
REMARK H PARENT 17 6 8 18 22 31 72 50 46 61
REMARK Flexibility Score: inf
ROOT
ATOM      1  C   UNL A   1      33.819  28.721  24.017  1.00  0.00     0.023 C 
ENDROOT
BRANCH   1   2
ATOM      2  C   UNL A   1      32.958  28.562  22.761  1.00  0.00     0.116 C 
BRANCH   2   3
ATOM      3  N   UNL A   1      33.377  27.525  21.845  1.00  0.00    -0.352 N 
ATOM      4  C   UNL A   1      33.026  26.205  21.722  1.00  0.00     0.251 C 
ATOM      5  O   UNL A   1      33.287  25.671  20.643  1.00  0.00    -0.269 OA
ATOM      6  H   UNL A   1      34.042  27.823  21.184  1.00  0.00     0.163 HD
BRANCH   4   7
ATOM      7  C   UNL A   1      32.410  25.375  22.804  1.00  0.00     0.041 A 
ATOM      8  C   UNL A   1      32.835  23.774  24.619  1.00  0.00     0.107 A 
ATOM      9  C   UNL A   1      33.283  24.548  23.529  1.00  0.00     0.037 A 
ATOM     10  C   UNL A   1      31.542  23.931  25.092  1.00  0.00     0.061 A 
ATOM     11  C   UNL A   1      30.643  24.677  24.327  1.00  0.00     0.023 A 
ATOM     12  Cl  UNL A   1      30.986  23.349  26.614  1.00  0.00    -0.083 Cl
ATOM     13  C   UNL A   1      31.067  25.365  23.180  1.00  0.00     0.015 A 
BRANCH   8  14
ATOM     14  S   UNL A   1      33.919  22.487  25.165  1.00  0.00     0.263 S 
ATOM     15  O   UNL A   1      34.355  22.834  26.481  1.00  0.00    -0.201 OA
ATOM     16  O   UNL A   1      34.897  22.277  24.095  1.00  0.00    -0.201 OA
BRANCH  14  17
ATOM     17  N   UNL A   1      33.078  21.041  25.311  1.00  0.00    -0.279 N 
ATOM     18  H   UNL A   1      32.540  20.934  26.128  1.00  0.00     0.180 HD
BRANCH  17  19
ATOM     19  C   UNL A   1      33.052  19.946  24.387  1.00  0.00     0.052 A 
ATOM     20  C   UNL A   1      34.705  16.496  24.539  1.00  0.00     0.044 C 
ATOM     21  C   UNL A   1      33.846  17.638  24.086  1.00  0.00    -0.049 A 
ATOM     22  C   UNL A   1      33.027  17.517  22.969  1.00  0.00     0.004 A 
ATOM     23  C   UNL A   1      33.823  18.840  24.800  1.00  0.00     0.030 A 
ATOM     24  C   UNL A   1      32.338  18.633  22.493  1.00  0.00     0.006 A 
ATOM     25  C   UNL A   1      32.416  19.884  23.140  1.00  0.00    -0.027 A 
ATOM     26  C   UNL A   1      31.859  21.063  22.399  1.00  0.00     0.046 C 
ENDBRANCH  17  19
ENDBRANCH  14  17
ENDBRANCH   8  14
ENDBRANCH   4   7
ENDBRANCH   2   3
ENDBRANCH   1   2
BRANCH   1  27
ATOM     27  C   UNL A   1      33.154  28.675  25.405  1.00  0.00     0.023 C 
BRANCH  27  28
ATOM     28  C   UNL A   1      33.920  29.114  26.666  1.00  0.00     0.116 C 
BRANCH  28  29
ATOM     29  N   UNL A   1      34.036  30.565  26.860  1.00  0.00    -0.352 N 
ATOM     30  C   UNL A   1      34.802  31.378  27.682  1.00  0.00     0.251 C 
ATOM     31  H   UNL A   1      33.433  31.076  26.273  1.00  0.00     0.163 HD
ATOM     32  O   UNL A   1      34.443  32.542  27.850  1.00  0.00    -0.269 OA
BRANCH  30  33
ATOM     33  C   UNL A   1      36.069  30.921  28.308  1.00  0.00     0.039 A 
ATOM     34  C   UNL A   1      37.104  31.791  28.680  1.00  0.00     0.014 A 
ATOM     35  C   UNL A   1      36.300  29.564  28.423  1.00  0.00     0.014 A 
ATOM     36  C   UNL A   1      38.349  31.253  29.048  1.00  0.00     0.010 A 
ATOM     37  C   UNL A   1      37.432  29.027  28.948  1.00  0.00     0.010 A 
ATOM     38  C   UNL A   1      38.504  29.861  29.117  1.00  0.00    -0.014 A 
BRANCH  38  39
ATOM     39  C   UNL A   1      39.753  29.175  29.362  1.00  0.00     0.031 A 
ATOM     40  C   UNL A   1      40.049  28.924  30.779  1.00  0.00     0.074 A 
ATOM     41  C   UNL A   1      40.433  28.473  28.430  1.00  0.00     0.049 A 
ATOM     42  N   UNL A   1      40.913  29.542  31.504  1.00  0.00    -0.248 NA
ATOM     43  C   UNL A   1      39.221  27.949  31.502  1.00  0.00     0.031 C 
ATOM     44  C   UNL A   1      40.057  28.144  27.048  1.00  0.00     0.029 A 
ATOM     45  N   UNL A   1      41.612  27.814  28.591  1.00  0.00    -0.354 N 
ATOM     46  C   UNL A   1      40.890  28.899  32.731  1.00  0.00     0.074 A 
ATOM     47  C   UNL A   1      39.713  28.067  32.736  1.00  0.00     0.031 C 
ATOM     48  C   UNL A   1      40.915  27.221  26.556  1.00  0.00     0.029 A 
ATOM     49  C   UNL A   1      41.982  27.015  27.521  1.00  0.00     0.049 A 
ATOM     50  H   UNL A   1      42.159  27.897  29.405  1.00  0.00     0.167 HD
ATOM     51  C   UNL A   1      41.972  28.923  33.551  1.00  0.00     0.037 A 
ATOM     52  C   UNL A   1      43.087  26.235  27.454  1.00  0.00     0.037 A 
ATOM     53  C   UNL A   1      42.962  29.870  33.097  1.00  0.00     0.049 A 
ATOM     54  C   UNL A   1      44.043  26.724  28.478  1.00  0.00     0.074 A 
ATOM     55  C   UNL A   1      42.971  31.228  32.842  1.00  0.00     0.029 A 
ATOM     56  N   UNL A   1      44.069  29.365  32.460  1.00  0.00    -0.354 N 
ATOM     57  N   UNL A   1      44.659  27.873  28.427  1.00  0.00    -0.248 NA
ATOM     58  C   UNL A   1      44.055  26.073  29.779  1.00  0.00     0.031 C 
ATOM     59  C   UNL A   1      43.813  31.391  31.701  1.00  0.00     0.029 A 
ATOM     60  C   UNL A   1      44.293  30.130  31.343  1.00  0.00     0.049 A 
ATOM     61  H   UNL A   1      44.605  28.592  32.752  1.00  0.00     0.167 HD
ATOM     62  C   UNL A   1      44.764  28.278  29.749  1.00  0.00     0.074 A 
ATOM     63  C   UNL A   1      44.507  27.077  30.532  1.00  0.00     0.031 C 
ATOM     64  C   UNL A   1      44.766  29.603  30.080  1.00  0.00     0.037 A 
BRANCH  51  65
ATOM     65  C   UNL A   1      42.288  27.857  34.558  1.00  0.00     0.057 A 
ATOM     66  C   UNL A   1      42.179  28.154  35.924  1.00  0.00     0.134 A 
ATOM     67  C   UNL A   1      42.926  26.638  34.250  1.00  0.00     0.134 A 
ATOM     68  F   UNL A   1      41.625  29.306  36.334  1.00  0.00    -0.206 F 
ATOM     69  C   UNL A   1      42.697  27.315  36.915  1.00  0.00     0.040 A 
ATOM     70  C   UNL A   1      43.393  25.763  35.233  1.00  0.00     0.040 A 
ATOM     71  F   UNL A   1      43.216  26.281  32.992  1.00  0.00    -0.206 F 
ATOM     72  C   UNL A   1      43.303  26.112  36.571  1.00  0.00     0.006 A 
ENDBRANCH  51  65
BRANCH  52  73
ATOM     73  C   UNL A   1      43.318  24.981  26.708  1.00  0.00     0.057 A 
ATOM     74  C   UNL A   1      42.681  23.788  27.078  1.00  0.00     0.134 A 
ATOM     75  C   UNL A   1      43.948  24.985  25.454  1.00  0.00     0.134 A 
ATOM     76  F   UNL A   1      42.023  23.701  28.244  1.00  0.00    -0.206 F 
ATOM     77  C   UNL A   1      42.644  22.672  26.234  1.00  0.00     0.040 A 
ATOM     78  C   UNL A   1      43.927  23.874  24.603  1.00  0.00     0.040 A 
ATOM     79  F   UNL A   1      44.522  26.098  24.972  1.00  0.00    -0.206 F 
ATOM     80  C   UNL A   1      43.258  22.718  24.987  1.00  0.00     0.006 A 
ENDBRANCH  52  73
BRANCH  64  81
ATOM     81  C   UNL A   1      45.026  30.595  28.978  1.00  0.00     0.057 A 
ATOM     82  C   UNL A   1      44.029  31.144  28.158  1.00  0.00     0.134 A 
ATOM     83  C   UNL A   1      46.322  31.099  28.818  1.00  0.00     0.134 A 
ATOM     84  F   UNL A   1      42.743  30.802  28.303  1.00  0.00    -0.206 F 
ATOM     85  C   UNL A   1      44.320  32.110  27.189  1.00  0.00     0.040 A 
ATOM     86  C   UNL A   1      46.619  32.089  27.878  1.00  0.00     0.040 A 
ATOM     87  F   UNL A   1      47.319  30.662  29.604  1.00  0.00    -0.206 F 
ATOM     88  C   UNL A   1      45.618  32.589  27.050  1.00  0.00     0.006 A 
ENDBRANCH  64  81
ENDBRANCH  38  39
ENDBRANCH  30  33
ENDBRANCH  28  29
ENDBRANCH  27  28
ENDBRANCH   1  27
TORSDOF 14
ENDMDL
