MODEL 1
REMARK VINA RESULT:     -11.2      0.000      0.000
REMARK SMILES O=C(C[C@H]1CC[C@@H](C(=O)NCCCCNC(=O)c2ccc(-c3c4nc(c(-c5c(F)cccc5F)c5ccc([nH]5)c(-c5c(F)cccc5F)c5nc(c(-c6c(F)cccc6F)c6ccc3[nH]6)C=C5)C=C4)cc2)C1)c1ccc(Cl)cc1
REMARK SMILES IDX 12 1 11 2 10 3 8 4 9 5 7 7 4 8 5 9 72 10 6 11 3 12 2 13 1 14
REMARK SMILES IDX 73 15 74 16 79 17 75 18 78 19 76 20 77 21 13 22 14 23 15 24
REMARK SMILES IDX 16 25 17 27 18 28 19 29 71 30 20 31 70 32 21 33 22 34 23 35
REMARK SMILES IDX 64 36 24 37 69 38 63 39 65 40 25 41 68 42 62 43 61 44 26 46
REMARK SMILES IDX 52 47 35 48 51 49 36 50 39 51 50 52 66 53 37 54 38 55 49 57
REMARK SMILES IDX 67 58 40 59 27 60 28 61 33 62 29 63 30 64 32 65 34 66 31 67
REMARK SMILES IDX 53 68 54 69 59 70 55 71 56 72 58 73 60 74 57 75 41 76 42 77
REMARK SMILES IDX 47 78 43 79 44 80 46 81 48 82 45 83
REMARK H PARENT 10 6 15 26 65 45 39 56
REMARK Flexibility Score: inf
ROOT
ATOM      1  C   UNL A   1      33.160  27.830  25.209  1.00  0.00     0.023 C 
ENDROOT
BRANCH   1   2
ATOM      2  C   UNL A   1      33.810  26.463  25.404  1.00  0.00     0.116 C 
BRANCH   2   3
ATOM      3  N   UNL A   1      34.028  25.709  24.187  1.00  0.00    -0.356 N 
ATOM      4  C   UNL A   1      34.686  24.533  23.974  1.00  0.00     0.223 C 
ATOM      5  O   UNL A   1      34.611  24.063  22.835  1.00  0.00    -0.275 OA
ATOM      6  H   UNL A   1      33.636  26.113  23.379  1.00  0.00     0.163 HD
BRANCH   4   7
ATOM      7  C   UNL A   1      35.597  23.903  25.039  1.00  0.00     0.079 C 
ATOM      8  C   UNL A   1      35.135  21.565  25.634  1.00  0.00    -0.003 C 
ATOM      9  C   UNL A   1      36.553  21.616  25.060  1.00  0.00     0.005 C 
ATOM     10  C   UNL A   1      34.944  23.007  26.086  1.00  0.00     0.017 C 
ATOM     11  C   UNL A   1      36.691  23.002  24.421  1.00  0.00     0.014 C 
BRANCH   8  12
ATOM     12  C   UNL A   1      34.115  21.011  24.627  1.00  0.00     0.084 C 
BRANCH  12  13
ATOM     13  C   UNL A   1      32.618  21.032  24.921  1.00  0.00     0.163 C 
ATOM     14  O   UNL A   1      32.053  19.982  25.242  1.00  0.00    -0.294 OA
BRANCH  13  15
ATOM     15  C   UNL A   1      31.778  22.274  24.892  1.00  0.00     0.018 A 
ATOM     16  C   UNL A   1      31.391  22.993  26.027  1.00  0.00     0.013 A 
ATOM     17  C   UNL A   1      31.464  22.806  23.627  1.00  0.00     0.013 A 
ATOM     18  C   UNL A   1      30.817  24.265  25.900  1.00  0.00     0.021 A 
ATOM     19  C   UNL A   1      30.846  24.053  23.501  1.00  0.00     0.021 A 
ATOM     20  C   UNL A   1      30.558  24.795  24.639  1.00  0.00     0.041 A 
ATOM     21  Cl  UNL A   1      29.907  26.378  24.496  1.00  0.00    -0.084 Cl
ENDBRANCH  13  15
ENDBRANCH  12  13
ENDBRANCH   8  12
ENDBRANCH   4   7
ENDBRANCH   2   3
ENDBRANCH   1   2
BRANCH   1  22
ATOM     22  C   UNL A   1      33.777  29.005  25.968  1.00  0.00     0.023 C 
BRANCH  22  23
ATOM     23  C   UNL A   1      33.350  29.205  27.420  1.00  0.00     0.116 C 
BRANCH  23  24
ATOM     24  N   UNL A   1      33.683  30.511  27.968  1.00  0.00    -0.352 N 
ATOM     25  C   UNL A   1      34.871  31.008  28.460  1.00  0.00     0.251 C 
ATOM     26  H   UNL A   1      32.933  31.147  27.991  1.00  0.00     0.163 HD
ATOM     27  O   UNL A   1      34.916  32.161  28.874  1.00  0.00    -0.269 OA
BRANCH  25  28
ATOM     28  C   UNL A   1      36.083  30.160  28.560  1.00  0.00     0.039 A 
ATOM     29  C   UNL A   1      36.903  30.064  27.430  1.00  0.00     0.014 A 
ATOM     30  C   UNL A   1      36.446  29.504  29.738  1.00  0.00     0.014 A 
ATOM     31  C   UNL A   1      38.155  29.456  27.527  1.00  0.00     0.010 A 
ATOM     32  C   UNL A   1      37.722  28.951  29.855  1.00  0.00     0.010 A 
ATOM     33  C   UNL A   1      38.606  28.977  28.766  1.00  0.00    -0.014 A 
BRANCH  33  34
ATOM     34  C   UNL A   1      40.044  28.678  28.974  1.00  0.00     0.031 A 
ATOM     35  C   UNL A   1      40.990  29.700  29.522  1.00  0.00     0.074 A 
ATOM     36  C   UNL A   1      40.504  27.473  28.576  1.00  0.00     0.049 A 
ATOM     37  N   UNL A   1      42.280  29.601  29.721  1.00  0.00    -0.248 NA
ATOM     38  C   UNL A   1      40.422  31.008  29.876  1.00  0.00     0.031 C 
ATOM     39  C   UNL A   1      39.685  26.416  27.972  1.00  0.00     0.029 A 
ATOM     40  N   UNL A   1      41.765  26.937  28.604  1.00  0.00    -0.354 N 
ATOM     41  C   UNL A   1      42.681  30.831  30.225  1.00  0.00     0.074 A 
ATOM     42  C   UNL A   1      41.502  31.672  30.266  1.00  0.00     0.031 C 
ATOM     43  C   UNL A   1      40.461  25.354  27.707  1.00  0.00     0.029 A 
ATOM     44  C   UNL A   1      41.834  25.666  28.084  1.00  0.00     0.049 A 
ATOM     45  H   UNL A   1      42.547  27.416  28.962  1.00  0.00     0.167 HD
ATOM     46  C   UNL A   1      43.916  31.213  30.627  1.00  0.00     0.037 A 
ATOM     47  C   UNL A   1      42.886  24.844  27.921  1.00  0.00     0.037 A 
ATOM     48  C   UNL A   1      45.085  30.371  30.583  1.00  0.00     0.049 A 
ATOM     49  C   UNL A   1      44.246  25.301  28.359  1.00  0.00     0.074 A 
ATOM     50  C   UNL A   1      46.367  30.650  31.026  1.00  0.00     0.029 A 
ATOM     51  N   UNL A   1      45.117  29.091  30.050  1.00  0.00    -0.354 N 
ATOM     52  N   UNL A   1      44.594  26.439  28.909  1.00  0.00    -0.248 NA
ATOM     53  C   UNL A   1      45.358  24.363  28.154  1.00  0.00     0.031 C 
ATOM     54  C   UNL A   1      47.182  29.552  30.728  1.00  0.00     0.029 A 
ATOM     55  C   UNL A   1      46.402  28.577  30.130  1.00  0.00     0.049 A 
ATOM     56  H   UNL A   1      44.341  28.617  29.674  1.00  0.00     0.167 HD
ATOM     57  C   UNL A   1      45.961  26.351  29.127  1.00  0.00     0.074 A 
ATOM     58  C   UNL A   1      46.376  25.041  28.669  1.00  0.00     0.031 C 
ATOM     59  C   UNL A   1      46.799  27.274  29.657  1.00  0.00     0.037 A 
BRANCH  46  60
ATOM     60  C   UNL A   1      44.067  32.608  31.154  1.00  0.00     0.057 A 
ATOM     61  C   UNL A   1      44.369  33.684  30.308  1.00  0.00     0.134 A 
ATOM     62  C   UNL A   1      43.870  32.889  32.513  1.00  0.00     0.134 A 
ATOM     63  F   UNL A   1      44.577  33.480  28.999  1.00  0.00    -0.206 F 
ATOM     64  C   UNL A   1      44.489  34.986  30.798  1.00  0.00     0.040 A 
ATOM     65  C   UNL A   1      43.968  34.189  33.010  1.00  0.00     0.040 A 
ATOM     66  F   UNL A   1      43.573  31.905  33.374  1.00  0.00    -0.206 F 
ATOM     67  C   UNL A   1      44.283  35.241  32.151  1.00  0.00     0.006 A 
ENDBRANCH  46  60
BRANCH  47  68
ATOM     68  C   UNL A   1      42.690  23.500  27.324  1.00  0.00     0.057 A 
ATOM     69  C   UNL A   1      42.861  23.290  25.951  1.00  0.00     0.134 A 
ATOM     70  C   UNL A   1      42.337  22.396  28.108  1.00  0.00     0.134 A 
ATOM     71  F   UNL A   1      43.182  24.315  25.147  1.00  0.00    -0.206 F 
ATOM     72  C   UNL A   1      42.674  22.032  25.376  1.00  0.00     0.040 A 
ATOM     73  C   UNL A   1      42.168  21.127  27.550  1.00  0.00     0.040 A 
ATOM     74  F   UNL A   1      42.168  22.532  29.432  1.00  0.00    -0.206 F 
ATOM     75  C   UNL A   1      42.331  20.945  26.178  1.00  0.00     0.006 A 
ENDBRANCH  47  68
BRANCH  59  76
ATOM     76  C   UNL A   1      48.243  26.893  29.770  1.00  0.00     0.057 A 
ATOM     77  C   UNL A   1      48.720  26.149  30.856  1.00  0.00     0.134 A 
ATOM     78  C   UNL A   1      49.160  27.255  28.776  1.00  0.00     0.134 A 
ATOM     79  F   UNL A   1      47.895  25.789  31.849  1.00  0.00    -0.206 F 
ATOM     80  C   UNL A   1      50.065  25.791  30.956  1.00  0.00     0.040 A 
ATOM     81  C   UNL A   1      50.502  26.885  28.855  1.00  0.00     0.040 A 
ATOM     82  F   UNL A   1      48.763  27.967  27.710  1.00  0.00    -0.206 F 
ATOM     83  C   UNL A   1      50.959  26.153  29.950  1.00  0.00     0.006 A 
ENDBRANCH  59  76
ENDBRANCH  33  34
ENDBRANCH  25  28
ENDBRANCH  23  24
ENDBRANCH  22  23
ENDBRANCH   1  22
TORSDOF 14
ENDMDL
MODEL 2
REMARK VINA RESULT:     -11.1      2.953      7.075
REMARK SMILES O=C(C[C@H]1CC[C@@H](C(=O)NCCCCNC(=O)c2ccc(-c3c4nc(c(-c5c(F)cccc5F)c5ccc([nH]5)c(-c5c(F)cccc5F)c5nc(c(-c6c(F)cccc6F)c6ccc3[nH]6)C=C5)C=C4)cc2)C1)c1ccc(Cl)cc1
REMARK SMILES IDX 12 1 11 2 10 3 8 4 9 5 7 7 4 8 5 9 72 10 6 11 3 12 2 13 1 14
REMARK SMILES IDX 73 15 74 16 79 17 75 18 78 19 76 20 77 21 13 22 14 23 15 24
REMARK SMILES IDX 16 25 17 27 18 28 19 29 71 30 20 31 70 32 21 33 22 34 23 35
REMARK SMILES IDX 64 36 24 37 69 38 63 39 65 40 25 41 68 42 62 43 61 44 26 46
REMARK SMILES IDX 52 47 35 48 51 49 36 50 39 51 50 52 66 53 37 54 38 55 49 57
REMARK SMILES IDX 67 58 40 59 27 60 28 61 33 62 29 63 30 64 32 65 34 66 31 67
REMARK SMILES IDX 53 68 54 69 59 70 55 71 56 72 58 73 60 74 57 75 41 76 42 77
REMARK SMILES IDX 47 78 43 79 44 80 46 81 48 82 45 83
REMARK H PARENT 10 6 15 26 65 45 39 56
REMARK Flexibility Score: inf
ROOT
ATOM      1  C   UNL A   1      36.984  22.080  24.387  1.00  0.00     0.023 C 
ENDROOT
BRANCH   1   2
ATOM      2  C   UNL A   1      37.143  23.489  24.950  1.00  0.00     0.116 C 
BRANCH   2   3
ATOM      3  N   UNL A   1      35.962  24.030  25.591  1.00  0.00    -0.356 N 
ATOM      4  C   UNL A   1      34.751  24.386  25.072  1.00  0.00     0.223 C 
ATOM      5  O   UNL A   1      33.884  24.715  25.886  1.00  0.00    -0.275 OA
ATOM      6  H   UNL A   1      36.049  24.164  26.563  1.00  0.00     0.163 HD
BRANCH   4   7
ATOM      7  C   UNL A   1      34.519  24.521  23.559  1.00  0.00     0.079 C 
ATOM      8  C   UNL A   1      32.572  23.340  22.639  1.00  0.00    -0.003 C 
ATOM      9  C   UNL A   1      32.364  24.833  22.376  1.00  0.00     0.005 C 
ATOM     10  C   UNL A   1      34.086  23.273  22.798  1.00  0.00     0.017 C 
ATOM     11  C   UNL A   1      33.419  25.554  23.221  1.00  0.00     0.014 C 
BRANCH   8  12
ATOM     12  C   UNL A   1      31.726  22.830  23.816  1.00  0.00     0.084 C 
BRANCH  12  13
ATOM     13  C   UNL A   1      32.265  21.780  24.784  1.00  0.00     0.163 C 
ATOM     14  O   UNL A   1      32.176  21.981  26.000  1.00  0.00    -0.294 OA
BRANCH  13  15
ATOM     15  C   UNL A   1      32.865  20.475  24.352  1.00  0.00     0.018 A 
ATOM     16  C   UNL A   1      34.011  19.907  24.918  1.00  0.00     0.013 A 
ATOM     17  C   UNL A   1      32.153  19.728  23.396  1.00  0.00     0.013 A 
ATOM     18  C   UNL A   1      34.364  18.583  24.626  1.00  0.00     0.021 A 
ATOM     19  C   UNL A   1      32.534  18.425  23.068  1.00  0.00     0.021 A 
ATOM     20  C   UNL A   1      33.619  17.843  23.713  1.00  0.00     0.041 A 
ATOM     21  Cl  UNL A   1      34.028  16.203  23.407  1.00  0.00    -0.084 Cl
ENDBRANCH  13  15
ENDBRANCH  12  13
ENDBRANCH   8  12
ENDBRANCH   4   7
ENDBRANCH   2   3
ENDBRANCH   1   2
BRANCH   1  22
ATOM     22  C   UNL A   1      37.529  20.930  25.235  1.00  0.00     0.023 C 
BRANCH  22  23
ATOM     23  C   UNL A   1      38.949  21.070  25.779  1.00  0.00     0.116 C 
BRANCH  23  24
ATOM     24  N   UNL A   1      39.725  19.839  25.751  1.00  0.00    -0.352 N 
ATOM     25  C   UNL A   1      41.037  19.590  26.093  1.00  0.00     0.251 C 
ATOM     26  H   UNL A   1      39.228  19.051  25.433  1.00  0.00     0.163 HD
ATOM     27  O   UNL A   1      41.481  18.453  25.988  1.00  0.00    -0.269 OA
BRANCH  25  28
ATOM     28  C   UNL A   1      41.944  20.680  26.527  1.00  0.00     0.039 A 
ATOM     29  C   UNL A   1      42.687  21.337  25.539  1.00  0.00     0.014 A 
ATOM     30  C   UNL A   1      42.042  21.091  27.858  1.00  0.00     0.014 A 
ATOM     31  C   UNL A   1      43.394  22.498  25.856  1.00  0.00     0.010 A 
ATOM     32  C   UNL A   1      42.696  22.286  28.164  1.00  0.00     0.010 A 
ATOM     33  C   UNL A   1      43.325  23.026  27.154  1.00  0.00    -0.014 A 
BRANCH  33  34
ATOM     34  C   UNL A   1      43.744  24.426  27.414  1.00  0.00     0.031 A 
ATOM     35  C   UNL A   1      42.756  25.488  27.784  1.00  0.00     0.074 A 
ATOM     36  C   UNL A   1      45.042  24.743  27.227  1.00  0.00     0.049 A 
ATOM     37  N   UNL A   1      42.964  26.762  28.002  1.00  0.00    -0.248 NA
ATOM     38  C   UNL A   1      41.352  25.073  27.911  1.00  0.00     0.031 C 
ATOM     39  C   UNL A   1      46.087  23.804  26.807  1.00  0.00     0.029 A 
ATOM     40  N   UNL A   1      45.704  25.937  27.350  1.00  0.00    -0.354 N 
ATOM     41  C   UNL A   1      41.720  27.304  28.292  1.00  0.00     0.074 A 
ATOM     42  C   UNL A   1      40.757  26.226  28.187  1.00  0.00     0.031 C 
ATOM     43  C   UNL A   1      47.259  24.453  26.728  1.00  0.00     0.029 A 
ATOM     44  C   UNL A   1      47.043  25.858  27.052  1.00  0.00     0.049 A 
ATOM     45  H   UNL A   1      45.262  26.773  27.624  1.00  0.00     0.167 HD
ATOM     46  C   UNL A   1      41.415  28.580  28.629  1.00  0.00     0.037 A 
ATOM     47  C   UNL A   1      47.994  26.809  27.033  1.00  0.00     0.037 A 
ATOM     48  C   UNL A   1      42.378  29.647  28.732  1.00  0.00     0.049 A 
ATOM     49  C   UNL A   1      47.624  28.218  27.393  1.00  0.00     0.074 A 
ATOM     50  C   UNL A   1      42.173  30.959  29.126  1.00  0.00     0.029 A 
ATOM     51  N   UNL A   1      43.724  29.529  28.423  1.00  0.00    -0.354 N 
ATOM     52  N   UNL A   1      46.456  28.699  27.744  1.00  0.00    -0.248 NA
ATOM     53  C   UNL A   1      48.701  29.216  27.353  1.00  0.00     0.031 C 
ATOM     54  C   UNL A   1      43.390  31.643  29.020  1.00  0.00     0.029 A 
ATOM     55  C   UNL A   1      44.359  30.750  28.593  1.00  0.00     0.049 A 
ATOM     56  H   UNL A   1      44.165  28.699  28.129  1.00  0.00     0.167 HD
ATOM     57  C   UNL A   1      46.658  30.051  27.979  1.00  0.00     0.074 A 
ATOM     58  C   UNL A   1      48.065  30.311  27.750  1.00  0.00     0.031 C 
ATOM     59  C   UNL A   1      45.758  30.993  28.348  1.00  0.00     0.037 A 
BRANCH  46  60
ATOM     60  C   UNL A   1      39.977  28.893  28.913  1.00  0.00     0.057 A 
ATOM     61  C   UNL A   1      39.461  28.859  30.215  1.00  0.00     0.134 A 
ATOM     62  C   UNL A   1      39.106  29.270  27.882  1.00  0.00     0.134 A 
ATOM     63  F   UNL A   1      40.241  28.498  31.245  1.00  0.00    -0.206 F 
ATOM     64  C   UNL A   1      38.127  29.171  30.480  1.00  0.00     0.040 A 
ATOM     65  C   UNL A   1      37.775  29.603  28.137  1.00  0.00     0.040 A 
ATOM     66  F   UNL A   1      39.539  29.328  26.614  1.00  0.00    -0.206 F 
ATOM     67  C   UNL A   1      37.281  29.549  29.439  1.00  0.00     0.006 A 
ENDBRANCH  46  60
BRANCH  47  68
ATOM     68  C   UNL A   1      49.388  26.457  26.671  1.00  0.00     0.057 A 
ATOM     69  C   UNL A   1      49.846  26.588  25.356  1.00  0.00     0.134 A 
ATOM     70  C   UNL A   1      50.296  25.989  27.629  1.00  0.00     0.134 A 
ATOM     71  F   UNL A   1      49.015  27.015  24.393  1.00  0.00    -0.206 F 
ATOM     72  C   UNL A   1      51.154  26.255  25.000  1.00  0.00     0.040 A 
ATOM     73  C   UNL A   1      51.614  25.672  27.292  1.00  0.00     0.040 A 
ATOM     74  F   UNL A   1      49.919  25.849  28.908  1.00  0.00    -0.206 F 
ATOM     75  C   UNL A   1      52.043  25.799  25.972  1.00  0.00     0.006 A 
ENDBRANCH  47  68
BRANCH  59  76
ATOM     76  C   UNL A   1      46.273  32.388  28.529  1.00  0.00     0.057 A 
ATOM     77  C   UNL A   1      46.776  32.829  29.759  1.00  0.00     0.134 A 
ATOM     78  C   UNL A   1      46.288  33.291  27.459  1.00  0.00     0.134 A 
ATOM     79  F   UNL A   1      46.772  32.015  30.826  1.00  0.00    -0.206 F 
ATOM     80  C   UNL A   1      47.261  34.127  29.924  1.00  0.00     0.040 A 
ATOM     81  C   UNL A   1      46.789  34.585  27.607  1.00  0.00     0.040 A 
ATOM     82  F   UNL A   1      45.821  32.928  26.255  1.00  0.00    -0.206 F 
ATOM     83  C   UNL A   1      47.274  35.007  28.843  1.00  0.00     0.006 A 
ENDBRANCH  59  76
ENDBRANCH  33  34
ENDBRANCH  25  28
ENDBRANCH  23  24
ENDBRANCH  22  23
ENDBRANCH   1  22
TORSDOF 14
ENDMDL
MODEL 3
REMARK VINA RESULT:     -11.1      2.181      7.001
REMARK SMILES O=C(C[C@H]1CC[C@@H](C(=O)NCCCCNC(=O)c2ccc(-c3c4nc(c(-c5c(F)cccc5F)c5ccc([nH]5)c(-c5c(F)cccc5F)c5nc(c(-c6c(F)cccc6F)c6ccc3[nH]6)C=C5)C=C4)cc2)C1)c1ccc(Cl)cc1
REMARK SMILES IDX 12 1 11 2 10 3 8 4 9 5 7 7 4 8 5 9 72 10 6 11 3 12 2 13 1 14
REMARK SMILES IDX 73 15 74 16 79 17 75 18 78 19 76 20 77 21 13 22 14 23 15 24
REMARK SMILES IDX 16 25 17 27 18 28 19 29 71 30 20 31 70 32 21 33 22 34 23 35
REMARK SMILES IDX 64 36 24 37 69 38 63 39 65 40 25 41 68 42 62 43 61 44 26 46
REMARK SMILES IDX 52 47 35 48 51 49 36 50 39 51 50 52 66 53 37 54 38 55 49 57
REMARK SMILES IDX 67 58 40 59 27 60 28 61 33 62 29 63 30 64 32 65 34 66 31 67
REMARK SMILES IDX 53 68 54 69 59 70 55 71 56 72 58 73 60 74 57 75 41 76 42 77
REMARK SMILES IDX 47 78 43 79 44 80 46 81 48 82 45 83
REMARK H PARENT 10 6 15 26 65 45 39 56
REMARK Flexibility Score: inf
ROOT
ATOM      1  C   UNL A   1      35.523  22.421  26.099  1.00  0.00     0.023 C 
ENDROOT
BRANCH   1   2
ATOM      2  C   UNL A   1      35.021  23.744  25.528  1.00  0.00     0.116 C 
BRANCH   2   3
ATOM      3  N   UNL A   1      33.710  24.152  25.988  1.00  0.00    -0.356 N 
ATOM      4  C   UNL A   1      33.124  25.383  26.028  1.00  0.00     0.223 C 
ATOM      5  O   UNL A   1      31.938  25.413  26.370  1.00  0.00    -0.275 OA
ATOM      6  H   UNL A   1      33.150  23.418  26.330  1.00  0.00     0.163 HD
BRANCH   4   7
ATOM      7  C   UNL A   1      33.925  26.676  25.811  1.00  0.00     0.079 C 
ATOM      8  C   UNL A   1      32.914  28.358  24.333  1.00  0.00    -0.003 C 
ATOM      9  C   UNL A   1      33.064  28.998  25.715  1.00  0.00     0.005 C 
ATOM     10  C   UNL A   1      33.963  27.255  24.401  1.00  0.00     0.017 C 
ATOM     11  C   UNL A   1      33.397  27.848  26.671  1.00  0.00     0.014 C 
BRANCH   8  12
ATOM     12  C   UNL A   1      31.468  27.926  24.041  1.00  0.00     0.084 C 
BRANCH  12  13
ATOM     13  C   UNL A   1      31.129  27.056  22.834  1.00  0.00     0.163 C 
ATOM     14  O   UNL A   1      30.602  27.576  21.846  1.00  0.00    -0.294 OA
BRANCH  13  15
ATOM     15  C   UNL A   1      31.441  25.591  22.746  1.00  0.00     0.018 A 
ATOM     16  C   UNL A   1      32.611  25.065  22.191  1.00  0.00     0.013 A 
ATOM     17  C   UNL A   1      30.544  24.707  23.373  1.00  0.00     0.013 A 
ATOM     18  C   UNL A   1      32.933  23.712  22.365  1.00  0.00     0.021 A 
ATOM     19  C   UNL A   1      30.842  23.347  23.503  1.00  0.00     0.021 A 
ATOM     20  C   UNL A   1      32.055  22.862  23.030  1.00  0.00     0.041 A 
ATOM     21  Cl  UNL A   1      32.487  21.219  23.286  1.00  0.00    -0.084 Cl
ENDBRANCH  13  15
ENDBRANCH  12  13
ENDBRANCH   8  12
ENDBRANCH   4   7
ENDBRANCH   2   3
ENDBRANCH   1   2
BRANCH   1  22
ATOM     22  C   UNL A   1      36.442  21.586  25.206  1.00  0.00     0.023 C 
BRANCH  22  23
ATOM     23  C   UNL A   1      37.948  21.743  25.407  1.00  0.00     0.116 C 
BRANCH  23  24
ATOM     24  N   UNL A   1      38.694  20.495  25.345  1.00  0.00    -0.352 N 
ATOM     25  C   UNL A   1      39.939  20.161  25.835  1.00  0.00     0.251 C 
ATOM     26  H   UNL A   1      38.230  19.766  24.875  1.00  0.00     0.163 HD
ATOM     27  O   UNL A   1      40.369  19.026  25.662  1.00  0.00    -0.269 OA
BRANCH  25  28
ATOM     28  C   UNL A   1      40.799  21.162  26.511  1.00  0.00     0.039 A 
ATOM     29  C   UNL A   1      41.553  22.021  25.703  1.00  0.00     0.014 A 
ATOM     30  C   UNL A   1      40.843  21.298  27.900  1.00  0.00     0.014 A 
ATOM     31  C   UNL A   1      42.214  23.111  26.271  1.00  0.00     0.010 A 
ATOM     32  C   UNL A   1      41.451  22.421  28.463  1.00  0.00     0.010 A 
ATOM     33  C   UNL A   1      42.089  23.365  27.646  1.00  0.00    -0.014 A 
BRANCH  33  34
ATOM     34  C   UNL A   1      42.457  24.693  28.197  1.00  0.00     0.031 A 
ATOM     35  C   UNL A   1      41.443  25.778  28.379  1.00  0.00     0.074 A 
ATOM     36  C   UNL A   1      43.759  24.930  28.457  1.00  0.00     0.049 A 
ATOM     37  N   UNL A   1      41.620  27.002  28.809  1.00  0.00    -0.248 NA
ATOM     38  C   UNL A   1      40.056  25.459  28.017  1.00  0.00     0.031 C 
ATOM     39  C   UNL A   1      44.847  23.966  28.262  1.00  0.00     0.029 A 
ATOM     40  N   UNL A   1      44.393  26.051  28.927  1.00  0.00    -0.354 N 
ATOM     41  C   UNL A   1      40.368  27.601  28.771  1.00  0.00     0.074 A 
ATOM     42  C   UNL A   1      39.447  26.616  28.241  1.00  0.00     0.031 C 
ATOM     43  C   UNL A   1      46.009  24.531  28.627  1.00  0.00     0.029 A 
ATOM     44  C   UNL A   1      45.755  25.904  29.046  1.00  0.00     0.049 A 
ATOM     45  H   UNL A   1      43.919  26.883  29.157  1.00  0.00     0.167 HD
ATOM     46  C   UNL A   1      40.022  28.852  29.158  1.00  0.00     0.037 A 
ATOM     47  C   UNL A   1      46.698  26.779  29.439  1.00  0.00     0.037 A 
ATOM     48  C   UNL A   1      40.943  29.827  29.684  1.00  0.00     0.049 A 
ATOM     49  C   UNL A   1      46.287  28.164  29.844  1.00  0.00     0.074 A 
ATOM     50  C   UNL A   1      40.675  31.099  30.160  1.00  0.00     0.029 A 
ATOM     51  N   UNL A   1      42.313  29.643  29.790  1.00  0.00    -0.354 N 
ATOM     52  N   UNL A   1      45.087  28.689  29.879  1.00  0.00    -0.248 NA
ATOM     53  C   UNL A   1      47.360  29.077  30.262  1.00  0.00     0.031 C 
ATOM     54  C   UNL A   1      41.888  31.698  30.519  1.00  0.00     0.029 A 
ATOM     55  C   UNL A   1      42.908  30.787  30.299  1.00  0.00     0.049 A 
ATOM     56  H   UNL A   1      42.793  28.819  29.542  1.00  0.00     0.167 HD
ATOM     57  C   UNL A   1      45.257  29.989  30.334  1.00  0.00     0.074 A 
ATOM     58  C   UNL A   1      46.673  30.166  30.581  1.00  0.00     0.031 C 
ATOM     59  C   UNL A   1      44.321  30.950  30.527  1.00  0.00     0.037 A 
BRANCH  46  60
ATOM     60  C   UNL A   1      38.580  29.239  29.025  1.00  0.00     0.057 A 
ATOM     61  C   UNL A   1      37.710  29.219  30.124  1.00  0.00     0.134 A 
ATOM     62  C   UNL A   1      38.062  29.674  27.798  1.00  0.00     0.134 A 
ATOM     63  F   UNL A   1      38.143  28.805  31.324  1.00  0.00    -0.206 F 
ATOM     64  C   UNL A   1      36.373  29.599  30.003  1.00  0.00     0.040 A 
ATOM     65  C   UNL A   1      36.732  30.075  27.669  1.00  0.00     0.040 A 
ATOM     66  F   UNL A   1      38.843  29.722  26.709  1.00  0.00    -0.206 F 
ATOM     67  C   UNL A   1      35.882  30.033  28.773  1.00  0.00     0.006 A 
ENDBRANCH  46  60
BRANCH  47  68
ATOM     68  C   UNL A   1      48.122  26.364  29.479  1.00  0.00     0.057 A 
ATOM     69  C   UNL A   1      48.952  26.531  28.366  1.00  0.00     0.134 A 
ATOM     70  C   UNL A   1      48.688  25.801  30.630  1.00  0.00     0.134 A 
ATOM     71  F   UNL A   1      48.461  27.049  27.230  1.00  0.00    -0.206 F 
ATOM     72  C   UNL A   1      50.292  26.140  28.388  1.00  0.00     0.040 A 
ATOM     73  C   UNL A   1      50.032  25.425  30.673  1.00  0.00     0.040 A 
ATOM     74  F   UNL A   1      47.945  25.624  31.732  1.00  0.00    -0.206 F 
ATOM     75  C   UNL A   1      50.836  25.589  29.547  1.00  0.00     0.006 A 
ENDBRANCH  47  68
BRANCH  59  76
ATOM     76  C   UNL A   1      44.806  32.274  31.032  1.00  0.00     0.057 A 
ATOM     77  C   UNL A   1      45.157  33.308  30.155  1.00  0.00     0.134 A 
ATOM     78  C   UNL A   1      44.903  32.526  32.406  1.00  0.00     0.134 A 
ATOM     79  F   UNL A   1      45.102  33.121  28.828  1.00  0.00    -0.206 F 
ATOM     80  C   UNL A   1      45.603  34.543  30.627  1.00  0.00     0.040 A 
ATOM     81  C   UNL A   1      45.328  33.763  32.890  1.00  0.00     0.040 A 
ATOM     82  F   UNL A   1      44.580  31.577  33.296  1.00  0.00    -0.206 F 
ATOM     83  C   UNL A   1      45.683  34.775  31.999  1.00  0.00     0.006 A 
ENDBRANCH  59  76
ENDBRANCH  33  34
ENDBRANCH  25  28
ENDBRANCH  23  24
ENDBRANCH  22  23
ENDBRANCH   1  22
TORSDOF 14
ENDMDL
