MODEL 1
REMARK VINA RESULT:     -12.9      0.000      0.000
REMARK SMILES O=C(NCCCCNC(=O)c1nn(Cc2ccc(O)cc2)c2ccccc12)c1ccc(-c2c3nc(c(-c4c(F)cccc4F)c4ccc([nH]4)c(-c4c(F)cccc4F)c4nc(c(-c5c(F)cccc5F)c5ccc2[nH]5)C=C4)C=C3)cc1
REMARK SMILES IDX 6 1 5 2 4 3 3 4 1 5 2 6 28 8 29 9 81 10 30 11 80 12 31 13
REMARK SMILES IDX 32 14 33 15 74 16 34 17 79 18 73 19 75 20 35 21 78 22 72 23
REMARK SMILES IDX 71 24 36 26 62 27 45 28 61 29 46 30 49 31 60 32 76 33 47 34
REMARK SMILES IDX 48 35 59 37 77 38 50 39 37 40 38 41 43 42 39 43 40 44 42 45
REMARK SMILES IDX 44 46 41 47 63 48 64 49 69 50 65 51 66 52 68 53 70 54 67 55
REMARK SMILES IDX 51 56 52 57 57 58 53 59 54 60 56 61 58 62 55 63 7 64 8 65
REMARK SMILES IDX 9 66 10 68 11 69 12 70 27 71 13 72 22 73 26 74 23 75 25 76
REMARK SMILES IDX 24 77 14 78 15 79 16 80 21 81 17 82 20 83 18 84 19 85
REMARK H PARENT 3 7 75 25 49 36 8 67 19 86
REMARK Flexibility Score: inf
ROOT
ATOM      1  C   UNL A   1      34.752  24.740  25.514  1.00  0.00     0.023 C 
ENDROOT
BRANCH   1   2
ATOM      2  C   UNL A   1      35.875  23.734  25.235  1.00  0.00     0.023 C 
BRANCH   2   3
ATOM      3  C   UNL A   1      37.212  24.085  25.861  1.00  0.00     0.116 C 
BRANCH   3   4
ATOM      4  N   UNL A   1      38.018  22.945  26.328  1.00  0.00    -0.352 N 
ATOM      5  O   UNL A   1      40.033  21.936  26.764  1.00  0.00    -0.269 OA
ATOM      6  C   UNL A   1      39.375  22.949  26.689  1.00  0.00     0.251 C 
ATOM      7  H   UNL A   1      37.552  22.080  26.394  1.00  0.00     0.163 HD
BRANCH   6   8
ATOM      8  C   UNL A   1      39.966  24.263  27.017  1.00  0.00     0.039 A 
ATOM      9  C   UNL A   1      40.409  25.208  26.089  1.00  0.00     0.014 A 
ATOM     10  C   UNL A   1      39.902  24.577  28.357  1.00  0.00     0.014 A 
ATOM     11  C   UNL A   1      40.697  26.493  26.558  1.00  0.00     0.010 A 
ATOM     12  C   UNL A   1      39.722  25.882  28.671  1.00  0.00     0.010 A 
ATOM     13  C   UNL A   1      40.333  26.821  27.874  1.00  0.00    -0.014 A 
BRANCH  13  14
ATOM     14  C   UNL A   1      40.561  28.109  28.510  1.00  0.00     0.031 A 
ATOM     15  C   UNL A   1      41.751  28.844  28.034  1.00  0.00     0.074 A 
ATOM     16  C   UNL A   1      39.652  28.675  29.345  1.00  0.00     0.049 A 
ATOM     17  N   UNL A   1      42.862  29.017  28.667  1.00  0.00    -0.248 NA
ATOM     18  C   UNL A   1      41.774  29.315  26.641  1.00  0.00     0.031 C 
ATOM     19  C   UNL A   1      38.295  28.229  29.715  1.00  0.00     0.029 A 
ATOM     20  N   UNL A   1      39.742  29.862  30.000  1.00  0.00    -0.354 N 
ATOM     21  C   UNL A   1      43.651  29.810  27.843  1.00  0.00     0.074 A 
ATOM     22  C   UNL A   1      43.015  29.801  26.550  1.00  0.00     0.031 C 
ATOM     23  C   UNL A   1      37.618  29.234  30.307  1.00  0.00     0.029 A 
ATOM     24  C   UNL A   1      38.549  30.312  30.554  1.00  0.00     0.049 A 
ATOM     25  H   UNL A   1      40.585  30.364  30.076  1.00  0.00     0.167 HD
ATOM     26  C   UNL A   1      44.623  30.604  28.369  1.00  0.00     0.037 A 
ATOM     27  C   UNL A   1      38.346  31.492  31.185  1.00  0.00     0.037 A 
ATOM     28  C   UNL A   1      44.916  30.232  29.734  1.00  0.00     0.049 A 
ATOM     29  C   UNL A   1      39.679  31.976  31.625  1.00  0.00     0.074 A 
ATOM     30  C   UNL A   1      45.361  29.079  30.352  1.00  0.00     0.029 A 
ATOM     31  N   UNL A   1      44.363  30.994  30.738  1.00  0.00    -0.354 N 
ATOM     32  N   UNL A   1      40.390  31.373  32.540  1.00  0.00    -0.248 NA
ATOM     33  C   UNL A   1      40.432  32.800  30.692  1.00  0.00     0.031 C 
ATOM     34  C   UNL A   1      44.601  28.990  31.558  1.00  0.00     0.029 A 
ATOM     35  C   UNL A   1      43.798  30.129  31.642  1.00  0.00     0.049 A 
ATOM     36  H   UNL A   1      44.370  31.976  30.798  1.00  0.00     0.167 HD
ATOM     37  C   UNL A   1      41.690  31.391  32.051  1.00  0.00     0.074 A 
ATOM     38  C   UNL A   1      41.664  32.344  30.941  1.00  0.00     0.031 C 
ATOM     39  C   UNL A   1      42.594  30.421  32.388  1.00  0.00     0.037 A 
BRANCH  26  40
ATOM     40  C   UNL A   1      45.022  31.945  27.810  1.00  0.00     0.057 A 
ATOM     41  C   UNL A   1      46.142  32.155  26.979  1.00  0.00     0.134 A 
ATOM     42  C   UNL A   1      44.092  32.998  27.840  1.00  0.00     0.134 A 
ATOM     43  F   UNL A   1      47.088  31.228  26.796  1.00  0.00    -0.206 F 
ATOM     44  C   UNL A   1      46.297  33.302  26.199  1.00  0.00     0.040 A 
ATOM     45  C   UNL A   1      44.214  34.129  27.023  1.00  0.00     0.040 A 
ATOM     46  F   UNL A   1      42.987  32.919  28.598  1.00  0.00    -0.206 F 
ATOM     47  C   UNL A   1      45.313  34.276  26.188  1.00  0.00     0.006 A 
ENDBRANCH  26  40
BRANCH  27  48
ATOM     48  C   UNL A   1      37.139  32.345  31.125  1.00  0.00     0.057 A 
ATOM     49  C   UNL A   1      36.124  32.242  32.096  1.00  0.00     0.134 A 
ATOM     50  C   UNL A   1      36.823  33.092  29.984  1.00  0.00     0.134 A 
ATOM     51  F   UNL A   1      36.292  31.490  33.194  1.00  0.00    -0.206 F 
ATOM     52  C   UNL A   1      34.866  32.833  31.936  1.00  0.00     0.040 A 
ATOM     53  C   UNL A   1      35.565  33.688  29.809  1.00  0.00     0.040 A 
ATOM     54  F   UNL A   1      37.709  33.214  28.986  1.00  0.00    -0.206 F 
ATOM     55  C   UNL A   1      34.578  33.550  30.782  1.00  0.00     0.006 A 
ENDBRANCH  27  48
BRANCH  39  56
ATOM     56  C   UNL A   1      42.201  29.437  33.461  1.00  0.00     0.057 A 
ATOM     57  C   UNL A   1      42.560  29.697  34.787  1.00  0.00     0.134 A 
ATOM     58  C   UNL A   1      41.614  28.187  33.205  1.00  0.00     0.134 A 
ATOM     59  F   UNL A   1      43.185  30.841  35.104  1.00  0.00    -0.206 F 
ATOM     60  C   UNL A   1      42.329  28.773  35.811  1.00  0.00     0.040 A 
ATOM     61  C   UNL A   1      41.349  27.266  34.224  1.00  0.00     0.040 A 
ATOM     62  F   UNL A   1      41.331  27.797  31.959  1.00  0.00    -0.206 F 
ATOM     63  C   UNL A   1      41.711  27.557  35.534  1.00  0.00     0.006 A 
ENDBRANCH  39  56
ENDBRANCH  13  14
ENDBRANCH   6   8
ENDBRANCH   3   4
ENDBRANCH   2   3
ENDBRANCH   1   2
BRANCH   1  64
ATOM     64  C   UNL A   1      33.547  24.732  24.567  1.00  0.00     0.116 C 
BRANCH  64  65
ATOM     65  N   UNL A   1      33.880  25.076  23.195  1.00  0.00    -0.351 N 
ATOM     66  C   UNL A   1      33.319  26.048  22.386  1.00  0.00     0.272 C 
ATOM     67  H   UNL A   1      34.602  24.546  22.786  1.00  0.00     0.163 HD
ATOM     68  O   UNL A   1      33.678  26.098  21.208  1.00  0.00    -0.267 OA
BRANCH  66  69
ATOM     69  C   UNL A   1      32.348  26.988  22.964  1.00  0.00     0.158 A 
ATOM     70  N   UNL A   1      31.064  27.023  22.555  1.00  0.00    -0.166 NA
ATOM     71  C   UNL A   1      32.592  27.962  23.979  1.00  0.00     0.033 A 
ATOM     72  N   UNL A   1      30.486  27.968  23.333  1.00  0.00    -0.260 N 
ATOM     73  C   UNL A   1      31.380  28.626  24.151  1.00  0.00     0.069 A 
ATOM     74  C   UNL A   1      33.699  28.345  24.765  1.00  0.00     0.013 A 
ATOM     75  C   UNL A   1      31.249  29.703  25.040  1.00  0.00     0.028 A 
ATOM     76  C   UNL A   1      33.535  29.321  25.752  1.00  0.00     0.001 A 
ATOM     77  C   UNL A   1      32.327  29.996  25.879  1.00  0.00     0.002 A 
BRANCH  72  78
ATOM     78  C   UNL A   1      29.047  28.210  23.211  1.00  0.00     0.180 C 
BRANCH  78  79
ATOM     79  C   UNL A   1      28.701  29.620  22.765  1.00  0.00    -0.026 A 
ATOM     80  C   UNL A   1      29.058  30.096  21.493  1.00  0.00     0.009 A 
ATOM     81  C   UNL A   1      27.966  30.479  23.599  1.00  0.00     0.009 A 
ATOM     82  C   UNL A   1      28.740  31.389  21.080  1.00  0.00     0.046 A 
ATOM     83  C   UNL A   1      27.626  31.773  23.179  1.00  0.00     0.046 A 
ATOM     84  C   UNL A   1      28.028  32.220  21.925  1.00  0.00     0.115 A 
BRANCH  84  85
ATOM     85  O   UNL A   1      27.741  33.475  21.476  1.00  0.00    -0.508 OA
ATOM     86  H   UNL A   1      28.401  33.978  21.040  1.00  0.00     0.293 HD
ENDBRANCH  84  85
ENDBRANCH  78  79
ENDBRANCH  72  78
ENDBRANCH  66  69
ENDBRANCH  64  65
ENDBRANCH   1  64
TORSDOF 14
ENDMDL
MODEL 2
REMARK VINA RESULT:     -12.5      2.632      7.107
REMARK SMILES O=C(NCCCCNC(=O)c1nn(Cc2ccc(O)cc2)c2ccccc12)c1ccc(-c2c3nc(c(-c4c(F)cccc4F)c4ccc([nH]4)c(-c4c(F)cccc4F)c4nc(c(-c5c(F)cccc5F)c5ccc2[nH]5)C=C4)C=C3)cc1
REMARK SMILES IDX 6 1 5 2 4 3 3 4 1 5 2 6 28 8 29 9 81 10 30 11 80 12 31 13
REMARK SMILES IDX 32 14 33 15 74 16 34 17 79 18 73 19 75 20 35 21 78 22 72 23
REMARK SMILES IDX 71 24 36 26 62 27 45 28 61 29 46 30 49 31 60 32 76 33 47 34
REMARK SMILES IDX 48 35 59 37 77 38 50 39 37 40 38 41 43 42 39 43 40 44 42 45
REMARK SMILES IDX 44 46 41 47 63 48 64 49 69 50 65 51 66 52 68 53 70 54 67 55
REMARK SMILES IDX 51 56 52 57 57 58 53 59 54 60 56 61 58 62 55 63 7 64 8 65
REMARK SMILES IDX 9 66 10 68 11 69 12 70 27 71 13 72 22 73 26 74 23 75 25 76
REMARK SMILES IDX 24 77 14 78 15 79 16 80 21 81 17 82 20 83 18 84 19 85
REMARK H PARENT 3 7 75 25 49 36 8 67 19 86
REMARK Flexibility Score: inf
ROOT
ATOM      1  C   UNL A   1      34.062  28.858  26.240  1.00  0.00     0.023 C 
ENDROOT
BRANCH   1   2
ATOM      2  C   UNL A   1      33.973  29.565  27.598  1.00  0.00     0.023 C 
BRANCH   2   3
ATOM      3  C   UNL A   1      34.465  31.001  27.600  1.00  0.00     0.116 C 
BRANCH   3   4
ATOM      4  N   UNL A   1      34.360  31.710  28.887  1.00  0.00    -0.352 N 
ATOM      5  O   UNL A   1      34.939  32.001  31.088  1.00  0.00    -0.269 OA
ATOM      6  C   UNL A   1      35.245  31.641  29.974  1.00  0.00     0.251 C 
ATOM      7  H   UNL A   1      33.580  32.300  28.996  1.00  0.00     0.163 HD
BRANCH   6   8
ATOM      8  C   UNL A   1      36.604  31.135  29.688  1.00  0.00     0.039 A 
ATOM      9  C   UNL A   1      37.738  31.925  29.492  1.00  0.00     0.014 A 
ATOM     10  C   UNL A   1      36.715  29.766  29.791  1.00  0.00     0.014 A 
ATOM     11  C   UNL A   1      38.982  31.287  29.492  1.00  0.00     0.010 A 
ATOM     12  C   UNL A   1      37.892  29.282  30.254  1.00  0.00     0.010 A 
ATOM     13  C   UNL A   1      39.042  29.942  29.890  1.00  0.00    -0.014 A 
BRANCH  13  14
ATOM     14  C   UNL A   1      40.253  29.137  29.945  1.00  0.00     0.031 A 
ATOM     15  C   UNL A   1      40.827  28.957  31.294  1.00  0.00     0.074 A 
ATOM     16  C   UNL A   1      40.718  28.454  28.868  1.00  0.00     0.049 A 
ATOM     17  N   UNL A   1      41.897  29.506  31.763  1.00  0.00    -0.248 NA
ATOM     18  C   UNL A   1      40.054  28.202  32.291  1.00  0.00     0.031 C 
ATOM     19  C   UNL A   1      40.132  28.284  27.524  1.00  0.00     0.029 A 
ATOM     20  N   UNL A   1      41.827  27.674  28.786  1.00  0.00    -0.354 N 
ATOM     21  C   UNL A   1      42.058  28.994  33.044  1.00  0.00     0.074 A 
ATOM     22  C   UNL A   1      40.810  28.357  33.381  1.00  0.00     0.031 C 
ATOM     23  C   UNL A   1      40.745  27.277  26.870  1.00  0.00     0.029 A 
ATOM     24  C   UNL A   1      41.896  26.879  27.647  1.00  0.00     0.049 A 
ATOM     25  H   UNL A   1      42.527  27.671  29.477  1.00  0.00     0.167 HD
ATOM     26  C   UNL A   1      43.291  28.928  33.614  1.00  0.00     0.037 A 
ATOM     27  C   UNL A   1      42.848  25.959  27.360  1.00  0.00     0.037 A 
ATOM     28  C   UNL A   1      44.243  29.741  32.893  1.00  0.00     0.049 A 
ATOM     29  C   UNL A   1      44.034  26.302  28.185  1.00  0.00     0.074 A 
ATOM     30  C   UNL A   1      44.331  31.085  32.582  1.00  0.00     0.029 A 
ATOM     31  N   UNL A   1      45.095  29.107  32.019  1.00  0.00    -0.354 N 
ATOM     32  N   UNL A   1      44.737  27.388  28.007  1.00  0.00    -0.248 NA
ATOM     33  C   UNL A   1      44.114  25.717  29.516  1.00  0.00     0.031 C 
ATOM     34  C   UNL A   1      44.812  31.120  31.237  1.00  0.00     0.029 A 
ATOM     35  C   UNL A   1      45.061  29.806  30.838  1.00  0.00     0.049 A 
ATOM     36  H   UNL A   1      45.629  28.302  32.204  1.00  0.00     0.167 HD
ATOM     37  C   UNL A   1      44.998  27.858  29.288  1.00  0.00     0.074 A 
ATOM     38  C   UNL A   1      44.647  26.750  30.177  1.00  0.00     0.031 C 
ATOM     39  C   UNL A   1      45.187  29.190  29.535  1.00  0.00     0.037 A 
BRANCH  26  40
ATOM     40  C   UNL A   1      43.735  27.842  34.560  1.00  0.00     0.057 A 
ATOM     41  C   UNL A   1      43.904  26.491  34.193  1.00  0.00     0.134 A 
ATOM     42  C   UNL A   1      44.313  28.206  35.789  1.00  0.00     0.134 A 
ATOM     43  F   UNL A   1      43.466  26.000  33.029  1.00  0.00    -0.206 F 
ATOM     44  C   UNL A   1      44.637  25.585  34.963  1.00  0.00     0.040 A 
ATOM     45  C   UNL A   1      45.091  27.318  36.543  1.00  0.00     0.040 A 
ATOM     46  F   UNL A   1      44.216  29.462  36.250  1.00  0.00    -0.206 F 
ATOM     47  C   UNL A   1      45.266  26.007  36.122  1.00  0.00     0.006 A 
ENDBRANCH  26  40
BRANCH  27  48
ATOM     48  C   UNL A   1      42.661  24.656  26.686  1.00  0.00     0.057 A 
ATOM     49  C   UNL A   1      42.026  23.581  27.339  1.00  0.00     0.134 A 
ATOM     50  C   UNL A   1      43.323  24.344  25.493  1.00  0.00     0.134 A 
ATOM     51  F   UNL A   1      41.425  23.752  28.526  1.00  0.00    -0.206 F 
ATOM     52  C   UNL A   1      42.061  22.274  26.844  1.00  0.00     0.040 A 
ATOM     53  C   UNL A   1      43.367  23.037  24.986  1.00  0.00     0.040 A 
ATOM     54  F   UNL A   1      43.990  25.292  24.819  1.00  0.00    -0.206 F 
ATOM     55  C   UNL A   1      42.745  21.995  25.668  1.00  0.00     0.006 A 
ENDBRANCH  27  48
BRANCH  39  56
ATOM     56  C   UNL A   1      45.300  30.115  28.350  1.00  0.00     0.057 A 
ATOM     57  C   UNL A   1      46.567  30.437  27.856  1.00  0.00     0.134 A 
ATOM     58  C   UNL A   1      44.214  30.803  27.784  1.00  0.00     0.134 A 
ATOM     59  F   UNL A   1      47.662  29.873  28.389  1.00  0.00    -0.206 F 
ATOM     60  C   UNL A   1      46.748  31.377  26.837  1.00  0.00     0.040 A 
ATOM     61  C   UNL A   1      44.376  31.723  26.742  1.00  0.00     0.040 A 
ATOM     62  F   UNL A   1      42.973  30.647  28.256  1.00  0.00    -0.206 F 
ATOM     63  C   UNL A   1      45.649  32.016  26.267  1.00  0.00     0.006 A 
ENDBRANCH  39  56
ENDBRANCH  13  14
ENDBRANCH   6   8
ENDBRANCH   3   4
ENDBRANCH   2   3
ENDBRANCH   1   2
BRANCH   1  64
ATOM     64  C   UNL A   1      33.610  29.644  25.005  1.00  0.00     0.116 C 
BRANCH  64  65
ATOM     65  N   UNL A   1      34.012  29.038  23.747  1.00  0.00    -0.351 N 
ATOM     66  C   UNL A   1      33.330  28.114  22.975  1.00  0.00     0.272 C 
ATOM     67  H   UNL A   1      34.886  29.323  23.397  1.00  0.00     0.163 HD
ATOM     68  O   UNL A   1      33.906  27.644  21.992  1.00  0.00    -0.267 OA
BRANCH  66  69
ATOM     69  C   UNL A   1      31.952  27.754  23.339  1.00  0.00     0.158 A 
ATOM     70  N   UNL A   1      30.888  28.375  22.792  1.00  0.00    -0.166 NA
ATOM     71  C   UNL A   1      31.541  26.760  24.276  1.00  0.00     0.033 A 
ATOM     72  N   UNL A   1      29.816  27.752  23.333  1.00  0.00    -0.260 N 
ATOM     73  C   UNL A   1      30.150  26.826  24.299  1.00  0.00     0.069 A 
ATOM     74  C   UNL A   1      32.193  25.816  25.099  1.00  0.00     0.013 A 
ATOM     75  C   UNL A   1      29.387  26.024  25.160  1.00  0.00     0.028 A 
ATOM     76  C   UNL A   1      31.432  24.919  25.851  1.00  0.00     0.001 A 
ATOM     77  C   UNL A   1      30.046  25.029  25.886  1.00  0.00     0.002 A 
BRANCH  72  78
ATOM     78  C   UNL A   1      28.472  28.127  22.888  1.00  0.00     0.180 C 
BRANCH  78  79
ATOM     79  C   UNL A   1      28.321  29.607  22.582  1.00  0.00    -0.026 A 
ATOM     80  C   UNL A   1      28.423  30.578  23.591  1.00  0.00     0.009 A 
ATOM     81  C   UNL A   1      28.119  30.053  21.265  1.00  0.00     0.009 A 
ATOM     82  C   UNL A   1      28.287  31.938  23.312  1.00  0.00     0.046 A 
ATOM     83  C   UNL A   1      28.002  31.421  20.979  1.00  0.00     0.046 A 
ATOM     84  C   UNL A   1      28.075  32.351  22.010  1.00  0.00     0.115 A 
BRANCH  84  85
ATOM     85  O   UNL A   1      27.948  33.690  21.789  1.00  0.00    -0.508 OA
ATOM     86  H   UNL A   1      27.274  34.174  22.225  1.00  0.00     0.293 HD
ENDBRANCH  84  85
ENDBRANCH  78  79
ENDBRANCH  72  78
ENDBRANCH  66  69
ENDBRANCH  64  65
ENDBRANCH   1  64
TORSDOF 14
ENDMDL
MODEL 3
REMARK VINA RESULT:     -12.4      5.263      9.134
REMARK SMILES O=C(NCCCCNC(=O)c1nn(Cc2ccc(O)cc2)c2ccccc12)c1ccc(-c2c3nc(c(-c4c(F)cccc4F)c4ccc([nH]4)c(-c4c(F)cccc4F)c4nc(c(-c5c(F)cccc5F)c5ccc2[nH]5)C=C4)C=C3)cc1
REMARK SMILES IDX 6 1 5 2 4 3 3 4 1 5 2 6 28 8 29 9 81 10 30 11 80 12 31 13
REMARK SMILES IDX 32 14 33 15 74 16 34 17 79 18 73 19 75 20 35 21 78 22 72 23
REMARK SMILES IDX 71 24 36 26 62 27 45 28 61 29 46 30 49 31 60 32 76 33 47 34
REMARK SMILES IDX 48 35 59 37 77 38 50 39 37 40 38 41 43 42 39 43 40 44 42 45
REMARK SMILES IDX 44 46 41 47 63 48 64 49 69 50 65 51 66 52 68 53 70 54 67 55
REMARK SMILES IDX 51 56 52 57 57 58 53 59 54 60 56 61 58 62 55 63 7 64 8 65
REMARK SMILES IDX 9 66 10 68 11 69 12 70 27 71 13 72 22 73 26 74 23 75 25 76
REMARK SMILES IDX 24 77 14 78 15 79 16 80 21 81 17 82 20 83 18 84 19 85
REMARK H PARENT 3 7 75 25 49 36 8 67 19 86
REMARK Flexibility Score: inf
ROOT
ATOM      1  C   UNL A   1      45.250  24.987  25.035  1.00  0.00     0.023 C 
ENDROOT
BRANCH   1   2
ATOM      2  C   UNL A   1      44.611  23.645  25.411  1.00  0.00     0.023 C 
BRANCH   2   3
ATOM      3  C   UNL A   1      43.354  23.300  24.634  1.00  0.00     0.116 C 
BRANCH   3   4
ATOM      4  N   UNL A   1      42.331  22.545  25.376  1.00  0.00    -0.352 N 
ATOM      5  O   UNL A   1      41.020  22.196  27.227  1.00  0.00    -0.269 OA
ATOM      6  C   UNL A   1      41.606  22.968  26.501  1.00  0.00     0.251 C 
ATOM      7  H   UNL A   1      42.133  21.639  25.045  1.00  0.00     0.163 HD
BRANCH   6   8
ATOM      8  C   UNL A   1      41.555  24.425  26.744  1.00  0.00     0.039 A 
ATOM      9  C   UNL A   1      40.715  25.327  26.089  1.00  0.00     0.014 A 
ATOM     10  C   UNL A   1      42.311  24.830  27.821  1.00  0.00     0.014 A 
ATOM     11  C   UNL A   1      40.609  26.617  26.617  1.00  0.00     0.010 A 
ATOM     12  C   UNL A   1      41.832  25.867  28.549  1.00  0.00     0.010 A 
ATOM     13  C   UNL A   1      41.178  26.871  27.875  1.00  0.00    -0.014 A 
BRANCH  13  14
ATOM     14  C   UNL A   1      41.155  28.154  28.562  1.00  0.00     0.031 A 
ATOM     15  C   UNL A   1      42.258  29.073  28.214  1.00  0.00     0.074 A 
ATOM     16  C   UNL A   1      40.102  28.548  29.324  1.00  0.00     0.049 A 
ATOM     17  N   UNL A   1      43.271  29.383  28.951  1.00  0.00    -0.248 NA
ATOM     18  C   UNL A   1      42.331  29.595  26.842  1.00  0.00     0.031 C 
ATOM     19  C   UNL A   1      38.800  27.895  29.558  1.00  0.00     0.029 A 
ATOM     20  N   UNL A   1      39.957  29.710  30.013  1.00  0.00    -0.354 N 
ATOM     21  C   UNL A   1      44.002  30.313  28.223  1.00  0.00     0.074 A 
ATOM     22  C   UNL A   1      43.489  30.260  26.877  1.00  0.00     0.031 C 
ATOM     23  C   UNL A   1      37.932  28.767  30.110  1.00  0.00     0.029 A 
ATOM     24  C   UNL A   1      38.666  29.959  30.468  1.00  0.00     0.049 A 
ATOM     25  H   UNL A   1      40.705  30.327  30.178  1.00  0.00     0.167 HD
ATOM     26  C   UNL A   1      44.795  31.220  28.855  1.00  0.00     0.037 A 
ATOM     27  C   UNL A   1      38.235  31.072  31.107  1.00  0.00     0.037 A 
ATOM     28  C   UNL A   1      45.021  30.845  30.231  1.00  0.00     0.049 A 
ATOM     29  C   UNL A   1      39.438  31.728  31.678  1.00  0.00     0.074 A 
ATOM     30  C   UNL A   1      45.578  29.747  30.858  1.00  0.00     0.029 A 
ATOM     31  N   UNL A   1      44.275  31.478  31.198  1.00  0.00    -0.354 N 
ATOM     32  N   UNL A   1      40.149  31.202  32.638  1.00  0.00    -0.248 NA
ATOM     33  C   UNL A   1      40.138  32.690  30.839  1.00  0.00     0.031 C 
ATOM     34  C   UNL A   1      44.738  29.501  31.987  1.00  0.00     0.029 A 
ATOM     35  C   UNL A   1      43.770  30.506  32.025  1.00  0.00     0.049 A 
ATOM     36  H   UNL A   1      44.131  32.448  31.283  1.00  0.00     0.167 HD
ATOM     37  C   UNL A   1      41.470  31.429  32.272  1.00  0.00     0.074 A 
ATOM     38  C   UNL A   1      41.398  32.409  31.187  1.00  0.00     0.031 C 
ATOM     39  C   UNL A   1      42.475  30.590  32.665  1.00  0.00     0.037 A 
BRANCH  26  40
ATOM     40  C   UNL A   1      45.036  32.626  28.368  1.00  0.00     0.057 A 
ATOM     41  C   UNL A   1      46.228  33.056  27.749  1.00  0.00     0.134 A 
ATOM     42  C   UNL A   1      43.940  33.493  28.224  1.00  0.00     0.134 A 
ATOM     43  F   UNL A   1      47.344  32.320  27.743  1.00  0.00    -0.206 F 
ATOM     44  C   UNL A   1      46.308  34.233  27.002  1.00  0.00     0.040 A 
ATOM     45  C   UNL A   1      43.997  34.649  27.435  1.00  0.00     0.040 A 
ATOM     46  F   UNL A   1      42.751  33.197  28.772  1.00  0.00    -0.206 F 
ATOM     47  C   UNL A   1      45.181  35.014  26.809  1.00  0.00     0.006 A 
ENDBRANCH  26  40
BRANCH  27  48
ATOM     48  C   UNL A   1      36.924  31.740  30.958  1.00  0.00     0.057 A 
ATOM     49  C   UNL A   1      36.613  32.488  29.806  1.00  0.00     0.134 A 
ATOM     50  C   UNL A   1      36.045  31.883  32.039  1.00  0.00     0.134 A 
ATOM     51  F   UNL A   1      37.426  32.483  28.739  1.00  0.00    -0.206 F 
ATOM     52  C   UNL A   1      35.505  33.339  29.738  1.00  0.00     0.040 A 
ATOM     53  C   UNL A   1      34.932  32.734  31.984  1.00  0.00     0.040 A 
ATOM     54  F   UNL A   1      36.279  31.242  33.193  1.00  0.00    -0.206 F 
ATOM     55  C   UNL A   1      34.665  33.474  30.835  1.00  0.00     0.006 A 
ENDBRANCH  27  48
BRANCH  39  56
ATOM     56  C   UNL A   1      42.142  29.519  33.673  1.00  0.00     0.057 A 
ATOM     57  C   UNL A   1      42.342  29.778  35.032  1.00  0.00     0.134 A 
ATOM     58  C   UNL A   1      41.773  28.207  33.334  1.00  0.00     0.134 A 
ATOM     59  F   UNL A   1      42.759  30.989  35.434  1.00  0.00    -0.206 F 
ATOM     60  C   UNL A   1      42.164  28.792  36.008  1.00  0.00     0.040 A 
ATOM     61  C   UNL A   1      41.561  27.218  34.302  1.00  0.00     0.040 A 
ATOM     62  F   UNL A   1      41.661  27.828  32.057  1.00  0.00    -0.206 F 
ATOM     63  C   UNL A   1      41.761  27.510  35.646  1.00  0.00     0.006 A 
ENDBRANCH  39  56
ENDBRANCH  13  14
ENDBRANCH   6   8
ENDBRANCH   3   4
ENDBRANCH   2   3
ENDBRANCH   1   2
BRANCH   1  64
ATOM     64  C   UNL A   1      44.425  26.255  25.280  1.00  0.00     0.116 C 
BRANCH  64  65
ATOM     65  N   UNL A   1      45.025  27.458  24.730  1.00  0.00    -0.351 N 
ATOM     66  C   UNL A   1      46.128  28.159  25.181  1.00  0.00     0.272 C 
ATOM     67  H   UNL A   1      44.587  27.823  23.927  1.00  0.00     0.163 HD
ATOM     68  O   UNL A   1      46.403  29.225  24.627  1.00  0.00    -0.267 OA
BRANCH  66  69
ATOM     69  C   UNL A   1      46.935  27.599  26.275  1.00  0.00     0.158 A 
ATOM     70  N   UNL A   1      46.515  27.629  27.555  1.00  0.00    -0.166 NA
ATOM     71  C   UNL A   1      48.217  26.979  26.169  1.00  0.00     0.033 A 
ATOM     72  N   UNL A   1      47.488  26.993  28.247  1.00  0.00    -0.260 N 
ATOM     73  C   UNL A   1      48.579  26.655  27.474  1.00  0.00     0.069 A 
ATOM     74  C   UNL A   1      49.099  26.658  25.115  1.00  0.00     0.013 A 
ATOM     75  C   UNL A   1      49.820  26.075  27.773  1.00  0.00     0.028 A 
ATOM     76  C   UNL A   1      50.272  25.952  25.393  1.00  0.00     0.001 A 
ATOM     77  C   UNL A   1      50.630  25.673  26.707  1.00  0.00     0.002 A 
BRANCH  72  78
ATOM     78  C   UNL A   1      47.313  26.769  29.684  1.00  0.00     0.180 C 
BRANCH  78  79
ATOM     79  C   UNL A   1      46.248  25.739  30.017  1.00  0.00    -0.026 A 
ATOM     80  C   UNL A   1      45.507  25.807  31.207  1.00  0.00     0.009 A 
ATOM     81  C   UNL A   1      45.938  24.707  29.114  1.00  0.00     0.009 A 
ATOM     82  C   UNL A   1      44.527  24.864  31.514  1.00  0.00     0.046 A 
ATOM     83  C   UNL A   1      44.938  23.769  29.410  1.00  0.00     0.046 A 
ATOM     84  C   UNL A   1      44.250  23.850  30.616  1.00  0.00     0.115 A 
BRANCH  84  85
ATOM     85  O   UNL A   1      43.285  22.952  30.961  1.00  0.00    -0.508 OA
ATOM     86  H   UNL A   1      42.478  22.927  30.485  1.00  0.00     0.293 HD
ENDBRANCH  84  85
ENDBRANCH  78  79
ENDBRANCH  72  78
ENDBRANCH  66  69
ENDBRANCH  64  65
ENDBRANCH   1  64
TORSDOF 14
ENDMDL
