MODEL 1
REMARK VINA RESULT:     -12.8      0.000      0.000
REMARK SMILES NS(=O)(=O)c1ccc(-c2cc(Cl)cc3c2O[C@H](C(F)(F)F)C(C(=O)NCCCCNC(=O)c2ccc(-c4c5nc(c(-c6c(F)cccc6F)c6ccc([nH]6)c(-c6c(F)cccc6F)c6nc(c(-c7c(F)cccc7F)c7ccc4[nH]7)C=C6)C=C5)cc2)=C3)cc1
REMARK SMILES IDX 27 1 26 2 25 3 23 4 24 5 22 7 9 8 10 9 15 10 11 11 14 12
REMARK SMILES IDX 16 13 12 14 13 15 87 16 17 17 8 18 5 19 6 20 89 21 7 22
REMARK SMILES IDX 88 23 2 24 3 25 4 26 1 27 18 30 19 31 20 32 21 33 28 34
REMARK SMILES IDX 29 35 30 36 31 37 32 39 33 40 34 41 86 42 35 43 85 44 36 45
REMARK SMILES IDX 37 46 38 47 79 48 39 49 84 50 78 51 80 52 40 53 83 54 77 55
REMARK SMILES IDX 76 56 41 58 67 59 50 60 66 61 51 62 54 63 65 64 81 65 52 66
REMARK SMILES IDX 53 67 64 69 82 70 55 71 42 72 43 73 48 74 44 75 45 76 47 77
REMARK SMILES IDX 49 78 46 79 68 80 69 81 74 82 70 83 71 84 73 85 75 86 72 87
REMARK SMILES IDX 56 88 57 89 62 90 58 91 59 92 61 93 63 94 60 95
REMARK H PARENT 25 6 1 28 1 29 30 38 80 57 54 68
REMARK Flexibility Score: inf
ROOT
ATOM      1  C   UNL A   1      35.957  20.574  24.985  1.00  0.00     0.023 C 
ENDROOT
BRANCH   1   2
ATOM      2  C   UNL A   1      35.397  21.404  26.149  1.00  0.00     0.116 C 
BRANCH   2   3
ATOM      3  N   UNL A   1      35.456  22.809  25.815  1.00  0.00    -0.352 N 
ATOM      4  C   UNL A   1      34.771  23.501  24.878  1.00  0.00     0.251 C 
ATOM      5  O   UNL A   1      35.330  24.459  24.352  1.00  0.00    -0.270 OA
ATOM      6  H   UNL A   1      36.091  23.341  26.349  1.00  0.00     0.163 HD
BRANCH   4   7
ATOM      7  C   UNL A   1      33.337  23.158  24.637  1.00  0.00     0.067 C 
ATOM      8  C   UNL A   1      31.814  26.878  23.967  1.00  0.00     0.026 A 
ATOM      9  C   UNL A   1      32.433  27.722  24.927  1.00  0.00     0.033 A 
ATOM     10  C   UNL A   1      31.968  25.495  24.170  1.00  0.00     0.135 A 
ATOM     11  C   UNL A   1      32.959  27.236  26.120  1.00  0.00     0.042 A 
ATOM     12  C   UNL A   1      32.382  25.032  25.442  1.00  0.00     0.019 A 
ATOM     13  O   UNL A   1      31.805  24.545  23.168  1.00  0.00    -0.475 OA
ATOM     14  Cl  UNL A   1      33.707  28.316  27.228  1.00  0.00    -0.084 Cl
ATOM     15  C   UNL A   1      32.850  25.895  26.427  1.00  0.00     0.032 A 
ATOM     16  C   UNL A   1      32.525  23.570  25.631  1.00  0.00     0.025 C 
ATOM     17  C   UNL A   1      32.813  23.434  23.232  1.00  0.00     0.314 C 
BRANCH   8  18
ATOM     18  C   UNL A   1      30.848  27.576  23.069  1.00  0.00    -0.015 A 
ATOM     19  C   UNL A   1      29.109  29.685  22.323  1.00  0.00     0.082 A 
ATOM     20  C   UNL A   1      30.430  29.685  21.877  1.00  0.00     0.022 A 
ATOM     21  C   UNL A   1      28.616  28.596  23.045  1.00  0.00     0.022 A 
ATOM     22  C   UNL A   1      31.281  28.625  22.225  1.00  0.00     0.010 A 
ATOM     23  C   UNL A   1      29.478  27.543  23.398  1.00  0.00     0.010 A 
BRANCH  19  24
ATOM     24  S   UNL A   1      28.108  31.135  22.118  1.00  0.00     0.238 S 
ATOM     25  O   UNL A   1      27.229  31.280  23.251  1.00  0.00    -0.207 OA
ATOM     26  O   UNL A   1      27.623  31.176  20.754  1.00  0.00    -0.207 OA
BRANCH  24  27
ATOM     27  N   UNL A   1      29.221  32.382  22.251  1.00  0.00    -0.225 NA
ATOM     28  H   UNL A   1      30.064  32.038  22.711  1.00  0.00     0.137 HD
ATOM     29  H   UNL A   1      28.818  33.140  22.802  1.00  0.00     0.137 HD
ENDBRANCH  24  27
ENDBRANCH  19  24
ENDBRANCH   8  18
BRANCH  17  30
ATOM     30  C   UNL A   1      32.248  22.108  22.668  1.00  0.00     0.429 C 
ATOM     31  F   UNL A   1      32.606  21.889  21.384  1.00  0.00    -0.167 F 
ATOM     32  F   UNL A   1      32.663  21.047  23.401  1.00  0.00    -0.167 F 
ATOM     33  F   UNL A   1      30.887  22.072  22.697  1.00  0.00    -0.167 F 
ENDBRANCH  17  30
ENDBRANCH   4   7
ENDBRANCH   2   3
ENDBRANCH   1   2
BRANCH   1  34
ATOM     34  C   UNL A   1      37.400  20.910  24.577  1.00  0.00     0.023 C 
BRANCH  34  35
ATOM     35  C   UNL A   1      38.391  20.968  25.731  1.00  0.00     0.116 C 
BRANCH  35  36
ATOM     36  N   UNL A   1      39.336  19.863  25.691  1.00  0.00    -0.352 N 
ATOM     37  C   UNL A   1      40.684  19.870  25.957  1.00  0.00     0.251 C 
ATOM     38  H   UNL A   1      38.958  18.991  25.438  1.00  0.00     0.163 HD
ATOM     39  O   UNL A   1      41.376  18.896  25.680  1.00  0.00    -0.269 OA
BRANCH  37  40
ATOM     40  C   UNL A   1      41.301  21.072  26.556  1.00  0.00     0.039 A 
ATOM     41  C   UNL A   1      41.904  22.016  25.721  1.00  0.00     0.014 A 
ATOM     42  C   UNL A   1      41.256  21.277  27.938  1.00  0.00     0.014 A 
ATOM     43  C   UNL A   1      42.397  23.203  26.267  1.00  0.00     0.010 A 
ATOM     44  C   UNL A   1      41.674  22.493  28.466  1.00  0.00     0.010 A 
ATOM     45  C   UNL A   1      42.247  23.471  27.637  1.00  0.00    -0.014 A 
BRANCH  45  46
ATOM     46  C   UNL A   1      42.672  24.764  28.232  1.00  0.00     0.031 A 
ATOM     47  C   UNL A   1      41.656  25.843  28.485  1.00  0.00     0.074 A 
ATOM     48  C   UNL A   1      43.978  25.000  28.461  1.00  0.00     0.049 A 
ATOM     49  N   UNL A   1      41.840  27.077  28.880  1.00  0.00    -0.248 NA
ATOM     50  C   UNL A   1      40.247  25.496  28.235  1.00  0.00     0.031 C 
ATOM     51  C   UNL A   1      45.067  24.049  28.225  1.00  0.00     0.029 A 
ATOM     52  N   UNL A   1      44.617  26.123  28.927  1.00  0.00    -0.354 N 
ATOM     53  C   UNL A   1      40.578  27.657  28.907  1.00  0.00     0.074 A 
ATOM     54  C   UNL A   1      39.643  26.657  28.439  1.00  0.00     0.031 C 
ATOM     55  C   UNL A   1      46.233  24.623  28.560  1.00  0.00     0.029 A 
ATOM     56  C   UNL A   1      45.985  25.997  28.986  1.00  0.00     0.049 A 
ATOM     57  H   UNL A   1      44.140  26.942  29.193  1.00  0.00     0.167 HD
ATOM     58  C   UNL A   1      40.227  28.903  29.304  1.00  0.00     0.037 A 
ATOM     59  C   UNL A   1      46.932  26.891  29.323  1.00  0.00     0.037 A 
ATOM     60  C   UNL A   1      41.159  29.888  29.786  1.00  0.00     0.049 A 
ATOM     61  C   UNL A   1      46.521  28.280  29.729  1.00  0.00     0.074 A 
ATOM     62  C   UNL A   1      40.896  31.159  30.266  1.00  0.00     0.029 A 
ATOM     63  N   UNL A   1      42.534  29.716  29.843  1.00  0.00    -0.354 N 
ATOM     64  N   UNL A   1      45.318  28.795  29.811  1.00  0.00    -0.248 NA
ATOM     65  C   UNL A   1      47.598  29.215  30.090  1.00  0.00     0.031 C 
ATOM     66  C   UNL A   1      42.115  31.777  30.556  1.00  0.00     0.029 A 
ATOM     67  C   UNL A   1      43.134  30.868  30.321  1.00  0.00     0.049 A 
ATOM     68  H   UNL A   1      43.012  28.895  29.582  1.00  0.00     0.167 HD
ATOM     69  C   UNL A   1      45.489  30.097  30.266  1.00  0.00     0.074 A 
ATOM     70  C   UNL A   1      46.912  30.292  30.450  1.00  0.00     0.031 C 
ATOM     71  C   UNL A   1      44.552  31.043  30.515  1.00  0.00     0.037 A 
BRANCH  58  72
ATOM     72  C   UNL A   1      38.773  29.273  29.230  1.00  0.00     0.057 A 
ATOM     73  C   UNL A   1      37.941  29.243  30.356  1.00  0.00     0.134 A 
ATOM     74  C   UNL A   1      38.207  29.702  28.023  1.00  0.00     0.134 A 
ATOM     75  F   UNL A   1      38.416  28.832  31.543  1.00  0.00    -0.206 F 
ATOM     76  C   UNL A   1      36.593  29.597  30.280  1.00  0.00     0.040 A 
ATOM     77  C   UNL A   1      36.869  30.090  27.940  1.00  0.00     0.040 A 
ATOM     78  F   UNL A   1      38.948  29.764  26.906  1.00  0.00    -0.206 F 
ATOM     79  C   UNL A   1      36.056  30.030  29.069  1.00  0.00     0.006 A 
ENDBRANCH  58  72
BRANCH  59  80
ATOM     80  C   UNL A   1      48.367  26.504  29.298  1.00  0.00     0.057 A 
ATOM     81  C   UNL A   1      48.971  25.895  30.405  1.00  0.00     0.134 A 
ATOM     82  C   UNL A   1      49.172  26.744  28.178  1.00  0.00     0.134 A 
ATOM     83  F   UNL A   1      48.258  25.655  31.515  1.00  0.00    -0.206 F 
ATOM     84  C   UNL A   1      50.326  25.559  30.408  1.00  0.00     0.040 A 
ATOM     85  C   UNL A   1      50.521  26.386  28.155  1.00  0.00     0.040 A 
ATOM     86  F   UNL A   1      48.654  27.317  27.081  1.00  0.00    -0.206 F 
ATOM     87  C   UNL A   1      51.105  25.801  29.277  1.00  0.00     0.006 A 
ENDBRANCH  59  80
BRANCH  71  88
ATOM     88  C   UNL A   1      45.019  32.362  31.061  1.00  0.00     0.057 A 
ATOM     89  C   UNL A   1      45.326  33.445  30.228  1.00  0.00     0.134 A 
ATOM     90  C   UNL A   1      45.092  32.568  32.444  1.00  0.00     0.134 A 
ATOM     91  F   UNL A   1      45.288  33.310  28.894  1.00  0.00    -0.206 F 
ATOM     92  C   UNL A   1      45.704  34.683  30.753  1.00  0.00     0.040 A 
ATOM     93  C   UNL A   1      45.439  33.808  32.981  1.00  0.00     0.040 A 
ATOM     94  F   UNL A   1      44.803  31.575  33.298  1.00  0.00    -0.206 F 
ATOM     95  C   UNL A   1      45.749  34.869  32.134  1.00  0.00     0.006 A 
ENDBRANCH  71  88
ENDBRANCH  45  46
ENDBRANCH  37  40
ENDBRANCH  35  36
ENDBRANCH  34  35
ENDBRANCH   1  34
TORSDOF 15
ENDMDL
MODEL 2
REMARK VINA RESULT:     -12.8      4.001      9.057
REMARK SMILES NS(=O)(=O)c1ccc(-c2cc(Cl)cc3c2O[C@H](C(F)(F)F)C(C(=O)NCCCCNC(=O)c2ccc(-c4c5nc(c(-c6c(F)cccc6F)c6ccc([nH]6)c(-c6c(F)cccc6F)c6nc(c(-c7c(F)cccc7F)c7ccc4[nH]7)C=C6)C=C5)cc2)=C3)cc1
REMARK SMILES IDX 27 1 26 2 25 3 23 4 24 5 22 7 9 8 10 9 15 10 11 11 14 12
REMARK SMILES IDX 16 13 12 14 13 15 87 16 17 17 8 18 5 19 6 20 89 21 7 22
REMARK SMILES IDX 88 23 2 24 3 25 4 26 1 27 18 30 19 31 20 32 21 33 28 34
REMARK SMILES IDX 29 35 30 36 31 37 32 39 33 40 34 41 86 42 35 43 85 44 36 45
REMARK SMILES IDX 37 46 38 47 79 48 39 49 84 50 78 51 80 52 40 53 83 54 77 55
REMARK SMILES IDX 76 56 41 58 67 59 50 60 66 61 51 62 54 63 65 64 81 65 52 66
REMARK SMILES IDX 53 67 64 69 82 70 55 71 42 72 43 73 48 74 44 75 45 76 47 77
REMARK SMILES IDX 49 78 46 79 68 80 69 81 74 82 70 83 71 84 73 85 75 86 72 87
REMARK SMILES IDX 56 88 57 89 62 90 58 91 59 92 61 93 63 94 60 95
REMARK H PARENT 25 6 1 28 1 29 30 38 80 57 54 68
REMARK Flexibility Score: inf
ROOT
ATOM      1  C   UNL A   1      31.931  29.436  25.880  1.00  0.00     0.023 C 
ENDROOT
BRANCH   1   2
ATOM      2  C   UNL A   1      32.806  29.235  24.634  1.00  0.00     0.116 C 
BRANCH   2   3
ATOM      3  N   UNL A   1      33.692  28.111  24.840  1.00  0.00    -0.352 N 
ATOM      4  C   UNL A   1      33.397  26.810  25.055  1.00  0.00     0.251 C 
ATOM      5  O   UNL A   1      34.161  26.159  25.759  1.00  0.00    -0.270 OA
ATOM      6  H   UNL A   1      34.653  28.326  24.823  1.00  0.00     0.163 HD
BRANCH   4   7
ATOM      7  C   UNL A   1      32.248  26.203  24.316  1.00  0.00     0.067 C 
ATOM      8  C   UNL A   1      33.345  22.279  24.390  1.00  0.00     0.026 A 
ATOM      9  C   UNL A   1      34.742  22.268  24.134  1.00  0.00     0.033 A 
ATOM     10  C   UNL A   1      32.681  23.494  24.145  1.00  0.00     0.135 A 
ATOM     11  C   UNL A   1      35.386  23.304  23.465  1.00  0.00     0.042 A 
ATOM     12  C   UNL A   1      33.320  24.475  23.348  1.00  0.00     0.019 A 
ATOM     13  O   UNL A   1      31.451  23.827  24.700  1.00  0.00    -0.475 OA
ATOM     14  Cl  UNL A   1      37.083  23.229  23.203  1.00  0.00    -0.084 Cl
ATOM     15  C   UNL A   1      34.659  24.374  22.983  1.00  0.00     0.032 A 
ATOM     16  C   UNL A   1      32.594  25.740  23.098  1.00  0.00     0.025 C 
ATOM     17  C   UNL A   1      31.358  25.265  25.124  1.00  0.00     0.314 C 
BRANCH   8  18
ATOM     18  C   UNL A   1      32.748  20.926  24.587  1.00  0.00    -0.015 A 
ATOM     19  C   UNL A   1      32.800  18.094  24.698  1.00  0.00     0.082 A 
ATOM     20  C   UNL A   1      32.967  18.838  25.866  1.00  0.00     0.022 A 
ATOM     21  C   UNL A   1      32.500  18.740  23.497  1.00  0.00     0.022 A 
ATOM     22  C   UNL A   1      32.913  20.239  25.813  1.00  0.00     0.010 A 
ATOM     23  C   UNL A   1      32.458  20.145  23.450  1.00  0.00     0.010 A 
BRANCH  19  24
ATOM     24  S   UNL A   1      33.129  16.352  24.706  1.00  0.00     0.238 S 
ATOM     25  O   UNL A   1      33.524  15.928  23.386  1.00  0.00    -0.207 OA
ATOM     26  O   UNL A   1      32.081  15.683  25.450  1.00  0.00    -0.207 OA
BRANCH  24  27
ATOM     27  N   UNL A   1      34.512  16.235  25.648  1.00  0.00    -0.225 NA
ATOM     28  H   UNL A   1      35.115  17.036  25.466  1.00  0.00     0.137 HD
ATOM     29  H   UNL A   1      35.009  15.375  25.416  1.00  0.00     0.137 HD
ENDBRANCH  24  27
ENDBRANCH  19  24
ENDBRANCH   8  18
BRANCH  17  30
ATOM     30  C   UNL A   1      29.908  25.799  25.042  1.00  0.00     0.429 C 
ATOM     31  F   UNL A   1      29.191  25.543  26.158  1.00  0.00    -0.167 F 
ATOM     32  F   UNL A   1      29.889  27.137  24.835  1.00  0.00    -0.167 F 
ATOM     33  F   UNL A   1      29.214  25.251  24.007  1.00  0.00    -0.167 F 
ENDBRANCH  17  30
ENDBRANCH   4   7
ENDBRANCH   2   3
ENDBRANCH   1   2
BRANCH   1  34
ATOM     34  C   UNL A   1      31.628  30.898  26.238  1.00  0.00     0.023 C 
BRANCH  34  35
ATOM     35  C   UNL A   1      32.706  31.588  27.064  1.00  0.00     0.116 C 
BRANCH  35  36
ATOM     36  N   UNL A   1      32.367  32.974  27.349  1.00  0.00    -0.352 N 
ATOM     37  C   UNL A   1      33.016  33.872  28.162  1.00  0.00     0.251 C 
ATOM     38  H   UNL A   1      31.562  33.315  26.898  1.00  0.00     0.163 HD
ATOM     39  O   UNL A   1      32.488  34.940  28.453  1.00  0.00    -0.269 OA
BRANCH  37  40
ATOM     40  C   UNL A   1      34.347  33.530  28.704  1.00  0.00     0.039 A 
ATOM     41  C   UNL A   1      34.432  32.846  29.919  1.00  0.00     0.014 A 
ATOM     42  C   UNL A   1      35.507  33.861  27.998  1.00  0.00     0.014 A 
ATOM     43  C   UNL A   1      35.679  32.427  30.389  1.00  0.00     0.010 A 
ATOM     44  C   UNL A   1      36.736  33.374  28.427  1.00  0.00     0.010 A 
ATOM     45  C   UNL A   1      36.836  32.650  29.625  1.00  0.00    -0.014 A 
BRANCH  45  46
ATOM     46  C   UNL A   1      38.163  32.133  30.049  1.00  0.00     0.031 A 
ATOM     47  C   UNL A   1      38.654  30.810  29.528  1.00  0.00     0.074 A 
ATOM     48  C   UNL A   1      38.885  32.807  30.965  1.00  0.00     0.049 A 
ATOM     49  N   UNL A   1      39.720  30.131  29.868  1.00  0.00    -0.248 NA
ATOM     50  C   UNL A   1      37.821  30.151  28.509  1.00  0.00     0.031 C 
ATOM     51  C   UNL A   1      38.504  34.083  31.574  1.00  0.00     0.029 A 
ATOM     52  N   UNL A   1      40.084  32.502  31.561  1.00  0.00    -0.354 N 
ATOM     53  C   UNL A   1      39.674  28.960  29.121  1.00  0.00     0.074 A 
ATOM     54  C   UNL A   1      38.451  28.998  28.350  1.00  0.00     0.031 C 
ATOM     55  C   UNL A   1      39.454  34.457  32.445  1.00  0.00     0.029 A 
ATOM     56  C   UNL A   1      40.488  33.427  32.495  1.00  0.00     0.049 A 
ATOM     57  H   UNL A   1      40.605  31.696  31.342  1.00  0.00     0.167 HD
ATOM     58  C   UNL A   1      40.580  27.955  29.068  1.00  0.00     0.037 A 
ATOM     59  C   UNL A   1      41.556  33.435  33.314  1.00  0.00     0.037 A 
ATOM     60  C   UNL A   1      41.805  27.932  29.824  1.00  0.00     0.049 A 
ATOM     61  C   UNL A   1      42.531  32.290  33.261  1.00  0.00     0.074 A 
ATOM     62  C   UNL A   1      42.815  26.986  29.796  1.00  0.00     0.029 A 
ATOM     63  N   UNL A   1      42.183  28.895  30.748  1.00  0.00    -0.354 N 
ATOM     64  N   UNL A   1      42.509  31.220  32.504  1.00  0.00    -0.248 NA
ATOM     65  C   UNL A   1      43.681  32.352  34.176  1.00  0.00     0.031 C 
ATOM     66  C   UNL A   1      43.774  27.344  30.747  1.00  0.00     0.029 A 
ATOM     67  C   UNL A   1      43.396  28.549  31.319  1.00  0.00     0.049 A 
ATOM     68  H   UNL A   1      41.665  29.703  30.965  1.00  0.00     0.167 HD
ATOM     69  C   UNL A   1      43.655  30.503  32.823  1.00  0.00     0.074 A 
ATOM     70  C   UNL A   1      44.355  31.261  33.837  1.00  0.00     0.031 C 
ATOM     71  C   UNL A   1      44.091  29.323  32.316  1.00  0.00     0.037 A 
BRANCH  58  72
ATOM     72  C   UNL A   1      40.278  26.794  28.164  1.00  0.00     0.057 A 
ATOM     73  C   UNL A   1      39.428  25.752  28.554  1.00  0.00     0.134 A 
ATOM     74  C   UNL A   1      40.816  26.737  26.872  1.00  0.00     0.134 A 
ATOM     75  F   UNL A   1      38.886  25.738  29.782  1.00  0.00    -0.206 F 
ATOM     76  C   UNL A   1      39.146  24.681  27.704  1.00  0.00     0.040 A 
ATOM     77  C   UNL A   1      40.517  25.688  26.001  1.00  0.00     0.040 A 
ATOM     78  F   UNL A   1      41.632  27.706  26.429  1.00  0.00    -0.206 F 
ATOM     79  C   UNL A   1      39.686  24.651  26.420  1.00  0.00     0.006 A 
ENDBRANCH  58  72
BRANCH  59  80
ATOM     80  C   UNL A   1      41.768  34.566  34.255  1.00  0.00     0.057 A 
ATOM     81  C   UNL A   1      41.310  34.503  35.577  1.00  0.00     0.134 A 
ATOM     82  C   UNL A   1      42.419  35.739  33.855  1.00  0.00     0.134 A 
ATOM     83  F   UNL A   1      40.662  33.413  36.014  1.00  0.00    -0.206 F 
ATOM     84  C   UNL A   1      41.471  35.572  36.460  1.00  0.00     0.040 A 
ATOM     85  C   UNL A   1      42.614  36.805  34.736  1.00  0.00     0.040 A 
ATOM     86  F   UNL A   1      42.889  35.862  32.606  1.00  0.00    -0.206 F 
ATOM     87  C   UNL A   1      42.130  36.727  36.040  1.00  0.00     0.006 A 
ENDBRANCH  59  80
BRANCH  71  88
ATOM     88  C   UNL A   1      45.408  28.797  32.808  1.00  0.00     0.057 A 
ATOM     89  C   UNL A   1      45.499  27.909  33.887  1.00  0.00     0.134 A 
ATOM     90  C   UNL A   1      46.596  29.131  32.143  1.00  0.00     0.134 A 
ATOM     91  F   UNL A   1      44.402  27.558  34.574  1.00  0.00    -0.206 F 
ATOM     92  C   UNL A   1      46.727  27.383  34.296  1.00  0.00     0.040 A 
ATOM     93  C   UNL A   1      47.823  28.589  32.523  1.00  0.00     0.040 A 
ATOM     94  F   UNL A   1      46.578  29.969  31.096  1.00  0.00    -0.206 F 
ATOM     95  C   UNL A   1      47.892  27.714  33.605  1.00  0.00     0.006 A 
ENDBRANCH  71  88
ENDBRANCH  45  46
ENDBRANCH  37  40
ENDBRANCH  35  36
ENDBRANCH  34  35
ENDBRANCH   1  34
TORSDOF 15
ENDMDL
MODEL 3
REMARK VINA RESULT:     -12.7      0.417      5.975
REMARK SMILES NS(=O)(=O)c1ccc(-c2cc(Cl)cc3c2O[C@H](C(F)(F)F)C(C(=O)NCCCCNC(=O)c2ccc(-c4c5nc(c(-c6c(F)cccc6F)c6ccc([nH]6)c(-c6c(F)cccc6F)c6nc(c(-c7c(F)cccc7F)c7ccc4[nH]7)C=C6)C=C5)cc2)=C3)cc1
REMARK SMILES IDX 27 1 26 2 25 3 23 4 24 5 22 7 9 8 10 9 15 10 11 11 14 12
REMARK SMILES IDX 16 13 12 14 13 15 87 16 17 17 8 18 5 19 6 20 89 21 7 22
REMARK SMILES IDX 88 23 2 24 3 25 4 26 1 27 18 30 19 31 20 32 21 33 28 34
REMARK SMILES IDX 29 35 30 36 31 37 32 39 33 40 34 41 86 42 35 43 85 44 36 45
REMARK SMILES IDX 37 46 38 47 79 48 39 49 84 50 78 51 80 52 40 53 83 54 77 55
REMARK SMILES IDX 76 56 41 58 67 59 50 60 66 61 51 62 54 63 65 64 81 65 52 66
REMARK SMILES IDX 53 67 64 69 82 70 55 71 42 72 43 73 48 74 44 75 45 76 47 77
REMARK SMILES IDX 49 78 46 79 68 80 69 81 74 82 70 83 71 84 73 85 75 86 72 87
REMARK SMILES IDX 56 88 57 89 62 90 58 91 59 92 61 93 63 94 60 95
REMARK H PARENT 25 6 1 28 1 29 30 38 80 57 54 68
REMARK Flexibility Score: inf
ROOT
ATOM      1  C   UNL A   1      37.014  21.016  24.453  1.00  0.00     0.023 C 
ENDROOT
BRANCH   1   2
ATOM      2  C   UNL A   1      35.780  21.297  25.322  1.00  0.00     0.116 C 
BRANCH   2   3
ATOM      3  N   UNL A   1      35.679  22.717  25.575  1.00  0.00    -0.352 N 
ATOM      4  C   UNL A   1      34.858  23.635  25.018  1.00  0.00     0.251 C 
ATOM      5  O   UNL A   1      35.280  24.781  24.898  1.00  0.00    -0.270 OA
ATOM      6  H   UNL A   1      36.301  23.068  26.253  1.00  0.00     0.163 HD
BRANCH   4   7
ATOM      7  C   UNL A   1      33.448  23.246  24.712  1.00  0.00     0.067 C 
ATOM      8  C   UNL A   1      31.819  26.923  24.058  1.00  0.00     0.026 A 
ATOM      9  C   UNL A   1      32.367  27.767  25.059  1.00  0.00     0.033 A 
ATOM     10  C   UNL A   1      32.014  25.542  24.238  1.00  0.00     0.135 A 
ATOM     11  C   UNL A   1      32.864  27.275  26.262  1.00  0.00     0.042 A 
ATOM     12  C   UNL A   1      32.394  25.066  25.517  1.00  0.00     0.019 A 
ATOM     13  O   UNL A   1      31.926  24.610  23.211  1.00  0.00    -0.475 OA
ATOM     14  Cl  UNL A   1      33.527  28.356  27.421  1.00  0.00    -0.084 Cl
ATOM     15  C   UNL A   1      32.792  25.924  26.537  1.00  0.00     0.032 A 
ATOM     16  C   UNL A   1      32.583  23.607  25.681  1.00  0.00     0.025 C 
ATOM     17  C   UNL A   1      32.971  23.534  23.293  1.00  0.00     0.314 C 
BRANCH   8  18
ATOM     18  C   UNL A   1      30.864  27.606  23.136  1.00  0.00    -0.015 A 
ATOM     19  C   UNL A   1      29.127  29.698  22.338  1.00  0.00     0.082 A 
ATOM     20  C   UNL A   1      30.455  29.699  21.913  1.00  0.00     0.022 A 
ATOM     21  C   UNL A   1      28.627  28.614  23.064  1.00  0.00     0.022 A 
ATOM     22  C   UNL A   1      31.306  28.647  22.287  1.00  0.00     0.010 A 
ATOM     23  C   UNL A   1      29.489  27.570  23.443  1.00  0.00     0.010 A 
BRANCH  19  24
ATOM     24  S   UNL A   1      28.123  31.140  22.099  1.00  0.00     0.238 S 
ATOM     25  O   UNL A   1      27.235  31.303  23.223  1.00  0.00    -0.207 OA
ATOM     26  O   UNL A   1      27.647  31.155  20.731  1.00  0.00    -0.207 OA
BRANCH  24  27
ATOM     27  N   UNL A   1      29.231  32.393  22.217  1.00  0.00    -0.225 NA
ATOM     28  H   UNL A   1      30.103  32.040  22.611  1.00  0.00     0.137 HD
ATOM     29  H   UNL A   1      28.855  33.123  22.822  1.00  0.00     0.137 HD
ENDBRANCH  24  27
ENDBRANCH  19  24
ENDBRANCH   8  18
BRANCH  17  30
ATOM     30  C   UNL A   1      32.476  22.201  22.680  1.00  0.00     0.429 C 
ATOM     31  F   UNL A   1      31.132  22.070  22.725  1.00  0.00    -0.167 F 
ATOM     32  F   UNL A   1      32.861  22.084  21.386  1.00  0.00    -0.167 F 
ATOM     33  F   UNL A   1      32.989  21.116  23.321  1.00  0.00    -0.167 F 
ENDBRANCH  17  30
ENDBRANCH   4   7
ENDBRANCH   2   3
ENDBRANCH   1   2
BRANCH   1  34
ATOM     34  C   UNL A   1      37.908  19.865  24.938  1.00  0.00     0.023 C 
BRANCH  34  35
ATOM     35  C   UNL A   1      39.052  20.287  25.849  1.00  0.00     0.116 C 
BRANCH  35  36
ATOM     36  N   UNL A   1      40.123  19.303  25.868  1.00  0.00    -0.352 N 
ATOM     37  C   UNL A   1      41.467  19.493  26.078  1.00  0.00     0.251 C 
ATOM     38  H   UNL A   1      39.846  18.372  25.706  1.00  0.00     0.163 HD
ATOM     39  O   UNL A   1      42.264  18.587  25.860  1.00  0.00    -0.269 OA
BRANCH  37  40
ATOM     40  C   UNL A   1      41.950  20.809  26.545  1.00  0.00     0.039 A 
ATOM     41  C   UNL A   1      42.433  21.729  25.610  1.00  0.00     0.014 A 
ATOM     42  C   UNL A   1      41.898  21.143  27.902  1.00  0.00     0.014 A 
ATOM     43  C   UNL A   1      42.794  23.012  26.029  1.00  0.00     0.010 A 
ATOM     44  C   UNL A   1      42.182  22.443  28.302  1.00  0.00     0.010 A 
ATOM     45  C   UNL A   1      42.630  23.393  27.370  1.00  0.00    -0.014 A 
BRANCH  45  46
ATOM     46  C   UNL A   1      42.912  24.778  27.828  1.00  0.00     0.031 A 
ATOM     47  C   UNL A   1      44.316  25.179  28.186  1.00  0.00     0.074 A 
ATOM     48  C   UNL A   1      41.897  25.645  28.006  1.00  0.00     0.049 A 
ATOM     49  N   UNL A   1      44.749  26.292  28.720  1.00  0.00    -0.248 NA
ATOM     50  C   UNL A   1      45.371  24.182  27.936  1.00  0.00     0.031 C 
ATOM     51  C   UNL A   1      40.486  25.369  27.729  1.00  0.00     0.029 A 
ATOM     52  N   UNL A   1      41.894  26.934  28.483  1.00  0.00    -0.354 N 
ATOM     53  C   UNL A   1      46.118  26.124  28.886  1.00  0.00     0.074 A 
ATOM     54  C   UNL A   1      46.436  24.783  28.446  1.00  0.00     0.031 C 
ATOM     55  C   UNL A   1      39.758  26.457  28.027  1.00  0.00     0.029 A 
ATOM     56  C   UNL A   1      40.639  27.490  28.562  1.00  0.00     0.049 A 
ATOM     57  H   UNL A   1      42.712  27.413  28.744  1.00  0.00     0.167 HD
ATOM     58  C   UNL A   1      47.030  27.013  29.345  1.00  0.00     0.037 A 
ATOM     59  C   UNL A   1      40.240  28.687  29.033  1.00  0.00     0.037 A 
ATOM     60  C   UNL A   1      46.712  28.353  29.764  1.00  0.00     0.049 A 
ATOM     61  C   UNL A   1      41.269  29.645  29.569  1.00  0.00     0.074 A 
ATOM     62  C   UNL A   1      47.573  29.348  30.191  1.00  0.00     0.029 A 
ATOM     63  N   UNL A   1      45.431  28.881  29.817  1.00  0.00    -0.354 N 
ATOM     64  N   UNL A   1      42.568  29.497  29.661  1.00  0.00    -0.248 NA
ATOM     65  C   UNL A   1      40.777  30.939  30.068  1.00  0.00     0.031 C 
ATOM     66  C   UNL A   1      46.808  30.458  30.559  1.00  0.00     0.029 A 
ATOM     67  C   UNL A   1      45.476  30.179  30.298  1.00  0.00     0.049 A 
ATOM     68  H   UNL A   1      44.611  28.404  29.551  1.00  0.00     0.167 HD
ATOM     69  C   UNL A   1      43.052  30.687  30.191  1.00  0.00     0.074 A 
ATOM     70  C   UNL A   1      41.908  31.550  30.395  1.00  0.00     0.031 C 
ATOM     71  C   UNL A   1      44.330  31.034  30.479  1.00  0.00     0.037 A 
BRANCH  58  72
ATOM     72  C   UNL A   1      48.462  26.564  29.422  1.00  0.00     0.057 A 
ATOM     73  C   UNL A   1      48.972  25.898  30.544  1.00  0.00     0.134 A 
ATOM     74  C   UNL A   1      49.332  26.766  28.343  1.00  0.00     0.134 A 
ATOM     75  F   UNL A   1      48.196  25.681  31.617  1.00  0.00    -0.206 F 
ATOM     76  C   UNL A   1      50.302  25.477  30.603  1.00  0.00     0.040 A 
ATOM     77  C   UNL A   1      50.654  26.321  28.376  1.00  0.00     0.040 A 
ATOM     78  F   UNL A   1      48.908  27.389  27.232  1.00  0.00    -0.206 F 
ATOM     79  C   UNL A   1      51.145  25.682  29.513  1.00  0.00     0.006 A 
ENDBRANCH  58  72
BRANCH  59  80
ATOM     80  C   UNL A   1      38.800  29.054  29.016  1.00  0.00     0.057 A 
ATOM     81  C   UNL A   1      38.201  29.578  27.864  1.00  0.00     0.134 A 
ATOM     82  C   UNL A   1      37.992  28.903  30.149  1.00  0.00     0.134 A 
ATOM     83  F   UNL A   1      38.926  29.763  26.751  1.00  0.00    -0.206 F 
ATOM     84  C   UNL A   1      36.858  29.960  27.845  1.00  0.00     0.040 A 
ATOM     85  C   UNL A   1      36.640  29.253  30.137  1.00  0.00     0.040 A 
ATOM     86  F   UNL A   1      38.501  28.400  31.283  1.00  0.00    -0.206 F 
ATOM     87  C   UNL A   1      36.072  29.793  28.985  1.00  0.00     0.006 A 
ENDBRANCH  59  80
BRANCH  71  88
ATOM     88  C   UNL A   1      44.576  32.422  30.997  1.00  0.00     0.057 A 
ATOM     89  C   UNL A   1      44.641  32.703  32.367  1.00  0.00     0.134 A 
ATOM     90  C   UNL A   1      44.821  33.476  30.107  1.00  0.00     0.134 A 
ATOM     91  F   UNL A   1      44.405  31.743  33.272  1.00  0.00    -0.206 F 
ATOM     92  C   UNL A   1      44.929  33.988  32.833  1.00  0.00     0.040 A 
ATOM     93  C   UNL A   1      45.138  34.756  30.561  1.00  0.00     0.040 A 
ATOM     94  F   UNL A   1      44.783  33.272  28.782  1.00  0.00    -0.206 F 
ATOM     95  C   UNL A   1      45.189  35.016  31.928  1.00  0.00     0.006 A 
ENDBRANCH  71  88
ENDBRANCH  45  46
ENDBRANCH  37  40
ENDBRANCH  35  36
ENDBRANCH  34  35
ENDBRANCH   1  34
TORSDOF 15
ENDMDL
