MODEL 1
REMARK VINA RESULT:     -11.5      0.000      0.000
REMARK SMILES CC1(C)COCCN1C(=O)N1CCO[C@@H](CC(=O)NCCCCNC(=O)c2ccc(-c3c4nc(c(-c5c(F)cccc5F)c5ccc([nH]5)c(-c5c(F)cccc5F)c5nc(c(-c6c(F)cccc6F)c6ccc3[nH]6)C=C5)C=C4)cc2)C1
REMARK SMILES IDX 21 1 20 2 19 3 17 4 18 5 16 7 15 8 11 9 12 10 81 11 13 12
REMARK SMILES IDX 14 13 9 14 10 15 8 16 1 17 2 18 3 19 4 20 5 21 7 22 6 23
REMARK SMILES IDX 22 24 23 25 24 26 25 27 26 29 27 30 28 31 80 32 29 33 79 34
REMARK SMILES IDX 30 35 31 36 32 37 73 38 33 39 78 40 72 41 74 42 34 43 77 44
REMARK SMILES IDX 71 45 70 46 35 48 61 49 44 50 60 51 45 52 48 53 59 54 75 55
REMARK SMILES IDX 46 56 47 57 58 59 76 60 49 61 36 62 37 63 42 64 38 65 39 66
REMARK SMILES IDX 41 67 43 68 40 69 62 70 63 71 68 72 64 73 65 74 67 75 69 76
REMARK SMILES IDX 66 77 50 78 51 79 56 80 52 81 53 82 55 83 57 84 54 85
REMARK H PARENT 19 6 24 28 74 47 48 58
REMARK Flexibility Score: inf
ROOT
ATOM      1  C   UNL A   1      36.333  20.857  25.334  1.00  0.00     0.023 C 
ENDROOT
BRANCH   1   2
ATOM      2  C   UNL A   1      35.104  20.093  24.816  1.00  0.00     0.116 C 
BRANCH   2   3
ATOM      3  N   UNL A   1      33.991  20.189  25.763  1.00  0.00    -0.356 N 
ATOM      4  C   UNL A   1      32.698  20.317  25.351  1.00  0.00     0.222 C 
ATOM      5  O   UNL A   1      32.048  19.285  25.159  1.00  0.00    -0.275 OA
ATOM      6  H   UNL A   1      34.184  20.161  26.729  1.00  0.00     0.163 HD
BRANCH   4   7
ATOM      7  C   UNL A   1      32.003  21.674  25.319  1.00  0.00     0.133 C 
BRANCH   7   8
ATOM      8  C   UNL A   1      32.350  22.830  26.260  1.00  0.00     0.147 C 
ATOM      9  N   UNL A   1      31.282  24.718  25.081  1.00  0.00    -0.320 N 
ATOM     10  C   UNL A   1      30.249  24.830  26.109  1.00  0.00     0.150 C 
ATOM     11  C   UNL A   1      32.515  24.223  25.670  1.00  0.00     0.154 C 
ATOM     12  C   UNL A   1      30.106  23.514  26.905  1.00  0.00     0.182 C 
ATOM     13  O   UNL A   1      31.362  22.931  27.324  1.00  0.00    -0.374 OA
BRANCH   9  14
ATOM     14  C   UNL A   1      31.421  25.708  24.132  1.00  0.00     0.320 C 
ATOM     15  O   UNL A   1      30.557  25.828  23.259  1.00  0.00    -0.248 OA
BRANCH  14  16
ATOM     16  N   UNL A   1      32.465  26.614  24.254  1.00  0.00    -0.315 N 
ATOM     17  C   UNL A   1      33.935  27.698  25.966  1.00  0.00     0.037 C 
ATOM     18  C   UNL A   1      32.633  27.822  25.147  1.00  0.00     0.062 C 
ATOM     19  C   UNL A   1      31.512  28.115  26.138  1.00  0.00     0.037 C 
ATOM     20  C   UNL A   1      32.719  29.076  24.223  1.00  0.00     0.188 C 
ATOM     21  O   UNL A   1      33.822  28.987  23.313  1.00  0.00    -0.377 OA
ATOM     22  C   UNL A   1      33.501  26.542  23.199  1.00  0.00     0.150 C 
ATOM     23  C   UNL A   1      33.661  27.867  22.439  1.00  0.00     0.182 C 
ENDBRANCH  14  16
ENDBRANCH   9  14
ENDBRANCH   7   8
ENDBRANCH   4   7
ENDBRANCH   2   3
ENDBRANCH   1   2
BRANCH   1  24
ATOM     24  C   UNL A   1      37.671  20.310  24.835  1.00  0.00     0.023 C 
BRANCH  24  25
ATOM     25  C   UNL A   1      38.840  20.565  25.779  1.00  0.00     0.116 C 
BRANCH  25  26
ATOM     26  N   UNL A   1      39.863  19.533  25.759  1.00  0.00    -0.352 N 
ATOM     27  C   UNL A   1      41.199  19.609  26.087  1.00  0.00     0.251 C 
ATOM     28  H   UNL A   1      39.555  18.644  25.467  1.00  0.00     0.163 HD
ATOM     29  O   UNL A   1      41.948  18.650  25.917  1.00  0.00    -0.269 OA
BRANCH  27  30
ATOM     30  C   UNL A   1      41.754  20.874  26.619  1.00  0.00     0.039 A 
ATOM     31  C   UNL A   1      42.240  21.831  25.726  1.00  0.00     0.014 A 
ATOM     32  C   UNL A   1      41.773  21.125  27.993  1.00  0.00     0.014 A 
ATOM     33  C   UNL A   1      42.641  23.083  26.203  1.00  0.00     0.010 A 
ATOM     34  C   UNL A   1      42.091  22.399  28.458  1.00  0.00     0.010 A 
ATOM     35  C   UNL A   1      42.514  23.396  27.567  1.00  0.00    -0.014 A 
BRANCH  35  36
ATOM     36  C   UNL A   1      42.792  24.767  28.072  1.00  0.00     0.031 A 
ATOM     37  C   UNL A   1      44.187  25.165  28.466  1.00  0.00     0.074 A 
ATOM     38  C   UNL A   1      41.775  25.634  28.243  1.00  0.00     0.049 A 
ATOM     39  N   UNL A   1      44.611  26.293  28.979  1.00  0.00    -0.248 NA
ATOM     40  C   UNL A   1      45.240  24.154  28.283  1.00  0.00     0.031 C 
ATOM     41  C   UNL A   1      40.367  25.357  27.951  1.00  0.00     0.029 A 
ATOM     42  N   UNL A   1      41.767  26.925  28.712  1.00  0.00    -0.354 N 
ATOM     43  C   UNL A   1      45.973  26.122  29.193  1.00  0.00     0.074 A 
ATOM     44  C   UNL A   1      46.293  24.764  28.807  1.00  0.00     0.031 C 
ATOM     45  C   UNL A   1      39.638  26.453  28.215  1.00  0.00     0.029 A 
ATOM     46  C   UNL A   1      40.518  27.497  28.730  1.00  0.00     0.049 A 
ATOM     47  H   UNL A   1      42.580  27.395  29.007  1.00  0.00     0.167 HD
ATOM     48  C   UNL A   1      46.881  27.020  29.644  1.00  0.00     0.037 A 
ATOM     49  C   UNL A   1      40.125  28.726  29.119  1.00  0.00     0.037 A 
ATOM     50  C   UNL A   1      46.568  28.377  30.008  1.00  0.00     0.049 A 
ATOM     51  C   UNL A   1      41.149  29.703  29.624  1.00  0.00     0.074 A 
ATOM     52  C   UNL A   1      47.429  29.380  30.421  1.00  0.00     0.029 A 
ATOM     53  N   UNL A   1      45.293  28.922  30.001  1.00  0.00    -0.354 N 
ATOM     54  N   UNL A   1      42.444  29.549  29.756  1.00  0.00    -0.248 NA
ATOM     55  C   UNL A   1      40.656  31.027  30.031  1.00  0.00     0.031 C 
ATOM     56  C   UNL A   1      46.669  30.520  30.702  1.00  0.00     0.029 A 
ATOM     57  C   UNL A   1      45.341  30.241  30.423  1.00  0.00     0.049 A 
ATOM     58  H   UNL A   1      44.475  28.442  29.737  1.00  0.00     0.167 HD
ATOM     59  C   UNL A   1      42.924  30.761  30.233  1.00  0.00     0.074 A 
ATOM     60  C   UNL A   1      41.783  31.644  30.359  1.00  0.00     0.031 C 
ATOM     61  C   UNL A   1      44.198  31.111  30.536  1.00  0.00     0.037 A 
BRANCH  48  62
ATOM     62  C   UNL A   1      48.303  26.556  29.764  1.00  0.00     0.057 A 
ATOM     63  C   UNL A   1      48.771  25.906  30.914  1.00  0.00     0.134 A 
ATOM     64  C   UNL A   1      49.212  26.749  28.716  1.00  0.00     0.134 A 
ATOM     65  F   UNL A   1      47.954  25.700  31.959  1.00  0.00    -0.206 F 
ATOM     66  C   UNL A   1      50.100  25.495  31.032  1.00  0.00     0.040 A 
ATOM     67  C   UNL A   1      50.536  26.318  28.811  1.00  0.00     0.040 A 
ATOM     68  F   UNL A   1      48.828  27.357  27.584  1.00  0.00    -0.206 F 
ATOM     69  C   UNL A   1      50.986  25.697  29.975  1.00  0.00     0.006 A 
ENDBRANCH  48  62
BRANCH  49  70
ATOM     70  C   UNL A   1      38.697  29.116  29.010  1.00  0.00     0.057 A 
ATOM     71  C   UNL A   1      37.848  29.047  30.122  1.00  0.00     0.134 A 
ATOM     72  C   UNL A   1      38.146  29.565  27.805  1.00  0.00     0.134 A 
ATOM     73  F   UNL A   1      38.313  28.605  31.299  1.00  0.00    -0.206 F 
ATOM     74  C   UNL A   1      36.500  29.395  30.036  1.00  0.00     0.040 A 
ATOM     75  C   UNL A   1      36.805  29.938  27.709  1.00  0.00     0.040 A 
ATOM     76  F   UNL A   1      38.909  29.661  26.706  1.00  0.00    -0.206 F 
ATOM     77  C   UNL A   1      35.976  29.849  28.826  1.00  0.00     0.006 A 
ENDBRANCH  49  70
BRANCH  61  78
ATOM     78  C   UNL A   1      44.433  32.518  31.000  1.00  0.00     0.057 A 
ATOM     79  C   UNL A   1      44.671  33.563  30.098  1.00  0.00     0.134 A 
ATOM     80  C   UNL A   1      44.374  32.838  32.362  1.00  0.00     0.134 A 
ATOM     81  F   UNL A   1      44.753  33.319  28.782  1.00  0.00    -0.206 F 
ATOM     82  C   UNL A   1      44.859  34.875  30.538  1.00  0.00     0.040 A 
ATOM     83  C   UNL A   1      44.537  34.148  32.811  1.00  0.00     0.040 A 
ATOM     84  F   UNL A   1      44.143  31.884  33.277  1.00  0.00    -0.206 F 
ATOM     85  C   UNL A   1      44.784  35.172  31.897  1.00  0.00     0.006 A 
ENDBRANCH  61  78
ENDBRANCH  35  36
ENDBRANCH  27  30
ENDBRANCH  25  26
ENDBRANCH  24  25
ENDBRANCH   1  24
TORSDOF 14
ENDMDL
MODEL 2
REMARK VINA RESULT:     -11.5      1.714      2.285
REMARK SMILES CC1(C)COCCN1C(=O)N1CCO[C@@H](CC(=O)NCCCCNC(=O)c2ccc(-c3c4nc(c(-c5c(F)cccc5F)c5ccc([nH]5)c(-c5c(F)cccc5F)c5nc(c(-c6c(F)cccc6F)c6ccc3[nH]6)C=C5)C=C4)cc2)C1
REMARK SMILES IDX 21 1 20 2 19 3 17 4 18 5 16 7 15 8 11 9 12 10 81 11 13 12
REMARK SMILES IDX 14 13 9 14 10 15 8 16 1 17 2 18 3 19 4 20 5 21 7 22 6 23
REMARK SMILES IDX 22 24 23 25 24 26 25 27 26 29 27 30 28 31 80 32 29 33 79 34
REMARK SMILES IDX 30 35 31 36 32 37 73 38 33 39 78 40 72 41 74 42 34 43 77 44
REMARK SMILES IDX 71 45 70 46 35 48 61 49 44 50 60 51 45 52 48 53 59 54 75 55
REMARK SMILES IDX 46 56 47 57 58 59 76 60 49 61 36 62 37 63 42 64 38 65 39 66
REMARK SMILES IDX 41 67 43 68 40 69 62 70 63 71 68 72 64 73 65 74 67 75 69 76
REMARK SMILES IDX 66 77 50 78 51 79 56 80 52 81 53 82 55 83 57 84 54 85
REMARK H PARENT 19 6 24 28 74 47 48 58
REMARK Flexibility Score: inf
ROOT
ATOM      1  C   UNL A   1      36.508  20.891  25.168  1.00  0.00     0.023 C 
ENDROOT
BRANCH   1   2
ATOM      2  C   UNL A   1      36.336  21.970  24.088  1.00  0.00     0.116 C 
BRANCH   2   3
ATOM      3  N   UNL A   1      34.920  22.281  23.880  1.00  0.00    -0.356 N 
ATOM      4  C   UNL A   1      34.513  23.408  23.231  1.00  0.00     0.222 C 
ATOM      5  O   UNL A   1      34.367  23.349  22.006  1.00  0.00    -0.275 OA
ATOM      6  H   UNL A   1      34.240  21.655  24.221  1.00  0.00     0.163 HD
BRANCH   4   7
ATOM      7  C   UNL A   1      34.055  24.646  23.994  1.00  0.00     0.133 C 
BRANCH   7   8
ATOM      8  C   UNL A   1      34.079  24.761  25.521  1.00  0.00     0.147 C 
ATOM      9  N   UNL A   1      32.009  26.046  25.917  1.00  0.00    -0.320 N 
ATOM     10  C   UNL A   1      31.347  24.880  26.499  1.00  0.00     0.150 C 
ATOM     11  C   UNL A   1      33.439  25.979  26.169  1.00  0.00     0.154 C 
ATOM     12  C   UNL A   1      32.025  23.568  26.049  1.00  0.00     0.182 C 
ATOM     13  O   UNL A   1      33.469  23.586  26.127  1.00  0.00    -0.374 OA
BRANCH   9  14
ATOM     14  C   UNL A   1      31.435  27.294  26.030  1.00  0.00     0.320 C 
ATOM     15  O   UNL A   1      31.031  27.672  27.134  1.00  0.00    -0.248 OA
BRANCH  14  16
ATOM     16  N   UNL A   1      31.432  28.135  24.927  1.00  0.00    -0.315 N 
ATOM     17  C   UNL A   1      29.891  29.484  23.488  1.00  0.00     0.037 C 
ATOM     18  C   UNL A   1      30.595  28.122  23.668  1.00  0.00     0.062 C 
ATOM     19  C   UNL A   1      29.517  27.048  23.561  1.00  0.00     0.037 C 
ATOM     20  C   UNL A   1      31.559  27.874  22.468  1.00  0.00     0.188 C 
ATOM     21  O   UNL A   1      32.560  28.896  22.375  1.00  0.00    -0.377 OA
ATOM     22  C   UNL A   1      32.572  29.076  24.837  1.00  0.00     0.150 C 
ATOM     23  C   UNL A   1      33.383  28.898  23.545  1.00  0.00     0.182 C 
ENDBRANCH  14  16
ENDBRANCH   9  14
ENDBRANCH   7   8
ENDBRANCH   4   7
ENDBRANCH   2   3
ENDBRANCH   1   2
BRANCH   1  24
ATOM     24  C   UNL A   1      37.667  19.926  24.915  1.00  0.00     0.023 C 
BRANCH  24  25
ATOM     25  C   UNL A   1      38.950  20.284  25.655  1.00  0.00     0.116 C 
BRANCH  25  26
ATOM     26  N   UNL A   1      39.910  19.197  25.751  1.00  0.00    -0.352 N 
ATOM     27  C   UNL A   1      41.256  19.233  26.043  1.00  0.00     0.251 C 
ATOM     28  H   UNL A   1      39.543  18.299  25.582  1.00  0.00     0.163 HD
ATOM     29  O   UNL A   1      41.943  18.216  25.986  1.00  0.00    -0.269 OA
BRANCH  27  30
ATOM     30  C   UNL A   1      41.897  20.518  26.398  1.00  0.00     0.039 A 
ATOM     31  C   UNL A   1      42.328  21.367  25.376  1.00  0.00     0.014 A 
ATOM     32  C   UNL A   1      42.052  20.897  27.734  1.00  0.00     0.014 A 
ATOM     33  C   UNL A   1      42.810  22.641  25.691  1.00  0.00     0.010 A 
ATOM     34  C   UNL A   1      42.451  22.196  28.041  1.00  0.00     0.010 A 
ATOM     35  C   UNL A   1      42.820  23.087  27.023  1.00  0.00    -0.014 A 
BRANCH  35  36
ATOM     36  C   UNL A   1      43.187  24.487  27.365  1.00  0.00     0.031 A 
ATOM     37  C   UNL A   1      44.624  24.926  27.338  1.00  0.00     0.074 A 
ATOM     38  C   UNL A   1      42.231  25.347  27.769  1.00  0.00     0.049 A 
ATOM     39  N   UNL A   1      45.140  26.086  27.659  1.00  0.00    -0.248 NA
ATOM     40  C   UNL A   1      45.615  23.923  26.920  1.00  0.00     0.031 C 
ATOM     41  C   UNL A   1      40.806  25.034  27.892  1.00  0.00     0.029 A 
ATOM     42  N   UNL A   1      42.315  26.661  28.160  1.00  0.00    -0.354 N 
ATOM     43  C   UNL A   1      46.513  25.947  27.495  1.00  0.00     0.074 A 
ATOM     44  C   UNL A   1      46.753  24.576  27.102  1.00  0.00     0.031 C 
ATOM     45  C   UNL A   1      40.147  26.132  28.295  1.00  0.00     0.029 A 
ATOM     46  C   UNL A   1      41.104  27.215  28.496  1.00  0.00     0.049 A 
ATOM     47  H   UNL A   1      43.164  27.158  28.196  1.00  0.00     0.167 HD
ATOM     48  C   UNL A   1      47.483  26.882  27.634  1.00  0.00     0.037 A 
ATOM     49  C   UNL A   1      40.798  28.456  28.918  1.00  0.00     0.037 A 
ATOM     50  C   UNL A   1      47.243  28.252  28.004  1.00  0.00     0.049 A 
ATOM     51  C   UNL A   1      41.892  29.475  29.074  1.00  0.00     0.074 A 
ATOM     52  C   UNL A   1      48.155  29.288  28.114  1.00  0.00     0.029 A 
ATOM     53  N   UNL A   1      46.001  28.777  28.325  1.00  0.00    -0.354 N 
ATOM     54  N   UNL A   1      43.177  29.347  28.849  1.00  0.00    -0.248 NA
ATOM     55  C   UNL A   1      41.492  30.811  29.537  1.00  0.00     0.031 C 
ATOM     56  C   UNL A   1      47.469  30.431  28.540  1.00  0.00     0.029 A 
ATOM     57  C   UNL A   1      46.124  30.117  28.654  1.00  0.00     0.049 A 
ATOM     58  H   UNL A   1      45.156  28.271  28.321  1.00  0.00     0.167 HD
ATOM     59  C   UNL A   1      43.734  30.590  29.116  1.00  0.00     0.074 A 
ATOM     60  C   UNL A   1      42.647  31.462  29.510  1.00  0.00     0.031 C 
ATOM     61  C   UNL A   1      45.032  30.975  29.037  1.00  0.00     0.037 A 
BRANCH  48  62
ATOM     62  C   UNL A   1      48.896  26.446  27.378  1.00  0.00     0.057 A 
ATOM     63  C   UNL A   1      49.716  25.965  28.407  1.00  0.00     0.134 A 
ATOM     64  C   UNL A   1      49.439  26.495  26.088  1.00  0.00     0.134 A 
ATOM     65  F   UNL A   1      49.261  25.904  29.667  1.00  0.00    -0.206 F 
ATOM     66  C   UNL A   1      51.038  25.582  28.170  1.00  0.00     0.040 A 
ATOM     67  C   UNL A   1      50.750  26.088  25.833  1.00  0.00     0.040 A 
ATOM     68  F   UNL A   1      48.706  26.937  25.055  1.00  0.00    -0.206 F 
ATOM     69  C   UNL A   1      51.556  25.638  26.878  1.00  0.00     0.006 A 
ENDBRANCH  48  62
BRANCH  49  70
ATOM     70  C   UNL A   1      39.384  28.819  29.191  1.00  0.00     0.057 A 
ATOM     71  C   UNL A   1      38.578  29.369  28.188  1.00  0.00     0.134 A 
ATOM     72  C   UNL A   1      38.805  28.625  30.450  1.00  0.00     0.134 A 
ATOM     73  F   UNL A   1      39.083  29.597  26.967  1.00  0.00    -0.206 F 
ATOM     74  C   UNL A   1      37.251  29.729  28.429  1.00  0.00     0.040 A 
ATOM     75  C   UNL A   1      37.473  28.959  30.701  1.00  0.00     0.040 A 
ATOM     76  F   UNL A   1      39.522  28.095  31.452  1.00  0.00    -0.206 F 
ATOM     77  C   UNL A   1      36.693  29.518  29.689  1.00  0.00     0.006 A 
ENDBRANCH  49  70
BRANCH  61  78
ATOM     78  C   UNL A   1      45.345  32.408  29.350  1.00  0.00     0.057 A 
ATOM     79  C   UNL A   1      45.288  33.407  28.369  1.00  0.00     0.134 A 
ATOM     80  C   UNL A   1      45.660  32.799  30.657  1.00  0.00     0.134 A 
ATOM     81  F   UNL A   1      45.005  33.094  27.096  1.00  0.00    -0.206 F 
ATOM     82  C   UNL A   1      45.552  34.743  28.677  1.00  0.00     0.040 A 
ATOM     83  C   UNL A   1      45.902  34.134  30.980  1.00  0.00     0.040 A 
ATOM     84  F   UNL A   1      45.724  31.892  31.643  1.00  0.00    -0.206 F 
ATOM     85  C   UNL A   1      45.852  35.111  29.987  1.00  0.00     0.006 A 
ENDBRANCH  61  78
ENDBRANCH  35  36
ENDBRANCH  27  30
ENDBRANCH  25  26
ENDBRANCH  24  25
ENDBRANCH   1  24
TORSDOF 14
ENDMDL
MODEL 3
REMARK VINA RESULT:     -11.5      4.032      9.420
REMARK SMILES CC1(C)COCCN1C(=O)N1CCO[C@@H](CC(=O)NCCCCNC(=O)c2ccc(-c3c4nc(c(-c5c(F)cccc5F)c5ccc([nH]5)c(-c5c(F)cccc5F)c5nc(c(-c6c(F)cccc6F)c6ccc3[nH]6)C=C5)C=C4)cc2)C1
REMARK SMILES IDX 21 1 20 2 19 3 17 4 18 5 16 7 15 8 11 9 12 10 81 11 13 12
REMARK SMILES IDX 14 13 9 14 10 15 8 16 1 17 2 18 3 19 4 20 5 21 7 22 6 23
REMARK SMILES IDX 22 24 23 25 24 26 25 27 26 29 27 30 28 31 80 32 29 33 79 34
REMARK SMILES IDX 30 35 31 36 32 37 73 38 33 39 78 40 72 41 74 42 34 43 77 44
REMARK SMILES IDX 71 45 70 46 35 48 61 49 44 50 60 51 45 52 48 53 59 54 75 55
REMARK SMILES IDX 46 56 47 57 58 59 76 60 49 61 36 62 37 63 42 64 38 65 39 66
REMARK SMILES IDX 41 67 43 68 40 69 62 70 63 71 68 72 64 73 65 74 67 75 69 76
REMARK SMILES IDX 66 77 50 78 51 79 56 80 52 81 53 82 55 83 57 84 54 85
REMARK H PARENT 19 6 24 28 74 47 48 58
REMARK Flexibility Score: inf
ROOT
ATOM      1  C   UNL A   1      31.881  30.558  26.304  1.00  0.00     0.023 C 
ENDROOT
BRANCH   1   2
ATOM      2  C   UNL A   1      31.559  29.414  27.278  1.00  0.00     0.116 C 
BRANCH   2   3
ATOM      3  N   UNL A   1      32.766  28.654  27.610  1.00  0.00    -0.356 N 
ATOM      4  C   UNL A   1      33.858  28.635  26.794  1.00  0.00     0.222 C 
ATOM      5  O   UNL A   1      34.722  29.501  26.964  1.00  0.00    -0.275 OA
ATOM      6  H   UNL A   1      32.790  28.141  28.450  1.00  0.00     0.163 HD
BRANCH   4   7
ATOM      7  C   UNL A   1      34.116  27.477  25.836  1.00  0.00     0.133 C 
BRANCH   7   8
ATOM      8  C   UNL A   1      33.355  27.274  24.523  1.00  0.00     0.147 C 
ATOM      9  N   UNL A   1      33.409  24.812  24.339  1.00  0.00    -0.320 N 
ATOM     10  C   UNL A   1      31.977  24.719  24.621  1.00  0.00     0.150 C 
ATOM     11  C   UNL A   1      33.699  26.066  23.664  1.00  0.00     0.154 C 
ATOM     12  C   UNL A   1      31.465  25.982  25.347  1.00  0.00     0.182 C 
ATOM     13  O   UNL A   1      31.922  27.228  24.771  1.00  0.00    -0.374 OA
BRANCH   9  14
ATOM     14  C   UNL A   1      34.095  23.708  23.884  1.00  0.00     0.320 C 
ATOM     15  O   UNL A   1      34.484  23.684  22.712  1.00  0.00    -0.248 OA
BRANCH  14  16
ATOM     16  N   UNL A   1      34.433  22.708  24.784  1.00  0.00    -0.315 N 
ATOM     17  C   UNL A   1      35.142  20.309  24.879  1.00  0.00     0.037 C 
ATOM     18  C   UNL A   1      33.945  21.283  24.916  1.00  0.00     0.062 C 
ATOM     19  C   UNL A   1      32.942  20.793  23.877  1.00  0.00     0.037 C 
ATOM     20  C   UNL A   1      33.221  21.163  26.292  1.00  0.00     0.188 C 
ATOM     21  O   UNL A   1      34.100  21.479  27.380  1.00  0.00    -0.377 OA
ATOM     22  C   UNL A   1      35.235  23.141  25.951  1.00  0.00     0.150 C 
ATOM     23  C   UNL A   1      34.544  22.836  27.287  1.00  0.00     0.182 C 
ENDBRANCH  14  16
ENDBRANCH   9  14
ENDBRANCH   7   8
ENDBRANCH   4   7
ENDBRANCH   2   3
ENDBRANCH   1   2
BRANCH   1  24
ATOM     24  C   UNL A   1      31.515  31.948  26.824  1.00  0.00     0.023 C 
BRANCH  24  25
ATOM     25  C   UNL A   1      32.712  32.791  27.245  1.00  0.00     0.116 C 
BRANCH  25  26
ATOM     26  N   UNL A   1      32.378  34.147  27.651  1.00  0.00    -0.352 N 
ATOM     27  C   UNL A   1      32.978  34.959  28.587  1.00  0.00     0.251 C 
ATOM     28  H   UNL A   1      31.607  34.545  27.185  1.00  0.00     0.163 HD
ATOM     29  O   UNL A   1      32.500  36.054  28.874  1.00  0.00    -0.269 OA
BRANCH  27  30
ATOM     30  C   UNL A   1      34.198  34.499  29.287  1.00  0.00     0.039 A 
ATOM     31  C   UNL A   1      34.081  33.953  30.567  1.00  0.00     0.014 A 
ATOM     32  C   UNL A   1      35.451  34.584  28.675  1.00  0.00     0.014 A 
ATOM     33  C   UNL A   1      35.202  33.389  31.185  1.00  0.00     0.010 A 
ATOM     34  C   UNL A   1      36.547  33.947  29.253  1.00  0.00     0.010 A 
ATOM     35  C   UNL A   1      36.431  33.330  30.507  1.00  0.00    -0.014 A 
BRANCH  35  36
ATOM     36  C   UNL A   1      37.594  32.605  31.083  1.00  0.00     0.031 A 
ATOM     37  C   UNL A   1      38.240  33.086  32.352  1.00  0.00     0.074 A 
ATOM     38  C   UNL A   1      38.116  31.551  30.425  1.00  0.00     0.049 A 
ATOM     39  N   UNL A   1      39.295  32.619  32.971  1.00  0.00    -0.248 NA
ATOM     40  C   UNL A   1      37.637  34.263  32.996  1.00  0.00     0.031 C 
ATOM     41  C   UNL A   1      37.619  31.014  29.156  1.00  0.00     0.029 A 
ATOM     42  N   UNL A   1      39.186  30.745  30.727  1.00  0.00    -0.354 N 
ATOM     43  C   UNL A   1      39.489  33.451  34.067  1.00  0.00     0.074 A 
ATOM     44  C   UNL A   1      38.478  34.484  33.995  1.00  0.00     0.031 C 
ATOM     45  C   UNL A   1      38.360  29.951  28.807  1.00  0.00     0.029 A 
ATOM     46  C   UNL A   1      39.407  29.752  29.804  1.00  0.00     0.049 A 
ATOM     47  H   UNL A   1      39.742  30.869  31.530  1.00  0.00     0.167 HD
ATOM     48  C   UNL A   1      40.408  33.351  35.057  1.00  0.00     0.037 A 
ATOM     49  C   UNL A   1      40.347  28.789  29.765  1.00  0.00     0.037 A 
ATOM     50  C   UNL A   1      41.400  32.312  35.141  1.00  0.00     0.049 A 
ATOM     51  C   UNL A   1      41.362  28.701  30.870  1.00  0.00     0.074 A 
ATOM     52  C   UNL A   1      42.337  32.092  36.137  1.00  0.00     0.029 A 
ATOM     53  N   UNL A   1      41.584  31.317  34.192  1.00  0.00    -0.354 N 
ATOM     54  N   UNL A   1      41.490  29.455  31.935  1.00  0.00    -0.248 NA
ATOM     55  C   UNL A   1      42.361  27.627  30.769  1.00  0.00     0.031 C 
ATOM     56  C   UNL A   1      43.114  30.987  35.770  1.00  0.00     0.029 A 
ATOM     57  C   UNL A   1      42.633  30.494  34.568  1.00  0.00     0.049 A 
ATOM     58  H   UNL A   1      41.049  31.213  33.373  1.00  0.00     0.167 HD
ATOM     59  C   UNL A   1      42.562  28.931  32.644  1.00  0.00     0.074 A 
ATOM     60  C   UNL A   1      43.045  27.790  31.894  1.00  0.00     0.031 C 
ATOM     61  C   UNL A   1      43.097  29.356  33.815  1.00  0.00     0.037 A 
BRANCH  48  62
ATOM     62  C   UNL A   1      40.374  34.397  36.132  1.00  0.00     0.057 A 
ATOM     63  C   UNL A   1      39.606  34.235  37.293  1.00  0.00     0.134 A 
ATOM     64  C   UNL A   1      41.124  35.573  36.013  1.00  0.00     0.134 A 
ATOM     65  F   UNL A   1      38.855  33.137  37.464  1.00  0.00    -0.206 F 
ATOM     66  C   UNL A   1      39.558  35.220  38.282  1.00  0.00     0.040 A 
ATOM     67  C   UNL A   1      41.106  36.554  37.007  1.00  0.00     0.040 A 
ATOM     68  F   UNL A   1      41.887  35.789  34.931  1.00  0.00    -0.206 F 
ATOM     69  C   UNL A   1      40.315  36.382  38.141  1.00  0.00     0.006 A 
ENDBRANCH  48  62
BRANCH  49  70
ATOM     70  C   UNL A   1      40.352  27.802  28.655  1.00  0.00     0.057 A 
ATOM     71  C   UNL A   1      39.640  26.602  28.759  1.00  0.00     0.134 A 
ATOM     72  C   UNL A   1      41.062  28.031  27.471  1.00  0.00     0.134 A 
ATOM     73  F   UNL A   1      38.957  26.318  29.878  1.00  0.00    -0.206 F 
ATOM     74  C   UNL A   1      39.644  25.657  27.732  1.00  0.00     0.040 A 
ATOM     75  C   UNL A   1      41.057  27.105  26.426  1.00  0.00     0.040 A 
ATOM     76  F   UNL A   1      41.758  29.166  27.307  1.00  0.00    -0.206 F 
ATOM     77  C   UNL A   1      40.351  25.911  26.558  1.00  0.00     0.006 A 
ENDBRANCH  49  70
BRANCH  61  78
ATOM     78  C   UNL A   1      44.241  28.565  34.377  1.00  0.00     0.057 A 
ATOM     79  C   UNL A   1      44.035  27.451  35.200  1.00  0.00     0.134 A 
ATOM     80  C   UNL A   1      45.562  28.896  34.051  1.00  0.00     0.134 A 
ATOM     81  F   UNL A   1      42.794  27.092  35.559  1.00  0.00    -0.206 F 
ATOM     82  C   UNL A   1      45.106  26.703  35.693  1.00  0.00     0.040 A 
ATOM     83  C   UNL A   1      46.639  28.142  34.519  1.00  0.00     0.040 A 
ATOM     84  F   UNL A   1      45.827  29.948  33.262  1.00  0.00    -0.206 F 
ATOM     85  C   UNL A   1      46.412  27.043  35.346  1.00  0.00     0.006 A 
ENDBRANCH  61  78
ENDBRANCH  35  36
ENDBRANCH  27  30
ENDBRANCH  25  26
ENDBRANCH  24  25
ENDBRANCH   1  24
TORSDOF 14
ENDMDL
