MODEL 1
REMARK VINA RESULT:     -11.9      0.000      0.000
REMARK SMILES C=C(C)COc1ccc2c(C)c(CC(=O)NCCCCNC(=O)c3ccc(-c4c5nc(c(-c6c(F)cccc6F)c6ccc([nH]6)c(-c6c(F)cccc6F)c6nc(c(-c7c(F)cccc7F)c7ccc4[nH]7)C=C6)C=C5)cc3)c(=O)oc2c1
REMARK SMILES IDX 17 1 16 2 14 3 15 4 13 6 12 7 6 8 7 9 82 10 8 11 81 12 9 13
REMARK SMILES IDX 80 14 10 15 78 16 11 17 79 18 5 19 4 20 2 21 1 22 3 23 18 24
REMARK SMILES IDX 19 25 20 26 21 27 22 28 23 30 24 31 25 32 77 33 26 34 76 35
REMARK SMILES IDX 27 36 28 37 29 38 70 39 30 40 75 41 69 42 71 43 31 44 74 45
REMARK SMILES IDX 68 46 67 47 32 49 58 50 41 51 57 52 42 53 45 54 56 55 72 56
REMARK SMILES IDX 43 57 44 58 55 60 73 61 46 62 33 63 34 64 39 65 35 66 36 67
REMARK SMILES IDX 38 68 40 69 37 70 59 71 60 72 65 73 61 74 62 75 64 76 66 77
REMARK SMILES IDX 63 78 47 79 48 80 53 81 49 82 50 83 52 84 54 85 51 86
REMARK H PARENT 16 5 21 29 71 48 45 59
REMARK Flexibility Score: inf
ROOT
ATOM      1  C   UNL A   1      35.793  21.388  25.707  1.00  0.00     0.116 C 
ENDROOT
BRANCH   1   2
ATOM      2  N   UNL A   1      34.439  21.094  25.282  1.00  0.00    -0.356 N 
ATOM      3  C   UNL A   1      33.251  21.578  25.744  1.00  0.00     0.224 C 
ATOM      4  O   UNL A   1      32.216  21.155  25.224  1.00  0.00    -0.275 OA
ATOM      5  H   UNL A   1      34.366  20.444  24.546  1.00  0.00     0.163 HD
BRANCH   3   6
ATOM      6  C   UNL A   1      33.203  22.631  26.846  1.00  0.00     0.143 C 
BRANCH   6   7
ATOM      7  C   UNL A   1      32.727  23.975  26.346  1.00  0.00     0.051 A 
ATOM      8  C   UNL A   1      31.408  28.228  23.968  1.00  0.00     0.123 A 
ATOM      9  C   UNL A   1      32.797  28.191  23.893  1.00  0.00     0.047 A 
ATOM     10  C   UNL A   1      30.730  27.181  24.573  1.00  0.00     0.094 A 
ATOM     11  C   UNL A   1      33.507  27.125  24.472  1.00  0.00     0.016 A 
ATOM     12  C   UNL A   1      31.449  26.156  25.177  1.00  0.00     0.142 A 
ATOM     13  C   UNL A   1      32.837  26.087  25.138  1.00  0.00     0.021 A 
ATOM     14  O   UNL A   1      30.674  25.206  25.848  1.00  0.00    -0.422 OA
ATOM     15  C   UNL A   1      33.492  24.901  25.724  1.00  0.00    -0.029 A 
ATOM     16  C   UNL A   1      31.276  24.212  26.584  1.00  0.00     0.340 A 
ATOM     17  C   UNL A   1      34.982  24.768  25.543  1.00  0.00     0.046 C 
ATOM     18  O   UNL A   1      30.616  23.509  27.343  1.00  0.00    -0.246 OA
BRANCH   8  19
ATOM     19  O   UNL A   1      30.742  29.269  23.379  1.00  0.00    -0.489 OA
BRANCH  19  20
ATOM     20  C   UNL A   1      29.609  28.833  22.602  1.00  0.00     0.260 C 
BRANCH  20  21
ATOM     21  C   UNL A   1      28.316  29.509  23.012  1.00  0.00    -0.043 C 
ATOM     22  C   UNL A   1      27.145  28.851  23.079  1.00  0.00     0.011 C 
ATOM     23  C   UNL A   1      28.433  30.952  23.422  1.00  0.00     0.042 C 
ENDBRANCH  20  21
ENDBRANCH  19  20
ENDBRANCH   8  19
ENDBRANCH   6   7
ENDBRANCH   3   6
ENDBRANCH   1   2
BRANCH   1  24
ATOM     24  C   UNL A   1      36.810  21.098  24.601  1.00  0.00     0.023 C 
BRANCH  24  25
ATOM     25  C   UNL A   1      37.783  19.957  24.913  1.00  0.00     0.023 C 
BRANCH  25  26
ATOM     26  C   UNL A   1      38.942  20.322  25.834  1.00  0.00     0.116 C 
BRANCH  26  27
ATOM     27  N   UNL A   1      40.045  19.377  25.766  1.00  0.00    -0.352 N 
ATOM     28  C   UNL A   1      41.373  19.574  26.050  1.00  0.00     0.251 C 
ATOM     29  H   UNL A   1      39.805  18.467  25.476  1.00  0.00     0.163 HD
ATOM     30  O   UNL A   1      42.191  18.687  25.813  1.00  0.00    -0.269 OA
BRANCH  28  31
ATOM     31  C   UNL A   1      41.830  20.867  26.604  1.00  0.00     0.039 A 
ATOM     32  C   UNL A   1      42.281  21.850  25.721  1.00  0.00     0.014 A 
ATOM     33  C   UNL A   1      41.809  21.115  27.979  1.00  0.00     0.014 A 
ATOM     34  C   UNL A   1      42.649  23.105  26.212  1.00  0.00     0.010 A 
ATOM     35  C   UNL A   1      42.101  22.390  28.458  1.00  0.00     0.010 A 
ATOM     36  C   UNL A   1      42.524  23.398  27.580  1.00  0.00    -0.014 A 
BRANCH  36  37
ATOM     37  C   UNL A   1      42.814  24.762  28.094  1.00  0.00     0.031 A 
ATOM     38  C   UNL A   1      44.213  25.159  28.474  1.00  0.00     0.074 A 
ATOM     39  C   UNL A   1      41.800  25.633  28.263  1.00  0.00     0.049 A 
ATOM     40  N   UNL A   1      44.649  26.300  28.946  1.00  0.00    -0.248 NA
ATOM     41  C   UNL A   1      45.257  24.133  28.330  1.00  0.00     0.031 C 
ATOM     42  C   UNL A   1      40.388  25.350  27.991  1.00  0.00     0.029 A 
ATOM     43  N   UNL A   1      41.797  26.931  28.706  1.00  0.00    -0.354 N 
ATOM     44  C   UNL A   1      46.010  26.126  29.163  1.00  0.00     0.074 A 
ATOM     45  C   UNL A   1      46.318  24.753  28.825  1.00  0.00     0.031 C 
ATOM     46  C   UNL A   1      39.663  26.450  28.246  1.00  0.00     0.029 A 
ATOM     47  C   UNL A   1      40.548  27.503  28.731  1.00  0.00     0.049 A 
ATOM     48  H   UNL A   1      42.613  27.408  28.982  1.00  0.00     0.167 HD
ATOM     49  C   UNL A   1      46.924  27.034  29.581  1.00  0.00     0.037 A 
ATOM     50  C   UNL A   1      40.157  28.736  29.106  1.00  0.00     0.037 A 
ATOM     51  C   UNL A   1      46.617  28.404  29.901  1.00  0.00     0.049 A 
ATOM     52  C   UNL A   1      41.192  29.726  29.564  1.00  0.00     0.074 A 
ATOM     53  C   UNL A   1      47.485  29.419  30.267  1.00  0.00     0.029 A 
ATOM     54  N   UNL A   1      45.341  28.950  29.903  1.00  0.00    -0.354 N 
ATOM     55  N   UNL A   1      42.488  29.573  29.680  1.00  0.00    -0.248 NA
ATOM     56  C   UNL A   1      40.708  31.063  29.936  1.00  0.00     0.031 C 
ATOM     57  C   UNL A   1      46.728  30.563  30.545  1.00  0.00     0.029 A 
ATOM     58  C   UNL A   1      45.396  30.279  30.293  1.00  0.00     0.049 A 
ATOM     59  H   UNL A   1      44.519  28.465  29.662  1.00  0.00     0.167 HD
ATOM     60  C   UNL A   1      42.979  30.798  30.113  1.00  0.00     0.074 A 
ATOM     61  C   UNL A   1      41.842  31.689  30.217  1.00  0.00     0.031 C 
ATOM     62  C   UNL A   1      44.255  31.154  30.400  1.00  0.00     0.037 A 
BRANCH  49  63
ATOM     63  C   UNL A   1      48.348  26.572  29.719  1.00  0.00     0.057 A 
ATOM     64  C   UNL A   1      49.288  26.754  28.695  1.00  0.00     0.134 A 
ATOM     65  C   UNL A   1      48.793  25.970  30.902  1.00  0.00     0.134 A 
ATOM     66  F   UNL A   1      48.928  27.314  27.531  1.00  0.00    -0.206 F 
ATOM     67  C   UNL A   1      50.610  26.326  28.833  1.00  0.00     0.040 A 
ATOM     68  C   UNL A   1      50.119  25.566  31.063  1.00  0.00     0.040 A 
ATOM     69  F   UNL A   1      47.949  25.771  31.926  1.00  0.00    -0.206 F 
ATOM     70  C   UNL A   1      51.031  25.737  30.023  1.00  0.00     0.006 A 
ENDBRANCH  49  63
BRANCH  50  71
ATOM     71  C   UNL A   1      38.721  29.110  29.043  1.00  0.00     0.057 A 
ATOM     72  C   UNL A   1      37.901  29.031  30.175  1.00  0.00     0.134 A 
ATOM     73  C   UNL A   1      38.132  29.550  27.851  1.00  0.00     0.134 A 
ATOM     74  F   UNL A   1      38.402  28.601  31.343  1.00  0.00    -0.206 F 
ATOM     75  C   UNL A   1      36.545  29.355  30.121  1.00  0.00     0.040 A 
ATOM     76  C   UNL A   1      36.784  29.904  27.788  1.00  0.00     0.040 A 
ATOM     77  F   UNL A   1      38.866  29.655  26.733  1.00  0.00    -0.206 F 
ATOM     78  C   UNL A   1      35.984  29.799  28.924  1.00  0.00     0.006 A 
ENDBRANCH  50  71
BRANCH  62  79
ATOM     79  C   UNL A   1      44.491  32.574  30.831  1.00  0.00     0.057 A 
ATOM     80  C   UNL A   1      44.736  33.598  29.907  1.00  0.00     0.134 A 
ATOM     81  C   UNL A   1      44.454  32.923  32.187  1.00  0.00     0.134 A 
ATOM     82  F   UNL A   1      44.797  33.330  28.594  1.00  0.00    -0.206 F 
ATOM     83  C   UNL A   1      44.966  34.912  30.319  1.00  0.00     0.040 A 
ATOM     84  C   UNL A   1      44.652  34.238  32.608  1.00  0.00     0.040 A 
ATOM     85  F   UNL A   1      44.215  31.993  33.125  1.00  0.00    -0.206 F 
ATOM     86  C   UNL A   1      44.918  35.236  31.673  1.00  0.00     0.006 A 
ENDBRANCH  62  79
ENDBRANCH  36  37
ENDBRANCH  28  31
ENDBRANCH  26  27
ENDBRANCH  25  26
ENDBRANCH  24  25
ENDBRANCH   1  24
TORSDOF 15
ENDMDL
MODEL 2
REMARK VINA RESULT:     -11.9      4.232      9.522
REMARK SMILES C=C(C)COc1ccc2c(C)c(CC(=O)NCCCCNC(=O)c3ccc(-c4c5nc(c(-c6c(F)cccc6F)c6ccc([nH]6)c(-c6c(F)cccc6F)c6nc(c(-c7c(F)cccc7F)c7ccc4[nH]7)C=C6)C=C5)cc3)c(=O)oc2c1
REMARK SMILES IDX 17 1 16 2 14 3 15 4 13 6 12 7 6 8 7 9 82 10 8 11 81 12 9 13
REMARK SMILES IDX 80 14 10 15 78 16 11 17 79 18 5 19 4 20 2 21 1 22 3 23 18 24
REMARK SMILES IDX 19 25 20 26 21 27 22 28 23 30 24 31 25 32 77 33 26 34 76 35
REMARK SMILES IDX 27 36 28 37 29 38 70 39 30 40 75 41 69 42 71 43 31 44 74 45
REMARK SMILES IDX 68 46 67 47 32 49 58 50 41 51 57 52 42 53 45 54 56 55 72 56
REMARK SMILES IDX 43 57 44 58 55 60 73 61 46 62 33 63 34 64 39 65 35 66 36 67
REMARK SMILES IDX 38 68 40 69 37 70 59 71 60 72 65 73 61 74 62 75 64 76 66 77
REMARK SMILES IDX 63 78 47 79 48 80 53 81 49 82 50 83 52 84 54 85 51 86
REMARK H PARENT 16 5 21 29 71 48 45 59
REMARK Flexibility Score: inf
ROOT
ATOM      1  C   UNL A   1      32.447  30.049  25.381  1.00  0.00     0.116 C 
ENDROOT
BRANCH   1   2
ATOM      2  N   UNL A   1      31.685  29.517  24.268  1.00  0.00    -0.356 N 
ATOM      3  C   UNL A   1      32.036  28.595  23.328  1.00  0.00     0.224 C 
ATOM      4  O   UNL A   1      31.207  28.316  22.458  1.00  0.00    -0.275 OA
ATOM      5  H   UNL A   1      30.773  29.878  24.179  1.00  0.00     0.163 HD
BRANCH   3   6
ATOM      6  C   UNL A   1      33.397  27.908  23.366  1.00  0.00     0.143 C 
BRANCH   6   7
ATOM      7  C   UNL A   1      33.294  26.429  23.654  1.00  0.00     0.051 A 
ATOM      8  C   UNL A   1      32.270  21.668  24.988  1.00  0.00     0.123 A 
ATOM      9  C   UNL A   1      32.461  22.344  26.189  1.00  0.00     0.047 A 
ATOM     10  C   UNL A   1      32.342  22.368  23.793  1.00  0.00     0.094 A 
ATOM     11  C   UNL A   1      32.777  23.714  26.185  1.00  0.00     0.016 A 
ATOM     12  C   UNL A   1      32.697  23.712  23.805  1.00  0.00     0.142 A 
ATOM     13  C   UNL A   1      32.911  24.422  24.980  1.00  0.00     0.021 A 
ATOM     14  O   UNL A   1      32.843  24.296  22.544  1.00  0.00    -0.422 OA
ATOM     15  C   UNL A   1      33.182  25.870  24.880  1.00  0.00    -0.029 A 
ATOM     16  C   UNL A   1      33.306  25.586  22.426  1.00  0.00     0.340 A 
ATOM     17  C   UNL A   1      33.263  26.653  26.165  1.00  0.00     0.046 C 
ATOM     18  O   UNL A   1      33.640  26.033  21.332  1.00  0.00    -0.246 OA
BRANCH   8  19
ATOM     19  O   UNL A   1      31.945  20.339  25.021  1.00  0.00    -0.489 OA
BRANCH  19  20
ATOM     20  C   UNL A   1      32.447  19.616  23.879  1.00  0.00     0.260 C 
BRANCH  20  21
ATOM     21  C   UNL A   1      32.787  18.174  24.196  1.00  0.00    -0.043 C 
ATOM     22  C   UNL A   1      33.212  17.308  23.259  1.00  0.00     0.011 C 
ATOM     23  C   UNL A   1      32.701  17.784  25.647  1.00  0.00     0.042 C 
ENDBRANCH  20  21
ENDBRANCH  19  20
ENDBRANCH   8  19
ENDBRANCH   6   7
ENDBRANCH   3   6
ENDBRANCH   1   2
BRANCH   1  24
ATOM     24  C   UNL A   1      31.538  30.503  26.525  1.00  0.00     0.023 C 
BRANCH  24  25
ATOM     25  C   UNL A   1      31.387  32.022  26.656  1.00  0.00     0.023 C 
BRANCH  25  26
ATOM     26  C   UNL A   1      32.621  32.757  27.168  1.00  0.00     0.116 C 
BRANCH  26  27
ATOM     27  N   UNL A   1      32.331  34.104  27.634  1.00  0.00    -0.352 N 
ATOM     28  C   UNL A   1      32.979  34.850  28.587  1.00  0.00     0.251 C 
ATOM     29  H   UNL A   1      31.561  34.543  27.206  1.00  0.00     0.163 HD
ATOM     30  O   UNL A   1      32.514  35.929  28.944  1.00  0.00    -0.269 OA
BRANCH  28  31
ATOM     31  C   UNL A   1      34.217  34.338  29.214  1.00  0.00     0.039 A 
ATOM     32  C   UNL A   1      34.118  33.656  30.428  1.00  0.00     0.014 A 
ATOM     33  C   UNL A   1      35.465  34.520  28.611  1.00  0.00     0.014 A 
ATOM     34  C   UNL A   1      35.262  33.100  31.005  1.00  0.00     0.010 A 
ATOM     35  C   UNL A   1      36.591  33.899  29.146  1.00  0.00     0.010 A 
ATOM     36  C   UNL A   1      36.501  33.183  30.349  1.00  0.00    -0.014 A 
BRANCH  36  37
ATOM     37  C   UNL A   1      37.701  32.504  30.904  1.00  0.00     0.031 A 
ATOM     38  C   UNL A   1      38.355  33.006  32.161  1.00  0.00     0.074 A 
ATOM     39  C   UNL A   1      38.232  31.456  30.244  1.00  0.00     0.049 A 
ATOM     40  N   UNL A   1      39.411  32.545  32.784  1.00  0.00    -0.248 NA
ATOM     41  C   UNL A   1      37.763  34.198  32.788  1.00  0.00     0.031 C 
ATOM     42  C   UNL A   1      37.729  30.911  28.980  1.00  0.00     0.029 A 
ATOM     43  N   UNL A   1      39.312  30.663  30.540  1.00  0.00    -0.354 N 
ATOM     44  C   UNL A   1      39.613  33.393  33.866  1.00  0.00     0.074 A 
ATOM     45  C   UNL A   1      38.606  34.429  33.783  1.00  0.00     0.031 C 
ATOM     46  C   UNL A   1      38.481  29.856  28.627  1.00  0.00     0.029 A 
ATOM     47  C   UNL A   1      39.538  29.673  29.615  1.00  0.00     0.049 A 
ATOM     48  H   UNL A   1      39.873  30.793  31.338  1.00  0.00     0.167 HD
ATOM     49  C   UNL A   1      40.537  33.302  34.852  1.00  0.00     0.037 A 
ATOM     50  C   UNL A   1      40.492  28.723  29.566  1.00  0.00     0.037 A 
ATOM     51  C   UNL A   1      41.527  32.261  34.940  1.00  0.00     0.049 A 
ATOM     52  C   UNL A   1      41.505  28.642  30.674  1.00  0.00     0.074 A 
ATOM     53  C   UNL A   1      42.463  32.043  35.938  1.00  0.00     0.029 A 
ATOM     54  N   UNL A   1      41.719  31.267  33.991  1.00  0.00    -0.354 N 
ATOM     55  N   UNL A   1      41.629  29.398  31.737  1.00  0.00    -0.248 NA
ATOM     56  C   UNL A   1      42.505  27.570  30.578  1.00  0.00     0.031 C 
ATOM     57  C   UNL A   1      43.256  30.953  35.563  1.00  0.00     0.029 A 
ATOM     58  C   UNL A   1      42.776  30.452  34.364  1.00  0.00     0.049 A 
ATOM     59  H   UNL A   1      41.181  31.157  33.173  1.00  0.00     0.167 HD
ATOM     60  C   UNL A   1      42.703  28.880  32.449  1.00  0.00     0.074 A 
ATOM     61  C   UNL A   1      43.180  27.732  31.707  1.00  0.00     0.031 C 
ATOM     62  C   UNL A   1      43.246  29.316  33.613  1.00  0.00     0.037 A 
BRANCH  49  63
ATOM     63  C   UNL A   1      40.521  34.363  35.917  1.00  0.00     0.057 A 
ATOM     64  C   UNL A   1      41.271  35.542  35.800  1.00  0.00     0.134 A 
ATOM     65  C   UNL A   1      39.722  34.220  37.057  1.00  0.00     0.134 A 
ATOM     66  F   UNL A   1      42.066  35.740  34.739  1.00  0.00    -0.206 F 
ATOM     67  C   UNL A   1      41.246  36.524  36.792  1.00  0.00     0.040 A 
ATOM     68  C   UNL A   1      39.666  35.208  38.041  1.00  0.00     0.040 A 
ATOM     69  F   UNL A   1      38.972  33.120  37.232  1.00  0.00    -0.206 F 
ATOM     70  C   UNL A   1      40.436  36.363  37.913  1.00  0.00     0.006 A 
ENDBRANCH  49  63
BRANCH  50  71
ATOM     71  C   UNL A   1      40.521  27.759  28.437  1.00  0.00     0.057 A 
ATOM     72  C   UNL A   1      39.826  26.544  28.502  1.00  0.00     0.134 A 
ATOM     73  C   UNL A   1      41.246  28.023  27.269  1.00  0.00     0.134 A 
ATOM     74  F   UNL A   1      39.127  26.226  29.602  1.00  0.00    -0.206 F 
ATOM     75  C   UNL A   1      39.868  25.620  27.458  1.00  0.00     0.040 A 
ATOM     76  C   UNL A   1      41.274  27.120  26.205  1.00  0.00     0.040 A 
ATOM     77  F   UNL A   1      41.926  29.172  27.140  1.00  0.00    -0.206 F 
ATOM     78  C   UNL A   1      40.590  25.910  26.301  1.00  0.00     0.006 A 
ENDBRANCH  50  71
BRANCH  62  79
ATOM     79  C   UNL A   1      44.403  28.532  34.165  1.00  0.00     0.057 A 
ATOM     80  C   UNL A   1      45.732  28.864  33.870  1.00  0.00     0.134 A 
ATOM     81  C   UNL A   1      44.185  27.442  35.017  1.00  0.00     0.134 A 
ATOM     82  F   UNL A   1      46.012  29.889  33.050  1.00  0.00    -0.206 F 
ATOM     83  C   UNL A   1      46.799  28.121  34.378  1.00  0.00     0.040 A 
ATOM     84  C   UNL A   1      45.244  26.712  35.556  1.00  0.00     0.040 A 
ATOM     85  F   UNL A   1      42.936  27.075  35.349  1.00  0.00    -0.206 F 
ATOM     86  C   UNL A   1      46.556  27.045  35.229  1.00  0.00     0.006 A 
ENDBRANCH  62  79
ENDBRANCH  36  37
ENDBRANCH  28  31
ENDBRANCH  26  27
ENDBRANCH  25  26
ENDBRANCH  24  25
ENDBRANCH   1  24
TORSDOF 15
ENDMDL
MODEL 3
REMARK VINA RESULT:     -11.8      4.677      9.535
REMARK SMILES C=C(C)COc1ccc2c(C)c(CC(=O)NCCCCNC(=O)c3ccc(-c4c5nc(c(-c6c(F)cccc6F)c6ccc([nH]6)c(-c6c(F)cccc6F)c6nc(c(-c7c(F)cccc7F)c7ccc4[nH]7)C=C6)C=C5)cc3)c(=O)oc2c1
REMARK SMILES IDX 17 1 16 2 14 3 15 4 13 6 12 7 6 8 7 9 82 10 8 11 81 12 9 13
REMARK SMILES IDX 80 14 10 15 78 16 11 17 79 18 5 19 4 20 2 21 1 22 3 23 18 24
REMARK SMILES IDX 19 25 20 26 21 27 22 28 23 30 24 31 25 32 77 33 26 34 76 35
REMARK SMILES IDX 27 36 28 37 29 38 70 39 30 40 75 41 69 42 71 43 31 44 74 45
REMARK SMILES IDX 68 46 67 47 32 49 58 50 41 51 57 52 42 53 45 54 56 55 72 56
REMARK SMILES IDX 43 57 44 58 55 60 73 61 46 62 33 63 34 64 39 65 35 66 36 67
REMARK SMILES IDX 38 68 40 69 37 70 59 71 60 72 65 73 61 74 62 75 64 76 66 77
REMARK SMILES IDX 63 78 47 79 48 80 53 81 49 82 50 83 52 84 54 85 51 86
REMARK H PARENT 16 5 21 29 71 48 45 59
REMARK Flexibility Score: inf
ROOT
ATOM      1  C   UNL A   1      32.303  30.000  25.462  1.00  0.00     0.116 C 
ENDROOT
BRANCH   1   2
ATOM      2  N   UNL A   1      31.448  29.144  24.664  1.00  0.00    -0.356 N 
ATOM      3  C   UNL A   1      31.774  28.226  23.710  1.00  0.00     0.224 C 
ATOM      4  O   UNL A   1      30.852  27.627  23.150  1.00  0.00    -0.275 OA
ATOM      5  H   UNL A   1      30.485  29.239  24.839  1.00  0.00     0.163 HD
BRANCH   3   6
ATOM      6  C   UNL A   1      33.229  27.928  23.365  1.00  0.00     0.143 C 
BRANCH   6   7
ATOM      7  C   UNL A   1      33.604  26.487  23.621  1.00  0.00     0.051 A 
ATOM      8  C   UNL A   1      34.226  21.659  24.959  1.00  0.00     0.123 A 
ATOM      9  C   UNL A   1      34.416  22.384  26.132  1.00  0.00     0.047 A 
ATOM     10  C   UNL A   1      33.892  22.328  23.791  1.00  0.00     0.094 A 
ATOM     11  C   UNL A   1      34.321  23.786  26.118  1.00  0.00     0.016 A 
ATOM     12  C   UNL A   1      33.844  23.717  23.785  1.00  0.00     0.142 A 
ATOM     13  C   UNL A   1      34.041  24.481  24.930  1.00  0.00     0.021 A 
ATOM     14  O   UNL A   1      33.602  24.295  22.536  1.00  0.00    -0.422 OA
ATOM     15  C   UNL A   1      33.865  25.943  24.831  1.00  0.00    -0.029 A 
ATOM     16  C   UNL A   1      33.649  25.661  22.382  1.00  0.00     0.340 A 
ATOM     17  C   UNL A   1      33.935  26.741  26.108  1.00  0.00     0.046 C 
ATOM     18  O   UNL A   1      33.652  26.164  21.263  1.00  0.00    -0.246 OA
BRANCH   8  19
ATOM     19  O   UNL A   1      34.306  20.294  25.006  1.00  0.00    -0.489 OA
BRANCH  19  20
ATOM     20  C   UNL A   1      33.069  19.652  24.634  1.00  0.00     0.260 C 
BRANCH  20  21
ATOM     21  C   UNL A   1      33.280  18.390  23.822  1.00  0.00    -0.043 C 
ATOM     22  C   UNL A   1      32.523  18.082  22.755  1.00  0.00     0.011 C 
ATOM     23  C   UNL A   1      34.447  17.534  24.233  1.00  0.00     0.042 C 
ENDBRANCH  20  21
ENDBRANCH  19  20
ENDBRANCH   8  19
ENDBRANCH   6   7
ENDBRANCH   3   6
ENDBRANCH   1   2
BRANCH   1  24
ATOM     24  C   UNL A   1      31.562  30.572  26.673  1.00  0.00     0.023 C 
BRANCH  24  25
ATOM     25  C   UNL A   1      31.455  32.100  26.692  1.00  0.00     0.023 C 
BRANCH  25  26
ATOM     26  C   UNL A   1      32.678  32.832  27.234  1.00  0.00     0.116 C 
BRANCH  26  27
ATOM     27  N   UNL A   1      32.395  34.203  27.626  1.00  0.00    -0.352 N 
ATOM     28  C   UNL A   1      32.987  34.964  28.603  1.00  0.00     0.251 C 
ATOM     29  H   UNL A   1      31.678  34.649  27.120  1.00  0.00     0.163 HD
ATOM     30  O   UNL A   1      32.530  36.070  28.882  1.00  0.00    -0.269 OA
BRANCH  28  31
ATOM     31  C   UNL A   1      34.151  34.440  29.349  1.00  0.00     0.039 A 
ATOM     32  C   UNL A   1      33.929  33.793  30.566  1.00  0.00     0.014 A 
ATOM     33  C   UNL A   1      35.452  34.575  28.854  1.00  0.00     0.014 A 
ATOM     34  C   UNL A   1      35.003  33.224  31.254  1.00  0.00     0.010 A 
ATOM     35  C   UNL A   1      36.510  33.941  29.501  1.00  0.00     0.010 A 
ATOM     36  C   UNL A   1      36.296  33.260  30.708  1.00  0.00    -0.014 A 
BRANCH  36  37
ATOM     37  C   UNL A   1      37.425  32.567  31.383  1.00  0.00     0.031 A 
ATOM     38  C   UNL A   1      38.124  31.412  30.722  1.00  0.00     0.074 A 
ATOM     39  C   UNL A   1      37.789  32.952  32.623  1.00  0.00     0.049 A 
ATOM     40  N   UNL A   1      39.119  30.686  31.165  1.00  0.00    -0.248 NA
ATOM     41  C   UNL A   1      37.625  31.002  29.401  1.00  0.00     0.031 C 
ATOM     42  C   UNL A   1      37.149  34.017  33.399  1.00  0.00     0.029 A 
ATOM     43  N   UNL A   1      38.782  32.491  33.449  1.00  0.00    -0.354 N 
ATOM     44  C   UNL A   1      39.357  29.731  30.185  1.00  0.00     0.074 A 
ATOM     45  C   UNL A   1      38.367  29.933  29.150  1.00  0.00     0.031 C 
ATOM     46  C   UNL A   1      37.785  34.147  34.574  1.00  0.00     0.029 A 
ATOM     47  C   UNL A   1      38.851  33.154  34.651  1.00  0.00     0.049 A 
ATOM     48  H   UNL A   1      39.388  31.755  33.205  1.00  0.00     0.167 HD
ATOM     49  C   UNL A   1      40.328  28.787  30.140  1.00  0.00     0.037 A 
ATOM     50  C   UNL A   1      39.678  32.980  35.699  1.00  0.00     0.037 A 
ATOM     51  C   UNL A   1      41.322  28.599  31.164  1.00  0.00     0.049 A 
ATOM     52  C   UNL A   1      40.749  31.928  35.623  1.00  0.00     0.074 A 
ATOM     53  C   UNL A   1      42.389  27.715  31.178  1.00  0.00     0.029 A 
ATOM     54  N   UNL A   1      41.367  29.296  32.362  1.00  0.00    -0.354 N 
ATOM     55  N   UNL A   1      41.018  31.091  34.651  1.00  0.00    -0.248 NA
ATOM     56  C   UNL A   1      41.636  31.802  36.787  1.00  0.00     0.031 C 
ATOM     57  C   UNL A   1      43.045  27.841  32.408  1.00  0.00     0.029 A 
ATOM     58  C   UNL A   1      42.425  28.844  33.135  1.00  0.00     0.049 A 
ATOM     59  H   UNL A   1      40.741  30.010  32.624  1.00  0.00     0.167 HD
ATOM     60  C   UNL A   1      42.118  30.357  35.075  1.00  0.00     0.074 A 
ATOM     61  C   UNL A   1      42.479  30.864  36.382  1.00  0.00     0.031 C 
ATOM     62  C   UNL A   1      42.771  29.352  34.439  1.00  0.00     0.037 A 
BRANCH  49  63
ATOM     63  C   UNL A   1      40.361  27.883  28.940  1.00  0.00     0.057 A 
ATOM     64  C   UNL A   1      41.123  28.187  27.803  1.00  0.00     0.134 A 
ATOM     65  C   UNL A   1      39.651  26.676  28.933  1.00  0.00     0.134 A 
ATOM     66  F   UNL A   1      41.819  29.331  27.736  1.00  0.00    -0.206 F 
ATOM     67  C   UNL A   1      41.152  27.339  26.694  1.00  0.00     0.040 A 
ATOM     68  C   UNL A   1      39.697  25.806  27.844  1.00  0.00     0.040 A 
ATOM     69  F   UNL A   1      38.907  26.317  29.991  1.00  0.00    -0.206 F 
ATOM     70  C   UNL A   1      40.444  26.140  26.716  1.00  0.00     0.006 A 
ENDBRANCH  49  63
BRANCH  50  71
ATOM     71  C   UNL A   1      39.539  33.839  36.903  1.00  0.00     0.057 A 
ATOM     72  C   UNL A   1      40.206  35.066  37.000  1.00  0.00     0.134 A 
ATOM     73  C   UNL A   1      38.743  33.452  37.988  1.00  0.00     0.134 A 
ATOM     74  F   UNL A   1      40.998  35.484  36.001  1.00  0.00    -0.206 F 
ATOM     75  C   UNL A   1      40.103  35.868  38.137  1.00  0.00     0.040 A 
ATOM     76  C   UNL A   1      38.608  34.257  39.120  1.00  0.00     0.040 A 
ATOM     77  F   UNL A   1      38.071  32.291  37.955  1.00  0.00    -0.206 F 
ATOM     78  C   UNL A   1      39.296  35.465  39.201  1.00  0.00     0.006 A 
ENDBRANCH  50  71
BRANCH  62  79
ATOM     79  C   UNL A   1      43.956  28.753  35.140  1.00  0.00     0.057 A 
ATOM     80  C   UNL A   1      43.837  27.635  35.976  1.00  0.00     0.134 A 
ATOM     81  C   UNL A   1      45.238  29.292  34.963  1.00  0.00     0.134 A 
ATOM     82  F   UNL A   1      42.637  27.078  36.200  1.00  0.00    -0.206 F 
ATOM     83  C   UNL A   1      44.944  27.094  36.633  1.00  0.00     0.040 A 
ATOM     84  C   UNL A   1      46.355  28.741  35.590  1.00  0.00     0.040 A 
ATOM     85  F   UNL A   1      45.425  30.358  34.168  1.00  0.00    -0.206 F 
ATOM     86  C   UNL A   1      46.208  27.644  36.436  1.00  0.00     0.006 A 
ENDBRANCH  62  79
ENDBRANCH  36  37
ENDBRANCH  28  31
ENDBRANCH  26  27
ENDBRANCH  25  26
ENDBRANCH  24  25
ENDBRANCH   1  24
TORSDOF 15
ENDMDL
