MODEL 1
REMARK VINA RESULT:     -13.5      0.000      0.000
REMARK SMILES O=C(COc1cccc(NC(=O)c2ccc3c(c2)C(=O)N(c2ccccc2-c2ccccc2)C3=O)c1)NCCCCNC(=O)c1ccc(-c2c3nc(c(-c4c(F)cccc4F)c4ccc([nH]4)c(-c4c(F)cccc4F)c4nc(c(-c5c(F)cccc5F)c5ccc2[nH]5)C=C4)C=C3)cc1
REMARK SMILES IDX 1 1 2 2 37 3 3 5 4 6 5 7 6 8 36 9 7 10 9 11 8 12 10 13 11 14
REMARK SMILES IDX 12 16 13 17 14 18 18 19 15 20 17 21 16 22 19 23 34 24 20 25
REMARK SMILES IDX 21 26 35 27 22 28 23 29 27 30 24 31 26 32 25 33 28 34 29 35
REMARK SMILES IDX 33 36 30 37 32 38 31 39 38 40 39 41 40 42 41 43 42 44 43 45
REMARK SMILES IDX 44 47 45 48 46 49 98 50 47 51 97 52 48 53 49 54 50 55 91 56
REMARK SMILES IDX 51 57 96 58 90 59 92 60 52 61 95 62 89 63 88 64 53 66 79 67
REMARK SMILES IDX 62 68 78 69 63 70 66 71 77 72 93 73 64 74 65 75 76 77 94 78
REMARK SMILES IDX 67 79 54 80 55 81 60 82 56 83 57 84 59 85 61 86 58 87 80 88
REMARK SMILES IDX 81 89 86 90 82 91 83 92 85 93 87 94 84 95 68 96 69 97 74 98
REMARK SMILES IDX 70 99 71 100 73 101 75 102 72 103
REMARK H PARENT 37 4 10 15 42 46 92 65 66 76
REMARK Flexibility Score: inf
ROOT
ATOM      1  O   UNL A   1      35.810  30.379  27.631  1.00  0.00    -0.271 OA
ATOM      2  C   UNL A   1      34.584  30.324  27.583  1.00  0.00     0.257 C 
ATOM      3  N   UNL A   1      33.754  31.326  28.044  1.00  0.00    -0.353 N 
ATOM      4  H   UNL A   1      32.797  31.295  27.816  1.00  0.00     0.163 HD
ENDROOT
BRANCH   2   5
ATOM      5  C   UNL A   1      33.844  29.102  27.037  1.00  0.00     0.329 C 
BRANCH   5   6
ATOM      6  O   UNL A   1      32.425  29.189  27.076  1.00  0.00    -0.484 OA
BRANCH   6   7
ATOM      7  C   UNL A   1      31.776  29.069  25.875  1.00  0.00     0.122 A 
ATOM      8  C   UNL A   1      31.317  30.267  25.339  1.00  0.00     0.046 A 
ATOM      9  C   UNL A   1      31.419  27.848  25.276  1.00  0.00     0.072 A 
ATOM     10  C   UNL A   1      30.492  30.245  24.225  1.00  0.00     0.006 A 
ATOM     11  C   UNL A   1      30.567  27.810  24.162  1.00  0.00     0.045 A 
ATOM     12  C   UNL A   1      30.106  29.027  23.663  1.00  0.00     0.026 A 
BRANCH  11  13
ATOM     13  N   UNL A   1      30.135  26.538  23.702  1.00  0.00    -0.322 N 
ATOM     14  C   UNL A   1      30.636  25.256  23.877  1.00  0.00     0.255 C 
ATOM     15  H   UNL A   1      29.319  26.572  23.151  1.00  0.00     0.170 HD
ATOM     16  O   UNL A   1      30.266  24.319  23.178  1.00  0.00    -0.269 OA
BRANCH  14  17
ATOM     17  C   UNL A   1      31.491  24.980  25.044  1.00  0.00     0.041 A 
ATOM     18  C   UNL A   1      30.951  24.422  26.224  1.00  0.00     0.015 A 
ATOM     19  C   UNL A   1      32.862  25.015  24.806  1.00  0.00     0.028 A 
ATOM     20  C   UNL A   1      31.778  23.658  27.066  1.00  0.00     0.015 A 
ATOM     21  C   UNL A   1      33.632  24.254  25.652  1.00  0.00     0.054 A 
ATOM     22  C   UNL A   1      33.108  23.525  26.692  1.00  0.00     0.053 A 
ATOM     23  C   UNL A   1      34.975  23.790  25.402  1.00  0.00     0.266 C 
ATOM     24  C   UNL A   1      34.115  22.509  27.029  1.00  0.00     0.266 C 
ATOM     25  O   UNL A   1      35.704  24.444  24.680  1.00  0.00    -0.268 OA
ATOM     26  N   UNL A   1      35.113  22.595  26.076  1.00  0.00    -0.242 N 
ATOM     27  O   UNL A   1      33.983  21.832  28.031  1.00  0.00    -0.268 OA
BRANCH  26  28
ATOM     28  C   UNL A   1      36.122  21.623  25.731  1.00  0.00     0.060 A 
ATOM     29  C   UNL A   1      37.482  21.990  25.893  1.00  0.00     0.027 A 
ATOM     30  C   UNL A   1      35.877  20.369  25.109  1.00  0.00     0.006 A 
ATOM     31  C   UNL A   1      38.552  21.197  25.470  1.00  0.00     0.002 A 
ATOM     32  C   UNL A   1      36.986  19.562  24.725  1.00  0.00     0.011 A 
ATOM     33  C   UNL A   1      38.304  19.971  24.892  1.00  0.00     0.001 A 
BRANCH  30  34
ATOM     34  C   UNL A   1      34.577  19.844  24.666  1.00  0.00    -0.016 A 
ATOM     35  C   UNL A   1      34.332  18.463  24.630  1.00  0.00     0.009 A 
ATOM     36  C   UNL A   1      33.607  20.706  24.129  1.00  0.00     0.009 A 
ATOM     37  C   UNL A   1      33.130  17.962  24.123  1.00  0.00     0.001 A 
ATOM     38  C   UNL A   1      32.410  20.206  23.611  1.00  0.00     0.001 A 
ATOM     39  C   UNL A   1      32.168  18.834  23.618  1.00  0.00     0.000 A 
ENDBRANCH  30  34
ENDBRANCH  26  28
ENDBRANCH  14  17
ENDBRANCH  11  13
ENDBRANCH   6   7
ENDBRANCH   5   6
ENDBRANCH   2   5
BRANCH   3  40
ATOM     40  C   UNL A   1      34.244  32.420  28.852  1.00  0.00     0.116 C 
BRANCH  40  41
ATOM     41  C   UNL A   1      34.146  33.768  28.153  1.00  0.00     0.023 C 
BRANCH  41  42
ATOM     42  C   UNL A   1      33.001  34.661  28.637  1.00  0.00     0.023 C 
BRANCH  42  43
ATOM     43  C   UNL A   1      33.412  35.892  29.442  1.00  0.00     0.116 C 
BRANCH  43  44
ATOM     44  N   UNL A   1      32.519  36.175  30.555  1.00  0.00    -0.352 N 
ATOM     45  C   UNL A   1      32.616  35.806  31.876  1.00  0.00     0.251 C 
ATOM     46  H   UNL A   1      31.726  36.711  30.328  1.00  0.00     0.163 HD
ATOM     47  O   UNL A   1      31.689  36.039  32.645  1.00  0.00    -0.269 OA
BRANCH  45  48
ATOM     48  C   UNL A   1      33.817  35.097  32.371  1.00  0.00     0.039 A 
ATOM     49  C   UNL A   1      33.673  33.795  32.862  1.00  0.00     0.014 A 
ATOM     50  C   UNL A   1      35.076  35.705  32.366  1.00  0.00     0.014 A 
ATOM     51  C   UNL A   1      34.799  33.077  33.274  1.00  0.00     0.010 A 
ATOM     52  C   UNL A   1      36.205  34.965  32.714  1.00  0.00     0.010 A 
ATOM     53  C   UNL A   1      36.080  33.642  33.165  1.00  0.00    -0.014 A 
BRANCH  53  54
ATOM     54  C   UNL A   1      37.297  32.859  33.503  1.00  0.00     0.031 A 
ATOM     55  C   UNL A   1      38.050  33.133  34.775  1.00  0.00     0.074 A 
ATOM     56  C   UNL A   1      37.767  31.948  32.628  1.00  0.00     0.049 A 
ATOM     57  N   UNL A   1      39.175  32.613  35.198  1.00  0.00    -0.248 NA
ATOM     58  C   UNL A   1      37.477  34.141  35.679  1.00  0.00     0.031 C 
ATOM     59  C   UNL A   1      37.158  31.619  31.338  1.00  0.00     0.029 A 
ATOM     60  N   UNL A   1      38.877  31.141  32.686  1.00  0.00    -0.354 N 
ATOM     61  C   UNL A   1      39.451  33.240  36.406  1.00  0.00     0.074 A 
ATOM     62  C   UNL A   1      38.401  34.213  36.626  1.00  0.00     0.031 C 
ATOM     63  C   UNL A   1      37.891  30.669  30.735  1.00  0.00     0.029 A 
ATOM     64  C   UNL A   1      39.040  30.348  31.576  1.00  0.00     0.049 A 
ATOM     65  H   UNL A   1      39.496  31.132  33.451  1.00  0.00     0.167 HD
ATOM     66  C   UNL A   1      40.473  33.012  37.267  1.00  0.00     0.037 A 
ATOM     67  C   UNL A   1      40.010  29.468  31.265  1.00  0.00     0.037 A 
ATOM     68  C   UNL A   1      41.504  32.028  37.061  1.00  0.00     0.049 A 
ATOM     69  C   UNL A   1      41.134  29.234  32.234  1.00  0.00     0.074 A 
ATOM     70  C   UNL A   1      42.549  31.687  37.903  1.00  0.00     0.029 A 
ATOM     71  N   UNL A   1      41.620  31.229  35.934  1.00  0.00    -0.354 N 
ATOM     72  N   UNL A   1      41.349  29.792  33.401  1.00  0.00    -0.248 NA
ATOM     73  C   UNL A   1      42.149  28.243  31.846  1.00  0.00     0.031 C 
ATOM     74  C   UNL A   1      43.320  30.707  37.269  1.00  0.00     0.029 A 
ATOM     75  C   UNL A   1      42.730  30.407  36.051  1.00  0.00     0.049 A 
ATOM     76  H   UNL A   1      41.005  31.242  35.166  1.00  0.00     0.167 HD
ATOM     77  C   UNL A   1      42.505  29.203  33.897  1.00  0.00     0.074 A 
ATOM     78  C   UNL A   1      42.939  28.236  32.911  1.00  0.00     0.031 C 
ATOM     79  C   UNL A   1      43.148  29.444  35.065  1.00  0.00     0.037 A 
BRANCH  66  80
ATOM     80  C   UNL A   1      40.521  33.842  38.515  1.00  0.00     0.057 A 
ATOM     81  C   UNL A   1      41.333  34.981  38.611  1.00  0.00     0.134 A 
ATOM     82  C   UNL A   1      39.725  33.522  39.622  1.00  0.00     0.134 A 
ATOM     83  F   UNL A   1      42.128  35.337  37.591  1.00  0.00    -0.206 F 
ATOM     84  C   UNL A   1      41.371  35.755  39.773  1.00  0.00     0.040 A 
ATOM     85  C   UNL A   1      39.734  34.303  40.779  1.00  0.00     0.040 A 
ATOM     86  F   UNL A   1      38.920  32.448  39.594  1.00  0.00    -0.206 F 
ATOM     87  C   UNL A   1      40.565  35.419  40.859  1.00  0.00     0.006 A 
ENDBRANCH  66  80
BRANCH  67  88
ATOM     88  C   UNL A   1      39.951  28.723  29.982  1.00  0.00     0.057 A 
ATOM     89  C   UNL A   1      39.245  27.519  29.879  1.00  0.00     0.134 A 
ATOM     90  C   UNL A   1      40.602  29.191  28.835  1.00  0.00     0.134 A 
ATOM     91  F   UNL A   1      38.619  27.011  30.950  1.00  0.00    -0.206 F 
ATOM     92  C   UNL A   1      39.201  26.798  28.685  1.00  0.00     0.040 A 
ATOM     93  C   UNL A   1      40.547  28.492  27.628  1.00  0.00     0.040 A 
ATOM     94  F   UNL A   1      41.290  30.342  28.868  1.00  0.00    -0.206 F 
ATOM     95  C   UNL A   1      39.849  27.288  27.553  1.00  0.00     0.006 A 
ENDBRANCH  67  88
BRANCH  79  96
ATOM     96  C   UNL A   1      44.371  28.626  35.356  1.00  0.00     0.057 A 
ATOM     97  C   UNL A   1      45.653  29.055  34.988  1.00  0.00     0.134 A 
ATOM     98  C   UNL A   1      44.268  27.410  36.044  1.00  0.00     0.134 A 
ATOM     99  F   UNL A   1      45.818  30.203  34.315  1.00  0.00    -0.206 F 
ATOM    100  C   UNL A   1      46.786  28.294  35.279  1.00  0.00     0.040 A 
ATOM    101  C   UNL A   1      45.397  26.653  36.361  1.00  0.00     0.040 A 
ATOM    102  F   UNL A   1      43.070  26.945  36.432  1.00  0.00    -0.206 F 
ATOM    103  C   UNL A   1      46.660  27.092  35.973  1.00  0.00     0.006 A 
ENDBRANCH  79  96
ENDBRANCH  53  54
ENDBRANCH  45  48
ENDBRANCH  43  44
ENDBRANCH  42  43
ENDBRANCH  41  42
ENDBRANCH  40  41
ENDBRANCH   3  40
TORSDOF 17
ENDMDL
MODEL 2
REMARK VINA RESULT:     -13.1      4.843      8.553
REMARK SMILES O=C(COc1cccc(NC(=O)c2ccc3c(c2)C(=O)N(c2ccccc2-c2ccccc2)C3=O)c1)NCCCCNC(=O)c1ccc(-c2c3nc(c(-c4c(F)cccc4F)c4ccc([nH]4)c(-c4c(F)cccc4F)c4nc(c(-c5c(F)cccc5F)c5ccc2[nH]5)C=C4)C=C3)cc1
REMARK SMILES IDX 1 1 2 2 37 3 3 5 4 6 5 7 6 8 36 9 7 10 9 11 8 12 10 13 11 14
REMARK SMILES IDX 12 16 13 17 14 18 18 19 15 20 17 21 16 22 19 23 34 24 20 25
REMARK SMILES IDX 21 26 35 27 22 28 23 29 27 30 24 31 26 32 25 33 28 34 29 35
REMARK SMILES IDX 33 36 30 37 32 38 31 39 38 40 39 41 40 42 41 43 42 44 43 45
REMARK SMILES IDX 44 47 45 48 46 49 98 50 47 51 97 52 48 53 49 54 50 55 91 56
REMARK SMILES IDX 51 57 96 58 90 59 92 60 52 61 95 62 89 63 88 64 53 66 79 67
REMARK SMILES IDX 62 68 78 69 63 70 66 71 77 72 93 73 64 74 65 75 76 77 94 78
REMARK SMILES IDX 67 79 54 80 55 81 60 82 56 83 57 84 59 85 61 86 58 87 80 88
REMARK SMILES IDX 81 89 86 90 82 91 83 92 85 93 87 94 84 95 68 96 69 97 74 98
REMARK SMILES IDX 70 99 71 100 73 101 75 102 72 103
REMARK H PARENT 37 4 10 15 42 46 92 65 66 76
REMARK Flexibility Score: inf
ROOT
ATOM      1  O   UNL A   1      35.140  29.417  27.958  1.00  0.00    -0.271 OA
ATOM      2  C   UNL A   1      34.186  29.881  27.339  1.00  0.00     0.257 C 
ATOM      3  N   UNL A   1      33.815  31.210  27.390  1.00  0.00    -0.353 N 
ATOM      4  H   UNL A   1      33.158  31.546  26.738  1.00  0.00     0.163 HD
ENDROOT
BRANCH   2   5
ATOM      5  C   UNL A   1      33.279  29.012  26.468  1.00  0.00     0.329 C 
BRANCH   5   6
ATOM      6  O   UNL A   1      31.940  29.475  26.341  1.00  0.00    -0.484 OA
BRANCH   6   7
ATOM      7  C   UNL A   1      31.290  29.142  25.182  1.00  0.00     0.122 A 
ATOM      8  C   UNL A   1      30.722  30.215  24.503  1.00  0.00     0.046 A 
ATOM      9  C   UNL A   1      31.031  27.827  24.757  1.00  0.00     0.072 A 
ATOM     10  C   UNL A   1      29.889  29.976  23.422  1.00  0.00     0.006 A 
ATOM     11  C   UNL A   1      30.173  27.569  23.678  1.00  0.00     0.045 A 
ATOM     12  C   UNL A   1      29.602  28.665  23.035  1.00  0.00     0.026 A 
BRANCH  11  13
ATOM     13  N   UNL A   1      29.847  26.215  23.400  1.00  0.00    -0.322 N 
ATOM     14  C   UNL A   1      30.497  25.018  23.667  1.00  0.00     0.255 C 
ATOM     15  H   UNL A   1      28.991  26.103  22.926  1.00  0.00     0.170 HD
ATOM     16  O   UNL A   1      30.177  23.974  23.110  1.00  0.00    -0.269 OA
BRANCH  14  17
ATOM     17  C   UNL A   1      31.467  24.968  24.774  1.00  0.00     0.041 A 
ATOM     18  C   UNL A   1      31.052  24.661  26.089  1.00  0.00     0.015 A 
ATOM     19  C   UNL A   1      32.807  24.937  24.398  1.00  0.00     0.028 A 
ATOM     20  C   UNL A   1      31.965  24.068  26.978  1.00  0.00     0.015 A 
ATOM     21  C   UNL A   1      33.663  24.348  25.296  1.00  0.00     0.054 A 
ATOM     22  C   UNL A   1      33.252  23.846  26.507  1.00  0.00     0.053 A 
ATOM     23  C   UNL A   1      34.978  23.827  25.010  1.00  0.00     0.266 C 
ATOM     24  C   UNL A   1      34.295  22.904  26.937  1.00  0.00     0.266 C 
ATOM     25  O   UNL A   1      35.626  24.316  24.103  1.00  0.00    -0.268 OA
ATOM     26  N   UNL A   1      35.191  22.787  25.890  1.00  0.00    -0.242 N 
ATOM     27  O   UNL A   1      34.269  22.440  28.061  1.00  0.00    -0.268 OA
BRANCH  26  28
ATOM     28  C   UNL A   1      36.167  21.753  25.645  1.00  0.00     0.060 A 
ATOM     29  C   UNL A   1      37.537  22.076  25.819  1.00  0.00     0.027 A 
ATOM     30  C   UNL A   1      35.887  20.468  25.108  1.00  0.00     0.006 A 
ATOM     31  C   UNL A   1      38.583  21.213  25.486  1.00  0.00     0.002 A 
ATOM     32  C   UNL A   1      36.970  19.592  24.816  1.00  0.00     0.011 A 
ATOM     33  C   UNL A   1      38.300  19.958  24.991  1.00  0.00     0.001 A 
BRANCH  30  34
ATOM     34  C   UNL A   1      34.578  19.964  24.666  1.00  0.00    -0.016 A 
ATOM     35  C   UNL A   1      34.330  18.586  24.574  1.00  0.00     0.009 A 
ATOM     36  C   UNL A   1      33.599  20.850  24.185  1.00  0.00     0.009 A 
ATOM     37  C   UNL A   1      33.117  18.109  24.068  1.00  0.00     0.001 A 
ATOM     38  C   UNL A   1      32.393  20.374  23.668  1.00  0.00     0.001 A 
ATOM     39  C   UNL A   1      32.147  19.004  23.620  1.00  0.00     0.000 A 
ENDBRANCH  30  34
ENDBRANCH  26  28
ENDBRANCH  14  17
ENDBRANCH  11  13
ENDBRANCH   6   7
ENDBRANCH   5   6
ENDBRANCH   2   5
BRANCH   3  40
ATOM     40  C   UNL A   1      34.357  32.123  28.370  1.00  0.00     0.116 C 
BRANCH  40  41
ATOM     41  C   UNL A   1      35.747  32.627  28.012  1.00  0.00     0.023 C 
BRANCH  41  42
ATOM     42  C   UNL A   1      36.379  33.560  29.047  1.00  0.00     0.023 C 
BRANCH  42  43
ATOM     43  C   UNL A   1      37.168  32.878  30.162  1.00  0.00     0.116 C 
BRANCH  43  44
ATOM     44  N   UNL A   1      36.424  31.823  30.831  1.00  0.00    -0.352 N 
ATOM     45  C   UNL A   1      36.699  30.480  30.930  1.00  0.00     0.251 C 
ATOM     46  H   UNL A   1      35.598  32.115  31.280  1.00  0.00     0.163 HD
ATOM     47  O   UNL A   1      35.876  29.723  31.437  1.00  0.00    -0.269 OA
BRANCH  45  48
ATOM     48  C   UNL A   1      37.968  29.932  30.400  1.00  0.00     0.039 A 
ATOM     49  C   UNL A   1      38.276  30.140  29.051  1.00  0.00     0.014 A 
ATOM     50  C   UNL A   1      38.846  29.210  31.212  1.00  0.00     0.014 A 
ATOM     51  C   UNL A   1      39.496  29.694  28.539  1.00  0.00     0.010 A 
ATOM     52  C   UNL A   1      40.091  28.824  30.717  1.00  0.00     0.010 A 
ATOM     53  C   UNL A   1      40.432  29.067  29.377  1.00  0.00    -0.014 A 
BRANCH  53  54
ATOM     54  C   UNL A   1      41.775  28.676  28.875  1.00  0.00     0.031 A 
ATOM     55  C   UNL A   1      42.037  27.268  28.417  1.00  0.00     0.074 A 
ATOM     56  C   UNL A   1      42.782  29.571  28.898  1.00  0.00     0.049 A 
ATOM     57  N   UNL A   1      43.160  26.720  28.028  1.00  0.00    -0.248 NA
ATOM     58  C   UNL A   1      40.890  26.348  28.421  1.00  0.00     0.031 C 
ATOM     59  C   UNL A   1      42.674  30.956  29.361  1.00  0.00     0.029 A 
ATOM     60  N   UNL A   1      44.101  29.445  28.537  1.00  0.00    -0.354 N 
ATOM     61  C   UNL A   1      42.860  25.392  27.755  1.00  0.00     0.074 A 
ATOM     62  C   UNL A   1      41.459  25.204  28.070  1.00  0.00     0.031 C 
ATOM     63  C   UNL A   1      43.869  31.555  29.240  1.00  0.00     0.029 A 
ATOM     64  C   UNL A   1      44.836  30.589  28.727  1.00  0.00     0.049 A 
ATOM     65  H   UNL A   1      44.482  28.613  28.175  1.00  0.00     0.167 HD
ATOM     66  C   UNL A   1      43.670  24.422  27.267  1.00  0.00     0.037 A 
ATOM     67  C   UNL A   1      46.144  30.833  28.520  1.00  0.00     0.037 A 
ATOM     68  C   UNL A   1      45.057  24.614  26.931  1.00  0.00     0.049 A 
ATOM     69  C   UNL A   1      47.023  29.740  27.980  1.00  0.00     0.074 A 
ATOM     70  C   UNL A   1      45.943  23.705  26.378  1.00  0.00     0.029 A 
ATOM     71  N   UNL A   1      45.759  25.795  27.117  1.00  0.00    -0.354 N 
ATOM     72  N   UNL A   1      46.710  28.505  27.671  1.00  0.00    -0.248 NA
ATOM     73  C   UNL A   1      48.437  30.076  27.754  1.00  0.00     0.031 C 
ATOM     74  C   UNL A   1      47.192  24.325  26.264  1.00  0.00     0.029 A 
ATOM     75  C   UNL A   1      47.072  25.633  26.706  1.00  0.00     0.049 A 
ATOM     76  H   UNL A   1      45.380  26.626  27.485  1.00  0.00     0.167 HD
ATOM     77  C   UNL A   1      47.878  27.926  27.191  1.00  0.00     0.074 A 
ATOM     78  C   UNL A   1      48.902  28.948  27.238  1.00  0.00     0.031 C 
ATOM     79  C   UNL A   1      48.081  26.660  26.752  1.00  0.00     0.037 A 
BRANCH  66  80
ATOM     80  C   UNL A   1      43.071  23.062  27.062  1.00  0.00     0.057 A 
ATOM     81  C   UNL A   1      42.783  22.214  28.141  1.00  0.00     0.134 A 
ATOM     82  C   UNL A   1      42.747  22.606  25.778  1.00  0.00     0.134 A 
ATOM     83  F   UNL A   1      43.078  22.586  29.395  1.00  0.00    -0.206 F 
ATOM     84  C   UNL A   1      42.220  20.951  27.946  1.00  0.00     0.040 A 
ATOM     85  C   UNL A   1      42.159  21.356  25.573  1.00  0.00     0.040 A 
ATOM     86  F   UNL A   1      42.990  23.370  24.702  1.00  0.00    -0.206 F 
ATOM     87  C   UNL A   1      41.901  20.522  26.659  1.00  0.00     0.006 A 
ENDBRANCH  66  80
BRANCH  67  88
ATOM     88  C   UNL A   1      46.702  32.179  28.806  1.00  0.00     0.057 A 
ATOM     89  C   UNL A   1      46.744  33.167  27.816  1.00  0.00     0.134 A 
ATOM     90  C   UNL A   1      47.209  32.506  30.069  1.00  0.00     0.134 A 
ATOM     91  F   UNL A   1      46.291  32.905  26.582  1.00  0.00    -0.206 F 
ATOM     92  C   UNL A   1      47.287  34.429  28.066  1.00  0.00     0.040 A 
ATOM     93  C   UNL A   1      47.734  33.771  30.340  1.00  0.00     0.040 A 
ATOM     94  F   UNL A   1      47.191  31.604  31.062  1.00  0.00    -0.206 F 
ATOM     95  C   UNL A   1      47.779  34.734  29.334  1.00  0.00     0.006 A 
ENDBRANCH  67  88
BRANCH  79  96
ATOM     96  C   UNL A   1      49.455  26.318  26.256  1.00  0.00     0.057 A 
ATOM     97  C   UNL A   1      49.867  26.623  24.953  1.00  0.00     0.134 A 
ATOM     98  C   UNL A   1      50.388  25.709  27.106  1.00  0.00     0.134 A 
ATOM     99  F   UNL A   1      49.017  27.193  24.087  1.00  0.00    -0.206 F 
ATOM    100  C   UNL A   1      51.154  26.316  24.506  1.00  0.00     0.040 A 
ATOM    101  C   UNL A   1      51.684  25.420  26.677  1.00  0.00     0.040 A 
ATOM    102  F   UNL A   1      50.059  25.398  28.368  1.00  0.00    -0.206 F 
ATOM    103  C   UNL A   1      52.069  25.719  25.372  1.00  0.00     0.006 A 
ENDBRANCH  79  96
ENDBRANCH  53  54
ENDBRANCH  45  48
ENDBRANCH  43  44
ENDBRANCH  42  43
ENDBRANCH  41  42
ENDBRANCH  40  41
ENDBRANCH   3  40
TORSDOF 17
ENDMDL
MODEL 3
REMARK VINA RESULT:     -12.8      2.812      9.627
REMARK SMILES O=C(COc1cccc(NC(=O)c2ccc3c(c2)C(=O)N(c2ccccc2-c2ccccc2)C3=O)c1)NCCCCNC(=O)c1ccc(-c2c3nc(c(-c4c(F)cccc4F)c4ccc([nH]4)c(-c4c(F)cccc4F)c4nc(c(-c5c(F)cccc5F)c5ccc2[nH]5)C=C4)C=C3)cc1
REMARK SMILES IDX 1 1 2 2 37 3 3 5 4 6 5 7 6 8 36 9 7 10 9 11 8 12 10 13 11 14
REMARK SMILES IDX 12 16 13 17 14 18 18 19 15 20 17 21 16 22 19 23 34 24 20 25
REMARK SMILES IDX 21 26 35 27 22 28 23 29 27 30 24 31 26 32 25 33 28 34 29 35
REMARK SMILES IDX 33 36 30 37 32 38 31 39 38 40 39 41 40 42 41 43 42 44 43 45
REMARK SMILES IDX 44 47 45 48 46 49 98 50 47 51 97 52 48 53 49 54 50 55 91 56
REMARK SMILES IDX 51 57 96 58 90 59 92 60 52 61 95 62 89 63 88 64 53 66 79 67
REMARK SMILES IDX 62 68 78 69 63 70 66 71 77 72 93 73 64 74 65 75 76 77 94 78
REMARK SMILES IDX 67 79 54 80 55 81 60 82 56 83 57 84 59 85 61 86 58 87 80 88
REMARK SMILES IDX 81 89 86 90 82 91 83 92 85 93 87 94 84 95 68 96 69 97 74 98
REMARK SMILES IDX 70 99 71 100 73 101 75 102 72 103
REMARK H PARENT 37 4 10 15 42 46 92 65 66 76
REMARK Flexibility Score: inf
ROOT
ATOM      1  O   UNL A   1      43.498  18.935  24.825  1.00  0.00    -0.271 OA
ATOM      2  C   UNL A   1      43.048  19.752  25.623  1.00  0.00     0.257 C 
ATOM      3  N   UNL A   1      43.653  20.961  25.904  1.00  0.00    -0.353 N 
ATOM      4  H   UNL A   1      43.151  21.637  26.414  1.00  0.00     0.163 HD
ENDROOT
BRANCH   2   5
ATOM      5  C   UNL A   1      41.773  19.490  26.426  1.00  0.00     0.329 C 
BRANCH   5   6
ATOM      6  O   UNL A   1      40.694  18.935  25.682  1.00  0.00    -0.484 OA
BRANCH   6   7
ATOM      7  C   UNL A   1      39.533  19.662  25.663  1.00  0.00     0.122 A 
ATOM      8  C   UNL A   1      38.501  19.092  24.926  1.00  0.00     0.046 A 
ATOM      9  C   UNL A   1      39.393  20.963  26.178  1.00  0.00     0.072 A 
ATOM     10  C   UNL A   1      37.348  19.823  24.687  1.00  0.00     0.006 A 
ATOM     11  C   UNL A   1      38.241  21.722  25.926  1.00  0.00     0.045 A 
ATOM     12  C   UNL A   1      37.236  21.131  25.163  1.00  0.00     0.026 A 
BRANCH  11  13
ATOM     13  N   UNL A   1      38.234  23.076  26.354  1.00  0.00    -0.322 N 
ATOM     14  C   UNL A   1      37.306  24.099  26.218  1.00  0.00     0.255 C 
ATOM     15  H   UNL A   1      39.046  23.342  26.844  1.00  0.00     0.170 HD
ATOM     16  O   UNL A   1      37.602  25.269  26.429  1.00  0.00    -0.269 OA
BRANCH  14  17
ATOM     17  C   UNL A   1      35.892  23.751  25.995  1.00  0.00     0.041 A 
ATOM     18  C   UNL A   1      35.108  23.200  27.032  1.00  0.00     0.015 A 
ATOM     19  C   UNL A   1      35.322  24.269  24.835  1.00  0.00     0.028 A 
ATOM     20  C   UNL A   1      33.716  23.399  27.023  1.00  0.00     0.015 A 
ATOM     21  C   UNL A   1      33.960  24.447  24.871  1.00  0.00     0.054 A 
ATOM     22  C   UNL A   1      33.187  24.111  25.956  1.00  0.00     0.053 A 
ATOM     23  C   UNL A   1      33.187  25.309  24.010  1.00  0.00     0.266 C 
ATOM     24  C   UNL A   1      31.936  24.871  25.819  1.00  0.00     0.266 C 
ATOM     25  O   UNL A   1      33.591  25.541  22.885  1.00  0.00    -0.268 OA
ATOM     26  N   UNL A   1      32.096  25.725  24.743  1.00  0.00    -0.242 N 
ATOM     27  O   UNL A   1      30.998  24.635  26.557  1.00  0.00    -0.268 OA
BRANCH  26  28
ATOM     28  C   UNL A   1      31.343  26.909  24.407  1.00  0.00     0.060 A 
ATOM     29  C   UNL A   1      30.373  26.811  23.378  1.00  0.00     0.027 A 
ATOM     30  C   UNL A   1      31.582  28.211  24.925  1.00  0.00     0.006 A 
ATOM     31  C   UNL A   1      29.676  27.907  22.865  1.00  0.00     0.002 A 
ATOM     32  C   UNL A   1      30.829  29.305  24.415  1.00  0.00     0.011 A 
ATOM     33  C   UNL A   1      29.896  29.161  23.393  1.00  0.00     0.001 A 
BRANCH  30  34
ATOM     34  C   UNL A   1      32.651  28.606  25.855  1.00  0.00    -0.016 A 
ATOM     35  C   UNL A   1      32.364  29.365  27.000  1.00  0.00     0.009 A 
ATOM     36  C   UNL A   1      33.997  28.359  25.540  1.00  0.00     0.009 A 
ATOM     37  C   UNL A   1      33.391  29.817  27.834  1.00  0.00     0.001 A 
ATOM     38  C   UNL A   1      35.024  28.821  26.366  1.00  0.00     0.001 A 
ATOM     39  C   UNL A   1      34.719  29.541  27.519  1.00  0.00     0.000 A 
ENDBRANCH  30  34
ENDBRANCH  26  28
ENDBRANCH  14  17
ENDBRANCH  11  13
ENDBRANCH   6   7
ENDBRANCH   5   6
ENDBRANCH   2   5
BRANCH   3  40
ATOM     40  C   UNL A   1      44.999  21.264  25.477  1.00  0.00     0.116 C 
BRANCH  40  41
ATOM     41  C   UNL A   1      45.482  22.628  25.949  1.00  0.00     0.023 C 
BRANCH  41  42
ATOM     42  C   UNL A   1      44.975  23.045  27.332  1.00  0.00     0.023 C 
BRANCH  42  43
ATOM     43  C   UNL A   1      44.039  24.251  27.361  1.00  0.00     0.116 C 
BRANCH  43  44
ATOM     44  N   UNL A   1      42.960  24.164  26.390  1.00  0.00    -0.352 N 
ATOM     45  C   UNL A   1      41.752  24.820  26.357  1.00  0.00     0.251 C 
ATOM     46  H   UNL A   1      43.119  23.542  25.644  1.00  0.00     0.163 HD
ATOM     47  O   UNL A   1      40.915  24.516  25.513  1.00  0.00    -0.269 OA
BRANCH  45  48
ATOM     48  C   UNL A   1      41.439  25.868  27.355  1.00  0.00     0.039 A 
ATOM     49  C   UNL A   1      40.429  25.621  28.291  1.00  0.00     0.014 A 
ATOM     50  C   UNL A   1      42.120  27.087  27.369  1.00  0.00     0.014 A 
ATOM     51  C   UNL A   1      40.158  26.563  29.287  1.00  0.00     0.010 A 
ATOM     52  C   UNL A   1      41.894  27.997  28.401  1.00  0.00     0.010 A 
ATOM     53  C   UNL A   1      40.915  27.742  29.375  1.00  0.00    -0.014 A 
BRANCH  53  54
ATOM     54  C   UNL A   1      40.710  28.708  30.485  1.00  0.00     0.031 A 
ATOM     55  C   UNL A   1      39.631  29.752  30.397  1.00  0.00     0.074 A 
ATOM     56  C   UNL A   1      41.542  28.693  31.545  1.00  0.00     0.049 A 
ATOM     57  N   UNL A   1      39.356  30.729  31.223  1.00  0.00    -0.248 NA
ATOM     58  C   UNL A   1      38.763  29.706  29.211  1.00  0.00     0.031 C 
ATOM     59  C   UNL A   1      42.658  27.763  31.732  1.00  0.00     0.029 A 
ATOM     60  N   UNL A   1      41.589  29.495  32.658  1.00  0.00    -0.354 N 
ATOM     61  C   UNL A   1      38.296  31.421  30.652  1.00  0.00     0.074 A 
ATOM     62  C   UNL A   1      38.008  30.781  29.385  1.00  0.00     0.031 C 
ATOM     63  C   UNL A   1      43.267  28.036  32.897  1.00  0.00     0.029 A 
ATOM     64  C   UNL A   1      42.610  29.181  33.521  1.00  0.00     0.049 A 
ATOM     65  H   UNL A   1      40.949  30.225  32.823  1.00  0.00     0.167 HD
ATOM     66  C   UNL A   1      37.608  32.479  31.146  1.00  0.00     0.037 A 
ATOM     67  C   UNL A   1      42.983  29.756  34.680  1.00  0.00     0.037 A 
ATOM     68  C   UNL A   1      37.877  33.101  32.417  1.00  0.00     0.049 A 
ATOM     69  C   UNL A   1      42.207  30.930  35.207  1.00  0.00     0.074 A 
ATOM     70  C   UNL A   1      37.199  34.142  33.027  1.00  0.00     0.029 A 
ATOM     71  N   UNL A   1      38.907  32.738  33.272  1.00  0.00    -0.354 N 
ATOM     72  N   UNL A   1      41.170  31.535  34.683  1.00  0.00    -0.248 NA
ATOM     73  C   UNL A   1      42.651  31.497  36.489  1.00  0.00     0.031 C 
ATOM     74  C   UNL A   1      37.842  34.435  34.235  1.00  0.00     0.029 A 
ATOM     75  C   UNL A   1      38.893  33.548  34.397  1.00  0.00     0.049 A 
ATOM     76  H   UNL A   1      39.551  32.013  33.106  1.00  0.00     0.167 HD
ATOM     77  C   UNL A   1      40.820  32.536  35.582  1.00  0.00     0.074 A 
ATOM     78  C   UNL A   1      41.749  32.447  36.689  1.00  0.00     0.031 C 
ATOM     79  C   UNL A   1      39.820  33.446  35.495  1.00  0.00     0.037 A 
BRANCH  66  80
ATOM     80  C   UNL A   1      36.493  33.029  30.308  1.00  0.00     0.057 A 
ATOM     81  C   UNL A   1      36.736  33.905  29.241  1.00  0.00     0.134 A 
ATOM     82  C   UNL A   1      35.164  32.655  30.546  1.00  0.00     0.134 A 
ATOM     83  F   UNL A   1      37.984  34.311  28.967  1.00  0.00    -0.206 F 
ATOM     84  C   UNL A   1      35.695  34.410  28.460  1.00  0.00     0.040 A 
ATOM     85  C   UNL A   1      34.118  33.132  29.755  1.00  0.00     0.040 A 
ATOM     86  F   UNL A   1      34.862  31.814  31.548  1.00  0.00    -0.206 F 
ATOM     87  C   UNL A   1      34.382  34.018  28.712  1.00  0.00     0.006 A 
ENDBRANCH  66  80
BRANCH  67  88
ATOM     88  C   UNL A   1      44.141  29.215  35.436  1.00  0.00     0.057 A 
ATOM     89  C   UNL A   1      45.430  29.726  35.245  1.00  0.00     0.134 A 
ATOM     90  C   UNL A   1      43.988  28.174  36.360  1.00  0.00     0.134 A 
ATOM     91  F   UNL A   1      45.640  30.709  34.358  1.00  0.00    -0.206 F 
ATOM     92  C   UNL A   1      46.530  29.210  35.932  1.00  0.00     0.040 A 
ATOM     93  C   UNL A   1      45.076  27.664  37.072  1.00  0.00     0.040 A 
ATOM     94  F   UNL A   1      42.778  27.646  36.592  1.00  0.00    -0.206 F 
ATOM     95  C   UNL A   1      46.352  28.180  36.853  1.00  0.00     0.006 A 
ENDBRANCH  67  88
BRANCH  79  96
ATOM     96  C   UNL A   1      39.656  34.397  36.643  1.00  0.00     0.057 A 
ATOM     97  C   UNL A   1      38.883  34.075  37.766  1.00  0.00     0.134 A 
ATOM     98  C   UNL A   1      40.310  35.637  36.640  1.00  0.00     0.134 A 
ATOM     99  F   UNL A   1      38.222  32.910  37.824  1.00  0.00    -0.206 F 
ATOM    100  C   UNL A   1      38.752  34.961  38.837  1.00  0.00     0.040 A 
ATOM    101  C   UNL A   1      40.204  36.519  37.716  1.00  0.00     0.040 A 
ATOM    102  F   UNL A   1      41.071  36.003  35.598  1.00  0.00    -0.206 F 
ATOM    103  C   UNL A   1      39.419  36.184  38.816  1.00  0.00     0.006 A 
ENDBRANCH  79  96
ENDBRANCH  53  54
ENDBRANCH  45  48
ENDBRANCH  43  44
ENDBRANCH  42  43
ENDBRANCH  41  42
ENDBRANCH  40  41
ENDBRANCH   3  40
TORSDOF 17
ENDMDL
