MODEL 1
REMARK VINA RESULT:     -11.5      0.000      0.000
REMARK SMILES C[C@]1(C(=O)NCc2ccc(C(=O)NCCCCNC(=O)c3ccc(-c4c5nc(c(-c6c(F)cccc6F)c6ccc([nH]6)c(-c6c(F)cccc6F)c6nc(c(-c7c(F)cccc7F)c7ccc4[nH]7)C=C6)C=C5)cc3)o2)CCC[NH2+]C1
REMARK SMILES IDX 15 1 14 2 13 3 11 4 12 5 10 7 7 8 8 9 75 10 9 11 6 12 5 13
REMARK SMILES IDX 3 14 4 15 2 17 1 18 76 19 80 20 77 21 79 22 78 23 16 26
REMARK SMILES IDX 17 27 18 28 19 29 20 31 21 32 22 33 74 34 23 35 73 36 24 37
REMARK SMILES IDX 25 38 26 39 67 40 27 41 72 42 66 43 68 44 28 45 71 46 65 47
REMARK SMILES IDX 64 48 29 50 55 51 38 52 54 53 39 54 42 55 53 56 69 57 40 58
REMARK SMILES IDX 41 59 52 61 70 62 43 63 30 64 31 65 36 66 32 67 33 68 35 69
REMARK SMILES IDX 37 70 34 71 56 72 57 73 62 74 58 75 59 76 61 77 63 78 60 79
REMARK SMILES IDX 44 80 45 81 50 82 46 83 47 84 49 85 51 86 48 87
REMARK H PARENT 13 6 5 16 79 24 79 25 18 30 68 49 42 60
REMARK Flexibility Score: inf
ROOT
ATOM      1  C   UNL A   1      32.754  29.710  25.070  1.00  0.00     0.023 C 
ENDROOT
BRANCH   1   2
ATOM      2  C   UNL A   1      31.239  29.506  25.022  1.00  0.00     0.116 C 
BRANCH   2   3
ATOM      3  N   UNL A   1      30.705  29.703  23.692  1.00  0.00    -0.349 N 
ATOM      4  C   UNL A   1      30.597  28.829  22.630  1.00  0.00     0.286 C 
ATOM      5  O   UNL A   1      29.955  29.248  21.662  1.00  0.00    -0.266 OA
ATOM      6  H   UNL A   1      30.365  30.610  23.515  1.00  0.00     0.163 HD
BRANCH   4   7
ATOM      7  C   UNL A   1      31.206  27.510  22.667  1.00  0.00     0.191 A 
ATOM      8  C   UNL A   1      31.215  25.352  23.200  1.00  0.00     0.124 A 
ATOM      9  C   UNL A   1      32.378  25.590  22.502  1.00  0.00     0.048 A 
ATOM     10  O   UNL A   1      30.493  26.506  23.289  1.00  0.00    -0.454 OA
ATOM     11  C   UNL A   1      32.378  26.962  22.174  1.00  0.00     0.056 A 
BRANCH   8  12
ATOM     12  C   UNL A   1      30.617  24.133  23.806  1.00  0.00     0.191 C 
BRANCH  12  13
ATOM     13  N   UNL A   1      30.725  24.216  25.252  1.00  0.00    -0.348 N 
ATOM     14  C   UNL A   1      31.658  23.859  26.160  1.00  0.00     0.232 C 
ATOM     15  O   UNL A   1      31.210  23.773  27.316  1.00  0.00    -0.274 OA
ATOM     16  H   UNL A   1      29.934  24.630  25.667  1.00  0.00     0.163 HD
BRANCH  14  17
ATOM     17  C   UNL A   1      33.160  23.571  25.915  1.00  0.00     0.095 C 
ATOM     18  C   UNL A   1      33.799  24.990  25.835  1.00  0.00     0.028 C 
ATOM     19  C   UNL A   1      33.779  22.869  27.148  1.00  0.00     0.028 C 
ATOM     20  C   UNL A   1      33.574  22.832  24.634  1.00  0.00     0.277 C 
ATOM     21  C   UNL A   1      33.572  21.360  27.134  1.00  0.00     0.063 C 
ATOM     22  N   UNL A   1      33.359  21.385  24.668  1.00  0.00    -0.345 N 
ATOM     23  C   UNL A   1      33.992  20.737  25.808  1.00  0.00     0.260 C 
ATOM     24  H   UNL A   1      32.355  21.208  24.710  1.00  0.00     0.346 HD
ATOM     25  H   UNL A   1      33.783  20.996  23.825  1.00  0.00     0.346 HD
ENDBRANCH  14  17
ENDBRANCH  12  13
ENDBRANCH   8  12
ENDBRANCH   4   7
ENDBRANCH   2   3
ENDBRANCH   1   2
BRANCH   1  26
ATOM     26  C   UNL A   1      33.535  28.547  25.687  1.00  0.00     0.023 C 
BRANCH  26  27
ATOM     27  C   UNL A   1      33.731  28.620  27.199  1.00  0.00     0.116 C 
BRANCH  27  28
ATOM     28  N   UNL A   1      33.699  29.975  27.728  1.00  0.00    -0.352 N 
ATOM     29  C   UNL A   1      34.700  30.678  28.355  1.00  0.00     0.251 C 
ATOM     30  H   UNL A   1      32.845  30.454  27.621  1.00  0.00     0.163 HD
ATOM     31  O   UNL A   1      34.474  31.787  28.830  1.00  0.00    -0.269 OA
BRANCH  29  32
ATOM     32  C   UNL A   1      36.040  30.071  28.494  1.00  0.00     0.039 A 
ATOM     33  C   UNL A   1      36.926  30.149  27.417  1.00  0.00     0.014 A 
ATOM     34  C   UNL A   1      36.432  29.462  29.689  1.00  0.00     0.014 A 
ATOM     35  C   UNL A   1      38.234  29.686  27.568  1.00  0.00     0.010 A 
ATOM     36  C   UNL A   1      37.756  29.070  29.860  1.00  0.00     0.010 A 
ATOM     37  C   UNL A   1      38.672  29.184  28.804  1.00  0.00    -0.014 A 
BRANCH  37  38
ATOM     38  C   UNL A   1      40.093  28.804  29.013  1.00  0.00     0.031 A 
ATOM     39  C   UNL A   1      41.058  29.772  29.637  1.00  0.00     0.074 A 
ATOM     40  C   UNL A   1      40.526  27.602  28.585  1.00  0.00     0.049 A 
ATOM     41  N   UNL A   1      42.339  29.628  29.868  1.00  0.00    -0.248 NA
ATOM     42  C   UNL A   1      40.521  31.084  30.032  1.00  0.00     0.031 C 
ATOM     43  C   UNL A   1      39.701  26.596  27.911  1.00  0.00     0.029 A 
ATOM     44  N   UNL A   1      41.769  27.024  28.645  1.00  0.00    -0.354 N 
ATOM     45  C   UNL A   1      42.760  30.830  30.425  1.00  0.00     0.074 A 
ATOM     46  C   UNL A   1      41.613  31.711  30.444  1.00  0.00     0.031 C 
ATOM     47  C   UNL A   1      40.452  25.515  27.648  1.00  0.00     0.029 A 
ATOM     48  C   UNL A   1      41.818  25.764  28.099  1.00  0.00     0.049 A 
ATOM     49  H   UNL A   1      42.551  27.469  29.043  1.00  0.00     0.167 HD
ATOM     50  C   UNL A   1      43.985  31.158  30.901  1.00  0.00     0.037 A 
ATOM     51  C   UNL A   1      42.848  24.906  27.971  1.00  0.00     0.037 A 
ATOM     52  C   UNL A   1      45.121  30.273  30.894  1.00  0.00     0.049 A 
ATOM     53  C   UNL A   1      44.199  25.300  28.499  1.00  0.00     0.074 A 
ATOM     54  C   UNL A   1      46.387  30.493  31.407  1.00  0.00     0.029 A 
ATOM     55  N   UNL A   1      45.130  29.003  30.339  1.00  0.00    -0.354 N 
ATOM     56  N   UNL A   1      44.563  26.409  29.096  1.00  0.00    -0.248 NA
ATOM     57  C   UNL A   1      45.283  24.320  28.340  1.00  0.00     0.031 C 
ATOM     58  C   UNL A   1      47.176  29.375  31.119  1.00  0.00     0.029 A 
ATOM     59  C   UNL A   1      46.387  28.437  30.474  1.00  0.00     0.049 A 
ATOM     60  H   UNL A   1      44.357  28.567  29.912  1.00  0.00     0.167 HD
ATOM     61  C   UNL A   1      45.908  26.251  29.407  1.00  0.00     0.074 A 
ATOM     62  C   UNL A   1      46.288  24.929  28.951  1.00  0.00     0.031 C 
ATOM     63  C   UNL A   1      46.752  27.121  30.013  1.00  0.00     0.037 A 
BRANCH  50  64
ATOM     64  C   UNL A   1      44.158  32.536  31.473  1.00  0.00     0.057 A 
ATOM     65  C   UNL A   1      43.947  32.804  32.832  1.00  0.00     0.134 A 
ATOM     66  C   UNL A   1      44.578  33.600  30.665  1.00  0.00     0.134 A 
ATOM     67  F   UNL A   1      43.533  31.832  33.660  1.00  0.00    -0.206 F 
ATOM     68  C   UNL A   1      44.121  34.085  33.361  1.00  0.00     0.040 A 
ATOM     69  C   UNL A   1      44.784  34.879  31.187  1.00  0.00     0.040 A 
ATOM     70  F   UNL A   1      44.805  33.414  29.356  1.00  0.00    -0.206 F 
ATOM     71  C   UNL A   1      44.548  35.125  32.538  1.00  0.00     0.006 A 
ENDBRANCH  50  64
BRANCH  51  72
ATOM     72  C   UNL A   1      42.640  23.580  27.335  1.00  0.00     0.057 A 
ATOM     73  C   UNL A   1      42.236  22.472  28.090  1.00  0.00     0.134 A 
ATOM     74  C   UNL A   1      42.853  23.383  25.966  1.00  0.00     0.134 A 
ATOM     75  F   UNL A   1      42.033  22.592  29.410  1.00  0.00    -0.206 F 
ATOM     76  C   UNL A   1      42.073  21.212  27.511  1.00  0.00     0.040 A 
ATOM     77  C   UNL A   1      42.667  22.135  25.368  1.00  0.00     0.040 A 
ATOM     78  F   UNL A   1      43.233  24.405  25.185  1.00  0.00    -0.206 F 
ATOM     79  C   UNL A   1      42.285  21.043  26.144  1.00  0.00     0.006 A 
ENDBRANCH  51  72
BRANCH  63  80
ATOM     80  C   UNL A   1      48.162  26.658  30.242  1.00  0.00     0.057 A 
ATOM     81  C   UNL A   1      49.186  26.916  29.322  1.00  0.00     0.134 A 
ATOM     82  C   UNL A   1      48.505  25.966  31.412  1.00  0.00     0.134 A 
ATOM     83  F   UNL A   1      48.922  27.563  28.177  1.00  0.00    -0.206 F 
ATOM     84  C   UNL A   1      50.493  26.479  29.541  1.00  0.00     0.040 A 
ATOM     85  C   UNL A   1      49.814  25.550  31.657  1.00  0.00     0.040 A 
ATOM     86  F   UNL A   1      47.576  25.694  32.341  1.00  0.00    -0.206 F 
ATOM     87  C   UNL A   1      50.811  25.798  30.716  1.00  0.00     0.006 A 
ENDBRANCH  63  80
ENDBRANCH  37  38
ENDBRANCH  29  32
ENDBRANCH  27  28
ENDBRANCH  26  27
ENDBRANCH   1  26
TORSDOF 14
ENDMDL
MODEL 2
REMARK VINA RESULT:     -11.4      3.725      5.306
REMARK SMILES C[C@]1(C(=O)NCc2ccc(C(=O)NCCCCNC(=O)c3ccc(-c4c5nc(c(-c6c(F)cccc6F)c6ccc([nH]6)c(-c6c(F)cccc6F)c6nc(c(-c7c(F)cccc7F)c7ccc4[nH]7)C=C6)C=C5)cc3)o2)CCC[NH2+]C1
REMARK SMILES IDX 15 1 14 2 13 3 11 4 12 5 10 7 7 8 8 9 75 10 9 11 6 12 5 13
REMARK SMILES IDX 3 14 4 15 2 17 1 18 76 19 80 20 77 21 79 22 78 23 16 26
REMARK SMILES IDX 17 27 18 28 19 29 20 31 21 32 22 33 74 34 23 35 73 36 24 37
REMARK SMILES IDX 25 38 26 39 67 40 27 41 72 42 66 43 68 44 28 45 71 46 65 47
REMARK SMILES IDX 64 48 29 50 55 51 38 52 54 53 39 54 42 55 53 56 69 57 40 58
REMARK SMILES IDX 41 59 52 61 70 62 43 63 30 64 31 65 36 66 32 67 33 68 35 69
REMARK SMILES IDX 37 70 34 71 56 72 57 73 62 74 58 75 59 76 61 77 63 78 60 79
REMARK SMILES IDX 44 80 45 81 50 82 46 83 47 84 49 85 51 86 48 87
REMARK H PARENT 13 6 5 16 79 24 79 25 18 30 68 49 42 60
REMARK Flexibility Score: inf
ROOT
ATOM      1  C   UNL A   1      31.683  30.704  26.114  1.00  0.00     0.023 C 
ENDROOT
BRANCH   1   2
ATOM      2  C   UNL A   1      31.898  29.707  27.254  1.00  0.00     0.116 C 
BRANCH   2   3
ATOM      3  N   UNL A   1      33.301  29.507  27.546  1.00  0.00    -0.349 N 
ATOM      4  C   UNL A   1      34.236  28.695  26.938  1.00  0.00     0.286 C 
ATOM      5  O   UNL A   1      35.400  28.852  27.320  1.00  0.00    -0.266 OA
ATOM      6  H   UNL A   1      33.643  30.037  28.302  1.00  0.00     0.163 HD
BRANCH   4   7
ATOM      7  C   UNL A   1      33.858  27.725  25.925  1.00  0.00     0.191 A 
ATOM      8  C   UNL A   1      32.960  25.799  25.272  1.00  0.00     0.124 A 
ATOM      9  C   UNL A   1      33.338  26.466  24.128  1.00  0.00     0.048 A 
ATOM     10  O   UNL A   1      33.256  26.563  26.363  1.00  0.00    -0.454 OA
ATOM     11  C   UNL A   1      33.918  27.683  24.543  1.00  0.00     0.056 A 
BRANCH   8  12
ATOM     12  C   UNL A   1      32.293  24.494  25.522  1.00  0.00     0.191 C 
BRANCH  12  13
ATOM     13  N   UNL A   1      33.084  23.727  26.468  1.00  0.00    -0.348 N 
ATOM     14  C   UNL A   1      34.086  22.830  26.365  1.00  0.00     0.232 C 
ATOM     15  O   UNL A   1      34.238  22.143  27.389  1.00  0.00    -0.274 OA
ATOM     16  H   UNL A   1      32.830  23.903  27.403  1.00  0.00     0.163 HD
BRANCH  14  17
ATOM     17  C   UNL A   1      35.028  22.592  25.158  1.00  0.00     0.095 C 
ATOM     18  C   UNL A   1      34.052  22.439  23.953  1.00  0.00     0.028 C 
ATOM     19  C   UNL A   1      35.881  23.855  24.887  1.00  0.00     0.028 C 
ATOM     20  C   UNL A   1      35.927  21.347  25.154  1.00  0.00     0.277 C 
ATOM     21  C   UNL A   1      37.136  23.916  25.748  1.00  0.00     0.063 C 
ATOM     22  N   UNL A   1      37.120  21.453  25.993  1.00  0.00    -0.345 N 
ATOM     23  C   UNL A   1      37.935  22.621  25.688  1.00  0.00     0.260 C 
ATOM     24  H   UNL A   1      36.826  21.508  26.968  1.00  0.00     0.346 HD
ATOM     25  H   UNL A   1      37.693  20.629  25.811  1.00  0.00     0.346 HD
ENDBRANCH  14  17
ENDBRANCH  12  13
ENDBRANCH   8  12
ENDBRANCH   4   7
ENDBRANCH   2   3
ENDBRANCH   1   2
BRANCH   1  26
ATOM     26  C   UNL A   1      31.393  32.137  26.566  1.00  0.00     0.023 C 
BRANCH  26  27
ATOM     27  C   UNL A   1      32.534  32.835  27.302  1.00  0.00     0.116 C 
BRANCH  27  28
ATOM     28  N   UNL A   1      32.250  34.223  27.638  1.00  0.00    -0.352 N 
ATOM     29  C   UNL A   1      32.911  35.048  28.517  1.00  0.00     0.251 C 
ATOM     30  H   UNL A   1      31.481  34.625  27.172  1.00  0.00     0.163 HD
ATOM     31  O   UNL A   1      32.478  36.171  28.756  1.00  0.00    -0.269 OA
BRANCH  29  32
ATOM     32  C   UNL A   1      34.122  34.557  29.206  1.00  0.00     0.039 A 
ATOM     33  C   UNL A   1      33.989  34.001  30.481  1.00  0.00     0.014 A 
ATOM     34  C   UNL A   1      35.373  34.610  28.586  1.00  0.00     0.014 A 
ATOM     35  C   UNL A   1      35.101  33.427  31.100  1.00  0.00     0.010 A 
ATOM     36  C   UNL A   1      36.461  33.971  29.172  1.00  0.00     0.010 A 
ATOM     37  C   UNL A   1      36.335  33.367  30.432  1.00  0.00    -0.014 A 
BRANCH  37  38
ATOM     38  C   UNL A   1      37.491  32.649  31.027  1.00  0.00     0.031 A 
ATOM     39  C   UNL A   1      38.096  33.117  32.321  1.00  0.00     0.074 A 
ATOM     40  C   UNL A   1      38.033  31.607  30.368  1.00  0.00     0.049 A 
ATOM     41  N   UNL A   1      39.125  32.637  32.972  1.00  0.00    -0.248 NA
ATOM     42  C   UNL A   1      37.480  34.294  32.955  1.00  0.00     0.031 C 
ATOM     43  C   UNL A   1      37.574  31.093  29.075  1.00  0.00     0.029 A 
ATOM     44  N   UNL A   1      39.092  30.796  30.689  1.00  0.00    -0.354 N 
ATOM     45  C   UNL A   1      39.284  33.455  34.084  1.00  0.00     0.074 A 
ATOM     46  C   UNL A   1      38.284  34.496  33.989  1.00  0.00     0.031 C 
ATOM     47  C   UNL A   1      38.328  30.037  28.729  1.00  0.00     0.029 A 
ATOM     48  C   UNL A   1      39.344  29.822  29.753  1.00  0.00     0.049 A 
ATOM     49  H   UNL A   1      39.621  30.902  31.513  1.00  0.00     0.167 HD
ATOM     50  C   UNL A   1      40.167  33.334  35.104  1.00  0.00     0.037 A 
ATOM     51  C   UNL A   1      40.291  28.865  29.721  1.00  0.00     0.037 A 
ATOM     52  C   UNL A   1      41.152  32.288  35.203  1.00  0.00     0.049 A 
ATOM     53  C   UNL A   1      41.265  28.759  30.862  1.00  0.00     0.074 A 
ATOM     54  C   UNL A   1      42.051  32.046  36.228  1.00  0.00     0.029 A 
ATOM     55  N   UNL A   1      41.372  31.315  34.240  1.00  0.00    -0.354 N 
ATOM     56  N   UNL A   1      41.352  29.491  31.946  1.00  0.00    -0.248 NA
ATOM     57  C   UNL A   1      42.269  27.689  30.777  1.00  0.00     0.031 C 
ATOM     58  C   UNL A   1      42.848  30.957  35.861  1.00  0.00     0.029 A 
ATOM     59  C   UNL A   1      42.410  30.487  34.634  1.00  0.00     0.049 A 
ATOM     60  H   UNL A   1      40.865  31.226  33.401  1.00  0.00     0.167 HD
ATOM     61  C   UNL A   1      42.401  28.956  32.684  1.00  0.00     0.074 A 
ATOM     62  C   UNL A   1      42.904  27.825  31.932  1.00  0.00     0.031 C 
ATOM     63  C   UNL A   1      42.903  29.365  33.874  1.00  0.00     0.037 A 
BRANCH  50  64
ATOM     64  C   UNL A   1      40.104  34.361  36.199  1.00  0.00     0.057 A 
ATOM     65  C   UNL A   1      39.304  34.181  37.336  1.00  0.00     0.134 A 
ATOM     66  C   UNL A   1      40.882  35.524  36.135  1.00  0.00     0.134 A 
ATOM     67  F   UNL A   1      38.526  33.094  37.455  1.00  0.00    -0.206 F 
ATOM     68  C   UNL A   1      39.259  35.134  38.356  1.00  0.00     0.040 A 
ATOM     69  C   UNL A   1      40.867  36.470  37.163  1.00  0.00     0.040 A 
ATOM     70  F   UNL A   1      41.675  35.757  35.080  1.00  0.00    -0.206 F 
ATOM     71  C   UNL A   1      40.048  36.279  38.273  1.00  0.00     0.006 A 
ENDBRANCH  50  64
BRANCH  51  72
ATOM     72  C   UNL A   1      40.353  27.915  28.581  1.00  0.00     0.057 A 
ATOM     73  C   UNL A   1      39.701  26.677  28.635  1.00  0.00     0.134 A 
ATOM     74  C   UNL A   1      41.076  28.212  27.420  1.00  0.00     0.134 A 
ATOM     75  F   UNL A   1      39.008  26.327  29.728  1.00  0.00    -0.206 F 
ATOM     76  C   UNL A   1      39.783  25.760  27.586  1.00  0.00     0.040 A 
ATOM     77  C   UNL A   1      41.143  27.316  26.350  1.00  0.00     0.040 A 
ATOM     78  F   UNL A   1      41.716  29.384  27.301  1.00  0.00    -0.206 F 
ATOM     79  C   UNL A   1      40.502  26.082  26.437  1.00  0.00     0.006 A 
ENDBRANCH  51  72
BRANCH  63  80
ATOM     80  C   UNL A   1      44.037  28.567  34.449  1.00  0.00     0.057 A 
ATOM     81  C   UNL A   1      45.376  28.902  34.208  1.00  0.00     0.134 A 
ATOM     82  C   UNL A   1      43.787  27.462  35.274  1.00  0.00     0.134 A 
ATOM     83  F   UNL A   1      45.685  29.940  33.417  1.00  0.00    -0.206 F 
ATOM     84  C   UNL A   1      46.424  28.151  34.743  1.00  0.00     0.040 A 
ATOM     85  C   UNL A   1      44.826  26.722  35.838  1.00  0.00     0.040 A 
ATOM     86  F   UNL A   1      42.528  27.091  35.553  1.00  0.00    -0.206 F 
ATOM     87  C   UNL A   1      46.150  27.060  35.567  1.00  0.00     0.006 A 
ENDBRANCH  63  80
ENDBRANCH  37  38
ENDBRANCH  29  32
ENDBRANCH  27  28
ENDBRANCH  26  27
ENDBRANCH   1  26
TORSDOF 14
ENDMDL
MODEL 3
REMARK VINA RESULT:     -11.4      2.672      7.861
REMARK SMILES C[C@]1(C(=O)NCc2ccc(C(=O)NCCCCNC(=O)c3ccc(-c4c5nc(c(-c6c(F)cccc6F)c6ccc([nH]6)c(-c6c(F)cccc6F)c6nc(c(-c7c(F)cccc7F)c7ccc4[nH]7)C=C6)C=C5)cc3)o2)CCC[NH2+]C1
REMARK SMILES IDX 15 1 14 2 13 3 11 4 12 5 10 7 7 8 8 9 75 10 9 11 6 12 5 13
REMARK SMILES IDX 3 14 4 15 2 17 1 18 76 19 80 20 77 21 79 22 78 23 16 26
REMARK SMILES IDX 17 27 18 28 19 29 20 31 21 32 22 33 74 34 23 35 73 36 24 37
REMARK SMILES IDX 25 38 26 39 67 40 27 41 72 42 66 43 68 44 28 45 71 46 65 47
REMARK SMILES IDX 64 48 29 50 55 51 38 52 54 53 39 54 42 55 53 56 69 57 40 58
REMARK SMILES IDX 41 59 52 61 70 62 43 63 30 64 31 65 36 66 32 67 33 68 35 69
REMARK SMILES IDX 37 70 34 71 56 72 57 73 62 74 58 75 59 76 61 77 63 78 60 79
REMARK SMILES IDX 44 80 45 81 50 82 46 83 47 84 49 85 51 86 48 87
REMARK H PARENT 13 6 5 16 79 24 79 25 18 30 68 49 42 60
REMARK Flexibility Score: inf
ROOT
ATOM      1  C   UNL A   1      36.747  21.139  24.675  1.00  0.00     0.023 C 
ENDROOT
BRANCH   1   2
ATOM      2  C   UNL A   1      35.678  21.383  25.741  1.00  0.00     0.116 C 
BRANCH   2   3
ATOM      3  N   UNL A   1      34.672  20.343  25.753  1.00  0.00    -0.349 N 
ATOM      4  C   UNL A   1      33.393  20.326  25.238  1.00  0.00     0.286 C 
ATOM      5  O   UNL A   1      32.821  19.232  25.273  1.00  0.00    -0.266 OA
ATOM      6  H   UNL A   1      34.946  19.510  26.203  1.00  0.00     0.163 HD
BRANCH   4   7
ATOM      7  C   UNL A   1      32.775  21.527  24.699  1.00  0.00     0.191 A 
ATOM      8  C   UNL A   1      31.534  23.361  24.882  1.00  0.00     0.124 A 
ATOM      9  C   UNL A   1      32.015  23.339  23.592  1.00  0.00     0.048 A 
ATOM     10  O   UNL A   1      32.003  22.277  25.563  1.00  0.00    -0.454 OA
ATOM     11  C   UNL A   1      32.794  22.168  23.473  1.00  0.00     0.056 A 
BRANCH   8  12
ATOM     12  C   UNL A   1      30.678  24.315  25.638  1.00  0.00     0.191 C 
BRANCH  12  13
ATOM     13  N   UNL A   1      30.108  25.279  24.715  1.00  0.00    -0.348 N 
ATOM     14  C   UNL A   1      30.260  26.604  24.506  1.00  0.00     0.232 C 
ATOM     15  O   UNL A   1      29.325  27.110  23.863  1.00  0.00    -0.274 OA
ATOM     16  H   UNL A   1      29.458  24.872  24.097  1.00  0.00     0.163 HD
BRANCH  14  17
ATOM     17  C   UNL A   1      31.435  27.508  24.957  1.00  0.00     0.095 C 
ATOM     18  C   UNL A   1      31.403  27.407  26.511  1.00  0.00     0.028 C 
ATOM     19  C   UNL A   1      32.784  26.904  24.495  1.00  0.00     0.028 C 
ATOM     20  C   UNL A   1      31.392  29.005  24.615  1.00  0.00     0.277 C 
ATOM     21  C   UNL A   1      33.144  27.288  23.066  1.00  0.00     0.063 C 
ATOM     22  N   UNL A   1      31.748  29.325  23.233  1.00  0.00    -0.345 N 
ATOM     23  C   UNL A   1      33.043  28.790  22.834  1.00  0.00     0.260 C 
ATOM     24  H   UNL A   1      31.034  28.938  22.616  1.00  0.00     0.346 HD
ATOM     25  H   UNL A   1      31.806  30.341  23.163  1.00  0.00     0.346 HD
ENDBRANCH  14  17
ENDBRANCH  12  13
ENDBRANCH   8  12
ENDBRANCH   4   7
ENDBRANCH   2   3
ENDBRANCH   1   2
BRANCH   1  26
ATOM     26  C   UNL A   1      37.671  19.952  24.959  1.00  0.00     0.023 C 
BRANCH  26  27
ATOM     27  C   UNL A   1      38.934  20.280  25.751  1.00  0.00     0.116 C 
BRANCH  27  28
ATOM     28  N   UNL A   1      39.909  19.200  25.769  1.00  0.00    -0.352 N 
ATOM     29  C   UNL A   1      41.259  19.263  26.020  1.00  0.00     0.251 C 
ATOM     30  H   UNL A   1      39.554  18.302  25.577  1.00  0.00     0.163 HD
ATOM     31  O   UNL A   1      41.959  18.262  25.899  1.00  0.00    -0.269 OA
BRANCH  29  32
ATOM     32  C   UNL A   1      41.871  20.556  26.393  1.00  0.00     0.039 A 
ATOM     33  C   UNL A   1      42.281  21.421  25.376  1.00  0.00     0.014 A 
ATOM     34  C   UNL A   1      42.003  20.927  27.733  1.00  0.00     0.014 A 
ATOM     35  C   UNL A   1      42.753  22.693  25.704  1.00  0.00     0.010 A 
ATOM     36  C   UNL A   1      42.403  22.221  28.054  1.00  0.00     0.010 A 
ATOM     37  C   UNL A   1      42.775  23.119  27.043  1.00  0.00    -0.014 A 
BRANCH  37  38
ATOM     38  C   UNL A   1      43.157  24.512  27.394  1.00  0.00     0.031 A 
ATOM     39  C   UNL A   1      44.597  24.940  27.364  1.00  0.00     0.074 A 
ATOM     40  C   UNL A   1      42.205  25.376  27.797  1.00  0.00     0.049 A 
ATOM     41  N   UNL A   1      45.120  26.100  27.669  1.00  0.00    -0.248 NA
ATOM     42  C   UNL A   1      45.583  23.924  26.963  1.00  0.00     0.031 C 
ATOM     43  C   UNL A   1      40.779  25.065  27.924  1.00  0.00     0.029 A 
ATOM     44  N   UNL A   1      42.292  26.690  28.180  1.00  0.00    -0.354 N 
ATOM     45  C   UNL A   1      46.492  25.952  27.505  1.00  0.00     0.074 A 
ATOM     46  C   UNL A   1      46.725  24.574  27.131  1.00  0.00     0.031 C 
ATOM     47  C   UNL A   1      40.123  26.166  28.327  1.00  0.00     0.029 A 
ATOM     48  C   UNL A   1      41.083  27.247  28.522  1.00  0.00     0.049 A 
ATOM     49  H   UNL A   1      43.141  27.188  28.207  1.00  0.00     0.167 HD
ATOM     50  C   UNL A   1      47.465  26.885  27.631  1.00  0.00     0.037 A 
ATOM     51  C   UNL A   1      40.782  28.488  28.949  1.00  0.00     0.037 A 
ATOM     52  C   UNL A   1      47.227  28.260  27.989  1.00  0.00     0.049 A 
ATOM     53  C   UNL A   1      41.883  29.502  29.089  1.00  0.00     0.074 A 
ATOM     54  C   UNL A   1      48.140  29.296  28.083  1.00  0.00     0.029 A 
ATOM     55  N   UNL A   1      45.988  28.788  28.320  1.00  0.00    -0.354 N 
ATOM     56  N   UNL A   1      43.165  29.369  28.852  1.00  0.00    -0.248 NA
ATOM     57  C   UNL A   1      41.492  30.842  29.549  1.00  0.00     0.031 C 
ATOM     58  C   UNL A   1      47.461  30.438  28.519  1.00  0.00     0.029 A 
ATOM     59  C   UNL A   1      46.118  30.129  28.645  1.00  0.00     0.049 A 
ATOM     60  H   UNL A   1      45.142  28.284  28.324  1.00  0.00     0.167 HD
ATOM     61  C   UNL A   1      43.731  30.612  29.110  1.00  0.00     0.074 A 
ATOM     62  C   UNL A   1      42.647  31.490  29.499  1.00  0.00     0.031 C 
ATOM     63  C   UNL A   1      45.030  30.991  29.032  1.00  0.00     0.037 A 
BRANCH  50  64
ATOM     64  C   UNL A   1      48.879  26.450  27.374  1.00  0.00     0.057 A 
ATOM     65  C   UNL A   1      49.710  25.993  28.407  1.00  0.00     0.134 A 
ATOM     66  C   UNL A   1      49.405  26.449  26.077  1.00  0.00     0.134 A 
ATOM     67  F   UNL A   1      49.273  25.977  29.675  1.00  0.00    -0.206 F 
ATOM     68  C   UNL A   1      51.020  25.577  28.161  1.00  0.00     0.040 A 
ATOM     69  C   UNL A   1      50.704  26.008  25.814  1.00  0.00     0.040 A 
ATOM     70  F   UNL A   1      48.663  26.867  25.040  1.00  0.00    -0.206 F 
ATOM     71  C   UNL A   1      51.518  25.578  26.860  1.00  0.00     0.006 A 
ENDBRANCH  50  64
BRANCH  51  72
ATOM     72  C   UNL A   1      39.374  28.850  29.255  1.00  0.00     0.057 A 
ATOM     73  C   UNL A   1      38.538  29.396  28.273  1.00  0.00     0.134 A 
ATOM     74  C   UNL A   1      38.835  28.674  30.535  1.00  0.00     0.134 A 
ATOM     75  F   UNL A   1      39.002  29.606  27.033  1.00  0.00    -0.206 F 
ATOM     76  C   UNL A   1      37.226  29.775  28.558  1.00  0.00     0.040 A 
ATOM     77  C   UNL A   1      37.515  29.023  30.827  1.00  0.00     0.040 A 
ATOM     78  F   UNL A   1      39.580  28.148  31.518  1.00  0.00    -0.206 F 
ATOM     79  C   UNL A   1      36.710  29.584  29.838  1.00  0.00     0.006 A 
ENDBRANCH  51  72
BRANCH  63  80
ATOM     80  C   UNL A   1      45.344  32.425  29.350  1.00  0.00     0.057 A 
ATOM     81  C   UNL A   1      45.290  33.429  28.374  1.00  0.00     0.134 A 
ATOM     82  C   UNL A   1      45.681  32.810  30.654  1.00  0.00     0.134 A 
ATOM     83  F   UNL A   1      44.986  33.126  27.103  1.00  0.00    -0.206 F 
ATOM     84  C   UNL A   1      45.587  34.758  28.677  1.00  0.00     0.040 A 
ATOM     85  C   UNL A   1      45.951  34.140  30.976  1.00  0.00     0.040 A 
ATOM     86  F   UNL A   1      45.742  31.901  31.639  1.00  0.00    -0.206 F 
ATOM     87  C   UNL A   1      45.914  35.118  29.984  1.00  0.00     0.006 A 
ENDBRANCH  63  80
ENDBRANCH  37  38
ENDBRANCH  29  32
ENDBRANCH  27  28
ENDBRANCH  26  27
ENDBRANCH   1  26
TORSDOF 14
ENDMDL
