MODEL 1
REMARK VINA RESULT:     -13.7      0.000      0.000
REMARK SMILES O=C(NCCCCNC(=O)c1nccnc1C(=O)Nc1n[nH]c2ncccc12)c1ccc(-c2c3nc(c(-c4c(F)cccc4F)c4ccc([nH]4)c(-c4c(F)cccc4F)c4nc(c(-c5c(F)cccc5F)c5ccc2[nH]5)C=C4)C=C3)cc1
REMARK SMILES IDX 5 1 4 2 3 3 1 4 2 5 29 7 30 8 82 9 31 10 81 11 32 12 33 13
REMARK SMILES IDX 34 14 75 15 35 16 80 17 74 18 76 19 36 20 79 21 73 22 72 23
REMARK SMILES IDX 37 25 63 26 46 27 62 28 47 29 50 30 61 31 77 32 48 33 49 34
REMARK SMILES IDX 60 36 78 37 51 38 38 39 39 40 44 41 40 42 41 43 43 44 45 45
REMARK SMILES IDX 42 46 64 47 65 48 70 49 66 50 67 51 69 52 71 53 68 54 52 55
REMARK SMILES IDX 53 56 58 57 54 58 55 59 57 60 59 61 56 62 6 63 7 64 8 65
REMARK SMILES IDX 9 66 10 68 11 69 12 70 16 71 13 72 15 73 14 74 17 75 18 76
REMARK SMILES IDX 19 77 20 79 21 80 28 81 22 82 23 83 27 84 24 86 26 87 25 88
REMARK H PARENT 3 6 76 24 50 35 8 67 19 78 22 85
REMARK Flexibility Score: inf
ROOT
ATOM      1  C   UNL A   1      32.192  30.880  26.723  1.00  0.00     0.023 C 
ENDROOT
BRANCH   1   2
ATOM      2  C   UNL A   1      33.116  31.949  27.290  1.00  0.00     0.116 C 
BRANCH   2   3
ATOM      3  N   UNL A   1      32.534  33.251  27.590  1.00  0.00    -0.352 N 
ATOM      4  O   UNL A   1      32.636  35.357  28.453  1.00  0.00    -0.269 OA
ATOM      5  C   UNL A   1      33.122  34.239  28.354  1.00  0.00     0.251 C 
ATOM      6  H   UNL A   1      31.645  33.444  27.215  1.00  0.00     0.163 HD
BRANCH   5   7
ATOM      7  C   UNL A   1      34.300  33.843  29.151  1.00  0.00     0.039 A 
ATOM      8  C   UNL A   1      35.577  34.220  28.736  1.00  0.00     0.014 A 
ATOM      9  C   UNL A   1      34.118  32.870  30.134  1.00  0.00     0.014 A 
ATOM     10  C   UNL A   1      36.662  33.463  29.147  1.00  0.00     0.010 A 
ATOM     11  C   UNL A   1      35.232  32.215  30.657  1.00  0.00     0.010 A 
ATOM     12  C   UNL A   1      36.509  32.479  30.140  1.00  0.00    -0.014 A 
BRANCH  12  13
ATOM     13  C   UNL A   1      37.713  31.827  30.706  1.00  0.00     0.031 A 
ATOM     14  C   UNL A   1      38.498  30.798  29.942  1.00  0.00     0.074 A 
ATOM     15  C   UNL A   1      38.071  32.172  31.958  1.00  0.00     0.049 A 
ATOM     16  N   UNL A   1      39.519  30.084  30.343  1.00  0.00    -0.248 NA
ATOM     17  C   UNL A   1      38.080  30.521  28.559  1.00  0.00     0.031 C 
ATOM     18  C   UNL A   1      37.371  33.155  32.792  1.00  0.00     0.029 A 
ATOM     19  N   UNL A   1      39.103  31.746  32.749  1.00  0.00    -0.354 N 
ATOM     20  C   UNL A   1      39.852  29.258  29.277  1.00  0.00     0.074 A 
ATOM     21  C   UNL A   1      38.907  29.540  28.217  1.00  0.00     0.031 C 
ATOM     22  C   UNL A   1      38.020  33.293  33.952  1.00  0.00     0.029 A 
ATOM     23  C   UNL A   1      39.111  32.333  33.990  1.00  0.00     0.049 A 
ATOM     24  H   UNL A   1      39.774  31.086  32.457  1.00  0.00     0.167 HD
ATOM     25  C   UNL A   1      40.857  28.350  29.198  1.00  0.00     0.037 A 
ATOM     26  C   UNL A   1      39.877  32.094  35.066  1.00  0.00     0.037 A 
ATOM     27  C   UNL A   1      41.785  28.082  30.271  1.00  0.00     0.049 A 
ATOM     28  C   UNL A   1      40.935  31.038  34.969  1.00  0.00     0.074 A 
ATOM     29  C   UNL A   1      42.858  27.207  30.284  1.00  0.00     0.029 A 
ATOM     30  N   UNL A   1      41.741  28.676  31.526  1.00  0.00    -0.354 N 
ATOM     31  N   UNL A   1      41.261  30.289  33.944  1.00  0.00    -0.248 NA
ATOM     32  C   UNL A   1      41.729  30.792  36.177  1.00  0.00     0.031 C 
ATOM     33  C   UNL A   1      43.415  27.217  31.566  1.00  0.00     0.029 A 
ATOM     34  C   UNL A   1      42.744  28.157  32.331  1.00  0.00     0.049 A 
ATOM     35  H   UNL A   1      41.093  29.364  31.803  1.00  0.00     0.167 HD
ATOM     36  C   UNL A   1      42.317  29.500  34.375  1.00  0.00     0.074 A 
ATOM     37  C   UNL A   1      42.588  29.880  35.748  1.00  0.00     0.031 C 
ATOM     38  C   UNL A   1      43.000  28.547  33.696  1.00  0.00     0.037 A 
BRANCH  25  39
ATOM     39  C   UNL A   1      40.990  27.553  27.930  1.00  0.00     0.057 A 
ATOM     40  C   UNL A   1      41.792  27.977  26.861  1.00  0.00     0.134 A 
ATOM     41  C   UNL A   1      40.350  26.312  27.796  1.00  0.00     0.134 A 
ATOM     42  F   UNL A   1      42.433  29.153  26.916  1.00  0.00    -0.206 F 
ATOM     43  C   UNL A   1      41.926  27.213  25.698  1.00  0.00     0.040 A 
ATOM     44  C   UNL A   1      40.503  25.526  26.652  1.00  0.00     0.040 A 
ATOM     45  F   UNL A   1      39.577  25.834  28.783  1.00  0.00    -0.206 F 
ATOM     46  C   UNL A   1      41.287  25.980  25.595  1.00  0.00     0.006 A 
ENDBRANCH  25  39
BRANCH  26  47
ATOM     47  C   UNL A   1      39.643  32.847  36.322  1.00  0.00     0.057 A 
ATOM     48  C   UNL A   1      40.353  34.018  36.605  1.00  0.00     0.134 A 
ATOM     49  C   UNL A   1      38.694  32.424  37.263  1.00  0.00     0.134 A 
ATOM     50  F   UNL A   1      41.278  34.470  35.745  1.00  0.00    -0.206 F 
ATOM     51  C   UNL A   1      40.150  34.726  37.790  1.00  0.00     0.040 A 
ATOM     52  C   UNL A   1      38.453  33.142  38.433  1.00  0.00     0.040 A 
ATOM     53  F   UNL A   1      37.963  31.321  37.042  1.00  0.00    -0.206 F 
ATOM     54  C   UNL A   1      39.193  34.291  38.704  1.00  0.00     0.006 A 
ENDBRANCH  26  47
BRANCH  38  55
ATOM     55  C   UNL A   1      44.138  27.882  34.415  1.00  0.00     0.057 A 
ATOM     56  C   UNL A   1      45.441  28.396  34.384  1.00  0.00     0.134 A 
ATOM     57  C   UNL A   1      43.917  26.724  35.173  1.00  0.00     0.134 A 
ATOM     58  F   UNL A   1      45.726  29.490  33.664  1.00  0.00    -0.206 F 
ATOM     59  C   UNL A   1      46.488  27.765  35.059  1.00  0.00     0.040 A 
ATOM     60  C   UNL A   1      44.948  26.107  35.881  1.00  0.00     0.040 A 
ATOM     61  F   UNL A   1      42.692  26.183  35.249  1.00  0.00    -0.206 F 
ATOM     62  C   UNL A   1      46.240  26.623  35.819  1.00  0.00     0.006 A 
ENDBRANCH  38  55
ENDBRANCH  12  13
ENDBRANCH   5   7
ENDBRANCH   2   3
ENDBRANCH   1   2
BRANCH   1  63
ATOM     63  C   UNL A   1      32.256  29.245  27.238  1.00  0.00     0.023 C 
BRANCH  63  64
ATOM     64  C   UNL A   1      32.629  27.330  26.221  1.00  0.00     0.116 C 
BRANCH  64  65
ATOM     65  N   UNL A   1      33.978  26.498  25.936  1.00  0.00    -0.351 N 
ATOM     66  C   UNL A   1      34.141  25.277  25.309  1.00  0.00     0.272 C 
ATOM     67  H   UNL A   1      34.808  26.920  26.255  1.00  0.00     0.163 HD
ATOM     68  O   UNL A   1      35.208  24.678  25.314  1.00  0.00    -0.267 OA
BRANCH  66  69
ATOM     69  C   UNL A   1      32.970  24.749  24.590  1.00  0.00     0.159 A 
ATOM     70  N   UNL A   1      32.840  25.297  23.335  1.00  0.00    -0.247 NA
ATOM     71  C   UNL A   1      32.002  23.938  25.168  1.00  0.00     0.159 A 
ATOM     72  C   UNL A   1      31.715  24.992  22.668  1.00  0.00     0.132 A 
ATOM     73  N   UNL A   1      30.854  23.654  24.468  1.00  0.00    -0.247 NA
ATOM     74  C   UNL A   1      30.742  24.188  23.225  1.00  0.00     0.132 A 
BRANCH  71  75
ATOM     75  C   UNL A   1      32.088  23.247  26.496  1.00  0.00     0.277 C 
ATOM     76  O   UNL A   1      31.472  23.751  27.441  1.00  0.00    -0.267 OA
ATOM     77  N   UNL A   1      32.767  22.071  26.733  1.00  0.00    -0.303 N 
ATOM     78  H   UNL A   1      32.554  21.634  27.589  1.00  0.00     0.172 HD
BRANCH  77  79
ATOM     79  C   UNL A   1      33.691  21.417  25.963  1.00  0.00     0.164 A 
ATOM     80  N   UNL A   1      34.997  21.641  26.199  1.00  0.00    -0.155 NA
ATOM     81  C   UNL A   1      33.453  20.415  25.005  1.00  0.00     0.063 A 
ATOM     82  N   UNL A   1      35.721  20.570  25.758  1.00  0.00    -0.259 N 
ATOM     83  C   UNL A   1      35.018  19.674  25.002  1.00  0.00     0.157 A 
ATOM     84  C   UNL A   1      32.137  19.627  24.081  1.00  0.00     0.017 A 
ATOM     85  H   UNL A   1      36.676  20.452  25.968  1.00  0.00     0.192 HD
ATOM     86  N   UNL A   1      35.349  18.123  24.290  1.00  0.00    -0.237 NA
ATOM     87  C   UNL A   1      32.399  18.059  23.279  1.00  0.00     0.021 A 
ATOM     88  C   UNL A   1      34.010  17.367  23.374  1.00  0.00     0.113 A 
ENDBRANCH  77  79
ENDBRANCH  71  75
ENDBRANCH  66  69
ENDBRANCH  64  65
ENDBRANCH  63  64
ENDBRANCH   1  63
TORSDOF 13
ENDMDL
MODEL 2
REMARK VINA RESULT:     -13.7      4.249      9.119
REMARK SMILES O=C(NCCCCNC(=O)c1nccnc1C(=O)Nc1n[nH]c2ncccc12)c1ccc(-c2c3nc(c(-c4c(F)cccc4F)c4ccc([nH]4)c(-c4c(F)cccc4F)c4nc(c(-c5c(F)cccc5F)c5ccc2[nH]5)C=C4)C=C3)cc1
REMARK SMILES IDX 5 1 4 2 3 3 1 4 2 5 29 7 30 8 82 9 31 10 81 11 32 12 33 13
REMARK SMILES IDX 34 14 75 15 35 16 80 17 74 18 76 19 36 20 79 21 73 22 72 23
REMARK SMILES IDX 37 25 63 26 46 27 62 28 47 29 50 30 61 31 77 32 48 33 49 34
REMARK SMILES IDX 60 36 78 37 51 38 38 39 39 40 44 41 40 42 41 43 43 44 45 45
REMARK SMILES IDX 42 46 64 47 65 48 70 49 66 50 67 51 69 52 71 53 68 54 52 55
REMARK SMILES IDX 53 56 58 57 54 58 55 59 57 60 59 61 56 62 6 63 7 64 8 65
REMARK SMILES IDX 9 66 10 68 11 69 12 70 16 71 13 72 15 73 14 74 17 75 18 76
REMARK SMILES IDX 19 77 20 79 21 80 28 81 22 82 23 83 27 84 24 86 26 87 25 88
REMARK H PARENT 3 6 76 24 50 35 8 67 19 78 22 85
REMARK Flexibility Score: inf
ROOT
ATOM      1  C   UNL A   1      37.814  20.979  25.041  1.00  0.00     0.023 C 
ENDROOT
BRANCH   1   2
ATOM      2  C   UNL A   1      39.094  20.872  25.859  1.00  0.00     0.116 C 
BRANCH   2   3
ATOM      3  N   UNL A   1      39.983  19.754  25.575  1.00  0.00    -0.352 N 
ATOM      4  O   UNL A   1      41.925  18.597  25.855  1.00  0.00    -0.269 OA
ATOM      5  C   UNL A   1      41.283  19.625  26.020  1.00  0.00     0.251 C 
ATOM      6  H   UNL A   1      39.625  19.025  25.018  1.00  0.00     0.163 HD
BRANCH   5   7
ATOM      7  C   UNL A   1      41.906  20.834  26.592  1.00  0.00     0.039 A 
ATOM      8  C   UNL A   1      41.878  21.043  27.971  1.00  0.00     0.014 A 
ATOM      9  C   UNL A   1      42.254  21.861  25.714  1.00  0.00     0.014 A 
ATOM     10  C   UNL A   1      41.979  22.338  28.452  1.00  0.00     0.010 A 
ATOM     11  C   UNL A   1      42.506  23.134  26.222  1.00  0.00     0.010 A 
ATOM     12  C   UNL A   1      42.333  23.391  27.590  1.00  0.00    -0.014 A 
BRANCH  12  13
ATOM     13  C   UNL A   1      42.634  24.725  28.161  1.00  0.00     0.031 A 
ATOM     14  C   UNL A   1      41.567  25.761  28.377  1.00  0.00     0.074 A 
ATOM     15  C   UNL A   1      43.920  24.993  28.459  1.00  0.00     0.049 A 
ATOM     16  N   UNL A   1      41.697  26.998  28.787  1.00  0.00    -0.248 NA
ATOM     17  C   UNL A   1      40.179  25.371  28.084  1.00  0.00     0.031 C 
ATOM     18  C   UNL A   1      45.037  24.059  28.278  1.00  0.00     0.029 A 
ATOM     19  N   UNL A   1      44.509  26.115  28.975  1.00  0.00    -0.354 N 
ATOM     20  C   UNL A   1      40.418  27.541  28.780  1.00  0.00     0.074 A 
ATOM     21  C   UNL A   1      39.526  26.506  28.299  1.00  0.00     0.031 C 
ATOM     22  C   UNL A   1      46.163  24.627  28.722  1.00  0.00     0.029 A 
ATOM     23  C   UNL A   1      45.871  25.996  29.112  1.00  0.00     0.049 A 
ATOM     24  H   UNL A   1      44.009  26.926  29.224  1.00  0.00     0.167 HD
ATOM     25  C   UNL A   1      40.034  28.790  29.142  1.00  0.00     0.037 A 
ATOM     26  C   UNL A   1      46.797  26.902  29.464  1.00  0.00     0.037 A 
ATOM     27  C   UNL A   1      40.943  29.807  29.614  1.00  0.00     0.049 A 
ATOM     28  C   UNL A   1      46.347  28.292  29.796  1.00  0.00     0.074 A 
ATOM     29  C   UNL A   1      40.654  31.092  30.039  1.00  0.00     0.029 A 
ATOM     30  N   UNL A   1      42.321  29.657  29.710  1.00  0.00    -0.354 N 
ATOM     31  N   UNL A   1      45.132  28.782  29.817  1.00  0.00    -0.248 NA
ATOM     32  C   UNL A   1      47.396  29.254  30.147  1.00  0.00     0.031 C 
ATOM     33  C   UNL A   1      41.859  31.743  30.319  1.00  0.00     0.029 A 
ATOM     34  C   UNL A   1      42.897  30.840  30.150  1.00  0.00     0.049 A 
ATOM     35  H   UNL A   1      42.816  28.833  29.497  1.00  0.00     0.167 HD
ATOM     36  C   UNL A   1      45.266  30.105  30.211  1.00  0.00     0.074 A 
ATOM     37  C   UNL A   1      46.680  30.330  30.438  1.00  0.00     0.031 C 
ATOM     38  C   UNL A   1      44.306  31.047  30.372  1.00  0.00     0.037 A 
BRANCH  25  39
ATOM     39  C   UNL A   1      38.577  29.145  29.014  1.00  0.00     0.057 A 
ATOM     40  C   UNL A   1      37.698  29.101  30.105  1.00  0.00     0.134 A 
ATOM     41  C   UNL A   1      38.057  29.592  27.791  1.00  0.00     0.134 A 
ATOM     42  F   UNL A   1      38.124  28.682  31.306  1.00  0.00    -0.206 F 
ATOM     43  C   UNL A   1      36.353  29.458  29.976  1.00  0.00     0.040 A 
ATOM     44  C   UNL A   1      36.723  29.982  27.658  1.00  0.00     0.040 A 
ATOM     45  F   UNL A   1      38.842  29.674  26.705  1.00  0.00    -0.206 F 
ATOM     46  C   UNL A   1      35.864  29.908  28.752  1.00  0.00     0.006 A 
ENDBRANCH  25  39
BRANCH  26  47
ATOM     47  C   UNL A   1      48.231  26.522  29.487  1.00  0.00     0.057 A 
ATOM     48  C   UNL A   1      48.806  25.942  30.621  1.00  0.00     0.134 A 
ATOM     49  C   UNL A   1      49.056  26.716  28.371  1.00  0.00     0.134 A 
ATOM     50  F   UNL A   1      48.067  25.736  31.722  1.00  0.00    -0.206 F 
ATOM     51  C   UNL A   1      50.156  25.595  30.658  1.00  0.00     0.040 A 
ATOM     52  C   UNL A   1      50.398  26.337  28.380  1.00  0.00     0.040 A 
ATOM     53  F   UNL A   1      48.561  27.247  27.243  1.00  0.00    -0.206 F 
ATOM     54  C   UNL A   1      50.954  25.786  29.531  1.00  0.00     0.006 A 
ENDBRANCH  26  47
BRANCH  38  55
ATOM     55  C   UNL A   1      44.751  32.396  30.857  1.00  0.00     0.057 A 
ATOM     56  C   UNL A   1      44.865  32.697  32.221  1.00  0.00     0.134 A 
ATOM     57  C   UNL A   1      45.096  33.401  29.943  1.00  0.00     0.134 A 
ATOM     58  F   UNL A   1      44.533  31.787  33.150  1.00  0.00    -0.206 F 
ATOM     59  C   UNL A   1      45.280  33.956  32.657  1.00  0.00     0.040 A 
ATOM     60  C   UNL A   1      45.548  34.650  30.367  1.00  0.00     0.040 A 
ATOM     61  F   UNL A   1      45.015  33.178  28.623  1.00  0.00    -0.206 F 
ATOM     62  C   UNL A   1      45.633  34.933  31.728  1.00  0.00     0.006 A 
ENDBRANCH  38  55
ENDBRANCH  12  13
ENDBRANCH   5   7
ENDBRANCH   2   3
ENDBRANCH   1   2
BRANCH   1  63
ATOM     63  C   UNL A   1      37.023  22.477  24.768  1.00  0.00     0.023 C 
BRANCH  63  64
ATOM     64  C   UNL A   1      35.340  23.519  25.728  1.00  0.00     0.116 C 
BRANCH  64  65
ATOM     65  N   UNL A   1      34.539  23.251  27.099  1.00  0.00    -0.351 N 
ATOM     66  C   UNL A   1      33.447  22.435  27.333  1.00  0.00     0.272 C 
ATOM     67  H   UNL A   1      34.873  23.739  27.885  1.00  0.00     0.163 HD
ATOM     68  O   UNL A   1      32.829  22.459  28.390  1.00  0.00    -0.267 OA
BRANCH  66  69
ATOM     69  C   UNL A   1      33.089  21.496  26.258  1.00  0.00     0.159 A 
ATOM     70  N   UNL A   1      34.103  20.607  25.985  1.00  0.00    -0.247 NA
ATOM     71  C   UNL A   1      31.945  21.605  25.478  1.00  0.00     0.159 A 
ATOM     72  C   UNL A   1      33.925  19.815  24.916  1.00  0.00     0.132 A 
ATOM     73  N   UNL A   1      31.797  20.792  24.381  1.00  0.00    -0.247 NA
ATOM     74  C   UNL A   1      32.796  19.908  24.129  1.00  0.00     0.132 A 
BRANCH  71  75
ATOM     75  C   UNL A   1      30.765  22.495  25.737  1.00  0.00     0.277 C 
ATOM     76  O   UNL A   1      29.856  22.044  26.442  1.00  0.00    -0.267 OA
ATOM     77  N   UNL A   1      30.638  23.790  25.283  1.00  0.00    -0.303 N 
ATOM     78  H   UNL A   1      29.919  24.310  25.710  1.00  0.00     0.172 HD
BRANCH  77  79
ATOM     79  C   UNL A   1      31.354  24.465  24.333  1.00  0.00     0.164 A 
ATOM     80  N   UNL A   1      31.140  24.169  23.037  1.00  0.00    -0.155 NA
ATOM     81  C   UNL A   1      32.228  25.550  24.528  1.00  0.00     0.063 A 
ATOM     82  N   UNL A   1      31.496  25.242  22.269  1.00  0.00    -0.259 N 
ATOM     83  C   UNL A   1      32.175  26.224  22.934  1.00  0.00     0.157 A 
ATOM     84  C   UNL A   1      33.083  26.463  25.809  1.00  0.00     0.017 A 
ATOM     85  H   UNL A   1      31.279  25.303  21.311  1.00  0.00     0.192 HD
ATOM     86  N   UNL A   1      32.761  27.811  22.538  1.00  0.00    -0.237 NA
ATOM     87  C   UNL A   1      33.757  28.079  25.482  1.00  0.00     0.021 A 
ATOM     88  C   UNL A   1      33.610  28.694  23.844  1.00  0.00     0.113 A 
ENDBRANCH  77  79
ENDBRANCH  71  75
ENDBRANCH  66  69
ENDBRANCH  64  65
ENDBRANCH  63  64
ENDBRANCH   1  63
TORSDOF 13
ENDMDL
MODEL 3
REMARK VINA RESULT:     -13.7      4.296      9.239
REMARK SMILES O=C(NCCCCNC(=O)c1nccnc1C(=O)Nc1n[nH]c2ncccc12)c1ccc(-c2c3nc(c(-c4c(F)cccc4F)c4ccc([nH]4)c(-c4c(F)cccc4F)c4nc(c(-c5c(F)cccc5F)c5ccc2[nH]5)C=C4)C=C3)cc1
REMARK SMILES IDX 5 1 4 2 3 3 1 4 2 5 29 7 30 8 82 9 31 10 81 11 32 12 33 13
REMARK SMILES IDX 34 14 75 15 35 16 80 17 74 18 76 19 36 20 79 21 73 22 72 23
REMARK SMILES IDX 37 25 63 26 46 27 62 28 47 29 50 30 61 31 77 32 48 33 49 34
REMARK SMILES IDX 60 36 78 37 51 38 38 39 39 40 44 41 40 42 41 43 43 44 45 45
REMARK SMILES IDX 42 46 64 47 65 48 70 49 66 50 67 51 69 52 71 53 68 54 52 55
REMARK SMILES IDX 53 56 58 57 54 58 55 59 57 60 59 61 56 62 6 63 7 64 8 65
REMARK SMILES IDX 9 66 10 68 11 69 12 70 16 71 13 72 15 73 14 74 17 75 18 76
REMARK SMILES IDX 19 77 20 79 21 80 28 81 22 82 23 83 27 84 24 86 26 87 25 88
REMARK H PARENT 3 6 76 24 50 35 8 67 19 78 22 85
REMARK Flexibility Score: inf
ROOT
ATOM      1  C   UNL A   1      37.781  21.173  25.031  1.00  0.00     0.023 C 
ENDROOT
BRANCH   1   2
ATOM      2  C   UNL A   1      38.974  20.921  25.942  1.00  0.00     0.116 C 
BRANCH   2   3
ATOM      3  N   UNL A   1      39.848  19.802  25.612  1.00  0.00    -0.352 N 
ATOM      4  O   UNL A   1      41.794  18.634  25.811  1.00  0.00    -0.269 OA
ATOM      5  C   UNL A   1      41.162  19.662  26.012  1.00  0.00     0.251 C 
ATOM      6  H   UNL A   1      39.469  19.084  25.056  1.00  0.00     0.163 HD
BRANCH   5   7
ATOM      7  C   UNL A   1      41.809  20.860  26.580  1.00  0.00     0.039 A 
ATOM      8  C   UNL A   1      41.792  21.069  27.959  1.00  0.00     0.014 A 
ATOM      9  C   UNL A   1      42.170  21.881  25.700  1.00  0.00     0.014 A 
ATOM     10  C   UNL A   1      41.919  22.363  28.439  1.00  0.00     0.010 A 
ATOM     11  C   UNL A   1      42.448  23.149  26.206  1.00  0.00     0.010 A 
ATOM     12  C   UNL A   1      42.287  23.409  27.575  1.00  0.00    -0.014 A 
BRANCH  12  13
ATOM     13  C   UNL A   1      42.614  24.738  28.144  1.00  0.00     0.031 A 
ATOM     14  C   UNL A   1      41.563  25.784  28.387  1.00  0.00     0.074 A 
ATOM     15  C   UNL A   1      43.909  24.991  28.415  1.00  0.00     0.049 A 
ATOM     16  N   UNL A   1      41.715  27.018  28.798  1.00  0.00    -0.248 NA
ATOM     17  C   UNL A   1      40.165  25.409  28.123  1.00  0.00     0.031 C 
ATOM     18  C   UNL A   1      45.012  24.047  28.207  1.00  0.00     0.029 A 
ATOM     19  N   UNL A   1      44.521  26.105  28.922  1.00  0.00    -0.354 N 
ATOM     20  C   UNL A   1      40.442  27.574  28.821  1.00  0.00     0.074 A 
ATOM     21  C   UNL A   1      39.529  26.551  28.356  1.00  0.00     0.031 C 
ATOM     22  C   UNL A   1      46.153  24.600  28.628  1.00  0.00     0.029 A 
ATOM     23  C   UNL A   1      45.884  25.971  29.030  1.00  0.00     0.049 A 
ATOM     24  H   UNL A   1      44.035  26.920  29.185  1.00  0.00     0.167 HD
ATOM     25  C   UNL A   1      40.079  28.826  29.197  1.00  0.00     0.037 A 
ATOM     26  C   UNL A   1      46.827  26.866  29.365  1.00  0.00     0.037 A 
ATOM     27  C   UNL A   1      41.009  29.831  29.652  1.00  0.00     0.049 A 
ATOM     28  C   UNL A   1      46.399  28.259  29.711  1.00  0.00     0.074 A 
ATOM     29  C   UNL A   1      40.742  31.118  30.088  1.00  0.00     0.029 A 
ATOM     30  N   UNL A   1      42.387  29.667  29.718  1.00  0.00    -0.354 N 
ATOM     31  N   UNL A   1      45.190  28.762  29.761  1.00  0.00    -0.248 NA
ATOM     32  C   UNL A   1      47.466  29.209  30.042  1.00  0.00     0.031 C 
ATOM     33  C   UNL A   1      41.960  31.755  30.344  1.00  0.00     0.029 A 
ATOM     34  C   UNL A   1      42.984  30.842  30.149  1.00  0.00     0.049 A 
ATOM     35  H   UNL A   1      42.868  28.839  29.491  1.00  0.00     0.167 HD
ATOM     36  C   UNL A   1      45.347  30.082  30.156  1.00  0.00     0.074 A 
ATOM     37  C   UNL A   1      46.768  30.291  30.353  1.00  0.00     0.031 C 
ATOM     38  C   UNL A   1      44.401  31.033  30.341  1.00  0.00     0.037 A 
BRANCH  25  39
ATOM     39  C   UNL A   1      38.624  29.197  29.101  1.00  0.00     0.057 A 
ATOM     40  C   UNL A   1      37.774  29.180  30.215  1.00  0.00     0.134 A 
ATOM     41  C   UNL A   1      38.077  29.632  27.886  1.00  0.00     0.134 A 
ATOM     42  F   UNL A   1      38.225  28.772  31.411  1.00  0.00    -0.206 F 
ATOM     43  C   UNL A   1      36.430  29.551  30.117  1.00  0.00     0.040 A 
ATOM     44  C   UNL A   1      36.745  30.037  27.782  1.00  0.00     0.040 A 
ATOM     45  F   UNL A   1      38.834  29.689  26.779  1.00  0.00    -0.206 F 
ATOM     46  C   UNL A   1      35.914  29.989  28.899  1.00  0.00     0.006 A 
ENDBRANCH  25  39
BRANCH  26  47
ATOM     47  C   UNL A   1      48.257  26.471  29.355  1.00  0.00     0.057 A 
ATOM     48  C   UNL A   1      49.055  26.677  28.227  1.00  0.00     0.134 A 
ATOM     49  C   UNL A   1      48.863  25.891  30.479  1.00  0.00     0.134 A 
ATOM     50  F   UNL A   1      48.530  27.223  27.119  1.00  0.00    -0.206 F 
ATOM     51  C   UNL A   1      50.397  26.296  28.202  1.00  0.00     0.040 A 
ATOM     52  C   UNL A   1      50.212  25.542  30.482  1.00  0.00     0.040 A 
ATOM     53  F   UNL A   1      48.158  25.687  31.602  1.00  0.00    -0.206 F 
ATOM     54  C   UNL A   1      50.980  25.732  29.336  1.00  0.00     0.006 A 
ENDBRANCH  26  47
BRANCH  38  55
ATOM     55  C   UNL A   1      44.870  32.376  30.822  1.00  0.00     0.057 A 
ATOM     56  C   UNL A   1      45.193  33.413  29.937  1.00  0.00     0.134 A 
ATOM     57  C   UNL A   1      44.973  32.641  32.194  1.00  0.00     0.134 A 
ATOM     58  F   UNL A   1      45.134  33.221  28.611  1.00  0.00    -0.206 F 
ATOM     59  C   UNL A   1      45.628  34.656  30.400  1.00  0.00     0.040 A 
ATOM     60  C   UNL A   1      45.370  33.891  32.669  1.00  0.00     0.040 A 
ATOM     61  F   UNL A   1      44.673  31.694  33.095  1.00  0.00    -0.206 F 
ATOM     62  C   UNL A   1      45.707  34.901  31.770  1.00  0.00     0.006 A 
ENDBRANCH  38  55
ENDBRANCH  12  13
ENDBRANCH   5   7
ENDBRANCH   2   3
ENDBRANCH   1   2
BRANCH   1  63
ATOM     63  C   UNL A   1      36.380  20.182  25.060  1.00  0.00     0.023 C 
BRANCH  63  64
ATOM     64  C   UNL A   1      34.223  20.571  24.865  1.00  0.00     0.116 C 
BRANCH  64  65
ATOM     65  N   UNL A   1      33.318  21.062  23.627  1.00  0.00    -0.351 N 
ATOM     66  C   UNL A   1      32.331  22.030  23.590  1.00  0.00     0.272 C 
ATOM     67  H   UNL A   1      33.491  20.607  22.772  1.00  0.00     0.163 HD
ATOM     68  O   UNL A   1      31.601  22.181  22.619  1.00  0.00    -0.267 OA
BRANCH  66  69
ATOM     69  C   UNL A   1      32.230  22.908  24.767  1.00  0.00     0.159 A 
ATOM     70  N   UNL A   1      31.100  22.652  25.510  1.00  0.00    -0.247 NA
ATOM     71  C   UNL A   1      33.067  23.990  25.006  1.00  0.00     0.159 A 
ATOM     72  C   UNL A   1      30.845  23.507  26.514  1.00  0.00     0.132 A 
ATOM     73  N   UNL A   1      32.773  24.857  26.030  1.00  0.00    -0.247 NA
ATOM     74  C   UNL A   1      31.664  24.588  26.767  1.00  0.00     0.132 A 
BRANCH  71  75
ATOM     75  C   UNL A   1      34.348  24.307  24.293  1.00  0.00     0.277 C 
ATOM     76  O   UNL A   1      35.394  23.867  24.782  1.00  0.00    -0.267 OA
ATOM     77  N   UNL A   1      34.442  25.014  23.114  1.00  0.00    -0.303 N 
ATOM     78  H   UNL A   1      35.315  24.954  22.663  1.00  0.00     0.172 HD
BRANCH  77  79
ATOM     79  C   UNL A   1      33.512  25.786  22.473  1.00  0.00     0.164 A 
ATOM     80  N   UNL A   1      33.001  25.343  21.310  1.00  0.00    -0.155 NA
ATOM     81  C   UNL A   1      32.908  26.967  22.943  1.00  0.00     0.063 A 
ATOM     82  N   UNL A   1      31.778  25.917  21.112  1.00  0.00    -0.259 N 
ATOM     83  C   UNL A   1      31.476  26.937  21.970  1.00  0.00     0.157 A 
ATOM     84  C   UNL A   1      33.034  28.203  24.232  1.00  0.00     0.017 A 
ATOM     85  H   UNL A   1      31.160  25.620  20.404  1.00  0.00     0.192 HD
ATOM     86  N   UNL A   1      30.082  27.930  22.274  1.00  0.00    -0.237 NA
ATOM     87  C   UNL A   1      31.672  29.295  24.584  1.00  0.00     0.021 A 
ATOM     88  C   UNL A   1      30.246  29.154  23.570  1.00  0.00     0.113 A 
ENDBRANCH  77  79
ENDBRANCH  71  75
ENDBRANCH  66  69
ENDBRANCH  64  65
ENDBRANCH  63  64
ENDBRANCH   1  63
TORSDOF 13
ENDMDL
