MODEL 1
REMARK VINA RESULT:     -11.9      0.000      0.000
REMARK SMILES C[N@H+]1C[C@@H](Oc2cccc3cccnc23)C[C@H]1C(=O)NCCCCNC(=O)c1ccc(-c2c3nc(c(-c4c(F)cccc4F)c4ccc([nH]4)c(-c4c(F)cccc4F)c4nc(c(-c5c(F)cccc5F)c5ccc2[nH]5)C=C4)C=C3)cc1
REMARK SMILES IDX 22 1 21 2 20 3 18 4 19 5 17 7 1 8 2 9 3 10 4 12 16 13 5 14
REMARK SMILES IDX 6 15 7 16 15 17 8 18 10 19 14 20 9 21 11 22 13 23 12 24
REMARK SMILES IDX 23 25 24 26 25 27 26 28 27 30 28 31 29 32 81 33 30 34 80 35
REMARK SMILES IDX 31 36 32 37 33 38 74 39 34 40 79 41 73 42 75 43 35 44 78 45
REMARK SMILES IDX 72 46 71 47 36 49 62 50 45 51 61 52 46 53 49 54 60 55 76 56
REMARK SMILES IDX 47 57 48 58 59 60 77 61 50 62 37 63 38 64 43 65 39 66 40 67
REMARK SMILES IDX 42 68 44 69 41 70 63 71 64 72 69 73 65 74 66 75 68 76 70 77
REMARK SMILES IDX 67 78 51 79 52 80 57 81 53 82 54 83 56 84 58 85 55 86
REMARK H PARENT 20 6 2 11 25 29 75 48 49 59
REMARK Flexibility Score: inf
ROOT
ATOM      1  C   UNL A   1      36.838  22.529  24.321  1.00  0.00     0.023 C 
ENDROOT
BRANCH   1   2
ATOM      2  C   UNL A   1      36.582  23.446  25.514  1.00  0.00     0.116 C 
BRANCH   2   3
ATOM      3  N   UNL A   1      35.566  24.461  25.345  1.00  0.00    -0.351 N 
ATOM      4  C   UNL A   1      34.238  24.408  25.661  1.00  0.00     0.278 C 
ATOM      5  O   UNL A   1      33.764  25.460  26.120  1.00  0.00    -0.268 OA
ATOM      6  H   UNL A   1      35.873  25.307  24.948  1.00  0.00     0.163 HD
BRANCH   4   7
ATOM      7  C   UNL A   1      33.283  23.206  25.456  1.00  0.00     0.278 C 
ATOM      8  C   UNL A   1      33.571  22.057  27.644  1.00  0.00     0.333 C 
ATOM      9  N   UNL A   1      32.702  22.559  26.620  1.00  0.00    -0.324 N 
ATOM     10  C   UNL A   1      31.363  23.055  26.891  1.00  0.00     0.308 C 
ATOM     11  H   UNL A   1      32.515  21.581  26.399  1.00  0.00     0.348 HD
ATOM     12  C   UNL A   1      30.900  23.687  25.548  1.00  0.00     0.234 C 
ATOM     13  C   UNL A   1      32.054  23.422  24.584  1.00  0.00     0.126 C 
BRANCH  12  14
ATOM     14  O   UNL A   1      30.282  24.976  25.667  1.00  0.00    -0.482 OA
BRANCH  14  15
ATOM     15  C   UNL A   1      30.520  26.105  24.929  1.00  0.00     0.146 A 
ATOM     16  C   UNL A   1      30.219  26.233  23.571  1.00  0.00     0.049 A 
ATOM     17  C   UNL A   1      31.008  27.225  25.641  1.00  0.00     0.112 A 
ATOM     18  C   UNL A   1      30.497  27.406  22.873  1.00  0.00     0.005 A 
ATOM     19  C   UNL A   1      31.217  28.433  24.929  1.00  0.00     0.004 A 
ATOM     20  N   UNL A   1      31.295  27.159  26.964  1.00  0.00    -0.252 NA
ATOM     21  C   UNL A   1      30.996  28.506  23.548  1.00  0.00     0.010 A 
ATOM     22  C   UNL A   1      31.651  29.568  25.621  1.00  0.00     0.012 A 
ATOM     23  C   UNL A   1      31.727  28.274  27.600  1.00  0.00     0.112 A 
ATOM     24  C   UNL A   1      31.905  29.493  26.980  1.00  0.00     0.021 A 
ENDBRANCH  14  15
ENDBRANCH  12  14
ENDBRANCH   4   7
ENDBRANCH   2   3
ENDBRANCH   1   2
BRANCH   1  25
ATOM     25  C   UNL A   1      37.436  21.164  24.666  1.00  0.00     0.023 C 
BRANCH  25  26
ATOM     26  C   UNL A   1      38.568  21.178  25.689  1.00  0.00     0.116 C 
BRANCH  26  27
ATOM     27  N   UNL A   1      39.472  20.043  25.614  1.00  0.00    -0.352 N 
ATOM     28  C   UNL A   1      40.798  19.968  25.985  1.00  0.00     0.251 C 
ATOM     29  H   UNL A   1      39.086  19.214  25.247  1.00  0.00     0.163 HD
ATOM     30  O   UNL A   1      41.431  18.932  25.810  1.00  0.00    -0.269 OA
BRANCH  28  31
ATOM     31  C   UNL A   1      41.482  21.146  26.578  1.00  0.00     0.039 A 
ATOM     32  C   UNL A   1      42.125  22.049  25.726  1.00  0.00     0.014 A 
ATOM     33  C   UNL A   1      41.492  21.372  27.957  1.00  0.00     0.014 A 
ATOM     34  C   UNL A   1      42.675  23.223  26.246  1.00  0.00     0.010 A 
ATOM     35  C   UNL A   1      41.991  22.564  28.472  1.00  0.00     0.010 A 
ATOM     36  C   UNL A   1      42.558  23.513  27.616  1.00  0.00    -0.014 A 
BRANCH  36  37
ATOM     37  C   UNL A   1      42.873  24.862  28.141  1.00  0.00     0.031 A 
ATOM     38  C   UNL A   1      44.262  25.238  28.557  1.00  0.00     0.074 A 
ATOM     39  C   UNL A   1      41.846  25.710  28.340  1.00  0.00     0.049 A 
ATOM     40  N   UNL A   1      44.700  26.383  29.014  1.00  0.00    -0.248 NA
ATOM     41  C   UNL A   1      45.288  24.187  28.484  1.00  0.00     0.031 C 
ATOM     42  C   UNL A   1      40.436  25.398  28.082  1.00  0.00     0.029 A 
ATOM     43  N   UNL A   1      41.818  26.996  28.811  1.00  0.00    -0.354 N 
ATOM     44  C   UNL A   1      46.051  26.197  29.277  1.00  0.00     0.074 A 
ATOM     45  C   UNL A   1      46.347  24.810  28.985  1.00  0.00     0.031 C 
ATOM     46  C   UNL A   1      39.688  26.474  28.363  1.00  0.00     0.029 A 
ATOM     47  C   UNL A   1      40.558  27.542  28.839  1.00  0.00     0.049 A 
ATOM     48  H   UNL A   1      42.624  27.481  29.102  1.00  0.00     0.167 HD
ATOM     49  C   UNL A   1      46.960  27.108  29.701  1.00  0.00     0.037 A 
ATOM     50  C   UNL A   1      40.152  28.774  29.193  1.00  0.00     0.037 A 
ATOM     51  C   UNL A   1      46.641  28.484  29.990  1.00  0.00     0.049 A 
ATOM     52  C   UNL A   1      41.184  29.780  29.612  1.00  0.00     0.074 A 
ATOM     53  C   UNL A   1      47.494  29.511  30.354  1.00  0.00     0.029 A 
ATOM     54  N   UNL A   1      45.361  29.020  29.961  1.00  0.00    -0.354 N 
ATOM     55  N   UNL A   1      42.481  29.627  29.736  1.00  0.00    -0.248 NA
ATOM     56  C   UNL A   1      40.703  31.132  29.919  1.00  0.00     0.031 C 
ATOM     57  C   UNL A   1      46.724  30.658  30.587  1.00  0.00     0.029 A 
ATOM     58  C   UNL A   1      45.397  30.359  30.320  1.00  0.00     0.049 A 
ATOM     59  H   UNL A   1      44.546  28.523  29.720  1.00  0.00     0.167 HD
ATOM     60  C   UNL A   1      42.975  30.867  30.112  1.00  0.00     0.074 A 
ATOM     61  C   UNL A   1      41.838  31.766  30.175  1.00  0.00     0.031 C 
ATOM     62  C   UNL A   1      44.253  31.232  30.382  1.00  0.00     0.037 A 
BRANCH  49  63
ATOM     63  C   UNL A   1      48.383  26.652  29.862  1.00  0.00     0.057 A 
ATOM     64  C   UNL A   1      49.325  26.803  28.835  1.00  0.00     0.134 A 
ATOM     65  C   UNL A   1      48.833  26.101  31.070  1.00  0.00     0.134 A 
ATOM     66  F   UNL A   1      48.963  27.317  27.650  1.00  0.00    -0.206 F 
ATOM     67  C   UNL A   1      50.653  26.398  28.993  1.00  0.00     0.040 A 
ATOM     68  C   UNL A   1      50.164  25.718  31.248  1.00  0.00     0.040 A 
ATOM     69  F   UNL A   1      47.989  25.935  32.099  1.00  0.00    -0.206 F 
ATOM     70  C   UNL A   1      51.077  25.860  30.205  1.00  0.00     0.006 A 
ENDBRANCH  49  63
BRANCH  50  71
ATOM     71  C   UNL A   1      38.716  29.134  29.094  1.00  0.00     0.057 A 
ATOM     72  C   UNL A   1      38.160  29.549  27.878  1.00  0.00     0.134 A 
ATOM     73  C   UNL A   1      37.858  29.042  30.196  1.00  0.00     0.134 A 
ATOM     74  F   UNL A   1      38.933  29.664  26.788  1.00  0.00    -0.206 F 
ATOM     75  C   UNL A   1      36.808  29.878  27.765  1.00  0.00     0.040 A 
ATOM     76  C   UNL A   1      36.500  29.344  30.093  1.00  0.00     0.040 A 
ATOM     77  F   UNL A   1      38.325  28.632  31.385  1.00  0.00    -0.206 F 
ATOM     78  C   UNL A   1      35.972  29.770  28.875  1.00  0.00     0.006 A 
ENDBRANCH  50  71
BRANCH  62  79
ATOM     79  C   UNL A   1      44.482  32.667  30.749  1.00  0.00     0.057 A 
ATOM     80  C   UNL A   1      44.712  33.651  29.780  1.00  0.00     0.134 A 
ATOM     81  C   UNL A   1      44.454  33.074  32.090  1.00  0.00     0.134 A 
ATOM     82  F   UNL A   1      44.766  33.324  28.479  1.00  0.00    -0.206 F 
ATOM     83  C   UNL A   1      44.936  34.982  30.130  1.00  0.00     0.040 A 
ATOM     84  C   UNL A   1      44.648  34.407  32.452  1.00  0.00     0.040 A 
ATOM     85  F   UNL A   1      44.231  32.183  33.068  1.00  0.00    -0.206 F 
ATOM     86  C   UNL A   1      44.897  35.364  31.470  1.00  0.00     0.006 A 
ENDBRANCH  62  79
ENDBRANCH  36  37
ENDBRANCH  28  31
ENDBRANCH  26  27
ENDBRANCH  25  26
ENDBRANCH   1  25
TORSDOF 13
ENDMDL
MODEL 2
REMARK VINA RESULT:     -11.9      3.037      8.438
REMARK SMILES C[N@H+]1C[C@@H](Oc2cccc3cccnc23)C[C@H]1C(=O)NCCCCNC(=O)c1ccc(-c2c3nc(c(-c4c(F)cccc4F)c4ccc([nH]4)c(-c4c(F)cccc4F)c4nc(c(-c5c(F)cccc5F)c5ccc2[nH]5)C=C4)C=C3)cc1
REMARK SMILES IDX 22 1 21 2 20 3 18 4 19 5 17 7 1 8 2 9 3 10 4 12 16 13 5 14
REMARK SMILES IDX 6 15 7 16 15 17 8 18 10 19 14 20 9 21 11 22 13 23 12 24
REMARK SMILES IDX 23 25 24 26 25 27 26 28 27 30 28 31 29 32 81 33 30 34 80 35
REMARK SMILES IDX 31 36 32 37 33 38 74 39 34 40 79 41 73 42 75 43 35 44 78 45
REMARK SMILES IDX 72 46 71 47 36 49 62 50 45 51 61 52 46 53 49 54 60 55 76 56
REMARK SMILES IDX 47 57 48 58 59 60 77 61 50 62 37 63 38 64 43 65 39 66 40 67
REMARK SMILES IDX 42 68 44 69 41 70 63 71 64 72 69 73 65 74 66 75 68 76 70 77
REMARK SMILES IDX 67 78 51 79 52 80 57 81 53 82 54 83 56 84 58 85 55 86
REMARK H PARENT 20 6 2 11 25 29 75 48 49 59
REMARK Flexibility Score: inf
ROOT
ATOM      1  C   UNL A   1      32.353  28.823  27.303  1.00  0.00     0.023 C 
ENDROOT
BRANCH   1   2
ATOM      2  C   UNL A   1      31.406  27.710  26.863  1.00  0.00     0.116 C 
BRANCH   2   3
ATOM      3  N   UNL A   1      32.014  26.455  26.480  1.00  0.00    -0.351 N 
ATOM      4  C   UNL A   1      32.518  26.080  25.267  1.00  0.00     0.278 C 
ATOM      5  O   UNL A   1      33.551  25.392  25.316  1.00  0.00    -0.268 OA
ATOM      6  H   UNL A   1      32.074  25.778  27.191  1.00  0.00     0.163 HD
BRANCH   4   7
ATOM      7  C   UNL A   1      31.906  26.380  23.876  1.00  0.00     0.278 C 
ATOM      8  C   UNL A   1      33.031  28.542  23.374  1.00  0.00     0.333 C 
ATOM      9  N   UNL A   1      32.637  27.230  22.952  1.00  0.00    -0.324 N 
ATOM     10  C   UNL A   1      33.399  26.444  21.995  1.00  0.00     0.308 C 
ATOM     11  H   UNL A   1      31.974  27.704  22.339  1.00  0.00     0.348 HD
ATOM     12  C   UNL A   1      32.730  25.041  22.018  1.00  0.00     0.234 C 
ATOM     13  C   UNL A   1      31.560  25.193  22.987  1.00  0.00     0.126 C 
BRANCH  12  14
ATOM     14  O   UNL A   1      33.641  23.936  22.086  1.00  0.00    -0.482 OA
BRANCH  14  15
ATOM     15  C   UNL A   1      33.592  22.842  22.908  1.00  0.00     0.146 A 
ATOM     16  C   UNL A   1      32.541  21.922  22.928  1.00  0.00     0.049 A 
ATOM     17  C   UNL A   1      34.739  22.603  23.699  1.00  0.00     0.112 A 
ATOM     18  C   UNL A   1      32.545  20.833  23.797  1.00  0.00     0.005 A 
ATOM     19  C   UNL A   1      34.756  21.450  24.525  1.00  0.00     0.004 A 
ATOM     20  N   UNL A   1      35.795  23.454  23.700  1.00  0.00    -0.252 NA
ATOM     21  C   UNL A   1      33.649  20.596  24.596  1.00  0.00     0.010 A 
ATOM     22  C   UNL A   1      35.899  21.166  25.279  1.00  0.00     0.012 A 
ATOM     23  C   UNL A   1      36.880  23.154  24.452  1.00  0.00     0.112 A 
ATOM     24  C   UNL A   1      36.984  22.026  25.240  1.00  0.00     0.021 A 
ENDBRANCH  14  15
ENDBRANCH  12  14
ENDBRANCH   4   7
ENDBRANCH   2   3
ENDBRANCH   1   2
BRANCH   1  25
ATOM     25  C   UNL A   1      31.907  30.240  26.937  1.00  0.00     0.023 C 
BRANCH  25  26
ATOM     26  C   UNL A   1      32.985  31.316  27.033  1.00  0.00     0.116 C 
BRANCH  26  27
ATOM     27  N   UNL A   1      32.494  32.643  27.366  1.00  0.00    -0.352 N 
ATOM     28  C   UNL A   1      33.090  33.615  28.140  1.00  0.00     0.251 C 
ATOM     29  H   UNL A   1      31.614  32.879  26.990  1.00  0.00     0.163 HD
ATOM     30  O   UNL A   1      32.510  34.673  28.358  1.00  0.00    -0.269 OA
BRANCH  28  31
ATOM     31  C   UNL A   1      34.431  33.386  28.738  1.00  0.00     0.039 A 
ATOM     32  C   UNL A   1      34.511  32.759  29.987  1.00  0.00     0.014 A 
ATOM     33  C   UNL A   1      35.603  33.772  28.084  1.00  0.00     0.014 A 
ATOM     34  C   UNL A   1      35.760  32.428  30.518  1.00  0.00     0.010 A 
ATOM     35  C   UNL A   1      36.845  33.397  28.584  1.00  0.00     0.010 A 
ATOM     36  C   UNL A   1      36.932  32.694  29.789  1.00  0.00    -0.014 A 
BRANCH  36  37
ATOM     37  C   UNL A   1      38.230  32.105  30.190  1.00  0.00     0.031 A 
ATOM     38  C   UNL A   1      39.177  32.832  31.096  1.00  0.00     0.074 A 
ATOM     39  C   UNL A   1      38.587  30.936  29.623  1.00  0.00     0.049 A 
ATOM     40  N   UNL A   1      40.338  32.440  31.554  1.00  0.00    -0.248 NA
ATOM     41  C   UNL A   1      38.789  34.186  31.517  1.00  0.00     0.031 C 
ATOM     42  C   UNL A   1      37.790  30.205  28.633  1.00  0.00     0.029 A 
ATOM     43  N   UNL A   1      39.706  30.162  29.783  1.00  0.00    -0.354 N 
ATOM     44  C   UNL A   1      40.819  33.492  32.322  1.00  0.00     0.074 A 
ATOM     45  C   UNL A   1      39.850  34.564  32.219  1.00  0.00     0.031 C 
ATOM     46  C   UNL A   1      38.428  29.073  28.302  1.00  0.00     0.029 A 
ATOM     47  C   UNL A   1      39.685  29.008  29.038  1.00  0.00     0.049 A 
ATOM     48  H   UNL A   1      40.454  30.411  30.373  1.00  0.00     0.167 HD
ATOM     49  C   UNL A   1      41.953  33.546  33.061  1.00  0.00     0.037 A 
ATOM     50  C   UNL A   1      40.573  28.001  28.970  1.00  0.00     0.037 A 
ATOM     51  C   UNL A   1      42.907  32.468  33.146  1.00  0.00     0.049 A 
ATOM     52  C   UNL A   1      41.798  28.061  29.836  1.00  0.00     0.074 A 
ATOM     53  C   UNL A   1      44.050  32.383  33.920  1.00  0.00     0.029 A 
ATOM     54  N   UNL A   1      42.831  31.289  32.416  1.00  0.00    -0.354 N 
ATOM     55  N   UNL A   1      42.181  29.009  30.658  1.00  0.00    -0.248 NA
ATOM     56  C   UNL A   1      42.702  26.907  29.783  1.00  0.00     0.031 C 
ATOM     57  C   UNL A   1      44.690  31.172  33.626  1.00  0.00     0.029 A 
ATOM     58  C   UNL A   1      43.919  30.479  32.707  1.00  0.00     0.049 A 
ATOM     59  H   UNL A   1      42.111  31.060  31.786  1.00  0.00     0.167 HD
ATOM     60  C   UNL A   1      43.357  28.557  31.238  1.00  0.00     0.074 A 
ATOM     61  C   UNL A   1      43.611  27.240  30.687  1.00  0.00     0.031 C 
ATOM     62  C   UNL A   1      44.155  29.175  32.143  1.00  0.00     0.037 A 
BRANCH  49  63
ATOM     63  C   UNL A   1      42.217  34.800  33.846  1.00  0.00     0.057 A 
ATOM     64  C   UNL A   1      42.875  35.900  33.278  1.00  0.00     0.134 A 
ATOM     65  C   UNL A   1      41.768  34.933  35.167  1.00  0.00     0.134 A 
ATOM     66  F   UNL A   1      43.337  35.840  32.020  1.00  0.00    -0.206 F 
ATOM     67  C   UNL A   1      43.101  37.073  34.002  1.00  0.00     0.040 A 
ATOM     68  C   UNL A   1      41.964  36.111  35.891  1.00  0.00     0.040 A 
ATOM     69  F   UNL A   1      41.122  33.925  35.772  1.00  0.00    -0.206 F 
ATOM     70  C   UNL A   1      42.638  37.183  35.311  1.00  0.00     0.006 A 
ENDBRANCH  49  63
BRANCH  50  71
ATOM     71  C   UNL A   1      40.294  26.828  28.105  1.00  0.00     0.057 A 
ATOM     72  C   UNL A   1      39.456  25.795  28.543  1.00  0.00     0.134 A 
ATOM     73  C   UNL A   1      40.825  26.724  26.815  1.00  0.00     0.134 A 
ATOM     74  F   UNL A   1      38.922  25.835  29.772  1.00  0.00    -0.206 F 
ATOM     75  C   UNL A   1      39.172  24.692  27.736  1.00  0.00     0.040 A 
ATOM     76  C   UNL A   1      40.530  25.639  25.988  1.00  0.00     0.040 A 
ATOM     77  F   UNL A   1      41.619  27.690  26.330  1.00  0.00    -0.206 F 
ATOM     78  C   UNL A   1      39.705  24.615  26.451  1.00  0.00     0.006 A 
ENDBRANCH  50  71
BRANCH  62  79
ATOM     79  C   UNL A   1      45.365  28.418  32.604  1.00  0.00     0.057 A 
ATOM     80  C   UNL A   1      46.607  28.552  31.972  1.00  0.00     0.134 A 
ATOM     81  C   UNL A   1      45.289  27.556  33.706  1.00  0.00     0.134 A 
ATOM     82  F   UNL A   1      46.741  29.349  30.901  1.00  0.00    -0.206 F 
ATOM     83  C   UNL A   1      47.724  27.835  32.400  1.00  0.00     0.040 A 
ATOM     84  C   UNL A   1      46.405  26.856  34.163  1.00  0.00     0.040 A 
ATOM     85  F   UNL A   1      44.130  27.389  34.362  1.00  0.00    -0.206 F 
ATOM     86  C   UNL A   1      47.626  26.989  33.503  1.00  0.00     0.006 A 
ENDBRANCH  62  79
ENDBRANCH  36  37
ENDBRANCH  28  31
ENDBRANCH  26  27
ENDBRANCH  25  26
ENDBRANCH   1  25
TORSDOF 13
ENDMDL
MODEL 3
REMARK VINA RESULT:     -11.8      3.050      8.009
REMARK SMILES C[N@H+]1C[C@@H](Oc2cccc3cccnc23)C[C@H]1C(=O)NCCCCNC(=O)c1ccc(-c2c3nc(c(-c4c(F)cccc4F)c4ccc([nH]4)c(-c4c(F)cccc4F)c4nc(c(-c5c(F)cccc5F)c5ccc2[nH]5)C=C4)C=C3)cc1
REMARK SMILES IDX 22 1 21 2 20 3 18 4 19 5 17 7 1 8 2 9 3 10 4 12 16 13 5 14
REMARK SMILES IDX 6 15 7 16 15 17 8 18 10 19 14 20 9 21 11 22 13 23 12 24
REMARK SMILES IDX 23 25 24 26 25 27 26 28 27 30 28 31 29 32 81 33 30 34 80 35
REMARK SMILES IDX 31 36 32 37 33 38 74 39 34 40 79 41 73 42 75 43 35 44 78 45
REMARK SMILES IDX 72 46 71 47 36 49 62 50 45 51 61 52 46 53 49 54 60 55 76 56
REMARK SMILES IDX 47 57 48 58 59 60 77 61 50 62 37 63 38 64 43 65 39 66 40 67
REMARK SMILES IDX 42 68 44 69 41 70 63 71 64 72 69 73 65 74 66 75 68 76 70 77
REMARK SMILES IDX 67 78 51 79 52 80 57 81 53 82 54 83 56 84 58 85 55 86
REMARK H PARENT 20 6 2 11 25 29 75 48 49 59
REMARK Flexibility Score: inf
ROOT
ATOM      1  C   UNL A   1      31.773  28.515  27.291  1.00  0.00     0.023 C 
ENDROOT
BRANCH   1   2
ATOM      2  C   UNL A   1      32.467  27.367  26.563  1.00  0.00     0.116 C 
BRANCH   2   3
ATOM      3  N   UNL A   1      31.740  26.119  26.480  1.00  0.00    -0.351 N 
ATOM      4  C   UNL A   1      32.189  24.848  26.698  1.00  0.00     0.278 C 
ATOM      5  O   UNL A   1      31.386  24.098  27.275  1.00  0.00    -0.268 OA
ATOM      6  H   UNL A   1      30.791  26.197  26.234  1.00  0.00     0.163 HD
BRANCH   4   7
ATOM      7  C   UNL A   1      33.551  24.257  26.254  1.00  0.00     0.278 C 
ATOM      8  C   UNL A   1      33.012  21.829  26.353  1.00  0.00     0.333 C 
ATOM      9  N   UNL A   1      33.582  22.938  25.645  1.00  0.00    -0.324 N 
ATOM     10  C   UNL A   1      33.606  23.022  24.194  1.00  0.00     0.308 C 
ATOM     11  H   UNL A   1      34.485  22.504  25.837  1.00  0.00     0.348 HD
ATOM     12  C   UNL A   1      34.103  24.464  23.893  1.00  0.00     0.234 C 
ATOM     13  C   UNL A   1      34.383  25.066  25.268  1.00  0.00     0.126 C 
BRANCH  12  14
ATOM     14  O   UNL A   1      33.356  25.165  22.888  1.00  0.00    -0.482 OA
BRANCH  14  15
ATOM     15  C   UNL A   1      32.924  26.464  22.901  1.00  0.00     0.146 A 
ATOM     16  C   UNL A   1      33.725  27.560  22.570  1.00  0.00     0.049 A 
ATOM     17  C   UNL A   1      31.551  26.662  23.172  1.00  0.00     0.112 A 
ATOM     18  C   UNL A   1      33.227  28.861  22.613  1.00  0.00     0.005 A 
ATOM     19  C   UNL A   1      31.046  27.988  23.141  1.00  0.00     0.004 A 
ATOM     20  N   UNL A   1      30.727  25.630  23.477  1.00  0.00    -0.252 NA
ATOM     21  C   UNL A   1      31.891  29.077  22.899  1.00  0.00     0.010 A 
ATOM     22  C   UNL A   1      29.681  28.204  23.356  1.00  0.00     0.012 A 
ATOM     23  C   UNL A   1      29.414  25.878  23.693  1.00  0.00     0.112 A 
ATOM     24  C   UNL A   1      28.847  27.134  23.630  1.00  0.00     0.021 A 
ENDBRANCH  14  15
ENDBRANCH  12  14
ENDBRANCH   4   7
ENDBRANCH   2   3
ENDBRANCH   1   2
BRANCH   1  25
ATOM     25  C   UNL A   1      31.825  29.866  26.574  1.00  0.00     0.023 C 
BRANCH  25  26
ATOM     26  C   UNL A   1      32.871  30.849  27.092  1.00  0.00     0.116 C 
BRANCH  26  27
ATOM     27  N   UNL A   1      32.389  32.204  27.293  1.00  0.00    -0.352 N 
ATOM     28  C   UNL A   1      33.000  33.251  27.951  1.00  0.00     0.251 C 
ATOM     29  H   UNL A   1      31.503  32.403  26.909  1.00  0.00     0.163 HD
ATOM     30  O   UNL A   1      32.425  34.327  28.067  1.00  0.00    -0.269 OA
BRANCH  28  31
ATOM     31  C   UNL A   1      34.351  33.080  28.546  1.00  0.00     0.039 A 
ATOM     32  C   UNL A   1      34.453  32.564  29.843  1.00  0.00     0.014 A 
ATOM     33  C   UNL A   1      35.511  33.415  27.844  1.00  0.00     0.014 A 
ATOM     34  C   UNL A   1      35.711  32.286  30.382  1.00  0.00     0.010 A 
ATOM     35  C   UNL A   1      36.762  33.090  28.355  1.00  0.00     0.010 A 
ATOM     36  C   UNL A   1      36.871  32.494  29.615  1.00  0.00    -0.014 A 
BRANCH  36  37
ATOM     37  C   UNL A   1      38.178  31.948  30.046  1.00  0.00     0.031 A 
ATOM     38  C   UNL A   1      39.087  32.713  30.960  1.00  0.00     0.074 A 
ATOM     39  C   UNL A   1      38.580  30.784  29.499  1.00  0.00     0.049 A 
ATOM     40  N   UNL A   1      40.251  32.361  31.443  1.00  0.00    -0.248 NA
ATOM     41  C   UNL A   1      38.652  34.059  31.358  1.00  0.00     0.031 C 
ATOM     42  C   UNL A   1      37.823  30.018  28.504  1.00  0.00     0.029 A 
ATOM     43  N   UNL A   1      39.718  30.046  29.688  1.00  0.00    -0.354 N 
ATOM     44  C   UNL A   1      40.686  33.436  32.207  1.00  0.00     0.074 A 
ATOM     45  C   UNL A   1      39.688  34.476  32.074  1.00  0.00     0.031 C 
ATOM     46  C   UNL A   1      38.500  28.903  28.198  1.00  0.00     0.029 A 
ATOM     47  C   UNL A   1      39.744  28.883  28.956  1.00  0.00     0.049 A 
ATOM     48  H   UNL A   1      40.447  30.323  30.288  1.00  0.00     0.167 HD
ATOM     49  C   UNL A   1      41.805  33.531  32.965  1.00  0.00     0.037 A 
ATOM     50  C   UNL A   1      40.663  27.902  28.916  1.00  0.00     0.037 A 
ATOM     51  C   UNL A   1      42.788  32.483  33.080  1.00  0.00     0.049 A 
ATOM     52  C   UNL A   1      41.870  28.008  29.802  1.00  0.00     0.074 A 
ATOM     53  C   UNL A   1      43.920  32.441  33.875  1.00  0.00     0.029 A 
ATOM     54  N   UNL A   1      42.761  31.294  32.363  1.00  0.00    -0.354 N 
ATOM     55  N   UNL A   1      42.210  28.976  30.620  1.00  0.00    -0.248 NA
ATOM     56  C   UNL A   1      42.808  26.880  29.779  1.00  0.00     0.031 C 
ATOM     57  C   UNL A   1      44.600  31.246  33.607  1.00  0.00     0.029 A 
ATOM     58  C   UNL A   1      43.866  30.520  32.682  1.00  0.00     0.049 A 
ATOM     59  H   UNL A   1      42.059  31.037  31.722  1.00  0.00     0.167 HD
ATOM     60  C   UNL A   1      43.388  28.566  31.226  1.00  0.00     0.074 A 
ATOM     61  C   UNL A   1      43.691  27.251  30.695  1.00  0.00     0.031 C 
ATOM     62  C   UNL A   1      44.151  29.217  32.137  1.00  0.00     0.037 A 
BRANCH  49  63
ATOM     63  C   UNL A   1      42.018  34.801  33.740  1.00  0.00     0.057 A 
ATOM     64  C   UNL A   1      41.570  34.941  35.061  1.00  0.00     0.134 A 
ATOM     65  C   UNL A   1      42.718  35.879  33.182  1.00  0.00     0.134 A 
ATOM     66  F   UNL A   1      40.887  33.952  35.656  1.00  0.00    -0.206 F 
ATOM     67  C   UNL A   1      41.786  36.115  35.788  1.00  0.00     0.040 A 
ATOM     68  C   UNL A   1      42.964  37.046  33.908  1.00  0.00     0.040 A 
ATOM     69  F   UNL A   1      43.184  35.812  31.925  1.00  0.00    -0.206 F 
ATOM     70  C   UNL A   1      42.492  37.170  35.213  1.00  0.00     0.006 A 
ENDBRANCH  49  63
BRANCH  50  71
ATOM     71  C   UNL A   1      40.434  26.712  28.060  1.00  0.00     0.057 A 
ATOM     72  C   UNL A   1      39.583  25.680  28.476  1.00  0.00     0.134 A 
ATOM     73  C   UNL A   1      41.027  26.589  26.799  1.00  0.00     0.134 A 
ATOM     74  F   UNL A   1      38.992  25.737  29.678  1.00  0.00    -0.206 F 
ATOM     75  C   UNL A   1      39.346  24.560  27.677  1.00  0.00     0.040 A 
ATOM     76  C   UNL A   1      40.780  25.487  25.979  1.00  0.00     0.040 A 
ATOM     77  F   UNL A   1      41.837  27.553  26.335  1.00  0.00    -0.206 F 
ATOM     78  C   UNL A   1      39.942  24.465  26.420  1.00  0.00     0.006 A 
ENDBRANCH  50  71
BRANCH  62  79
ATOM     79  C   UNL A   1      45.374  28.501  32.629  1.00  0.00     0.057 A 
ATOM     80  C   UNL A   1      46.620  28.654  32.008  1.00  0.00     0.134 A 
ATOM     81  C   UNL A   1      45.307  27.662  33.749  1.00  0.00     0.134 A 
ATOM     82  F   UNL A   1      46.747  29.432  30.921  1.00  0.00    -0.206 F 
ATOM     83  C   UNL A   1      47.750  27.975  32.464  1.00  0.00     0.040 A 
ATOM     84  C   UNL A   1      46.435  27.001  34.233  1.00  0.00     0.040 A 
ATOM     85  F   UNL A   1      44.145  27.479  34.395  1.00  0.00    -0.206 F 
ATOM     86  C   UNL A   1      47.660  27.151  33.584  1.00  0.00     0.006 A 
ENDBRANCH  62  79
ENDBRANCH  36  37
ENDBRANCH  28  31
ENDBRANCH  26  27
ENDBRANCH  25  26
ENDBRANCH   1  25
TORSDOF 13
ENDMDL
