MODEL 1
REMARK VINA RESULT:     -11.8      0.000      0.000
REMARK SMILES Cc1csc([C@H](C)Nc2cc(C)c(N)c(C(=O)NCCCCNC(=O)c3ccc(-c4c5nc(c(-c6c(F)cccc6F)c6ccc([nH]6)c(-c6c(F)cccc6F)c6nc(c(-c7c(F)cccc7F)c7ccc4[nH]7)C=C6)C=C5)cc3)c2)n1
REMARK SMILES IDX 20 1 19 2 18 3 16 4 17 5 15 7 9 8 10 9 80 10 11 11 12 12
REMARK SMILES IDX 13 13 8 14 6 16 7 17 5 18 1 19 2 20 3 21 81 22 4 23 14 24
REMARK SMILES IDX 21 27 22 28 23 29 24 30 25 32 26 33 27 34 79 35 28 36 78 37
REMARK SMILES IDX 29 38 30 39 31 40 72 41 32 42 77 43 71 44 73 45 33 46 76 47
REMARK SMILES IDX 70 48 69 49 34 51 60 52 43 53 59 54 44 55 47 56 58 57 74 58
REMARK SMILES IDX 45 59 46 60 57 62 75 63 48 64 35 65 36 66 41 67 37 68 38 69
REMARK SMILES IDX 40 70 42 71 39 72 61 73 62 74 67 75 63 76 64 77 66 78 68 79
REMARK SMILES IDX 65 80 49 81 50 82 55 83 51 84 52 85 54 86 56 87 53 88
REMARK H PARENT 18 6 8 15 14 25 14 26 23 31 73 50 47 61
REMARK Flexibility Score: inf
ROOT
ATOM      1  C   UNL A   1      37.030  21.231  24.366  1.00  0.00     0.023 C 
ENDROOT
BRANCH   1   2
ATOM      2  C   UNL A   1      36.812  22.417  25.311  1.00  0.00     0.116 C 
BRANCH   2   3
ATOM      3  N   UNL A   1      35.931  22.044  26.399  1.00  0.00    -0.352 N 
ATOM      4  C   UNL A   1      34.611  21.665  26.459  1.00  0.00     0.253 C 
ATOM      5  O   UNL A   1      34.173  21.454  27.597  1.00  0.00    -0.269 OA
ATOM      6  H   UNL A   1      36.370  22.065  27.280  1.00  0.00     0.163 HD
BRANCH   4   7
ATOM      7  C   UNL A   1      33.712  21.473  25.265  1.00  0.00     0.065 A 
ATOM      8  C   UNL A   1      32.264  22.393  23.508  1.00  0.00     0.036 A 
ATOM      9  C   UNL A   1      32.098  21.117  22.985  1.00  0.00     0.031 A 
ATOM     10  C   UNL A   1      33.054  22.543  24.649  1.00  0.00     0.041 A 
ATOM     11  C   UNL A   1      32.680  19.999  23.609  1.00  0.00    -0.025 A 
ATOM     12  C   UNL A   1      32.444  18.637  23.010  1.00  0.00     0.046 C 
ATOM     13  C   UNL A   1      33.483  20.166  24.762  1.00  0.00     0.047 A 
BRANCH   8  14
ATOM     14  N   UNL A   1      31.869  23.547  22.847  1.00  0.00    -0.376 N 
ATOM     15  H   UNL A   1      31.012  23.548  22.363  1.00  0.00     0.161 HD
BRANCH  14  16
ATOM     16  C   UNL A   1      32.685  24.770  22.844  1.00  0.00     0.135 C 
ATOM     17  C   UNL A   1      32.896  25.115  21.360  1.00  0.00     0.039 C 
BRANCH  16  18
ATOM     18  C   UNL A   1      32.052  25.922  23.625  1.00  0.00     0.115 A 
ATOM     19  C   UNL A   1      31.484  27.521  26.809  1.00  0.00     0.067 C 
ATOM     20  C   UNL A   1      31.475  27.192  25.361  1.00  0.00     0.049 A 
ATOM     21  C   UNL A   1      30.903  27.934  24.348  1.00  0.00     0.090 A 
ATOM     22  N   UNL A   1      32.106  26.032  24.941  1.00  0.00    -0.244 NA
ATOM     23  S   UNL A   1      31.231  27.216  22.832  1.00  0.00    -0.125 S 
ENDBRANCH  16  18
ENDBRANCH  14  16
ENDBRANCH   8  14
BRANCH  13  24
ATOM     24  N   UNL A   1      34.168  19.058  25.280  1.00  0.00    -0.398 N 
ATOM     25  H   UNL A   1      35.060  19.172  25.679  1.00  0.00     0.156 HD
ATOM     26  H   UNL A   1      33.756  18.164  25.244  1.00  0.00     0.156 HD
ENDBRANCH  13  24
ENDBRANCH   4   7
ENDBRANCH   2   3
ENDBRANCH   1   2
BRANCH   1  27
ATOM     27  C   UNL A   1      37.736  20.033  25.007  1.00  0.00     0.023 C 
BRANCH  27  28
ATOM     28  C   UNL A   1      39.027  20.371  25.744  1.00  0.00     0.116 C 
BRANCH  28  29
ATOM     29  N   UNL A   1      39.963  19.259  25.806  1.00  0.00    -0.352 N 
ATOM     30  C   UNL A   1      41.304  19.287  26.104  1.00  0.00     0.251 C 
ATOM     31  H   UNL A   1      39.586  18.370  25.610  1.00  0.00     0.163 HD
ATOM     32  O   UNL A   1      41.982  18.273  26.020  1.00  0.00    -0.269 OA
BRANCH  30  33
ATOM     33  C   UNL A   1      41.929  20.572  26.480  1.00  0.00     0.039 A 
ATOM     34  C   UNL A   1      42.417  21.400  25.467  1.00  0.00     0.014 A 
ATOM     35  C   UNL A   1      42.000  20.969  27.818  1.00  0.00     0.014 A 
ATOM     36  C   UNL A   1      42.921  22.660  25.791  1.00  0.00     0.010 A 
ATOM     37  C   UNL A   1      42.439  22.252  28.131  1.00  0.00     0.010 A 
ATOM     38  C   UNL A   1      42.902  23.108  27.121  1.00  0.00    -0.014 A 
BRANCH  38  39
ATOM     39  C   UNL A   1      43.360  24.474  27.475  1.00  0.00     0.031 A 
ATOM     40  C   UNL A   1      42.364  25.519  27.890  1.00  0.00     0.074 A 
ATOM     41  C   UNL A   1      44.664  24.788  27.354  1.00  0.00     0.049 A 
ATOM     42  N   UNL A   1      42.563  26.781  28.176  1.00  0.00    -0.248 NA
ATOM     43  C   UNL A   1      40.957  25.099  27.964  1.00  0.00     0.031 C 
ATOM     44  C   UNL A   1      45.717  23.875  26.906  1.00  0.00     0.029 A 
ATOM     45  N   UNL A   1      45.323  25.968  27.588  1.00  0.00    -0.354 N 
ATOM     46  C   UNL A   1      41.307  27.307  28.447  1.00  0.00     0.074 A 
ATOM     47  C   UNL A   1      40.348  26.243  28.244  1.00  0.00     0.031 C 
ATOM     48  C   UNL A   1      46.894  24.522  26.918  1.00  0.00     0.029 A 
ATOM     49  C   UNL A   1      46.674  25.900  27.344  1.00  0.00     0.049 A 
ATOM     50  H   UNL A   1      44.872  26.784  27.902  1.00  0.00     0.167 HD
ATOM     51  C   UNL A   1      40.985  28.558  28.853  1.00  0.00     0.037 A 
ATOM     52  C   UNL A   1      47.625  26.847  27.449  1.00  0.00     0.037 A 
ATOM     53  C   UNL A   1      41.944  29.606  29.083  1.00  0.00     0.049 A 
ATOM     54  C   UNL A   1      47.244  28.223  27.918  1.00  0.00     0.074 A 
ATOM     55  C   UNL A   1      41.724  30.887  29.558  1.00  0.00     0.029 A 
ATOM     56  N   UNL A   1      43.307  29.492  28.855  1.00  0.00    -0.354 N 
ATOM     57  N   UNL A   1      46.062  28.687  28.242  1.00  0.00    -0.248 NA
ATOM     58  C   UNL A   1      48.331  29.204  28.044  1.00  0.00     0.031 C 
ATOM     59  C   UNL A   1      42.951  31.560  29.583  1.00  0.00     0.029 A 
ATOM     60  C   UNL A   1      43.939  30.684  29.164  1.00  0.00     0.049 A 
ATOM     61  H   UNL A   1      43.758  28.682  28.523  1.00  0.00     0.167 HD
ATOM     62  C   UNL A   1      46.265  30.003  28.634  1.00  0.00     0.074 A 
ATOM     63  C   UNL A   1      47.686  30.259  28.520  1.00  0.00     0.031 C 
ATOM     64  C   UNL A   1      45.356  30.919  29.051  1.00  0.00     0.037 A 
BRANCH  51  65
ATOM     65  C   UNL A   1      39.532  28.856  29.079  1.00  0.00     0.057 A 
ATOM     66  C   UNL A   1      38.701  29.302  28.043  1.00  0.00     0.134 A 
ATOM     67  C   UNL A   1      38.949  28.670  30.339  1.00  0.00     0.134 A 
ATOM     68  F   UNL A   1      39.199  29.514  26.815  1.00  0.00    -0.206 F 
ATOM     69  C   UNL A   1      37.350  29.578  28.258  1.00  0.00     0.040 A 
ATOM     70  C   UNL A   1      37.594  28.916  30.561  1.00  0.00     0.040 A 
ATOM     71  F   UNL A   1      39.688  28.239  31.374  1.00  0.00    -0.206 F 
ATOM     72  C   UNL A   1      36.791  29.379  29.519  1.00  0.00     0.006 A 
ENDBRANCH  51  65
BRANCH  52  73
ATOM     73  C   UNL A   1      49.037  26.516  27.135  1.00  0.00     0.057 A 
ATOM     74  C   UNL A   1      49.560  26.733  25.856  1.00  0.00     0.134 A 
ATOM     75  C   UNL A   1      49.894  25.974  28.100  1.00  0.00     0.134 A 
ATOM     76  F   UNL A   1      48.783  27.234  24.885  1.00  0.00    -0.206 F 
ATOM     77  C   UNL A   1      50.880  26.405  25.539  1.00  0.00     0.040 A 
ATOM     78  C   UNL A   1      51.222  25.663  27.805  1.00  0.00     0.040 A 
ATOM     79  F   UNL A   1      49.455  25.750  29.347  1.00  0.00    -0.206 F 
ATOM     80  C   UNL A   1      51.716  25.872  26.518  1.00  0.00     0.006 A 
ENDBRANCH  52  73
BRANCH  64  81
ATOM     81  C   UNL A   1      45.876  32.268  29.446  1.00  0.00     0.057 A 
ATOM     82  C   UNL A   1      45.966  33.322  28.529  1.00  0.00     0.134 A 
ATOM     83  C   UNL A   1      46.257  32.525  30.769  1.00  0.00     0.134 A 
ATOM     84  F   UNL A   1      45.630  33.135  27.243  1.00  0.00    -0.206 F 
ATOM     85  C   UNL A   1      46.437  34.580  28.908  1.00  0.00     0.040 A 
ATOM     86  C   UNL A   1      46.705  33.785  31.166  1.00  0.00     0.040 A 
ATOM     87  F   UNL A   1      46.186  31.560  31.699  1.00  0.00    -0.206 F 
ATOM     88  C   UNL A   1      46.803  34.815  30.233  1.00  0.00     0.006 A 
ENDBRANCH  64  81
ENDBRANCH  38  39
ENDBRANCH  30  33
ENDBRANCH  28  29
ENDBRANCH  27  28
ENDBRANCH   1  27
TORSDOF 15
ENDMDL
MODEL 2
REMARK VINA RESULT:     -11.8      1.397      6.318
REMARK SMILES Cc1csc([C@H](C)Nc2cc(C)c(N)c(C(=O)NCCCCNC(=O)c3ccc(-c4c5nc(c(-c6c(F)cccc6F)c6ccc([nH]6)c(-c6c(F)cccc6F)c6nc(c(-c7c(F)cccc7F)c7ccc4[nH]7)C=C6)C=C5)cc3)c2)n1
REMARK SMILES IDX 20 1 19 2 18 3 16 4 17 5 15 7 9 8 10 9 80 10 11 11 12 12
REMARK SMILES IDX 13 13 8 14 6 16 7 17 5 18 1 19 2 20 3 21 81 22 4 23 14 24
REMARK SMILES IDX 21 27 22 28 23 29 24 30 25 32 26 33 27 34 79 35 28 36 78 37
REMARK SMILES IDX 29 38 30 39 31 40 72 41 32 42 77 43 71 44 73 45 33 46 76 47
REMARK SMILES IDX 70 48 69 49 34 51 60 52 43 53 59 54 44 55 47 56 58 57 74 58
REMARK SMILES IDX 45 59 46 60 57 62 75 63 48 64 35 65 36 66 41 67 37 68 38 69
REMARK SMILES IDX 40 70 42 71 39 72 61 73 62 74 67 75 63 76 64 77 66 78 68 79
REMARK SMILES IDX 65 80 49 81 50 82 55 83 51 84 52 85 54 86 56 87 53 88
REMARK H PARENT 18 6 8 15 14 25 14 26 23 31 73 50 47 61
REMARK Flexibility Score: inf
ROOT
ATOM      1  C   UNL A   1      36.919  21.172  24.437  1.00  0.00     0.023 C 
ENDROOT
BRANCH   1   2
ATOM      2  C   UNL A   1      36.743  22.309  25.448  1.00  0.00     0.116 C 
BRANCH   2   3
ATOM      3  N   UNL A   1      35.805  21.927  26.484  1.00  0.00    -0.352 N 
ATOM      4  C   UNL A   1      34.475  21.578  26.473  1.00  0.00     0.253 C 
ATOM      5  O   UNL A   1      33.981  21.348  27.583  1.00  0.00    -0.269 OA
ATOM      6  H   UNL A   1      36.203  21.914  27.384  1.00  0.00     0.163 HD
BRANCH   4   7
ATOM      7  C   UNL A   1      33.628  21.442  25.234  1.00  0.00     0.065 A 
ATOM      8  C   UNL A   1      32.295  22.446  23.433  1.00  0.00     0.036 A 
ATOM      9  C   UNL A   1      32.113  21.188  22.875  1.00  0.00     0.031 A 
ATOM     10  C   UNL A   1      33.034  22.546  24.613  1.00  0.00     0.041 A 
ATOM     11  C   UNL A   1      32.628  20.038  23.499  1.00  0.00    -0.025 A 
ATOM     12  C   UNL A   1      32.376  18.697  22.860  1.00  0.00     0.046 C 
ATOM     13  C   UNL A   1      33.381  20.154  24.692  1.00  0.00     0.047 A 
BRANCH   8  14
ATOM     14  N   UNL A   1      31.969  23.626  22.781  1.00  0.00    -0.376 N 
ATOM     15  H   UNL A   1      31.079  23.712  22.369  1.00  0.00     0.161 HD
BRANCH  14  16
ATOM     16  C   UNL A   1      32.905  24.756  22.683  1.00  0.00     0.135 C 
ATOM     17  C   UNL A   1      32.807  25.240  21.227  1.00  0.00     0.039 C 
BRANCH  16  18
ATOM     18  C   UNL A   1      32.616  25.870  23.688  1.00  0.00     0.115 A 
ATOM     19  C   UNL A   1      33.862  28.105  26.233  1.00  0.00     0.067 C 
ATOM     20  C   UNL A   1      32.979  27.384  25.282  1.00  0.00     0.049 A 
ATOM     21  C   UNL A   1      31.639  27.624  25.054  1.00  0.00     0.090 A 
ATOM     22  N   UNL A   1      33.521  26.365  24.516  1.00  0.00    -0.244 NA
ATOM     23  S   UNL A   1      31.063  26.615  23.800  1.00  0.00    -0.125 S 
ENDBRANCH  16  18
ENDBRANCH  14  16
ENDBRANCH   8  14
BRANCH  13  24
ATOM     24  N   UNL A   1      34.005  19.013  25.216  1.00  0.00    -0.398 N 
ATOM     25  H   UNL A   1      34.936  19.061  25.530  1.00  0.00     0.156 HD
ATOM     26  H   UNL A   1      33.511  18.163  25.270  1.00  0.00     0.156 HD
ENDBRANCH  13  24
ENDBRANCH   4   7
ENDBRANCH   2   3
ENDBRANCH   1   2
BRANCH   1  27
ATOM     27  C   UNL A   1      37.754  19.994  24.948  1.00  0.00     0.023 C 
BRANCH  27  28
ATOM     28  C   UNL A   1      38.975  20.386  25.771  1.00  0.00     0.116 C 
BRANCH  28  29
ATOM     29  N   UNL A   1      40.037  19.393  25.736  1.00  0.00    -0.352 N 
ATOM     30  C   UNL A   1      41.361  19.545  26.074  1.00  0.00     0.251 C 
ATOM     31  H   UNL A   1      39.773  18.494  25.431  1.00  0.00     0.163 HD
ATOM     32  O   UNL A   1      42.157  18.634  25.898  1.00  0.00    -0.269 OA
BRANCH  30  33
ATOM     33  C   UNL A   1      41.820  20.843  26.610  1.00  0.00     0.039 A 
ATOM     34  C   UNL A   1      42.283  21.809  25.715  1.00  0.00     0.014 A 
ATOM     35  C   UNL A   1      41.760  21.115  27.979  1.00  0.00     0.014 A 
ATOM     36  C   UNL A   1      42.628  23.076  26.187  1.00  0.00     0.010 A 
ATOM     37  C   UNL A   1      42.039  22.398  28.438  1.00  0.00     0.010 A 
ATOM     38  C   UNL A   1      42.474  23.390  27.547  1.00  0.00    -0.014 A 
BRANCH  38  39
ATOM     39  C   UNL A   1      42.761  24.754  28.054  1.00  0.00     0.031 A 
ATOM     40  C   UNL A   1      44.158  25.130  28.458  1.00  0.00     0.074 A 
ATOM     41  C   UNL A   1      41.749  25.628  28.215  1.00  0.00     0.049 A 
ATOM     42  N   UNL A   1      44.594  26.248  28.980  1.00  0.00    -0.248 NA
ATOM     43  C   UNL A   1      45.197  24.104  28.279  1.00  0.00     0.031 C 
ATOM     44  C   UNL A   1      40.342  25.359  27.913  1.00  0.00     0.029 A 
ATOM     45  N   UNL A   1      41.749  26.917  28.685  1.00  0.00    -0.354 N 
ATOM     46  C   UNL A   1      45.950  26.054  29.206  1.00  0.00     0.074 A 
ATOM     47  C   UNL A   1      46.256  24.697  28.812  1.00  0.00     0.031 C 
ATOM     48  C   UNL A   1      39.617  26.457  28.184  1.00  0.00     0.029 A 
ATOM     49  C   UNL A   1      40.502  27.493  28.707  1.00  0.00     0.049 A 
ATOM     50  H   UNL A   1      42.564  27.383  28.977  1.00  0.00     0.167 HD
ATOM     51  C   UNL A   1      46.862  26.937  29.677  1.00  0.00     0.037 A 
ATOM     52  C   UNL A   1      40.117  28.719  29.108  1.00  0.00     0.037 A 
ATOM     53  C   UNL A   1      46.560  28.296  30.041  1.00  0.00     0.049 A 
ATOM     54  C   UNL A   1      41.152  29.686  29.611  1.00  0.00     0.074 A 
ATOM     55  C   UNL A   1      47.427  29.288  30.466  1.00  0.00     0.029 A 
ATOM     56  N   UNL A   1      45.291  28.855  30.020  1.00  0.00    -0.354 N 
ATOM     57  N   UNL A   1      42.444  29.514  29.751  1.00  0.00    -0.248 NA
ATOM     58  C   UNL A   1      40.677  31.019  30.004  1.00  0.00     0.031 C 
ATOM     59  C   UNL A   1      46.676  30.437  30.738  1.00  0.00     0.029 A 
ATOM     60  C   UNL A   1      45.348  30.172  30.442  1.00  0.00     0.049 A 
ATOM     61  H   UNL A   1      44.471  28.383  29.747  1.00  0.00     0.167 HD
ATOM     62  C   UNL A   1      42.939  30.722  30.222  1.00  0.00     0.074 A 
ATOM     63  C   UNL A   1      41.811  31.623  30.332  1.00  0.00     0.031 C 
ATOM     64  C   UNL A   1      44.215  31.057  30.537  1.00  0.00     0.037 A 
BRANCH  51  65
ATOM     65  C   UNL A   1      48.276  26.456  29.819  1.00  0.00     0.057 A 
ATOM     66  C   UNL A   1      49.224  26.644  28.805  1.00  0.00     0.134 A 
ATOM     67  C   UNL A   1      48.704  25.823  30.993  1.00  0.00     0.134 A 
ATOM     68  F   UNL A   1      48.876  27.232  27.649  1.00  0.00    -0.206 F 
ATOM     69  C   UNL A   1      50.539  26.195  28.941  1.00  0.00     0.040 A 
ATOM     70  C   UNL A   1      50.022  25.394  31.153  1.00  0.00     0.040 A 
ATOM     71  F   UNL A   1      47.848  25.617  32.006  1.00  0.00    -0.206 F 
ATOM     72  C   UNL A   1      50.942  25.573  30.121  1.00  0.00     0.006 A 
ENDBRANCH  51  65
BRANCH  52  73
ATOM     73  C   UNL A   1      38.690  29.114  29.019  1.00  0.00     0.057 A 
ATOM     74  C   UNL A   1      37.847  29.025  30.133  1.00  0.00     0.134 A 
ATOM     75  C   UNL A   1      38.133  29.584  27.824  1.00  0.00     0.134 A 
ATOM     76  F   UNL A   1      38.320  28.566  31.301  1.00  0.00    -0.206 F 
ATOM     77  C   UNL A   1      36.497  29.371  30.059  1.00  0.00     0.040 A 
ATOM     78  C   UNL A   1      36.790  29.955  27.741  1.00  0.00     0.040 A 
ATOM     79  F   UNL A   1      38.890  29.699  26.723  1.00  0.00    -0.206 F 
ATOM     80  C   UNL A   1      35.966  29.843  28.860  1.00  0.00     0.006 A 
ENDBRANCH  52  73
BRANCH  64  81
ATOM     81  C   UNL A   1      44.460  32.463  30.996  1.00  0.00     0.057 A 
ATOM     82  C   UNL A   1      44.444  32.810  32.353  1.00  0.00     0.134 A 
ATOM     83  C   UNL A   1      44.753  33.472  30.072  1.00  0.00     0.134 A 
ATOM     84  F   UNL A   1      44.155  31.890  33.287  1.00  0.00    -0.206 F 
ATOM     85  C   UNL A   1      44.688  34.118  32.772  1.00  0.00     0.040 A 
ATOM     86  C   UNL A   1      45.023  34.778  30.481  1.00  0.00     0.040 A 
ATOM     87  F   UNL A   1      44.793  33.203  28.757  1.00  0.00    -0.206 F 
ATOM     88  C   UNL A   1      44.985  35.106  31.834  1.00  0.00     0.006 A 
ENDBRANCH  64  81
ENDBRANCH  38  39
ENDBRANCH  30  33
ENDBRANCH  28  29
ENDBRANCH  27  28
ENDBRANCH   1  27
TORSDOF 15
ENDMDL
MODEL 3
REMARK VINA RESULT:     -11.7      5.099      9.545
REMARK SMILES Cc1csc([C@H](C)Nc2cc(C)c(N)c(C(=O)NCCCCNC(=O)c3ccc(-c4c5nc(c(-c6c(F)cccc6F)c6ccc([nH]6)c(-c6c(F)cccc6F)c6nc(c(-c7c(F)cccc7F)c7ccc4[nH]7)C=C6)C=C5)cc3)c2)n1
REMARK SMILES IDX 20 1 19 2 18 3 16 4 17 5 15 7 9 8 10 9 80 10 11 11 12 12
REMARK SMILES IDX 13 13 8 14 6 16 7 17 5 18 1 19 2 20 3 21 81 22 4 23 14 24
REMARK SMILES IDX 21 27 22 28 23 29 24 30 25 32 26 33 27 34 79 35 28 36 78 37
REMARK SMILES IDX 29 38 30 39 31 40 72 41 32 42 77 43 71 44 73 45 33 46 76 47
REMARK SMILES IDX 70 48 69 49 34 51 60 52 43 53 59 54 44 55 47 56 58 57 74 58
REMARK SMILES IDX 45 59 46 60 57 62 75 63 48 64 35 65 36 66 41 67 37 68 38 69
REMARK SMILES IDX 40 70 42 71 39 72 61 73 62 74 67 75 63 76 64 77 66 78 68 79
REMARK SMILES IDX 65 80 49 81 50 82 55 83 51 84 52 85 54 86 56 87 53 88
REMARK H PARENT 18 6 8 15 14 25 14 26 23 31 73 50 47 61
REMARK Flexibility Score: inf
ROOT
ATOM      1  C   UNL A   1      31.698  30.481  26.784  1.00  0.00     0.023 C 
ENDROOT
BRANCH   1   2
ATOM      2  C   UNL A   1      33.174  30.074  26.859  1.00  0.00     0.116 C 
BRANCH   2   3
ATOM      3  N   UNL A   1      33.673  29.732  25.542  1.00  0.00    -0.352 N 
ATOM      4  C   UNL A   1      33.340  28.759  24.629  1.00  0.00     0.253 C 
ATOM      5  O   UNL A   1      34.027  28.744  23.601  1.00  0.00    -0.269 OA
ATOM      6  H   UNL A   1      34.403  30.318  25.238  1.00  0.00     0.163 HD
BRANCH   4   7
ATOM      7  C   UNL A   1      32.216  27.769  24.793  1.00  0.00     0.065 A 
ATOM      8  C   UNL A   1      31.270  25.760  25.841  1.00  0.00     0.036 A 
ATOM      9  C   UNL A   1      30.082  25.968  25.152  1.00  0.00     0.031 A 
ATOM     10  C   UNL A   1      32.321  26.655  25.633  1.00  0.00     0.041 A 
ATOM     11  C   UNL A   1      29.950  27.031  24.241  1.00  0.00    -0.025 A 
ATOM     12  C   UNL A   1      28.646  27.190  23.504  1.00  0.00     0.046 C 
ATOM     13  C   UNL A   1      31.022  27.935  24.044  1.00  0.00     0.047 A 
BRANCH   8  14
ATOM     14  N   UNL A   1      31.404  24.846  26.876  1.00  0.00    -0.376 N 
ATOM     15  H   UNL A   1      31.309  25.162  27.804  1.00  0.00     0.161 HD
BRANCH  14  16
ATOM     16  C   UNL A   1      31.680  23.422  26.637  1.00  0.00     0.135 C 
ATOM     17  C   UNL A   1      30.300  22.745  26.580  1.00  0.00     0.039 C 
BRANCH  16  18
ATOM     18  C   UNL A   1      32.505  23.169  25.375  1.00  0.00     0.115 A 
ATOM     19  C   UNL A   1      35.758  22.994  23.823  1.00  0.00     0.067 C 
ATOM     20  C   UNL A   1      34.292  22.969  24.062  1.00  0.00     0.049 A 
ATOM     21  C   UNL A   1      33.312  22.637  23.148  1.00  0.00     0.090 A 
ATOM     22  N   UNL A   1      33.820  23.296  25.322  1.00  0.00    -0.244 NA
ATOM     23  S   UNL A   1      31.777  22.651  23.900  1.00  0.00    -0.125 S 
ENDBRANCH  16  18
ENDBRANCH  14  16
ENDBRANCH   8  14
BRANCH  13  24
ATOM     24  N   UNL A   1      30.818  29.066  23.242  1.00  0.00    -0.398 N 
ATOM     25  H   UNL A   1      30.933  29.006  22.266  1.00  0.00     0.156 HD
ATOM     26  H   UNL A   1      30.560  29.922  23.655  1.00  0.00     0.156 HD
ENDBRANCH  13  24
ENDBRANCH   4   7
ENDBRANCH   2   3
ENDBRANCH   1   2
BRANCH   1  27
ATOM     27  C   UNL A   1      31.455  31.991  26.851  1.00  0.00     0.023 C 
BRANCH  27  28
ATOM     28  C   UNL A   1      32.687  32.823  27.185  1.00  0.00     0.116 C 
BRANCH  28  29
ATOM     29  N   UNL A   1      32.370  34.174  27.624  1.00  0.00    -0.352 N 
ATOM     30  C   UNL A   1      32.990  34.924  28.594  1.00  0.00     0.251 C 
ATOM     31  H   UNL A   1      31.613  34.606  27.166  1.00  0.00     0.163 HD
ATOM     32  O   UNL A   1      32.542  36.015  28.918  1.00  0.00    -0.269 OA
BRANCH  30  33
ATOM     33  C   UNL A   1      34.179  34.374  29.276  1.00  0.00     0.039 A 
ATOM     34  C   UNL A   1      33.997  33.634  30.446  1.00  0.00     0.014 A 
ATOM     35  C   UNL A   1      35.459  34.560  28.746  1.00  0.00     0.014 A 
ATOM     36  C   UNL A   1      35.094  33.022  31.052  1.00  0.00     0.010 A 
ATOM     37  C   UNL A   1      36.541  33.893  29.313  1.00  0.00     0.010 A 
ATOM     38  C   UNL A   1      36.368  33.118  30.469  1.00  0.00    -0.014 A 
BRANCH  38  39
ATOM     39  C   UNL A   1      37.532  32.410  31.055  1.00  0.00     0.031 A 
ATOM     40  C   UNL A   1      38.162  32.914  32.321  1.00  0.00     0.074 A 
ATOM     41  C   UNL A   1      38.062  31.355  30.406  1.00  0.00     0.049 A 
ATOM     42  N   UNL A   1      39.220  32.470  32.952  1.00  0.00    -0.248 NA
ATOM     43  C   UNL A   1      37.539  34.091  32.947  1.00  0.00     0.031 C 
ATOM     44  C   UNL A   1      37.573  30.808  29.139  1.00  0.00     0.029 A 
ATOM     45  N   UNL A   1      39.136  30.562  30.720  1.00  0.00    -0.354 N 
ATOM     46  C   UNL A   1      39.397  33.321  34.035  1.00  0.00     0.074 A 
ATOM     47  C   UNL A   1      38.371  34.336  33.950  1.00  0.00     0.031 C 
ATOM     48  C   UNL A   1      38.332  29.755  28.794  1.00  0.00     0.029 A 
ATOM     49  C   UNL A   1      39.377  29.573  29.798  1.00  0.00     0.049 A 
ATOM     50  H   UNL A   1      39.681  30.689  31.529  1.00  0.00     0.167 HD
ATOM     51  C   UNL A   1      40.319  33.247  35.024  1.00  0.00     0.037 A 
ATOM     52  C   UNL A   1      40.335  28.628  29.765  1.00  0.00     0.037 A 
ATOM     53  C   UNL A   1      41.321  32.219  35.122  1.00  0.00     0.049 A 
ATOM     54  C   UNL A   1      41.336  28.558  30.884  1.00  0.00     0.074 A 
ATOM     55  C   UNL A   1      42.258  32.019  36.121  1.00  0.00     0.029 A 
ATOM     56  N   UNL A   1      41.515  31.215  34.185  1.00  0.00    -0.354 N 
ATOM     57  N   UNL A   1      41.448  29.324  31.941  1.00  0.00    -0.248 NA
ATOM     58  C   UNL A   1      42.338  27.486  30.810  1.00  0.00     0.031 C 
ATOM     59  C   UNL A   1      43.042  30.916  35.770  1.00  0.00     0.029 A 
ATOM     60  C   UNL A   1      42.567  30.403  34.574  1.00  0.00     0.049 A 
ATOM     61  H   UNL A   1      40.982  31.097  33.365  1.00  0.00     0.167 HD
ATOM     62  C   UNL A   1      42.513  28.813  32.670  1.00  0.00     0.074 A 
ATOM     63  C   UNL A   1      43.006  27.663  31.941  1.00  0.00     0.031 C 
ATOM     64  C   UNL A   1      43.038  29.257  33.839  1.00  0.00     0.037 A 
BRANCH  51  65
ATOM     65  C   UNL A   1      40.279  34.309  36.083  1.00  0.00     0.057 A 
ATOM     66  C   UNL A   1      39.491  34.173  37.233  1.00  0.00     0.134 A 
ATOM     67  C   UNL A   1      41.057  35.468  35.966  1.00  0.00     0.134 A 
ATOM     68  F   UNL A   1      38.712  33.093  37.401  1.00  0.00    -0.206 F 
ATOM     69  C   UNL A   1      39.457  35.164  38.216  1.00  0.00     0.040 A 
ATOM     70  C   UNL A   1      41.052  36.453  36.954  1.00  0.00     0.040 A 
ATOM     71  F   UNL A   1      41.838  35.659  34.892  1.00  0.00    -0.206 F 
ATOM     72  C   UNL A   1      40.244  36.305  38.081  1.00  0.00     0.006 A 
ENDBRANCH  51  65
BRANCH  52  73
ATOM     73  C   UNL A   1      40.375  27.650  28.649  1.00  0.00     0.057 A 
ATOM     74  C   UNL A   1      41.141  27.895  27.504  1.00  0.00     0.134 A 
ATOM     75  C   UNL A   1      39.648  26.456  28.697  1.00  0.00     0.134 A 
ATOM     76  F   UNL A   1      41.846  29.031  27.394  1.00  0.00    -0.206 F 
ATOM     77  C   UNL A   1      41.170  26.996  26.437  1.00  0.00     0.040 A 
ATOM     78  C   UNL A   1      39.685  25.536  27.647  1.00  0.00     0.040 A 
ATOM     79  F   UNL A   1      38.900  26.159  29.769  1.00  0.00    -0.206 F 
ATOM     80  C   UNL A   1      40.443  25.809  26.509  1.00  0.00     0.006 A 
ENDBRANCH  52  73
BRANCH  64  81
ATOM     81  C   UNL A   1      44.181  28.476  34.416  1.00  0.00     0.057 A 
ATOM     82  C   UNL A   1      45.514  28.813  34.150  1.00  0.00     0.134 A 
ATOM     83  C   UNL A   1      43.943  27.398  35.276  1.00  0.00     0.134 A 
ATOM     84  F   UNL A   1      45.807  29.828  33.321  1.00  0.00    -0.206 F 
ATOM     85  C   UNL A   1      46.572  28.090  34.703  1.00  0.00     0.040 A 
ATOM     86  C   UNL A   1      44.992  26.684  35.856  1.00  0.00     0.040 A 
ATOM     87  F   UNL A   1      42.689  27.029  35.578  1.00  0.00    -0.206 F 
ATOM     88  C   UNL A   1      46.311  27.025  35.565  1.00  0.00     0.006 A 
ENDBRANCH  64  81
ENDBRANCH  38  39
ENDBRANCH  30  33
ENDBRANCH  28  29
ENDBRANCH  27  28
ENDBRANCH   1  27
TORSDOF 15
ENDMDL
