MODEL 1
REMARK VINA RESULT:     -11.9      0.000      0.000
REMARK SMILES Cn1cc(S(=O)(=O)N[C@@H]2C=C[C@@H](C(=O)NCCCCNC(=O)c3ccc(-c4c5nc(c(-c6c(F)cccc6F)c6ccc([nH]6)c(-c6c(F)cccc6F)c6nc(c(-c7c(F)cccc7F)c7ccc4[nH]7)C=C6)C=C5)cc3)C2)cc1C(N)=O
REMARK SMILES IDX 16 1 15 2 13 3 14 4 12 6 9 7 10 8 77 9 11 10 8 11 5 13 6 14
REMARK SMILES IDX 7 15 4 16 1 17 2 18 3 19 79 20 78 21 80 22 81 23 82 24 17 27
REMARK SMILES IDX 18 28 19 29 20 30 21 31 22 33 23 34 24 35 76 36 25 37 75 38
REMARK SMILES IDX 26 39 27 40 28 41 69 42 29 43 74 44 68 45 70 46 30 47 73 48
REMARK SMILES IDX 67 49 66 50 31 52 57 53 40 54 56 55 41 56 44 57 55 58 71 59
REMARK SMILES IDX 42 60 43 61 54 63 72 64 45 65 32 66 33 67 38 68 34 69 35 70
REMARK SMILES IDX 37 71 39 72 36 73 58 74 59 75 64 76 60 77 61 78 63 79 65 80
REMARK SMILES IDX 62 81 46 82 47 83 52 84 48 85 49 86 51 87 53 88 50 89
REMARK H PARENT 15 5 8 12 81 25 81 26 20 32 70 51 44 62
REMARK Flexibility Score: inf
ROOT
ATOM      1  C   UNL A   1      31.913  29.421  25.171  1.00  0.00     0.116 C 
ENDROOT
BRANCH   1   2
ATOM      2  N   UNL A   1      30.807  30.146  24.572  1.00  0.00    -0.356 N 
ATOM      3  C   UNL A   1      29.941  29.776  23.585  1.00  0.00     0.226 C 
ATOM      4  O   UNL A   1      29.027  30.558  23.308  1.00  0.00    -0.274 OA
ATOM      5  H   UNL A   1      30.658  31.048  24.937  1.00  0.00     0.163 HD
BRANCH   3   6
ATOM      6  C   UNL A   1      30.075  28.449  22.832  1.00  0.00     0.103 C 
ATOM      7  C   UNL A   1      31.420  26.397  23.126  1.00  0.00     0.093 C 
ATOM      8  C   UNL A   1      30.030  26.263  23.662  1.00  0.00    -0.011 C 
ATOM      9  C   UNL A   1      31.510  27.901  22.792  1.00  0.00     0.042 C 
ATOM     10  C   UNL A   1      29.281  27.352  23.466  1.00  0.00    -0.016 C 
BRANCH   7  11
ATOM     11  N   UNL A   1      31.575  25.617  21.890  1.00  0.00    -0.204 NA
ATOM     12  H   UNL A   1      30.896  24.856  21.924  1.00  0.00     0.142 HD
BRANCH  11  13
ATOM     13  S   UNL A   1      33.087  24.926  21.573  1.00  0.00     0.242 S 
ATOM     14  O   UNL A   1      34.105  25.875  21.963  1.00  0.00    -0.207 OA
ATOM     15  O   UNL A   1      33.015  24.364  20.245  1.00  0.00    -0.207 OA
BRANCH  13  16
ATOM     16  C   UNL A   1      33.307  23.566  22.610  1.00  0.00     0.100 A 
ATOM     17  C   UNL A   1      35.187  21.402  24.805  1.00  0.00     0.150 C 
ATOM     18  N   UNL A   1      34.179  22.103  24.038  1.00  0.00    -0.345 N 
ATOM     19  C   UNL A   1      34.482  23.144  23.190  1.00  0.00     0.107 A 
ATOM     20  C   UNL A   1      32.809  21.896  24.069  1.00  0.00     0.107 A 
ATOM     21  C   UNL A   1      32.280  22.715  23.077  1.00  0.00     0.055 A 
BRANCH  20  22
ATOM     22  C   UNL A   1      32.104  21.009  24.974  1.00  0.00     0.265 C 
ATOM     23  N   UNL A   1      31.505  21.620  26.039  1.00  0.00    -0.364 N 
ATOM     24  O   UNL A   1      32.053  19.789  24.874  1.00  0.00    -0.268 OA
ATOM     25  H   UNL A   1      31.541  22.600  26.128  1.00  0.00     0.160 HD
ATOM     26  H   UNL A   1      31.039  21.081  26.718  1.00  0.00     0.160 HD
ENDBRANCH  20  22
ENDBRANCH  13  16
ENDBRANCH  11  13
ENDBRANCH   7  11
ENDBRANCH   3   6
ENDBRANCH   1   2
BRANCH   1  27
ATOM     27  C   UNL A   1      31.476  28.569  26.354  1.00  0.00     0.023 C 
BRANCH  27  28
ATOM     28  C   UNL A   1      32.497  28.479  27.484  1.00  0.00     0.023 C 
BRANCH  28  29
ATOM     29  C   UNL A   1      33.806  29.223  27.237  1.00  0.00     0.116 C 
BRANCH  29  30
ATOM     30  N   UNL A   1      33.907  30.478  27.972  1.00  0.00    -0.352 N 
ATOM     31  C   UNL A   1      34.961  30.968  28.708  1.00  0.00     0.251 C 
ATOM     32  H   UNL A   1      33.111  31.056  27.936  1.00  0.00     0.163 HD
ATOM     33  O   UNL A   1      34.849  32.005  29.350  1.00  0.00    -0.269 OA
BRANCH  31  34
ATOM     34  C   UNL A   1      36.218  30.198  28.752  1.00  0.00     0.039 A 
ATOM     35  C   UNL A   1      37.074  30.243  27.648  1.00  0.00     0.014 A 
ATOM     36  C   UNL A   1      36.584  29.513  29.913  1.00  0.00     0.014 A 
ATOM     37  C   UNL A   1      38.351  29.692  27.751  1.00  0.00     0.010 A 
ATOM     38  C   UNL A   1      37.878  29.020  30.035  1.00  0.00     0.010 A 
ATOM     39  C   UNL A   1      38.780  29.131  28.965  1.00  0.00    -0.014 A 
BRANCH  39  40
ATOM     40  C   UNL A   1      40.191  28.720  29.166  1.00  0.00     0.031 A 
ATOM     41  C   UNL A   1      41.196  29.695  29.701  1.00  0.00     0.074 A 
ATOM     42  C   UNL A   1      40.582  27.496  28.761  1.00  0.00     0.049 A 
ATOM     43  N   UNL A   1      42.490  29.557  29.832  1.00  0.00    -0.248 NA
ATOM     44  C   UNL A   1      40.683  31.009  30.120  1.00  0.00     0.031 C 
ATOM     45  C   UNL A   1      39.709  26.478  28.170  1.00  0.00     0.029 A 
ATOM     46  N   UNL A   1      41.822  26.907  28.764  1.00  0.00    -0.354 N 
ATOM     47  C   UNL A   1      42.951  30.768  30.327  1.00  0.00     0.074 A 
ATOM     48  C   UNL A   1      41.803  31.643  30.441  1.00  0.00     0.031 C 
ATOM     49  C   UNL A   1      40.437  25.389  27.878  1.00  0.00     0.029 A 
ATOM     50  C   UNL A   1      41.831  25.643  28.226  1.00  0.00     0.049 A 
ATOM     51  H   UNL A   1      42.627  27.349  29.117  1.00  0.00     0.167 HD
ATOM     52  C   UNL A   1      44.213  31.113  30.671  1.00  0.00     0.037 A 
ATOM     53  C   UNL A   1      42.851  24.790  28.020  1.00  0.00     0.037 A 
ATOM     54  C   UNL A   1      45.347  30.232  30.589  1.00  0.00     0.049 A 
ATOM     55  C   UNL A   1      44.242  25.198  28.413  1.00  0.00     0.074 A 
ATOM     56  C   UNL A   1      46.648  30.460  31.002  1.00  0.00     0.029 A 
ATOM     57  N   UNL A   1      45.314  28.953  30.055  1.00  0.00    -0.354 N 
ATOM     58  N   UNL A   1      44.651  26.322  28.947  1.00  0.00    -0.248 NA
ATOM     59  C   UNL A   1      45.313  24.220  28.170  1.00  0.00     0.031 C 
ATOM     60  C   UNL A   1      47.411  29.331  30.686  1.00  0.00     0.029 A 
ATOM     61  C   UNL A   1      46.578  28.389  30.103  1.00  0.00     0.049 A 
ATOM     62  H   UNL A   1      44.512  28.511  29.693  1.00  0.00     0.167 HD
ATOM     63  C   UNL A   1      46.022  26.184  29.115  1.00  0.00     0.074 A 
ATOM     64  C   UNL A   1      46.373  24.862  28.641  1.00  0.00     0.031 C 
ATOM     65  C   UNL A   1      46.911  27.076  29.617  1.00  0.00     0.037 A 
BRANCH  52  66
ATOM     66  C   UNL A   1      44.432  32.506  31.178  1.00  0.00     0.057 A 
ATOM     67  C   UNL A   1      44.375  32.808  32.544  1.00  0.00     0.134 A 
ATOM     68  C   UNL A   1      44.736  33.548  30.293  1.00  0.00     0.134 A 
ATOM     69  F   UNL A   1      44.075  31.856  33.439  1.00  0.00    -0.206 F 
ATOM     70  C   UNL A   1      44.596  34.104  33.012  1.00  0.00     0.040 A 
ATOM     71  C   UNL A   1      44.979  34.844  30.752  1.00  0.00     0.040 A 
ATOM     72  F   UNL A   1      44.807  33.323  28.973  1.00  0.00    -0.206 F 
ATOM     73  C   UNL A   1      44.904  35.124  32.115  1.00  0.00     0.006 A 
ENDBRANCH  52  66
BRANCH  53  74
ATOM     74  C   UNL A   1      42.595  23.461  27.417  1.00  0.00     0.057 A 
ATOM     75  C   UNL A   1      42.710  23.264  26.037  1.00  0.00     0.134 A 
ATOM     76  C   UNL A   1      42.234  22.359  28.202  1.00  0.00     0.134 A 
ATOM     77  F   UNL A   1      43.034  24.289  25.234  1.00  0.00    -0.206 F 
ATOM     78  C   UNL A   1      42.461  22.021  25.453  1.00  0.00     0.040 A 
ATOM     79  C   UNL A   1      42.000  21.106  27.634  1.00  0.00     0.040 A 
ATOM     80  F   UNL A   1      42.115  22.484  29.531  1.00  0.00    -0.206 F 
ATOM     81  C   UNL A   1      42.109  20.935  26.255  1.00  0.00     0.006 A 
ENDBRANCH  53  74
BRANCH  65  82
ATOM     82  C   UNL A   1      48.344  26.646  29.679  1.00  0.00     0.057 A 
ATOM     83  C   UNL A   1      49.240  26.941  28.645  1.00  0.00     0.134 A 
ATOM     84  C   UNL A   1      48.839  25.962  30.795  1.00  0.00     0.134 A 
ATOM     85  F   UNL A   1      48.820  27.580  27.543  1.00  0.00    -0.206 F 
ATOM     86  C   UNL A   1      50.580  26.558  28.714  1.00  0.00     0.040 A 
ATOM     87  C   UNL A   1      50.181  25.590  30.885  1.00  0.00     0.040 A 
ATOM     88  F   UNL A   1      48.029  25.654  31.820  1.00  0.00    -0.206 F 
ATOM     89  C   UNL A   1      51.055  25.885  29.840  1.00  0.00     0.006 A 
ENDBRANCH  65  82
ENDBRANCH  39  40
ENDBRANCH  31  34
ENDBRANCH  29  30
ENDBRANCH  28  29
ENDBRANCH  27  28
ENDBRANCH   1  27
TORSDOF 15
ENDMDL
MODEL 2
REMARK VINA RESULT:     -11.8      3.659      5.027
REMARK SMILES Cn1cc(S(=O)(=O)N[C@@H]2C=C[C@@H](C(=O)NCCCCNC(=O)c3ccc(-c4c5nc(c(-c6c(F)cccc6F)c6ccc([nH]6)c(-c6c(F)cccc6F)c6nc(c(-c7c(F)cccc7F)c7ccc4[nH]7)C=C6)C=C5)cc3)C2)cc1C(N)=O
REMARK SMILES IDX 16 1 15 2 13 3 14 4 12 6 9 7 10 8 77 9 11 10 8 11 5 13 6 14
REMARK SMILES IDX 7 15 4 16 1 17 2 18 3 19 79 20 78 21 80 22 81 23 82 24 17 27
REMARK SMILES IDX 18 28 19 29 20 30 21 31 22 33 23 34 24 35 76 36 25 37 75 38
REMARK SMILES IDX 26 39 27 40 28 41 69 42 29 43 74 44 68 45 70 46 30 47 73 48
REMARK SMILES IDX 67 49 66 50 31 52 57 53 40 54 56 55 41 56 44 57 55 58 71 59
REMARK SMILES IDX 42 60 43 61 54 63 72 64 45 65 32 66 33 67 38 68 34 69 35 70
REMARK SMILES IDX 37 71 39 72 36 73 58 74 59 75 64 76 60 77 61 78 63 79 65 80
REMARK SMILES IDX 62 81 46 82 47 83 52 84 48 85 49 86 51 87 53 88 50 89
REMARK H PARENT 15 5 8 12 81 25 81 26 20 32 70 51 44 62
REMARK Flexibility Score: inf
ROOT
ATOM      1  C   UNL A   1      31.832  29.643  25.027  1.00  0.00     0.116 C 
ENDROOT
BRANCH   1   2
ATOM      2  N   UNL A   1      30.680  30.310  24.445  1.00  0.00    -0.356 N 
ATOM      3  C   UNL A   1      29.795  29.880  23.501  1.00  0.00     0.226 C 
ATOM      4  O   UNL A   1      28.845  30.620  23.232  1.00  0.00    -0.274 OA
ATOM      5  H   UNL A   1      30.511  31.216  24.789  1.00  0.00     0.163 HD
BRANCH   3   6
ATOM      6  C   UNL A   1      29.953  28.536  22.782  1.00  0.00     0.103 C 
ATOM      7  C   UNL A   1      31.380  26.543  23.088  1.00  0.00     0.093 C 
ATOM      8  C   UNL A   1      30.016  26.375  23.677  1.00  0.00    -0.011 C 
ATOM      9  C   UNL A   1      31.404  28.038  22.708  1.00  0.00     0.042 C 
ATOM     10  C   UNL A   1      29.222  27.431  23.476  1.00  0.00    -0.016 C 
BRANCH   7  11
ATOM     11  N   UNL A   1      31.522  25.731  21.871  1.00  0.00    -0.204 NA
ATOM     12  H   UNL A   1      30.853  24.965  21.939  1.00  0.00     0.142 HD
BRANCH  11  13
ATOM     13  S   UNL A   1      33.036  25.049  21.545  1.00  0.00     0.242 S 
ATOM     14  O   UNL A   1      34.051  25.997  21.944  1.00  0.00    -0.207 OA
ATOM     15  O   UNL A   1      32.965  24.501  20.210  1.00  0.00    -0.207 OA
BRANCH  13  16
ATOM     16  C   UNL A   1      33.261  23.677  22.566  1.00  0.00     0.100 A 
ATOM     17  C   UNL A   1      35.167  21.462  24.687  1.00  0.00     0.150 C 
ATOM     18  N   UNL A   1      34.149  22.188  23.956  1.00  0.00    -0.345 N 
ATOM     19  C   UNL A   1      34.446  23.228  23.105  1.00  0.00     0.107 A 
ATOM     20  C   UNL A   1      32.777  22.009  24.031  1.00  0.00     0.107 A 
ATOM     21  C   UNL A   1      32.232  22.844  23.061  1.00  0.00     0.055 A 
BRANCH  20  22
ATOM     22  C   UNL A   1      32.083  21.130  24.953  1.00  0.00     0.265 C 
ATOM     23  N   UNL A   1      31.481  21.754  26.010  1.00  0.00    -0.364 N 
ATOM     24  O   UNL A   1      32.043  19.908  24.874  1.00  0.00    -0.268 OA
ATOM     25  H   UNL A   1      31.508  22.735  26.082  1.00  0.00     0.160 HD
ATOM     26  H   UNL A   1      31.022  21.222  26.698  1.00  0.00     0.160 HD
ENDBRANCH  20  22
ENDBRANCH  13  16
ENDBRANCH  11  13
ENDBRANCH   7  11
ENDBRANCH   3   6
ENDBRANCH   1   2
BRANCH   1  27
ATOM     27  C   UNL A   1      32.083  30.069  26.466  1.00  0.00     0.023 C 
BRANCH  27  28
ATOM     28  C   UNL A   1      31.759  31.530  26.763  1.00  0.00     0.023 C 
BRANCH  28  29
ATOM     29  C   UNL A   1      32.905  32.342  27.356  1.00  0.00     0.116 C 
BRANCH  29  30
ATOM     30  N   UNL A   1      32.562  33.738  27.600  1.00  0.00    -0.352 N 
ATOM     31  C   UNL A   1      33.111  34.620  28.501  1.00  0.00     0.251 C 
ATOM     32  H   UNL A   1      31.835  34.100  27.042  1.00  0.00     0.163 HD
ATOM     33  O   UNL A   1      32.638  35.741  28.650  1.00  0.00    -0.269 OA
BRANCH  31  34
ATOM     34  C   UNL A   1      34.253  34.180  29.323  1.00  0.00     0.039 A 
ATOM     35  C   UNL A   1      34.001  33.497  30.516  1.00  0.00     0.014 A 
ATOM     36  C   UNL A   1      35.561  34.365  28.869  1.00  0.00     0.014 A 
ATOM     37  C   UNL A   1      35.060  32.899  31.198  1.00  0.00     0.010 A 
ATOM     38  C   UNL A   1      36.606  33.716  29.516  1.00  0.00     0.010 A 
ATOM     39  C   UNL A   1      36.359  32.955  30.669  1.00  0.00    -0.014 A 
BRANCH  39  40
ATOM     40  C   UNL A   1      37.466  32.165  31.262  1.00  0.00     0.031 A 
ATOM     41  C   UNL A   1      38.002  32.512  32.619  1.00  0.00     0.074 A 
ATOM     42  C   UNL A   1      38.056  31.205  30.525  1.00  0.00     0.049 A 
ATOM     43  N   UNL A   1      39.038  32.017  33.247  1.00  0.00    -0.248 NA
ATOM     44  C   UNL A   1      37.298  33.573  33.356  1.00  0.00     0.031 C 
ATOM     45  C   UNL A   1      37.663  30.815  29.168  1.00  0.00     0.029 A 
ATOM     46  N   UNL A   1      39.129  30.396  30.803  1.00  0.00    -0.354 N 
ATOM     47  C   UNL A   1      39.123  32.717  34.442  1.00  0.00     0.074 A 
ATOM     48  C   UNL A   1      38.056  33.696  34.437  1.00  0.00     0.031 C 
ATOM     49  C   UNL A   1      38.476  29.837  28.738  1.00  0.00     0.029 A 
ATOM     50  C   UNL A   1      39.467  29.555  29.770  1.00  0.00     0.049 A 
ATOM     51  H   UNL A   1      39.611  30.417  31.661  1.00  0.00     0.167 HD
ATOM     52  C   UNL A   1      40.002  32.547  35.457  1.00  0.00     0.037 A 
ATOM     53  C   UNL A   1      40.473  28.668  29.662  1.00  0.00     0.037 A 
ATOM     54  C   UNL A   1      41.039  31.552  35.475  1.00  0.00     0.049 A 
ATOM     55  C   UNL A   1      41.432  28.498  30.804  1.00  0.00     0.074 A 
ATOM     56  C   UNL A   1      41.919  31.242  36.498  1.00  0.00     0.029 A 
ATOM     57  N   UNL A   1      41.340  30.708  34.418  1.00  0.00    -0.354 N 
ATOM     58  N   UNL A   1      41.457  29.119  31.957  1.00  0.00    -0.248 NA
ATOM     59  C   UNL A   1      42.505  27.509  30.627  1.00  0.00     0.031 C 
ATOM     60  C   UNL A   1      42.774  30.231  36.046  1.00  0.00     0.029 A 
ATOM     61  C   UNL A   1      42.409  29.893  34.753  1.00  0.00     0.049 A 
ATOM     62  H   UNL A   1      40.866  30.690  33.555  1.00  0.00     0.167 HD
ATOM     63  C   UNL A   1      42.537  28.589  32.649  1.00  0.00     0.074 A 
ATOM     64  C   UNL A   1      43.134  27.586  31.792  1.00  0.00     0.031 C 
ATOM     65  C   UNL A   1      42.996  28.908  33.884  1.00  0.00     0.037 A 
BRANCH  52  66
ATOM     66  C   UNL A   1      39.869  33.457  36.640  1.00  0.00     0.057 A 
ATOM     67  C   UNL A   1      39.029  33.146  37.716  1.00  0.00     0.134 A 
ATOM     68  C   UNL A   1      40.617  34.638  36.720  1.00  0.00     0.134 A 
ATOM     69  F   UNL A   1      38.277  32.036  37.691  1.00  0.00    -0.206 F 
ATOM     70  C   UNL A   1      38.922  33.989  38.822  1.00  0.00     0.040 A 
ATOM     71  C   UNL A   1      40.534  35.478  37.832  1.00  0.00     0.040 A 
ATOM     72  F   UNL A   1      41.443  34.991  35.723  1.00  0.00    -0.206 F 
ATOM     73  C   UNL A   1      39.680  35.156  38.884  1.00  0.00     0.006 A 
ENDBRANCH  52  66
BRANCH  53  74
ATOM     74  C   UNL A   1      40.622  27.866  28.424  1.00  0.00     0.057 A 
ATOM     75  C   UNL A   1      41.373  28.342  27.345  1.00  0.00     0.134 A 
ATOM     76  C   UNL A   1      40.021  26.609  28.291  1.00  0.00     0.134 A 
ATOM     77  F   UNL A   1      41.955  29.550  27.409  1.00  0.00    -0.206 F 
ATOM     78  C   UNL A   1      41.514  27.604  26.169  1.00  0.00     0.040 A 
ATOM     79  C   UNL A   1      40.168  25.851  27.128  1.00  0.00     0.040 A 
ATOM     80  F   UNL A   1      39.294  26.096  29.294  1.00  0.00    -0.206 F 
ATOM     81  C   UNL A   1      40.913  26.350  26.061  1.00  0.00     0.006 A 
ENDBRANCH  53  74
BRANCH  65  82
ATOM     82  C   UNL A   1      44.196  28.160  34.378  1.00  0.00     0.057 A 
ATOM     83  C   UNL A   1      45.491  28.660  34.202  1.00  0.00     0.134 A 
ATOM     84  C   UNL A   1      44.053  26.948  35.064  1.00  0.00     0.134 A 
ATOM     85  F   UNL A   1      45.692  29.809  33.538  1.00  0.00    -0.206 F 
ATOM     86  C   UNL A   1      46.607  27.973  34.681  1.00  0.00     0.040 A 
ATOM     87  C   UNL A   1      45.159  26.261  35.565  1.00  0.00     0.040 A 
ATOM     88  F   UNL A   1      42.836  26.420  35.267  1.00  0.00    -0.206 F 
ATOM     89  C   UNL A   1      46.441  26.772  35.370  1.00  0.00     0.006 A 
ENDBRANCH  65  82
ENDBRANCH  39  40
ENDBRANCH  31  34
ENDBRANCH  29  30
ENDBRANCH  28  29
ENDBRANCH  27  28
ENDBRANCH   1  27
TORSDOF 15
ENDMDL
MODEL 3
REMARK VINA RESULT:     -11.6      4.182      9.073
REMARK SMILES Cn1cc(S(=O)(=O)N[C@@H]2C=C[C@@H](C(=O)NCCCCNC(=O)c3ccc(-c4c5nc(c(-c6c(F)cccc6F)c6ccc([nH]6)c(-c6c(F)cccc6F)c6nc(c(-c7c(F)cccc7F)c7ccc4[nH]7)C=C6)C=C5)cc3)C2)cc1C(N)=O
REMARK SMILES IDX 16 1 15 2 13 3 14 4 12 6 9 7 10 8 77 9 11 10 8 11 5 13 6 14
REMARK SMILES IDX 7 15 4 16 1 17 2 18 3 19 79 20 78 21 80 22 81 23 82 24 17 27
REMARK SMILES IDX 18 28 19 29 20 30 21 31 22 33 23 34 24 35 76 36 25 37 75 38
REMARK SMILES IDX 26 39 27 40 28 41 69 42 29 43 74 44 68 45 70 46 30 47 73 48
REMARK SMILES IDX 67 49 66 50 31 52 57 53 40 54 56 55 41 56 44 57 55 58 71 59
REMARK SMILES IDX 42 60 43 61 54 63 72 64 45 65 32 66 33 67 38 68 34 69 35 70
REMARK SMILES IDX 37 71 39 72 36 73 58 74 59 75 64 76 60 77 61 78 63 79 65 80
REMARK SMILES IDX 62 81 46 82 47 83 52 84 48 85 49 86 51 87 53 88 50 89
REMARK H PARENT 15 5 8 12 81 25 81 26 20 32 70 51 44 62
REMARK Flexibility Score: inf
ROOT
ATOM      1  C   UNL A   1      39.518  21.108  25.949  1.00  0.00     0.116 C 
ENDROOT
BRANCH   1   2
ATOM      2  N   UNL A   1      39.292  22.527  26.159  1.00  0.00    -0.356 N 
ATOM      3  C   UNL A   1      38.146  23.261  26.073  1.00  0.00     0.226 C 
ATOM      4  O   UNL A   1      38.210  24.455  26.379  1.00  0.00    -0.274 OA
ATOM      5  H   UNL A   1      40.095  23.041  26.404  1.00  0.00     0.163 HD
BRANCH   3   6
ATOM      6  C   UNL A   1      36.817  22.654  25.611  1.00  0.00     0.103 C 
ATOM      7  C   UNL A   1      34.674  23.557  24.779  1.00  0.00     0.093 C 
ATOM      8  C   UNL A   1      35.576  23.097  23.679  1.00  0.00    -0.011 C 
ATOM      9  C   UNL A   1      35.584  23.473  26.022  1.00  0.00     0.042 C 
ATOM     10  C   UNL A   1      36.719  22.565  24.122  1.00  0.00    -0.016 C 
BRANCH   7  11
ATOM     11  N   UNL A   1      33.544  22.630  24.943  1.00  0.00    -0.204 NA
ATOM     12  H   UNL A   1      33.692  21.855  24.296  1.00  0.00     0.142 HD
BRANCH  11  13
ATOM     13  S   UNL A   1      31.984  23.225  24.668  1.00  0.00     0.242 S 
ATOM     14  O   UNL A   1      31.110  22.676  25.679  1.00  0.00    -0.207 OA
ATOM     15  O   UNL A   1      31.728  23.077  23.254  1.00  0.00    -0.207 OA
BRANCH  13  16
ATOM     16  C   UNL A   1      31.982  24.929  24.933  1.00  0.00     0.100 A 
ATOM     17  C   UNL A   1      31.207  28.360  24.120  1.00  0.00     0.150 C 
ATOM     18  N   UNL A   1      31.594  27.108  24.736  1.00  0.00    -0.345 N 
ATOM     19  C   UNL A   1      31.527  25.903  24.074  1.00  0.00     0.107 A 
ATOM     20  C   UNL A   1      32.016  26.913  26.041  1.00  0.00     0.107 A 
ATOM     21  C   UNL A   1      32.388  25.575  26.123  1.00  0.00     0.055 A 
BRANCH  20  22
ATOM     22  C   UNL A   1      32.039  27.917  27.087  1.00  0.00     0.265 C 
ATOM     23  N   UNL A   1      31.028  27.828  28.002  1.00  0.00    -0.364 N 
ATOM     24  O   UNL A   1      32.847  28.835  27.171  1.00  0.00    -0.268 OA
ATOM     25  H   UNL A   1      30.375  27.095  27.943  1.00  0.00     0.160 HD
ATOM     26  H   UNL A   1      30.955  28.496  28.721  1.00  0.00     0.160 HD
ENDBRANCH  20  22
ENDBRANCH  13  16
ENDBRANCH  11  13
ENDBRANCH   7  11
ENDBRANCH   3   6
ENDBRANCH   1   2
BRANCH   1  27
ATOM     27  C   UNL A   1      40.672  20.574  26.786  1.00  0.00     0.023 C 
BRANCH  27  28
ATOM     28  C   UNL A   1      42.051  20.778  26.169  1.00  0.00     0.023 C 
BRANCH  28  29
ATOM     29  C   UNL A   1      42.790  22.030  26.629  1.00  0.00     0.116 C 
BRANCH  29  30
ATOM     30  N   UNL A   1      43.628  22.623  25.593  1.00  0.00    -0.352 N 
ATOM     31  C   UNL A   1      43.820  23.951  25.290  1.00  0.00     0.251 C 
ATOM     32  H   UNL A   1      44.125  21.985  25.032  1.00  0.00     0.163 HD
ATOM     33  O   UNL A   1      44.487  24.283  24.318  1.00  0.00    -0.269 OA
BRANCH  31  34
ATOM     34  C   UNL A   1      43.170  24.975  26.129  1.00  0.00     0.039 A 
ATOM     35  C   UNL A   1      42.045  24.617  26.877  1.00  0.00     0.014 A 
ATOM     36  C   UNL A   1      43.725  26.252  26.240  1.00  0.00     0.014 A 
ATOM     37  C   UNL A   1      41.543  25.509  27.825  1.00  0.00     0.010 A 
ATOM     38  C   UNL A   1      43.263  27.114  27.227  1.00  0.00     0.010 A 
ATOM     39  C   UNL A   1      42.187  26.737  28.047  1.00  0.00    -0.014 A 
BRANCH  39  40
ATOM     40  C   UNL A   1      41.801  27.616  29.178  1.00  0.00     0.031 A 
ATOM     41  C   UNL A   1      42.493  27.494  30.502  1.00  0.00     0.074 A 
ATOM     42  C   UNL A   1      40.750  28.447  29.035  1.00  0.00     0.049 A 
ATOM     43  N   UNL A   1      42.215  28.087  31.634  1.00  0.00    -0.248 NA
ATOM     44  C   UNL A   1      43.630  26.563  30.571  1.00  0.00     0.031 C 
ATOM     45  C   UNL A   1      39.959  28.611  27.812  1.00  0.00     0.029 A 
ATOM     46  N   UNL A   1      40.152  29.293  29.933  1.00  0.00    -0.354 N 
ATOM     47  C   UNL A   1      43.127  27.589  32.554  1.00  0.00     0.074 A 
ATOM     48  C   UNL A   1      43.944  26.619  31.857  1.00  0.00     0.031 C 
ATOM     49  C   UNL A   1      38.987  29.510  28.035  1.00  0.00     0.029 A 
ATOM     50  C   UNL A   1      39.063  29.958  29.421  1.00  0.00     0.049 A 
ATOM     51  H   UNL A   1      40.471  29.413  30.856  1.00  0.00     0.167 HD
ATOM     52  C   UNL A   1      43.278  27.924  33.857  1.00  0.00     0.037 A 
ATOM     53  C   UNL A   1      38.212  30.819  30.008  1.00  0.00     0.037 A 
ATOM     54  C   UNL A   1      42.487  28.912  34.539  1.00  0.00     0.049 A 
ATOM     55  C   UNL A   1      38.405  31.175  31.455  1.00  0.00     0.074 A 
ATOM     56  C   UNL A   1      42.627  29.387  35.832  1.00  0.00     0.029 A 
ATOM     57  N   UNL A   1      41.404  29.576  33.983  1.00  0.00    -0.354 N 
ATOM     58  N   UNL A   1      39.316  30.749  32.293  1.00  0.00    -0.248 NA
ATOM     59  C   UNL A   1      37.447  32.126  32.036  1.00  0.00     0.031 C 
ATOM     60  C   UNL A   1      41.607  30.314  36.069  1.00  0.00     0.029 A 
ATOM     61  C   UNL A   1      40.850  30.438  34.915  1.00  0.00     0.049 A 
ATOM     62  H   UNL A   1      41.077  29.453  33.063  1.00  0.00     0.167 HD
ATOM     63  C   UNL A   1      39.051  31.386  33.496  1.00  0.00     0.074 A 
ATOM     64  C   UNL A   1      37.903  32.241  33.276  1.00  0.00     0.031 C 
ATOM     65  C   UNL A   1      39.701  31.273  34.680  1.00  0.00     0.037 A 
BRANCH  52  66
ATOM     66  C   UNL A   1      44.349  27.216  34.628  1.00  0.00     0.057 A 
ATOM     67  C   UNL A   1      45.646  27.736  34.731  1.00  0.00     0.134 A 
ATOM     68  C   UNL A   1      44.073  26.021  35.304  1.00  0.00     0.134 A 
ATOM     69  F   UNL A   1      45.976  28.869  34.095  1.00  0.00    -0.206 F 
ATOM     70  C   UNL A   1      46.636  27.081  35.464  1.00  0.00     0.040 A 
ATOM     71  C   UNL A   1      45.050  25.369  36.058  1.00  0.00     0.040 A 
ATOM     72  F   UNL A   1      42.850  25.473  35.247  1.00  0.00    -0.206 F 
ATOM     73  C   UNL A   1      46.337  25.897  36.135  1.00  0.00     0.006 A 
ENDBRANCH  52  66
BRANCH  53  74
ATOM     74  C   UNL A   1      37.102  31.412  29.225  1.00  0.00     0.057 A 
ATOM     75  C   UNL A   1      37.179  32.725  28.750  1.00  0.00     0.134 A 
ATOM     76  C   UNL A   1      35.943  30.683  28.932  1.00  0.00     0.134 A 
ATOM     77  F   UNL A   1      38.257  33.477  29.017  1.00  0.00    -0.206 F 
ATOM     78  C   UNL A   1      36.137  33.300  28.021  1.00  0.00     0.040 A 
ATOM     79  C   UNL A   1      34.901  31.239  28.189  1.00  0.00     0.040 A 
ATOM     80  F   UNL A   1      35.815  29.417  29.356  1.00  0.00    -0.206 F 
ATOM     81  C   UNL A   1      34.995  32.553  27.735  1.00  0.00     0.006 A 
ENDBRANCH  53  74
BRANCH  65  82
ATOM     82  C   UNL A   1      39.185  32.094  35.821  1.00  0.00     0.057 A 
ATOM     83  C   UNL A   1      39.611  33.412  36.023  1.00  0.00     0.134 A 
ATOM     84  C   UNL A   1      38.230  31.576  36.704  1.00  0.00     0.134 A 
ATOM     85  F   UNL A   1      40.536  33.958  35.219  1.00  0.00    -0.206 F 
ATOM     86  C   UNL A   1      39.114  34.184  37.074  1.00  0.00     0.040 A 
ATOM     87  C   UNL A   1      37.711  32.343  37.747  1.00  0.00     0.040 A 
ATOM     88  F   UNL A   1      37.781  30.320  36.559  1.00  0.00    -0.206 F 
ATOM     89  C   UNL A   1      38.156  33.650  37.936  1.00  0.00     0.006 A 
ENDBRANCH  65  82
ENDBRANCH  39  40
ENDBRANCH  31  34
ENDBRANCH  29  30
ENDBRANCH  28  29
ENDBRANCH  27  28
ENDBRANCH   1  27
TORSDOF 15
ENDMDL
