MODEL 1
REMARK VINA RESULT:     -12.1      0.000      0.000
REMARK SMILES Cc1nn(-c2cccc(C(=O)NCCCCNC(=O)c3ccc(-c4c5nc(c(-c6c(F)cccc6F)c6ccc([nH]6)c(-c6c(F)cccc6F)c6nc(c(-c7c(F)cccc7F)c7ccc4[nH]7)C=C6)C=C5)cc3)c2)c(C)c1Cl
REMARK SMILES IDX 15 1 14 2 13 3 12 4 10 5 11 6 9 8 5 9 6 10 74 11 7 12 8 13
REMARK SMILES IDX 4 14 1 15 2 16 3 17 77 18 75 19 78 20 76 21 16 22 17 23
REMARK SMILES IDX 18 24 19 26 20 27 21 28 73 29 22 30 72 31 23 32 24 33 25 34
REMARK SMILES IDX 66 35 26 36 71 37 65 38 67 39 27 40 70 41 64 42 63 43 28 45
REMARK SMILES IDX 54 46 37 47 53 48 38 49 41 50 52 51 68 52 39 53 40 54 51 56
REMARK SMILES IDX 69 57 42 58 29 59 30 60 35 61 31 62 32 63 34 64 36 65 33 66
REMARK SMILES IDX 55 67 56 68 61 69 57 70 58 71 60 72 62 73 59 74 43 75 44 76
REMARK SMILES IDX 49 77 45 78 46 79 48 80 50 81 47 82
REMARK H PARENT 12 7 17 25 67 44 41 55
REMARK Flexibility Score: inf
ROOT
ATOM      1  C   UNL A   1      33.884  28.585  26.968  1.00  0.00     0.023 C 
ENDROOT
BRANCH   1   2
ATOM      2  C   UNL A   1      33.882  27.313  26.119  1.00  0.00     0.023 C 
BRANCH   2   3
ATOM      3  C   UNL A   1      32.536  26.806  25.604  1.00  0.00     0.116 C 
BRANCH   3   4
ATOM      4  N   UNL A   1      31.889  25.785  26.426  1.00  0.00    -0.352 N 
ATOM      5  C   UNL A   1      32.038  24.417  26.552  1.00  0.00     0.251 C 
ATOM      6  O   UNL A   1      31.324  23.835  27.369  1.00  0.00    -0.269 OA
ATOM      7  H   UNL A   1      31.197  26.154  27.021  1.00  0.00     0.163 HD
BRANCH   5   8
ATOM      8  C   UNL A   1      32.968  23.602  25.716  1.00  0.00     0.041 A 
ATOM      9  C   UNL A   1      35.215  22.866  25.167  1.00  0.00     0.066 A 
ATOM     10  C   UNL A   1      34.779  22.441  23.909  1.00  0.00     0.028 A 
ATOM     11  C   UNL A   1      34.282  23.350  26.093  1.00  0.00     0.042 A 
ATOM     12  C   UNL A   1      33.415  22.481  23.606  1.00  0.00     0.003 A 
ATOM     13  C   UNL A   1      32.517  23.086  24.494  1.00  0.00     0.014 A 
BRANCH   9  14
ATOM     14  N   UNL A   1      36.605  22.970  25.461  1.00  0.00    -0.236 N 
ATOM     15  C   UNL A   1      38.963  24.695  27.490  1.00  0.00     0.070 C 
ATOM     16  C   UNL A   1      38.237  23.754  26.598  1.00  0.00     0.079 A 
ATOM     17  N   UNL A   1      37.077  24.114  26.030  1.00  0.00    -0.171 NA
ATOM     18  C   UNL A   1      38.601  22.442  26.234  1.00  0.00     0.085 A 
ATOM     19  C   UNL A   1      37.572  21.975  25.447  1.00  0.00     0.060 A 
ATOM     20  Cl  UNL A   1      40.019  21.621  26.672  1.00  0.00    -0.080 Cl
ATOM     21  C   UNL A   1      37.468  20.697  24.698  1.00  0.00     0.068 C 
ENDBRANCH   9  14
ENDBRANCH   5   8
ENDBRANCH   3   4
ENDBRANCH   2   3
ENDBRANCH   1   2
BRANCH   1  22
ATOM     22  C   UNL A   1      35.247  29.219  27.220  1.00  0.00     0.116 C 
BRANCH  22  23
ATOM     23  N   UNL A   1      35.377  29.885  28.515  1.00  0.00    -0.352 N 
ATOM     24  C   UNL A   1      36.383  29.699  29.453  1.00  0.00     0.251 C 
ATOM     25  H   UNL A   1      34.674  30.534  28.746  1.00  0.00     0.163 HD
ATOM     26  O   UNL A   1      36.225  29.993  30.623  1.00  0.00    -0.269 OA
BRANCH  24  27
ATOM     27  C   UNL A   1      37.661  29.121  28.992  1.00  0.00     0.039 A 
ATOM     28  C   UNL A   1      38.310  29.617  27.861  1.00  0.00     0.014 A 
ATOM     29  C   UNL A   1      38.243  28.121  29.766  1.00  0.00     0.014 A 
ATOM     30  C   UNL A   1      39.601  29.174  27.584  1.00  0.00     0.010 A 
ATOM     31  C   UNL A   1      39.564  27.782  29.566  1.00  0.00     0.010 A 
ATOM     32  C   UNL A   1      40.250  28.288  28.466  1.00  0.00    -0.014 A 
BRANCH  32  33
ATOM     33  C   UNL A   1      41.679  28.006  28.301  1.00  0.00     0.031 A 
ATOM     34  C   UNL A   1      41.987  26.757  27.543  1.00  0.00     0.074 A 
ATOM     35  C   UNL A   1      42.682  28.843  28.649  1.00  0.00     0.049 A 
ATOM     36  N   UNL A   1      42.481  25.662  28.017  1.00  0.00    -0.248 NA
ATOM     37  C   UNL A   1      41.588  26.666  26.130  1.00  0.00     0.031 C 
ATOM     38  C   UNL A   1      42.595  30.222  29.144  1.00  0.00     0.029 A 
ATOM     39  N   UNL A   1      44.029  28.643  28.559  1.00  0.00    -0.354 N 
ATOM     40  C   UNL A   1      42.632  24.798  26.935  1.00  0.00     0.074 A 
ATOM     41  C   UNL A   1      41.939  25.412  25.832  1.00  0.00     0.031 C 
ATOM     42  C   UNL A   1      43.815  30.801  29.103  1.00  0.00     0.029 A 
ATOM     43  C   UNL A   1      44.793  29.785  28.768  1.00  0.00     0.049 A 
ATOM     44  H   UNL A   1      44.427  27.763  28.362  1.00  0.00     0.167 HD
ATOM     45  C   UNL A   1      43.501  23.751  26.992  1.00  0.00     0.037 A 
ATOM     46  C   UNL A   1      46.142  29.893  28.703  1.00  0.00     0.037 A 
ATOM     47  C   UNL A   1      43.939  23.520  28.346  1.00  0.00     0.049 A 
ATOM     48  C   UNL A   1      46.699  28.542  28.909  1.00  0.00     0.074 A 
ATOM     49  C   UNL A   1      43.363  23.079  29.516  1.00  0.00     0.029 A 
ATOM     50  N   UNL A   1      45.116  24.132  28.688  1.00  0.00    -0.354 N 
ATOM     51  N   UNL A   1      46.646  27.901  30.042  1.00  0.00    -0.248 NA
ATOM     52  C   UNL A   1      47.027  27.731  27.747  1.00  0.00     0.031 C 
ATOM     53  C   UNL A   1      44.049  23.771  30.559  1.00  0.00     0.029 A 
ATOM     54  C   UNL A   1      45.041  24.566  29.983  1.00  0.00     0.049 A 
ATOM     55  H   UNL A   1      45.894  24.242  28.094  1.00  0.00     0.167 HD
ATOM     56  C   UNL A   1      46.484  26.576  29.680  1.00  0.00     0.074 A 
ATOM     57  C   UNL A   1      46.900  26.515  28.284  1.00  0.00     0.031 C 
ATOM     58  C   UNL A   1      45.751  25.731  30.462  1.00  0.00     0.037 A 
BRANCH  45  59
ATOM     59  C   UNL A   1      44.299  23.209  25.826  1.00  0.00     0.057 A 
ATOM     60  C   UNL A   1      44.296  21.820  25.580  1.00  0.00     0.134 A 
ATOM     61  C   UNL A   1      45.306  23.930  25.158  1.00  0.00     0.134 A 
ATOM     62  F   UNL A   1      43.393  21.019  26.165  1.00  0.00    -0.206 F 
ATOM     63  C   UNL A   1      45.276  21.191  24.800  1.00  0.00     0.040 A 
ATOM     64  C   UNL A   1      46.260  23.318  24.338  1.00  0.00     0.040 A 
ATOM     65  F   UNL A   1      45.490  25.242  25.344  1.00  0.00    -0.206 F 
ATOM     66  C   UNL A   1      46.270  21.939  24.184  1.00  0.00     0.006 A 
ENDBRANCH  45  59
BRANCH  46  67
ATOM     67  C   UNL A   1      46.990  31.035  28.312  1.00  0.00     0.057 A 
ATOM     68  C   UNL A   1      47.032  31.492  26.987  1.00  0.00     0.134 A 
ATOM     69  C   UNL A   1      47.534  31.892  29.283  1.00  0.00     0.134 A 
ATOM     70  F   UNL A   1      46.514  30.754  25.994  1.00  0.00    -0.206 F 
ATOM     71  C   UNL A   1      47.541  32.752  26.650  1.00  0.00     0.040 A 
ATOM     72  C   UNL A   1      48.048  33.152  28.960  1.00  0.00     0.040 A 
ATOM     73  F   UNL A   1      47.493  31.570  30.584  1.00  0.00    -0.206 F 
ATOM     74  C   UNL A   1      48.035  33.595  27.642  1.00  0.00     0.006 A 
ENDBRANCH  46  67
BRANCH  58  75
ATOM     75  C   UNL A   1      45.503  26.155  31.882  1.00  0.00     0.057 A 
ATOM     76  C   UNL A   1      44.347  26.812  32.330  1.00  0.00     0.134 A 
ATOM     77  C   UNL A   1      46.442  25.791  32.854  1.00  0.00     0.134 A 
ATOM     78  F   UNL A   1      43.355  27.126  31.488  1.00  0.00    -0.206 F 
ATOM     79  C   UNL A   1      44.161  27.133  33.678  1.00  0.00     0.040 A 
ATOM     80  C   UNL A   1      46.250  26.073  34.207  1.00  0.00     0.040 A 
ATOM     81  F   UNL A   1      47.548  25.117  32.505  1.00  0.00    -0.206 F 
ATOM     82  C   UNL A   1      45.112  26.758  34.623  1.00  0.00     0.006 A 
ENDBRANCH  58  75
ENDBRANCH  32  33
ENDBRANCH  24  27
ENDBRANCH  22  23
ENDBRANCH   1  22
TORSDOF 12
ENDMDL
MODEL 2
REMARK VINA RESULT:     -11.7      4.682      9.207
REMARK SMILES Cc1nn(-c2cccc(C(=O)NCCCCNC(=O)c3ccc(-c4c5nc(c(-c6c(F)cccc6F)c6ccc([nH]6)c(-c6c(F)cccc6F)c6nc(c(-c7c(F)cccc7F)c7ccc4[nH]7)C=C6)C=C5)cc3)c2)c(C)c1Cl
REMARK SMILES IDX 15 1 14 2 13 3 12 4 10 5 11 6 9 8 5 9 6 10 74 11 7 12 8 13
REMARK SMILES IDX 4 14 1 15 2 16 3 17 77 18 75 19 78 20 76 21 16 22 17 23
REMARK SMILES IDX 18 24 19 26 20 27 21 28 73 29 22 30 72 31 23 32 24 33 25 34
REMARK SMILES IDX 66 35 26 36 71 37 65 38 67 39 27 40 70 41 64 42 63 43 28 45
REMARK SMILES IDX 54 46 37 47 53 48 38 49 41 50 52 51 68 52 39 53 40 54 51 56
REMARK SMILES IDX 69 57 42 58 29 59 30 60 35 61 31 62 32 63 34 64 36 65 33 66
REMARK SMILES IDX 55 67 56 68 61 69 57 70 58 71 60 72 62 73 59 74 43 75 44 76
REMARK SMILES IDX 49 77 45 78 46 79 48 80 50 81 47 82
REMARK H PARENT 12 7 17 25 67 44 41 55
REMARK Flexibility Score: inf
ROOT
ATOM      1  C   UNL A   1      32.868  34.675  28.793  1.00  0.00     0.023 C 
ENDROOT
BRANCH   1   2
ATOM      2  C   UNL A   1      33.943  33.640  28.457  1.00  0.00     0.023 C 
BRANCH   2   3
ATOM      3  C   UNL A   1      33.500  32.364  27.741  1.00  0.00     0.116 C 
BRANCH   3   4
ATOM      4  N   UNL A   1      34.482  31.282  27.718  1.00  0.00    -0.352 N 
ATOM      5  C   UNL A   1      34.469  29.982  27.245  1.00  0.00     0.251 C 
ATOM      6  O   UNL A   1      35.495  29.315  27.376  1.00  0.00    -0.269 OA
ATOM      7  H   UNL A   1      35.340  31.534  28.129  1.00  0.00     0.163 HD
BRANCH   5   8
ATOM      8  C   UNL A   1      33.269  29.330  26.642  1.00  0.00     0.041 A 
ATOM      9  C   UNL A   1      32.043  27.328  26.026  1.00  0.00     0.066 A 
ATOM     10  C   UNL A   1      31.257  28.070  25.140  1.00  0.00     0.028 A 
ATOM     11  C   UNL A   1      32.973  27.987  26.840  1.00  0.00     0.042 A 
ATOM     12  C   UNL A   1      31.394  29.461  25.101  1.00  0.00     0.003 A 
ATOM     13  C   UNL A   1      32.416  30.085  25.827  1.00  0.00     0.014 A 
BRANCH   9  14
ATOM     14  N   UNL A   1      32.031  25.904  25.996  1.00  0.00    -0.236 N 
ATOM     15  C   UNL A   1      30.086  23.055  26.861  1.00  0.00     0.070 C 
ATOM     16  C   UNL A   1      31.069  24.020  26.304  1.00  0.00     0.079 A 
ATOM     17  N   UNL A   1      31.223  25.230  26.859  1.00  0.00    -0.171 NA
ATOM     18  C   UNL A   1      31.922  23.853  25.195  1.00  0.00     0.085 A 
ATOM     19  C   UNL A   1      32.585  25.051  25.051  1.00  0.00     0.060 A 
ATOM     20  Cl  UNL A   1      32.098  22.457  24.247  1.00  0.00    -0.080 Cl
ATOM     21  C   UNL A   1      33.682  25.411  24.117  1.00  0.00     0.068 C 
ENDBRANCH   9  14
ENDBRANCH   5   8
ENDBRANCH   3   4
ENDBRANCH   2   3
ENDBRANCH   1   2
BRANCH   1  22
ATOM     22  C   UNL A   1      33.364  35.980  29.403  1.00  0.00     0.116 C 
BRANCH  22  23
ATOM     23  N   UNL A   1      32.652  36.393  30.612  1.00  0.00    -0.352 N 
ATOM     24  C   UNL A   1      32.733  35.812  31.870  1.00  0.00     0.251 C 
ATOM     25  H   UNL A   1      32.051  37.168  30.523  1.00  0.00     0.163 HD
ATOM     26  O   UNL A   1      31.858  35.966  32.701  1.00  0.00    -0.269 OA
BRANCH  24  27
ATOM     27  C   UNL A   1      33.918  34.984  32.175  1.00  0.00     0.039 A 
ATOM     28  C   UNL A   1      33.845  33.591  32.167  1.00  0.00     0.014 A 
ATOM     29  C   UNL A   1      35.130  35.633  32.391  1.00  0.00     0.014 A 
ATOM     30  C   UNL A   1      35.027  32.860  32.265  1.00  0.00     0.010 A 
ATOM     31  C   UNL A   1      36.306  34.916  32.356  1.00  0.00     0.010 A 
ATOM     32  C   UNL A   1      36.268  33.525  32.313  1.00  0.00    -0.014 A 
BRANCH  32  33
ATOM     33  C   UNL A   1      37.513  32.762  32.182  1.00  0.00     0.031 A 
ATOM     34  C   UNL A   1      38.316  32.657  33.435  1.00  0.00     0.074 A 
ATOM     35  C   UNL A   1      37.883  32.061  31.087  1.00  0.00     0.049 A 
ATOM     36  N   UNL A   1      39.447  33.229  33.684  1.00  0.00    -0.248 NA
ATOM     37  C   UNL A   1      37.749  31.939  34.587  1.00  0.00     0.031 C 
ATOM     38  C   UNL A   1      37.118  31.802  29.862  1.00  0.00     0.029 A 
ATOM     39  N   UNL A   1      39.033  31.355  30.875  1.00  0.00    -0.354 N 
ATOM     40  C   UNL A   1      39.832  32.805  34.954  1.00  0.00     0.074 A 
ATOM     41  C   UNL A   1      38.690  32.131  35.515  1.00  0.00     0.031 C 
ATOM     42  C   UNL A   1      37.724  30.833  29.139  1.00  0.00     0.029 A 
ATOM     43  C   UNL A   1      39.008  30.545  29.746  1.00  0.00     0.049 A 
ATOM     44  H   UNL A   1      39.814  31.415  31.472  1.00  0.00     0.167 HD
ATOM     45  C   UNL A   1      41.136  32.861  35.345  1.00  0.00     0.037 A 
ATOM     46  C   UNL A   1      39.984  29.711  29.313  1.00  0.00     0.037 A 
ATOM     47  C   UNL A   1      41.909  33.668  34.435  1.00  0.00     0.049 A 
ATOM     48  C   UNL A   1      41.254  30.185  29.897  1.00  0.00     0.074 A 
ATOM     49  C   UNL A   1      41.975  35.000  34.096  1.00  0.00     0.029 A 
ATOM     50  N   UNL A   1      42.547  32.973  33.440  1.00  0.00    -0.354 N 
ATOM     51  N   UNL A   1      41.836  31.300  29.558  1.00  0.00    -0.248 NA
ATOM     52  C   UNL A   1      41.729  29.583  31.132  1.00  0.00     0.031 C 
ATOM     53  C   UNL A   1      42.336  35.022  32.715  1.00  0.00     0.029 A 
ATOM     54  C   UNL A   1      42.519  33.706  32.287  1.00  0.00     0.049 A 
ATOM     55  H   UNL A   1      42.960  32.085  33.542  1.00  0.00     0.167 HD
ATOM     56  C   UNL A   1      42.404  31.762  30.731  1.00  0.00     0.074 A 
ATOM     57  C   UNL A   1      42.458  30.596  31.606  1.00  0.00     0.031 C 
ATOM     58  C   UNL A   1      42.498  33.101  30.973  1.00  0.00     0.037 A 
BRANCH  45  59
ATOM     59  C   UNL A   1      41.819  31.873  36.264  1.00  0.00     0.057 A 
ATOM     60  C   UNL A   1      42.544  32.356  37.372  1.00  0.00     0.134 A 
ATOM     61  C   UNL A   1      42.069  30.529  35.929  1.00  0.00     0.134 A 
ATOM     62  F   UNL A   1      42.405  33.625  37.787  1.00  0.00    -0.206 F 
ATOM     63  C   UNL A   1      43.507  31.585  38.037  1.00  0.00     0.040 A 
ATOM     64  C   UNL A   1      42.993  29.735  36.617  1.00  0.00     0.040 A 
ATOM     65  F   UNL A   1      41.518  29.944  34.859  1.00  0.00    -0.206 F 
ATOM     66  C   UNL A   1      43.742  30.272  37.653  1.00  0.00     0.006 A 
ENDBRANCH  45  59
BRANCH  46  67
ATOM     67  C   UNL A   1      39.893  28.439  28.572  1.00  0.00     0.057 A 
ATOM     68  C   UNL A   1      40.534  28.268  27.336  1.00  0.00     0.134 A 
ATOM     69  C   UNL A   1      39.440  27.270  29.204  1.00  0.00     0.134 A 
ATOM     70  F   UNL A   1      41.024  29.324  26.670  1.00  0.00    -0.206 F 
ATOM     71  C   UNL A   1      40.756  27.001  26.782  1.00  0.00     0.040 A 
ATOM     72  C   UNL A   1      39.653  25.999  28.661  1.00  0.00     0.040 A 
ATOM     73  F   UNL A   1      38.864  27.322  30.414  1.00  0.00    -0.206 F 
ATOM     74  C   UNL A   1      40.330  25.860  27.455  1.00  0.00     0.006 A 
ENDBRANCH  46  67
BRANCH  58  75
ATOM     75  C   UNL A   1      42.368  34.021  29.792  1.00  0.00     0.057 A 
ATOM     76  C   UNL A   1      41.194  34.699  29.432  1.00  0.00     0.134 A 
ATOM     77  C   UNL A   1      43.517  34.303  29.044  1.00  0.00     0.134 A 
ATOM     78  F   UNL A   1      40.066  34.560  30.138  1.00  0.00    -0.206 F 
ATOM     79  C   UNL A   1      41.159  35.581  28.346  1.00  0.00     0.040 A 
ATOM     80  C   UNL A   1      43.503  35.207  27.982  1.00  0.00     0.040 A 
ATOM     81  F   UNL A   1      44.687  33.727  29.362  1.00  0.00    -0.206 F 
ATOM     82  C   UNL A   1      42.318  35.842  27.621  1.00  0.00     0.006 A 
ENDBRANCH  58  75
ENDBRANCH  32  33
ENDBRANCH  24  27
ENDBRANCH  22  23
ENDBRANCH   1  22
TORSDOF 12
ENDMDL
MODEL 3
REMARK VINA RESULT:     -11.6      3.080      4.784
REMARK SMILES Cc1nn(-c2cccc(C(=O)NCCCCNC(=O)c3ccc(-c4c5nc(c(-c6c(F)cccc6F)c6ccc([nH]6)c(-c6c(F)cccc6F)c6nc(c(-c7c(F)cccc7F)c7ccc4[nH]7)C=C6)C=C5)cc3)c2)c(C)c1Cl
REMARK SMILES IDX 15 1 14 2 13 3 12 4 10 5 11 6 9 8 5 9 6 10 74 11 7 12 8 13
REMARK SMILES IDX 4 14 1 15 2 16 3 17 77 18 75 19 78 20 76 21 16 22 17 23
REMARK SMILES IDX 18 24 19 26 20 27 21 28 73 29 22 30 72 31 23 32 24 33 25 34
REMARK SMILES IDX 66 35 26 36 71 37 65 38 67 39 27 40 70 41 64 42 63 43 28 45
REMARK SMILES IDX 54 46 37 47 53 48 38 49 41 50 52 51 68 52 39 53 40 54 51 56
REMARK SMILES IDX 69 57 42 58 29 59 30 60 35 61 31 62 32 63 34 64 36 65 33 66
REMARK SMILES IDX 55 67 56 68 61 69 57 70 58 71 60 72 62 73 59 74 43 75 44 76
REMARK SMILES IDX 49 77 45 78 46 79 48 80 50 81 47 82
REMARK H PARENT 12 7 17 25 67 44 41 55
REMARK Flexibility Score: inf
ROOT
ATOM      1  C   UNL A   1      33.727  28.875  27.118  1.00  0.00     0.023 C 
ENDROOT
BRANCH   1   2
ATOM      2  C   UNL A   1      33.536  27.587  26.316  1.00  0.00     0.023 C 
BRANCH   2   3
ATOM      3  C   UNL A   1      33.538  27.694  24.791  1.00  0.00     0.116 C 
BRANCH   3   4
ATOM      4  N   UNL A   1      33.375  26.432  24.071  1.00  0.00    -0.352 N 
ATOM      5  C   UNL A   1      32.328  25.846  23.384  1.00  0.00     0.251 C 
ATOM      6  O   UNL A   1      32.526  24.747  22.867  1.00  0.00    -0.269 OA
ATOM      7  H   UNL A   1      34.190  25.880  24.076  1.00  0.00     0.163 HD
BRANCH   5   8
ATOM      8  C   UNL A   1      30.963  26.441  23.286  1.00  0.00     0.041 A 
ATOM      9  C   UNL A   1      29.514  28.329  22.811  1.00  0.00     0.066 A 
ATOM     10  C   UNL A   1      28.469  27.717  23.509  1.00  0.00     0.028 A 
ATOM     11  C   UNL A   1      30.717  27.638  22.623  1.00  0.00     0.042 A 
ATOM     12  C   UNL A   1      28.634  26.413  23.985  1.00  0.00     0.003 A 
ATOM     13  C   UNL A   1      29.886  25.788  23.900  1.00  0.00     0.014 A 
BRANCH   9  14
ATOM     14  N   UNL A   1      29.434  29.701  22.434  1.00  0.00    -0.236 N 
ATOM     15  C   UNL A   1      27.817  31.949  20.203  1.00  0.00     0.070 C 
ATOM     16  C   UNL A   1      28.571  31.298  21.305  1.00  0.00     0.079 A 
ATOM     17  N   UNL A   1      28.964  30.021  21.197  1.00  0.00    -0.171 NA
ATOM     18  C   UNL A   1      28.962  31.852  22.541  1.00  0.00     0.085 A 
ATOM     19  C   UNL A   1      29.576  30.830  23.229  1.00  0.00     0.060 A 
ATOM     20  Cl  UNL A   1      28.727  33.450  23.059  1.00  0.00    -0.080 Cl
ATOM     21  C   UNL A   1      30.276  30.867  24.538  1.00  0.00     0.068 C 
ENDBRANCH   9  14
ENDBRANCH   5   8
ENDBRANCH   3   4
ENDBRANCH   2   3
ENDBRANCH   1   2
BRANCH   1  22
ATOM     22  C   UNL A   1      35.170  29.283  27.395  1.00  0.00     0.116 C 
BRANCH  22  23
ATOM     23  N   UNL A   1      35.368  29.991  28.658  1.00  0.00    -0.352 N 
ATOM     24  C   UNL A   1      36.411  29.820  29.558  1.00  0.00     0.251 C 
ATOM     25  H   UNL A   1      34.687  30.662  28.896  1.00  0.00     0.163 HD
ATOM     26  O   UNL A   1      36.310  30.158  30.722  1.00  0.00    -0.269 OA
BRANCH  24  27
ATOM     27  C   UNL A   1      37.658  29.203  29.062  1.00  0.00     0.039 A 
ATOM     28  C   UNL A   1      38.316  29.708  27.940  1.00  0.00     0.014 A 
ATOM     29  C   UNL A   1      38.202  28.152  29.794  1.00  0.00     0.014 A 
ATOM     30  C   UNL A   1      39.583  29.218  27.633  1.00  0.00     0.010 A 
ATOM     31  C   UNL A   1      39.505  27.762  29.568  1.00  0.00     0.010 A 
ATOM     32  C   UNL A   1      40.201  28.274  28.477  1.00  0.00    -0.014 A 
BRANCH  32  33
ATOM     33  C   UNL A   1      41.614  27.936  28.286  1.00  0.00     0.031 A 
ATOM     34  C   UNL A   1      41.858  26.674  27.526  1.00  0.00     0.074 A 
ATOM     35  C   UNL A   1      42.656  28.733  28.613  1.00  0.00     0.049 A 
ATOM     36  N   UNL A   1      42.317  25.561  27.993  1.00  0.00    -0.248 NA
ATOM     37  C   UNL A   1      41.429  26.596  26.121  1.00  0.00     0.031 C 
ATOM     38  C   UNL A   1      42.633  30.115  29.106  1.00  0.00     0.029 A 
ATOM     39  N   UNL A   1      43.993  28.480  28.498  1.00  0.00    -0.354 N 
ATOM     40  C   UNL A   1      42.413  24.690  26.911  1.00  0.00     0.074 A 
ATOM     41  C   UNL A   1      41.724  25.328  25.820  1.00  0.00     0.031 C 
ATOM     42  C   UNL A   1      43.875  30.646  29.040  1.00  0.00     0.029 A 
ATOM     43  C   UNL A   1      44.805  29.591  28.689  1.00  0.00     0.049 A 
ATOM     44  H   UNL A   1      44.351  27.585  28.295  1.00  0.00     0.167 HD
ATOM     45  C   UNL A   1      43.241  23.609  26.955  1.00  0.00     0.037 A 
ATOM     46  C   UNL A   1      46.155  29.645  28.598  1.00  0.00     0.037 A 
ATOM     47  C   UNL A   1      43.695  23.364  28.300  1.00  0.00     0.049 A 
ATOM     48  C   UNL A   1      46.663  28.273  28.797  1.00  0.00     0.074 A 
ATOM     49  C   UNL A   1      43.125  22.949  29.483  1.00  0.00     0.029 A 
ATOM     50  N   UNL A   1      44.902  23.929  28.619  1.00  0.00    -0.354 N 
ATOM     51  N   UNL A   1      46.606  27.637  29.932  1.00  0.00    -0.248 NA
ATOM     52  C   UNL A   1      46.936  27.448  27.632  1.00  0.00     0.031 C 
ATOM     53  C   UNL A   1      43.858  23.615  30.511  1.00  0.00     0.029 A 
ATOM     54  C   UNL A   1      44.869  24.368  29.913  1.00  0.00     0.049 A 
ATOM     55  H   UNL A   1      45.672  24.007  28.010  1.00  0.00     0.167 HD
ATOM     56  C   UNL A   1      46.384  26.319  29.578  1.00  0.00     0.074 A 
ATOM     57  C   UNL A   1      46.771  26.239  28.174  1.00  0.00     0.031 C 
ATOM     58  C   UNL A   1      45.634  25.506  30.376  1.00  0.00     0.037 A 
BRANCH  45  59
ATOM     59  C   UNL A   1      43.994  23.033  25.775  1.00  0.00     0.057 A 
ATOM     60  C   UNL A   1      43.962  21.641  25.555  1.00  0.00     0.134 A 
ATOM     61  C   UNL A   1      44.992  23.726  25.064  1.00  0.00     0.134 A 
ATOM     62  F   UNL A   1      43.065  20.865  26.182  1.00  0.00    -0.206 F 
ATOM     63  C   UNL A   1      44.908  20.982  24.758  1.00  0.00     0.040 A 
ATOM     64  C   UNL A   1      45.911  23.083  24.228  1.00  0.00     0.040 A 
ATOM     65  F   UNL A   1      45.202  25.038  25.221  1.00  0.00    -0.206 F 
ATOM     66  C   UNL A   1      45.894  21.703  24.098  1.00  0.00     0.006 A 
ENDBRANCH  45  59
BRANCH  46  67
ATOM     67  C   UNL A   1      47.041  30.751  28.187  1.00  0.00     0.057 A 
ATOM     68  C   UNL A   1      46.902  31.372  26.938  1.00  0.00     0.134 A 
ATOM     69  C   UNL A   1      47.834  31.425  29.131  1.00  0.00     0.134 A 
ATOM     70  F   UNL A   1      46.143  30.816  25.982  1.00  0.00    -0.206 F 
ATOM     71  C   UNL A   1      47.477  32.617  26.657  1.00  0.00     0.040 A 
ATOM     72  C   UNL A   1      48.416  32.669  28.863  1.00  0.00     0.040 A 
ATOM     73  F   UNL A   1      47.984  30.943  30.373  1.00  0.00    -0.206 F 
ATOM     74  C   UNL A   1      48.222  33.278  27.628  1.00  0.00     0.006 A 
ENDBRANCH  46  67
BRANCH  58  75
ATOM     75  C   UNL A   1      45.430  25.942  31.799  1.00  0.00     0.057 A 
ATOM     76  C   UNL A   1      46.367  25.775  32.829  1.00  0.00     0.134 A 
ATOM     77  C   UNL A   1      44.263  26.649  32.112  1.00  0.00     0.134 A 
ATOM     78  F   UNL A   1      47.548  25.187  32.606  1.00  0.00    -0.206 F 
ATOM     79  C   UNL A   1      46.129  26.251  34.122  1.00  0.00     0.040 A 
ATOM     80  C   UNL A   1      44.030  27.160  33.389  1.00  0.00     0.040 A 
ATOM     81  F   UNL A   1      43.343  26.888  31.164  1.00  0.00    -0.206 F 
ATOM     82  C   UNL A   1      44.960  26.952  34.405  1.00  0.00     0.006 A 
ENDBRANCH  58  75
ENDBRANCH  32  33
ENDBRANCH  24  27
ENDBRANCH  22  23
ENDBRANCH   1  22
TORSDOF 12
ENDMDL
