MODEL 1
REMARK VINA RESULT:     -11.5      0.000      0.000
REMARK SMILES CO[C@@H]1C[C@H](C(=O)NCCCCNC(=O)c2ccc(-c3c4nc(c(-c5c(F)cccc5F)c5ccc([nH]5)c(-c5c(F)cccc5F)c5nc(c(-c6c(F)cccc6F)c6ccc3[nH]6)C=C5)C=C4)cc2)N(C(=O)c2ccc([N+](=O)[O-])s2)C1
REMARK SMILES IDX 10 1 9 2 8 3 6 4 7 5 5 7 3 8 4 9 81 10 70 11 2 12 1 13 71 14
REMARK SMILES IDX 72 15 73 16 74 17 80 18 75 19 76 20 77 21 78 22 79 23 11 24
REMARK SMILES IDX 12 25 13 26 14 27 15 29 16 30 17 31 69 32 18 33 68 34 19 35
REMARK SMILES IDX 20 36 21 37 62 38 22 39 67 40 61 41 63 42 23 43 66 44 60 45
REMARK SMILES IDX 59 46 24 48 50 49 33 50 49 51 34 52 37 53 48 54 64 55 35 56
REMARK SMILES IDX 36 57 47 59 65 60 38 61 25 62 26 63 31 64 27 65 28 66 30 67
REMARK SMILES IDX 32 68 29 69 51 70 52 71 57 72 53 73 54 74 56 75 58 76 55 77
REMARK SMILES IDX 39 78 40 79 45 80 41 81 42 82 44 83 46 84 43 85
REMARK H PARENT 8 6 13 28 63 47 37 58
REMARK Flexibility Score: inf
ROOT
ATOM      1  C   UNL A   1      31.978  30.079  27.071  1.00  0.00     0.023 C 
ENDROOT
BRANCH   1   2
ATOM      2  C   UNL A   1      33.312  29.465  26.649  1.00  0.00     0.116 C 
BRANCH   2   3
ATOM      3  N   UNL A   1      33.564  29.664  25.238  1.00  0.00    -0.354 N 
ATOM      4  C   UNL A   1      33.131  28.990  24.140  1.00  0.00     0.242 C 
ATOM      5  O   UNL A   1      33.658  29.304  23.065  1.00  0.00    -0.273 OA
ATOM      6  H   UNL A   1      34.156  30.425  25.037  1.00  0.00     0.163 HD
BRANCH   4   7
ATOM      7  C   UNL A   1      32.146  27.794  24.169  1.00  0.00     0.177 C 
ATOM      8  C   UNL A   1      30.102  27.617  22.811  1.00  0.00     0.139 C 
ATOM      9  C   UNL A   1      30.680  28.215  24.098  1.00  0.00     0.069 C 
ATOM     10  C   UNL A   1      31.148  26.614  22.312  1.00  0.00     0.152 C 
ATOM     11  N   UNL A   1      32.317  26.762  23.159  1.00  0.00    -0.323 N 
BRANCH   8  12
ATOM     12  O   UNL A   1      29.880  28.618  21.824  1.00  0.00    -0.380 OA
ATOM     13  C   UNL A   1      29.821  29.938  22.358  1.00  0.00     0.195 C 
ENDBRANCH   8  12
BRANCH  11  14
ATOM     14  C   UNL A   1      33.355  25.842  23.068  1.00  0.00     0.264 C 
ATOM     15  O   UNL A   1      33.983  25.714  22.018  1.00  0.00    -0.268 OA
BRANCH  14  16
ATOM     16  C   UNL A   1      33.599  24.991  24.221  1.00  0.00     0.099 A 
ATOM     17  C   UNL A   1      34.808  24.698  24.828  1.00  0.00     0.033 A 
ATOM     18  S   UNL A   1      32.285  24.307  25.080  1.00  0.00    -0.058 S 
ATOM     19  C   UNL A   1      34.657  23.858  25.968  1.00  0.00     0.099 A 
ATOM     20  C   UNL A   1      33.329  23.582  26.211  1.00  0.00     0.324 A 
BRANCH  20  21
ATOM     21  N   UNL A   1      32.811  22.787  27.295  1.00  0.00     0.074 N 
ATOM     22  O   UNL A   1      31.664  23.062  27.674  1.00  0.00    -0.258 OA
ATOM     23  O   UNL A   1      33.527  21.894  27.766  1.00  0.00    -0.258 OA
ENDBRANCH  20  21
ENDBRANCH  14  16
ENDBRANCH  11  14
ENDBRANCH   4   7
ENDBRANCH   2   3
ENDBRANCH   1   2
BRANCH   1  24
ATOM     24  C   UNL A   1      31.812  31.563  26.766  1.00  0.00     0.023 C 
BRANCH  24  25
ATOM     25  C   UNL A   1      32.949  32.448  27.263  1.00  0.00     0.116 C 
BRANCH  25  26
ATOM     26  N   UNL A   1      32.538  33.786  27.670  1.00  0.00    -0.352 N 
ATOM     27  C   UNL A   1      33.147  34.641  28.565  1.00  0.00     0.251 C 
ATOM     28  H   UNL A   1      31.714  34.126  27.252  1.00  0.00     0.163 HD
ATOM     29  O   UNL A   1      32.641  35.716  28.850  1.00  0.00    -0.269 OA
BRANCH  27  30
ATOM     30  C   UNL A   1      34.399  34.209  29.219  1.00  0.00     0.039 A 
ATOM     31  C   UNL A   1      34.322  33.488  30.414  1.00  0.00     0.014 A 
ATOM     32  C   UNL A   1      35.633  34.437  28.607  1.00  0.00     0.014 A 
ATOM     33  C   UNL A   1      35.477  32.907  30.939  1.00  0.00     0.010 A 
ATOM     34  C   UNL A   1      36.762  33.781  29.079  1.00  0.00     0.010 A 
ATOM     35  C   UNL A   1      36.694  33.001  30.244  1.00  0.00    -0.014 A 
BRANCH  35  36
ATOM     36  C   UNL A   1      37.911  32.287  30.706  1.00  0.00     0.031 A 
ATOM     37  C   UNL A   1      38.742  32.865  31.817  1.00  0.00     0.074 A 
ATOM     38  C   UNL A   1      38.318  31.173  30.065  1.00  0.00     0.049 A 
ATOM     39  N   UNL A   1      39.894  32.459  32.285  1.00  0.00    -0.248 NA
ATOM     40  C   UNL A   1      38.228  34.086  32.459  1.00  0.00     0.031 C 
ATOM     41  C   UNL A   1      37.636  30.546  28.930  1.00  0.00     0.029 A 
ATOM     42  N   UNL A   1      39.414  30.374  30.273  1.00  0.00    -0.354 N 
ATOM     43  C   UNL A   1      40.254  33.389  33.252  1.00  0.00     0.074 A 
ATOM     44  C   UNL A   1      39.228  34.409  33.265  1.00  0.00     0.031 C 
ATOM     45  C   UNL A   1      38.309  29.444  28.565  1.00  0.00     0.029 A 
ATOM     46  C   UNL A   1      39.488  29.305  29.414  1.00  0.00     0.049 A 
ATOM     47  H   UNL A   1      40.083  30.550  30.973  1.00  0.00     0.167 HD
ATOM     48  C   UNL A   1      41.330  33.381  34.074  1.00  0.00     0.037 A 
ATOM     49  C   UNL A   1      40.404  28.322  29.322  1.00  0.00     0.037 A 
ATOM     50  C   UNL A   1      42.322  32.341  34.095  1.00  0.00     0.049 A 
ATOM     51  C   UNL A   1      41.569  28.316  30.271  1.00  0.00     0.074 A 
ATOM     52  C   UNL A   1      43.411  32.205  34.937  1.00  0.00     0.029 A 
ATOM     53  N   UNL A   1      42.337  31.252  33.238  1.00  0.00    -0.354 N 
ATOM     54  N   UNL A   1      41.866  29.170  31.220  1.00  0.00    -0.248 NA
ATOM     55  C   UNL A   1      42.524  27.206  30.141  1.00  0.00     0.031 C 
ATOM     56  C   UNL A   1      44.101  31.043  34.572  1.00  0.00     0.029 A 
ATOM     57  C   UNL A   1      43.421  30.440  33.526  1.00  0.00     0.049 A 
ATOM     58  H   UNL A   1      41.676  31.080  32.530  1.00  0.00     0.167 HD
ATOM     59  C   UNL A   1      43.024  28.688  31.816  1.00  0.00     0.074 A 
ATOM     60  C   UNL A   1      43.368  27.460  31.129  1.00  0.00     0.031 C 
ATOM     61  C   UNL A   1      43.738  29.214  32.841  1.00  0.00     0.037 A 
BRANCH  48  62
ATOM     62  C   UNL A   1      41.472  34.528  35.031  1.00  0.00     0.057 A 
ATOM     63  C   UNL A   1      40.897  34.496  36.308  1.00  0.00     0.134 A 
ATOM     64  C   UNL A   1      42.201  35.669  34.678  1.00  0.00     0.134 A 
ATOM     65  F   UNL A   1      40.172  33.437  36.701  1.00  0.00    -0.206 F 
ATOM     66  C   UNL A   1      41.020  35.570  37.190  1.00  0.00     0.040 A 
ATOM     67  C   UNL A   1      42.354  36.739  35.561  1.00  0.00     0.040 A 
ATOM     68  F   UNL A   1      42.780  35.763  33.471  1.00  0.00    -0.206 F 
ATOM     69  C   UNL A   1      41.754  36.694  36.819  1.00  0.00     0.006 A 
ENDBRANCH  48  62
BRANCH  49  70
ATOM     70  C   UNL A   1      40.238  27.238  28.322  1.00  0.00     0.057 A 
ATOM     71  C   UNL A   1      39.489  26.095  28.626  1.00  0.00     0.134 A 
ATOM     72  C   UNL A   1      40.823  27.309  27.054  1.00  0.00     0.134 A 
ATOM     73  F   UNL A   1      38.919  25.963  29.833  1.00  0.00    -0.206 F 
ATOM     74  C   UNL A   1      39.344  25.051  27.711  1.00  0.00     0.040 A 
ATOM     75  C   UNL A   1      40.668  26.282  26.120  1.00  0.00     0.040 A 
ATOM     76  F   UNL A   1      41.546  28.382  26.700  1.00  0.00    -0.206 F 
ATOM     77  C   UNL A   1      39.932  25.146  26.452  1.00  0.00     0.006 A 
ENDBRANCH  49  70
BRANCH  61  78
ATOM     78  C   UNL A   1      44.939  28.447  33.304  1.00  0.00     0.057 A 
ATOM     79  C   UNL A   1      44.843  27.443  34.275  1.00  0.00     0.134 A 
ATOM     80  C   UNL A   1      46.198  28.689  32.740  1.00  0.00     0.134 A 
ATOM     81  F   UNL A   1      43.668  27.174  34.862  1.00  0.00    -0.206 F 
ATOM     82  C   UNL A   1      45.963  26.716  34.681  1.00  0.00     0.040 A 
ATOM     83  C   UNL A   1      47.320  27.954  33.121  1.00  0.00     0.040 A 
ATOM     84  F   UNL A   1      46.352  29.635  31.800  1.00  0.00    -0.206 F 
ATOM     85  C   UNL A   1      47.204  26.967  34.097  1.00  0.00     0.006 A 
ENDBRANCH  61  78
ENDBRANCH  35  36
ENDBRANCH  27  30
ENDBRANCH  25  26
ENDBRANCH  24  25
ENDBRANCH   1  24
TORSDOF 15
ENDMDL
MODEL 2
REMARK VINA RESULT:     -11.5      4.051      8.912
REMARK SMILES CO[C@@H]1C[C@H](C(=O)NCCCCNC(=O)c2ccc(-c3c4nc(c(-c5c(F)cccc5F)c5ccc([nH]5)c(-c5c(F)cccc5F)c5nc(c(-c6c(F)cccc6F)c6ccc3[nH]6)C=C5)C=C4)cc2)N(C(=O)c2ccc([N+](=O)[O-])s2)C1
REMARK SMILES IDX 10 1 9 2 8 3 6 4 7 5 5 7 3 8 4 9 81 10 70 11 2 12 1 13 71 14
REMARK SMILES IDX 72 15 73 16 74 17 80 18 75 19 76 20 77 21 78 22 79 23 11 24
REMARK SMILES IDX 12 25 13 26 14 27 15 29 16 30 17 31 69 32 18 33 68 34 19 35
REMARK SMILES IDX 20 36 21 37 62 38 22 39 67 40 61 41 63 42 23 43 66 44 60 45
REMARK SMILES IDX 59 46 24 48 50 49 33 50 49 51 34 52 37 53 48 54 64 55 35 56
REMARK SMILES IDX 36 57 47 59 65 60 38 61 25 62 26 63 31 64 27 65 28 66 30 67
REMARK SMILES IDX 32 68 29 69 51 70 52 71 57 72 53 73 54 74 56 75 58 76 55 77
REMARK SMILES IDX 39 78 40 79 45 80 41 81 42 82 44 83 46 84 43 85
REMARK H PARENT 8 6 13 28 63 47 37 58
REMARK Flexibility Score: inf
ROOT
ATOM      1  C   UNL A   1      37.085  21.911  24.567  1.00  0.00     0.023 C 
ENDROOT
BRANCH   1   2
ATOM      2  C   UNL A   1      37.080  22.916  25.718  1.00  0.00     0.116 C 
BRANCH   2   3
ATOM      3  N   UNL A   1      36.142  23.991  25.478  1.00  0.00    -0.354 N 
ATOM      4  C   UNL A   1      34.784  24.028  25.516  1.00  0.00     0.242 C 
ATOM      5  O   UNL A   1      34.256  25.067  25.097  1.00  0.00    -0.273 OA
ATOM      6  H   UNL A   1      36.563  24.850  25.244  1.00  0.00     0.163 HD
BRANCH   4   7
ATOM      7  C   UNL A   1      33.878  22.836  25.913  1.00  0.00     0.177 C 
ATOM      8  C   UNL A   1      31.694  23.033  27.028  1.00  0.00     0.139 C 
ATOM      9  C   UNL A   1      33.206  23.011  27.274  1.00  0.00     0.069 C 
ATOM     10  C   UNL A   1      31.500  22.570  25.581  1.00  0.00     0.152 C 
ATOM     11  N   UNL A   1      32.820  22.463  24.988  1.00  0.00    -0.323 N 
BRANCH   8  12
ATOM     12  O   UNL A   1      31.157  24.342  27.195  1.00  0.00    -0.380 OA
ATOM     13  C   UNL A   1      30.516  24.845  26.027  1.00  0.00     0.195 C 
ENDBRANCH   8  12
BRANCH  11  14
ATOM     14  C   UNL A   1      32.968  21.871  23.739  1.00  0.00     0.264 C 
ATOM     15  O   UNL A   1      33.093  22.566  22.732  1.00  0.00    -0.268 OA
BRANCH  14  16
ATOM     16  C   UNL A   1      32.878  20.421  23.669  1.00  0.00     0.099 A 
ATOM     17  C   UNL A   1      32.212  19.649  22.732  1.00  0.00     0.033 A 
ATOM     18  S   UNL A   1      33.762  19.450  24.768  1.00  0.00    -0.058 S 
ATOM     19  C   UNL A   1      32.381  18.253  22.957  1.00  0.00     0.099 A 
ATOM     20  C   UNL A   1      33.209  18.018  24.032  1.00  0.00     0.324 A 
BRANCH  20  21
ATOM     21  N   UNL A   1      33.618  16.727  24.523  1.00  0.00     0.074 N 
ATOM     22  O   UNL A   1      33.402  16.506  25.723  1.00  0.00    -0.258 OA
ATOM     23  O   UNL A   1      34.140  15.933  23.731  1.00  0.00    -0.258 OA
ENDBRANCH  20  21
ENDBRANCH  14  16
ENDBRANCH  11  14
ENDBRANCH   4   7
ENDBRANCH   2   3
ENDBRANCH   1   2
BRANCH   1  24
ATOM     24  C   UNL A   1      37.785  20.587  24.854  1.00  0.00     0.023 C 
BRANCH  24  25
ATOM     25  C   UNL A   1      38.920  20.670  25.867  1.00  0.00     0.116 C 
BRANCH  25  26
ATOM     26  N   UNL A   1      39.895  19.591  25.771  1.00  0.00    -0.352 N 
ATOM     27  C   UNL A   1      41.240  19.614  26.076  1.00  0.00     0.251 C 
ATOM     28  H   UNL A   1      39.548  18.730  25.445  1.00  0.00     0.163 HD
ATOM     29  O   UNL A   1      41.944  18.634  25.881  1.00  0.00    -0.269 OA
BRANCH  27  30
ATOM     30  C   UNL A   1      41.830  20.867  26.591  1.00  0.00     0.039 A 
ATOM     31  C   UNL A   1      42.289  21.821  25.679  1.00  0.00     0.014 A 
ATOM     32  C   UNL A   1      41.844  21.131  27.961  1.00  0.00     0.014 A 
ATOM     33  C   UNL A   1      42.666  23.083  26.140  1.00  0.00     0.010 A 
ATOM     34  C   UNL A   1      42.130  22.415  28.407  1.00  0.00     0.010 A 
ATOM     35  C   UNL A   1      42.534  23.407  27.500  1.00  0.00    -0.014 A 
BRANCH  35  36
ATOM     36  C   UNL A   1      42.802  24.777  28.003  1.00  0.00     0.031 A 
ATOM     37  C   UNL A   1      44.198  25.170  28.399  1.00  0.00     0.074 A 
ATOM     38  C   UNL A   1      41.778  25.634  28.191  1.00  0.00     0.049 A 
ATOM     39  N   UNL A   1      44.617  26.272  28.965  1.00  0.00    -0.248 NA
ATOM     40  C   UNL A   1      45.255  24.173  28.165  1.00  0.00     0.031 C 
ATOM     41  C   UNL A   1      40.369  25.353  27.907  1.00  0.00     0.029 A 
ATOM     42  N   UNL A   1      41.766  26.918  28.677  1.00  0.00    -0.354 N 
ATOM     43  C   UNL A   1      45.977  26.089  29.180  1.00  0.00     0.074 A 
ATOM     44  C   UNL A   1      46.302  24.751  28.736  1.00  0.00     0.031 C 
ATOM     45  C   UNL A   1      39.636  26.441  28.191  1.00  0.00     0.029 A 
ATOM     46  C   UNL A   1      40.515  27.483  28.711  1.00  0.00     0.049 A 
ATOM     47  H   UNL A   1      42.579  27.389  28.972  1.00  0.00     0.167 HD
ATOM     48  C   UNL A   1      46.881  26.965  29.678  1.00  0.00     0.037 A 
ATOM     49  C   UNL A   1      40.122  28.706  29.115  1.00  0.00     0.037 A 
ATOM     50  C   UNL A   1      46.567  28.312  30.072  1.00  0.00     0.049 A 
ATOM     51  C   UNL A   1      41.150  29.674  29.629  1.00  0.00     0.074 A 
ATOM     52  C   UNL A   1      47.423  29.301  30.522  1.00  0.00     0.029 A 
ATOM     53  N   UNL A   1      45.294  28.861  30.050  1.00  0.00    -0.354 N 
ATOM     54  N   UNL A   1      42.442  29.507  29.773  1.00  0.00    -0.248 NA
ATOM     55  C   UNL A   1      40.667  31.002  30.034  1.00  0.00     0.031 C 
ATOM     56  C   UNL A   1      46.663  30.443  30.798  1.00  0.00     0.029 A 
ATOM     57  C   UNL A   1      45.339  30.174  30.485  1.00  0.00     0.049 A 
ATOM     58  H   UNL A   1      44.479  28.388  29.766  1.00  0.00     0.167 HD
ATOM     59  C   UNL A   1      42.929  30.714  30.257  1.00  0.00     0.074 A 
ATOM     60  C   UNL A   1      41.795  31.607  30.371  1.00  0.00     0.031 C 
ATOM     61  C   UNL A   1      44.202  31.052  30.577  1.00  0.00     0.037 A 
BRANCH  48  62
ATOM     62  C   UNL A   1      48.299  26.492  29.805  1.00  0.00     0.057 A 
ATOM     63  C   UNL A   1      49.239  26.705  28.789  1.00  0.00     0.134 A 
ATOM     64  C   UNL A   1      48.733  25.831  30.960  1.00  0.00     0.134 A 
ATOM     65  F   UNL A   1      48.882  27.320  27.650  1.00  0.00    -0.206 F 
ATOM     66  C   UNL A   1      50.554  26.252  28.904  1.00  0.00     0.040 A 
ATOM     67  C   UNL A   1      50.053  25.396  31.099  1.00  0.00     0.040 A 
ATOM     68  F   UNL A   1      47.885  25.598  31.973  1.00  0.00    -0.206 F 
ATOM     69  C   UNL A   1      50.965  25.600  30.065  1.00  0.00     0.006 A 
ENDBRANCH  48  62
BRANCH  49  70
ATOM     70  C   UNL A   1      38.696  29.102  29.012  1.00  0.00     0.057 A 
ATOM     71  C   UNL A   1      37.848  29.017  30.124  1.00  0.00     0.134 A 
ATOM     72  C   UNL A   1      38.143  29.564  27.813  1.00  0.00     0.134 A 
ATOM     73  F   UNL A   1      38.317  28.564  31.295  1.00  0.00    -0.206 F 
ATOM     74  C   UNL A   1      36.497  29.358  30.041  1.00  0.00     0.040 A 
ATOM     75  C   UNL A   1      36.799  29.929  27.721  1.00  0.00     0.040 A 
ATOM     76  F   UNL A   1      38.906  29.675  26.715  1.00  0.00    -0.206 F 
ATOM     77  C   UNL A   1      35.970  29.819  28.837  1.00  0.00     0.006 A 
ENDBRANCH  49  70
BRANCH  61  78
ATOM     78  C   UNL A   1      44.440  32.455  31.046  1.00  0.00     0.057 A 
ATOM     79  C   UNL A   1      44.706  33.497  30.150  1.00  0.00     0.134 A 
ATOM     80  C   UNL A   1      44.361  32.772  32.408  1.00  0.00     0.134 A 
ATOM     81  F   UNL A   1      44.808  33.254  28.835  1.00  0.00    -0.206 F 
ATOM     82  C   UNL A   1      44.901  34.806  30.594  1.00  0.00     0.040 A 
ATOM     83  C   UNL A   1      44.531  34.080  32.862  1.00  0.00     0.040 A 
ATOM     84  F   UNL A   1      44.103  31.818  33.315  1.00  0.00    -0.206 F 
ATOM     85  C   UNL A   1      44.806  35.100  31.954  1.00  0.00     0.006 A 
ENDBRANCH  61  78
ENDBRANCH  35  36
ENDBRANCH  27  30
ENDBRANCH  25  26
ENDBRANCH  24  25
ENDBRANCH   1  24
TORSDOF 15
ENDMDL
MODEL 3
REMARK VINA RESULT:     -11.3      1.760      3.490
REMARK SMILES CO[C@@H]1C[C@H](C(=O)NCCCCNC(=O)c2ccc(-c3c4nc(c(-c5c(F)cccc5F)c5ccc([nH]5)c(-c5c(F)cccc5F)c5nc(c(-c6c(F)cccc6F)c6ccc3[nH]6)C=C5)C=C4)cc2)N(C(=O)c2ccc([N+](=O)[O-])s2)C1
REMARK SMILES IDX 10 1 9 2 8 3 6 4 7 5 5 7 3 8 4 9 81 10 70 11 2 12 1 13 71 14
REMARK SMILES IDX 72 15 73 16 74 17 80 18 75 19 76 20 77 21 78 22 79 23 11 24
REMARK SMILES IDX 12 25 13 26 14 27 15 29 16 30 17 31 69 32 18 33 68 34 19 35
REMARK SMILES IDX 20 36 21 37 62 38 22 39 67 40 61 41 63 42 23 43 66 44 60 45
REMARK SMILES IDX 59 46 24 48 50 49 33 50 49 51 34 52 37 53 48 54 64 55 35 56
REMARK SMILES IDX 36 57 47 59 65 60 38 61 25 62 26 63 31 64 27 65 28 66 30 67
REMARK SMILES IDX 32 68 29 69 51 70 52 71 57 72 53 73 54 74 56 75 58 76 55 77
REMARK SMILES IDX 39 78 40 79 45 80 41 81 42 82 44 83 46 84 43 85
REMARK H PARENT 8 6 13 28 63 47 37 58
REMARK Flexibility Score: inf
ROOT
ATOM      1  C   UNL A   1      32.101  30.195  26.062  1.00  0.00     0.023 C 
ENDROOT
BRANCH   1   2
ATOM      2  C   UNL A   1      32.818  29.259  27.035  1.00  0.00     0.116 C 
BRANCH   2   3
ATOM      3  N   UNL A   1      32.109  28.006  27.183  1.00  0.00    -0.354 N 
ATOM      4  C   UNL A   1      32.260  26.806  26.565  1.00  0.00     0.242 C 
ATOM      5  O   UNL A   1      31.383  25.962  26.793  1.00  0.00    -0.273 OA
ATOM      6  H   UNL A   1      31.386  28.028  27.852  1.00  0.00     0.163 HD
BRANCH   4   7
ATOM      7  C   UNL A   1      33.356  26.482  25.519  1.00  0.00     0.177 C 
ATOM      8  C   UNL A   1      33.747  24.267  24.523  1.00  0.00     0.139 C 
ATOM      9  C   UNL A   1      34.038  25.136  25.751  1.00  0.00     0.069 C 
ATOM     10  C   UNL A   1      33.163  25.215  23.471  1.00  0.00     0.152 C 
ATOM     11  N   UNL A   1      32.969  26.500  24.117  1.00  0.00    -0.323 N 
BRANCH   8  12
ATOM     12  O   UNL A   1      32.810  23.237  24.822  1.00  0.00    -0.380 OA
ATOM     13  C   UNL A   1      31.666  23.247  23.972  1.00  0.00     0.195 C 
ENDBRANCH   8  12
BRANCH  11  14
ATOM     14  C   UNL A   1      32.635  27.612  23.354  1.00  0.00     0.264 C 
ATOM     15  O   UNL A   1      33.514  28.352  22.914  1.00  0.00    -0.268 OA
BRANCH  14  16
ATOM     16  C   UNL A   1      31.222  27.906  23.179  1.00  0.00     0.099 A 
ATOM     17  C   UNL A   1      30.135  27.205  23.672  1.00  0.00     0.033 A 
ATOM     18  S   UNL A   1      30.732  29.337  22.376  1.00  0.00    -0.058 S 
ATOM     19  C   UNL A   1      28.893  27.816  23.335  1.00  0.00     0.099 A 
ATOM     20  C   UNL A   1      29.087  28.987  22.636  1.00  0.00     0.324 A 
BRANCH  20  21
ATOM     21  N   UNL A   1      28.056  29.874  22.162  1.00  0.00     0.074 N 
ATOM     22  O   UNL A   1      28.027  30.073  20.939  1.00  0.00    -0.258 OA
ATOM     23  O   UNL A   1      27.276  30.366  22.987  1.00  0.00    -0.258 OA
ENDBRANCH  20  21
ENDBRANCH  14  16
ENDBRANCH  11  14
ENDBRANCH   4   7
ENDBRANCH   2   3
ENDBRANCH   1   2
BRANCH   1  24
ATOM     24  C   UNL A   1      31.710  31.556  26.628  1.00  0.00     0.023 C 
BRANCH  24  25
ATOM     25  C   UNL A   1      32.857  32.340  27.254  1.00  0.00     0.116 C 
BRANCH  25  26
ATOM     26  N   UNL A   1      32.530  33.720  27.592  1.00  0.00    -0.352 N 
ATOM     27  C   UNL A   1      33.130  34.546  28.520  1.00  0.00     0.251 C 
ATOM     28  H   UNL A   1      31.780  34.116  27.093  1.00  0.00     0.163 HD
ATOM     29  O   UNL A   1      32.696  35.668  28.734  1.00  0.00    -0.269 OA
BRANCH  27  30
ATOM     30  C   UNL A   1      34.276  34.028  29.296  1.00  0.00     0.039 A 
ATOM     31  C   UNL A   1      34.029  33.185  30.381  1.00  0.00     0.014 A 
ATOM     32  C   UNL A   1      35.584  34.304  28.894  1.00  0.00     0.014 A 
ATOM     33  C   UNL A   1      35.098  32.534  31.000  1.00  0.00     0.010 A 
ATOM     34  C   UNL A   1      36.635  33.585  29.449  1.00  0.00     0.010 A 
ATOM     35  C   UNL A   1      36.402  32.685  30.500  1.00  0.00    -0.014 A 
BRANCH  35  36
ATOM     36  C   UNL A   1      37.541  31.909  31.051  1.00  0.00     0.031 A 
ATOM     37  C   UNL A   1      38.035  32.189  32.443  1.00  0.00     0.074 A 
ATOM     38  C   UNL A   1      38.188  31.022  30.268  1.00  0.00     0.049 A 
ATOM     39  N   UNL A   1      39.081  31.706  33.062  1.00  0.00    -0.248 NA
ATOM     40  C   UNL A   1      37.274  33.176  33.227  1.00  0.00     0.031 C 
ATOM     41  C   UNL A   1      37.848  30.706  28.879  1.00  0.00     0.029 A 
ATOM     42  N   UNL A   1      39.276  30.229  30.530  1.00  0.00    -0.354 N 
ATOM     43  C   UNL A   1      39.119  32.349  34.292  1.00  0.00     0.074 A 
ATOM     44  C   UNL A   1      38.026  33.297  34.310  1.00  0.00     0.031 C 
ATOM     45  C   UNL A   1      38.688  29.763  28.423  1.00  0.00     0.029 A 
ATOM     46  C   UNL A   1      39.647  29.434  29.473  1.00  0.00     0.049 A 
ATOM     47  H   UNL A   1      39.747  30.228  31.395  1.00  0.00     0.167 HD
ATOM     48  C   UNL A   1      39.972  32.151  35.325  1.00  0.00     0.037 A 
ATOM     49  C   UNL A   1      40.648  28.540  29.363  1.00  0.00     0.037 A 
ATOM     50  C   UNL A   1      41.025  31.173  35.325  1.00  0.00     0.049 A 
ATOM     51  C   UNL A   1      41.558  28.311  30.537  1.00  0.00     0.074 A 
ATOM     52  C   UNL A   1      41.899  30.846  36.346  1.00  0.00     0.029 A 
ATOM     53  N   UNL A   1      41.341  30.357  34.249  1.00  0.00    -0.354 N 
ATOM     54  N   UNL A   1      41.546  28.885  31.716  1.00  0.00    -0.248 NA
ATOM     55  C   UNL A   1      42.617  27.306  30.368  1.00  0.00     0.031 C 
ATOM     56  C   UNL A   1      42.761  29.846  35.880  1.00  0.00     0.029 A 
ATOM     57  C   UNL A   1      42.400  29.529  34.579  1.00  0.00     0.049 A 
ATOM     58  H   UNL A   1      40.880  30.364  33.379  1.00  0.00     0.167 HD
ATOM     59  C   UNL A   1      42.575  28.294  32.436  1.00  0.00     0.074 A 
ATOM     60  C   UNL A   1      43.183  27.308  31.566  1.00  0.00     0.031 C 
ATOM     61  C   UNL A   1      42.980  28.544  33.705  1.00  0.00     0.037 A 
BRANCH  48  62
ATOM     62  C   UNL A   1      39.780  33.000  36.546  1.00  0.00     0.057 A 
ATOM     63  C   UNL A   1      40.533  34.162  36.760  1.00  0.00     0.134 A 
ATOM     64  C   UNL A   1      38.825  32.661  37.512  1.00  0.00     0.134 A 
ATOM     65  F   UNL A   1      41.476  34.533  35.880  1.00  0.00    -0.206 F 
ATOM     66  C   UNL A   1      40.361  34.942  37.904  1.00  0.00     0.040 A 
ATOM     67  C   UNL A   1      38.625  33.448  38.648  1.00  0.00     0.040 A 
ATOM     68  F   UNL A   1      38.067  31.563  37.367  1.00  0.00    -0.206 F 
ATOM     69  C   UNL A   1      39.402  34.588  38.849  1.00  0.00     0.006 A 
ENDBRANCH  48  62
BRANCH  49  70
ATOM     70  C   UNL A   1      40.820  27.763  28.111  1.00  0.00     0.057 A 
ATOM     71  C   UNL A   1      40.215  26.509  27.960  1.00  0.00     0.134 A 
ATOM     72  C   UNL A   1      41.591  28.240  27.046  1.00  0.00     0.134 A 
ATOM     73  F   UNL A   1      39.479  25.992  28.954  1.00  0.00    -0.206 F 
ATOM     74  C   UNL A   1      40.387  25.748  26.802  1.00  0.00     0.040 A 
ATOM     75  C   UNL A   1      41.754  27.500  25.873  1.00  0.00     0.040 A 
ATOM     76  F   UNL A   1      42.189  29.439  27.127  1.00  0.00    -0.206 F 
ATOM     77  C   UNL A   1      41.156  26.247  25.753  1.00  0.00     0.006 A 
ENDBRANCH  49  70
BRANCH  61  78
ATOM     78  C   UNL A   1      44.109  27.716  34.239  1.00  0.00     0.057 A 
ATOM     79  C   UNL A   1      43.889  26.475  34.847  1.00  0.00     0.134 A 
ATOM     80  C   UNL A   1      45.434  28.149  34.105  1.00  0.00     0.134 A 
ATOM     81  F   UNL A   1      42.641  26.012  35.018  1.00  0.00    -0.206 F 
ATOM     82  C   UNL A   1      44.949  25.698  35.319  1.00  0.00     0.040 A 
ATOM     83  C   UNL A   1      46.503  27.372  34.551  1.00  0.00     0.040 A 
ATOM     84  F   UNL A   1      45.710  29.327  33.525  1.00  0.00    -0.206 F 
ATOM     85  C   UNL A   1      46.260  26.145  35.164  1.00  0.00     0.006 A 
ENDBRANCH  61  78
ENDBRANCH  35  36
ENDBRANCH  27  30
ENDBRANCH  25  26
ENDBRANCH  24  25
ENDBRANCH   1  24
TORSDOF 15
ENDMDL
