MODEL 1
REMARK VINA RESULT:     -12.2      0.000      0.000
REMARK SMILES O=C(NCCCCNC(=O)C1CCN(S(=O)(=O)c2ccc3nc(O)sc3c2)CC1)c1ccc(-c2c3nc(c(-c4c(F)cccc4F)c4ccc([nH]4)c(-c4c(F)cccc4F)c4nc(c(-c5c(F)cccc5F)c5ccc2[nH]5)C=C4)C=C3)cc1
REMARK SMILES IDX 6 1 5 2 4 3 3 4 1 5 2 6 30 8 31 9 83 10 32 11 82 12 33 13
REMARK SMILES IDX 34 14 35 15 76 16 36 17 81 18 75 19 77 20 37 21 80 22 74 23
REMARK SMILES IDX 73 24 38 26 64 27 47 28 63 29 48 30 51 31 62 32 78 33 49 34
REMARK SMILES IDX 50 35 61 37 79 38 52 39 39 40 40 41 45 42 41 43 42 44 44 45
REMARK SMILES IDX 46 46 43 47 65 48 66 49 71 50 67 51 68 52 70 53 72 54 69 55
REMARK SMILES IDX 53 56 54 57 59 58 55 59 56 60 58 61 60 62 57 63 7 64 8 65
REMARK SMILES IDX 9 66 10 68 11 69 12 70 29 71 13 72 28 73 14 74 15 75 16 76
REMARK SMILES IDX 17 77 18 78 19 79 27 80 20 81 26 82 21 83 25 84 22 85 23 86
REMARK SMILES IDX 24 87
REMARK H PARENT 3 7 77 25 51 36 8 67 24 88
REMARK Flexibility Score: inf
ROOT
ATOM      1  C   UNL A   1      41.555  26.780  34.778  1.00  0.00     0.023 C 
ENDROOT
BRANCH   1   2
ATOM      2  C   UNL A   1      41.787  25.881  36.007  1.00  0.00     0.023 C 
BRANCH   2   3
ATOM      3  C   UNL A   1      41.760  24.368  35.739  1.00  0.00     0.116 C 
BRANCH   3   4
ATOM      4  N   UNL A   1      43.021  23.760  36.118  1.00  0.00    -0.352 N 
ATOM      5  O   UNL A   1      44.944  22.672  35.878  1.00  0.00    -0.269 OA
ATOM      6  C   UNL A   1      44.151  23.483  35.400  1.00  0.00     0.251 C 
ATOM      7  H   UNL A   1      43.073  23.499  37.065  1.00  0.00     0.163 HD
BRANCH   6   8
ATOM      8  C   UNL A   1      44.479  24.126  34.106  1.00  0.00     0.039 A 
ATOM      9  C   UNL A   1      44.998  25.428  34.162  1.00  0.00     0.014 A 
ATOM     10  C   UNL A   1      44.133  23.578  32.868  1.00  0.00     0.014 A 
ATOM     11  C   UNL A   1      45.167  26.176  32.999  1.00  0.00     0.010 A 
ATOM     12  C   UNL A   1      44.311  24.328  31.698  1.00  0.00     0.010 A 
ATOM     13  C   UNL A   1      44.828  25.631  31.758  1.00  0.00    -0.014 A 
BRANCH  13  14
ATOM     14  C   UNL A   1      45.144  26.441  30.562  1.00  0.00     0.031 A 
ATOM     15  C   UNL A   1      45.148  25.652  29.285  1.00  0.00     0.074 A 
ATOM     16  C   UNL A   1      44.813  27.750  30.495  1.00  0.00     0.049 A 
ATOM     17  N   UNL A   1      44.062  25.331  28.642  1.00  0.00    -0.248 NA
ATOM     18  C   UNL A   1      46.334  24.934  28.818  1.00  0.00     0.031 C 
ATOM     19  C   UNL A   1      43.579  28.317  31.048  1.00  0.00     0.029 A 
ATOM     20  N   UNL A   1      45.375  28.791  29.786  1.00  0.00    -0.354 N 
ATOM     21  C   UNL A   1      44.396  24.351  27.722  1.00  0.00     0.074 A 
ATOM     22  C   UNL A   1      45.819  24.141  27.864  1.00  0.00     0.031 C 
ATOM     23  C   UNL A   1      43.396  29.546  30.526  1.00  0.00     0.029 A 
ATOM     24  C   UNL A   1      44.548  29.913  29.698  1.00  0.00     0.049 A 
ATOM     25  H   UNL A   1      46.271  28.749  29.381  1.00  0.00     0.167 HD
ATOM     26  C   UNL A   1      43.474  23.776  26.904  1.00  0.00     0.037 A 
ATOM     27  C   UNL A   1      44.451  30.706  28.592  1.00  0.00     0.037 A 
ATOM     28  C   UNL A   1      42.142  24.288  27.041  1.00  0.00     0.049 A 
ATOM     29  C   UNL A   1      43.690  29.825  27.642  1.00  0.00     0.074 A 
ATOM     30  C   UNL A   1      40.972  23.935  27.674  1.00  0.00     0.029 A 
ATOM     31  N   UNL A   1      41.864  25.483  26.424  1.00  0.00    -0.354 N 
ATOM     32  N   UNL A   1      42.401  29.624  27.672  1.00  0.00    -0.248 NA
ATOM     33  C   UNL A   1      44.444  28.836  26.871  1.00  0.00     0.031 C 
ATOM     34  C   UNL A   1      40.225  25.151  27.787  1.00  0.00     0.029 A 
ATOM     35  C   UNL A   1      41.008  26.167  27.243  1.00  0.00     0.049 A 
ATOM     36  H   UNL A   1      42.214  25.789  25.555  1.00  0.00     0.167 HD
ATOM     37  C   UNL A   1      42.217  28.330  27.182  1.00  0.00     0.074 A 
ATOM     38  C   UNL A   1      43.506  27.920  26.660  1.00  0.00     0.031 C 
ATOM     39  C   UNL A   1      41.089  27.597  27.420  1.00  0.00     0.037 A 
BRANCH  26  40
ATOM     40  C   UNL A   1      43.734  22.833  25.797  1.00  0.00     0.057 A 
ATOM     41  C   UNL A   1      44.484  23.172  24.671  1.00  0.00     0.134 A 
ATOM     42  C   UNL A   1      43.487  21.473  26.031  1.00  0.00     0.134 A 
ATOM     43  F   UNL A   1      44.772  24.454  24.400  1.00  0.00    -0.206 F 
ATOM     44  C   UNL A   1      45.018  22.181  23.838  1.00  0.00     0.040 A 
ATOM     45  C   UNL A   1      44.027  20.477  25.222  1.00  0.00     0.040 A 
ATOM     46  F   UNL A   1      42.776  21.095  27.108  1.00  0.00    -0.206 F 
ATOM     47  C   UNL A   1      44.811  20.830  24.129  1.00  0.00     0.006 A 
ENDBRANCH  26  40
BRANCH  27  48
ATOM     48  C   UNL A   1      45.641  31.526  28.228  1.00  0.00     0.057 A 
ATOM     49  C   UNL A   1      46.895  31.049  27.825  1.00  0.00     0.134 A 
ATOM     50  C   UNL A   1      45.504  32.927  28.254  1.00  0.00     0.134 A 
ATOM     51  F   UNL A   1      47.121  29.743  27.631  1.00  0.00    -0.206 F 
ATOM     52  C   UNL A   1      47.982  31.905  27.600  1.00  0.00     0.040 A 
ATOM     53  C   UNL A   1      46.572  33.796  28.008  1.00  0.00     0.040 A 
ATOM     54  F   UNL A   1      44.311  33.486  28.511  1.00  0.00    -0.206 F 
ATOM     55  C   UNL A   1      47.827  33.282  27.710  1.00  0.00     0.006 A 
ENDBRANCH  27  48
BRANCH  39  56
ATOM     56  C   UNL A   1      40.012  28.316  28.158  1.00  0.00     0.057 A 
ATOM     57  C   UNL A   1      39.788  28.097  29.526  1.00  0.00     0.134 A 
ATOM     58  C   UNL A   1      39.190  29.238  27.507  1.00  0.00     0.134 A 
ATOM     59  F   UNL A   1      40.552  27.244  30.226  1.00  0.00    -0.206 F 
ATOM     60  C   UNL A   1      38.760  28.747  30.209  1.00  0.00     0.040 A 
ATOM     61  C   UNL A   1      38.178  29.916  28.187  1.00  0.00     0.040 A 
ATOM     62  F   UNL A   1      39.348  29.487  26.196  1.00  0.00    -0.206 F 
ATOM     63  C   UNL A   1      37.953  29.663  29.540  1.00  0.00     0.006 A 
ENDBRANCH  39  56
ENDBRANCH  13  14
ENDBRANCH   6   8
ENDBRANCH   3   4
ENDBRANCH   2   3
ENDBRANCH   1   2
BRANCH   1  64
ATOM     64  C   UNL A   1      41.893  28.257  34.976  1.00  0.00     0.116 C 
BRANCH  64  65
ATOM     65  N   UNL A   1      40.882  28.936  35.764  1.00  0.00    -0.356 N 
ATOM     66  C   UNL A   1      39.936  29.845  35.396  1.00  0.00     0.223 C 
ATOM     67  H   UNL A   1      40.879  28.702  36.721  1.00  0.00     0.163 HD
ATOM     68  O   UNL A   1      39.276  30.372  36.289  1.00  0.00    -0.275 OA
BRANCH  66  69
ATOM     69  C   UNL A   1      39.705  30.153  33.917  1.00  0.00     0.081 C 
ATOM     70  C   UNL A   1      40.256  31.526  33.513  1.00  0.00     0.030 C 
ATOM     71  C   UNL A   1      38.221  30.095  33.560  1.00  0.00     0.030 C 
ATOM     72  C   UNL A   1      39.439  32.696  34.062  1.00  0.00     0.103 C 
ATOM     73  C   UNL A   1      37.439  31.252  34.177  1.00  0.00     0.103 C 
ATOM     74  N   UNL A   1      37.977  32.568  33.729  1.00  0.00    -0.198 NA
BRANCH  74  75
ATOM     75  S   UNL A   1      37.119  33.935  34.376  1.00  0.00     0.243 S 
ATOM     76  O   UNL A   1      36.529  33.534  35.634  1.00  0.00    -0.207 OA
ATOM     77  O   UNL A   1      38.014  35.076  34.307  1.00  0.00    -0.207 OA
BRANCH  75  78
ATOM     78  C   UNL A   1      35.770  34.259  33.251  1.00  0.00     0.084 A 
ATOM     79  C   UNL A   1      34.829  35.239  33.574  1.00  0.00     0.024 A 
ATOM     80  C   UNL A   1      35.782  33.662  31.981  1.00  0.00     0.043 A 
ATOM     81  C   UNL A   1      33.835  35.596  32.658  1.00  0.00     0.031 A 
ATOM     82  C   UNL A   1      34.811  34.078  31.051  1.00  0.00     0.059 A 
ATOM     83  C   UNL A   1      33.832  35.026  31.370  1.00  0.00     0.085 A 
ATOM     84  S   UNL A   1      34.602  33.605  29.405  1.00  0.00    -0.077 S 
ATOM     85  N   UNL A   1      32.949  35.341  30.350  1.00  0.00    -0.203 NA
ATOM     86  C   UNL A   1      33.283  34.666  29.284  1.00  0.00     0.271 A 
BRANCH  86  87
ATOM     87  O   UNL A   1      32.594  34.841  28.173  1.00  0.00    -0.486 OA
ATOM     88  H   UNL A   1      32.838  34.383  27.393  1.00  0.00     0.296 HD
ENDBRANCH  86  87
ENDBRANCH  75  78
ENDBRANCH  74  75
ENDBRANCH  66  69
ENDBRANCH  64  65
ENDBRANCH   1  64
TORSDOF 14
ENDMDL
MODEL 2
REMARK VINA RESULT:     -11.3      4.759     11.962
REMARK SMILES O=C(NCCCCNC(=O)C1CCN(S(=O)(=O)c2ccc3nc(O)sc3c2)CC1)c1ccc(-c2c3nc(c(-c4c(F)cccc4F)c4ccc([nH]4)c(-c4c(F)cccc4F)c4nc(c(-c5c(F)cccc5F)c5ccc2[nH]5)C=C4)C=C3)cc1
REMARK SMILES IDX 6 1 5 2 4 3 3 4 1 5 2 6 30 8 31 9 83 10 32 11 82 12 33 13
REMARK SMILES IDX 34 14 35 15 76 16 36 17 81 18 75 19 77 20 37 21 80 22 74 23
REMARK SMILES IDX 73 24 38 26 64 27 47 28 63 29 48 30 51 31 62 32 78 33 49 34
REMARK SMILES IDX 50 35 61 37 79 38 52 39 39 40 40 41 45 42 41 43 42 44 44 45
REMARK SMILES IDX 46 46 43 47 65 48 66 49 71 50 67 51 68 52 70 53 72 54 69 55
REMARK SMILES IDX 53 56 54 57 59 58 55 59 56 60 58 61 60 62 57 63 7 64 8 65
REMARK SMILES IDX 9 66 10 68 11 69 12 70 29 71 13 72 28 73 14 74 15 75 16 76
REMARK SMILES IDX 17 77 18 78 19 79 27 80 20 81 26 82 21 83 25 84 22 85 23 86
REMARK SMILES IDX 24 87
REMARK H PARENT 3 7 77 25 51 36 8 67 24 88
REMARK Flexibility Score: inf
ROOT
ATOM      1  C   UNL A   1      44.780  33.288  26.717  1.00  0.00     0.023 C 
ENDROOT
BRANCH   1   2
ATOM      2  C   UNL A   1      44.762  34.563  25.853  1.00  0.00     0.023 C 
BRANCH   2   3
ATOM      3  C   UNL A   1      45.384  35.812  26.497  1.00  0.00     0.116 C 
BRANCH   3   4
ATOM      4  N   UNL A   1      44.434  36.907  26.509  1.00  0.00    -0.352 N 
ATOM      5  O   UNL A   1      42.470  37.936  26.660  1.00  0.00    -0.269 OA
ATOM      6  C   UNL A   1      43.196  37.033  27.074  1.00  0.00     0.251 C 
ATOM      7  H   UNL A   1      44.736  37.707  26.022  1.00  0.00     0.163 HD
BRANCH   6   8
ATOM      8  C   UNL A   1      42.702  36.165  28.169  1.00  0.00     0.039 A 
ATOM      9  C   UNL A   1      43.609  35.867  29.196  1.00  0.00     0.014 A 
ATOM     10  C   UNL A   1      41.470  35.505  28.128  1.00  0.00     0.014 A 
ATOM     11  C   UNL A   1      43.294  34.920  30.170  1.00  0.00     0.010 A 
ATOM     12  C   UNL A   1      41.151  34.560  29.112  1.00  0.00     0.010 A 
ATOM     13  C   UNL A   1      42.062  34.262  30.136  1.00  0.00    -0.014 A 
BRANCH  13  14
ATOM     14  C   UNL A   1      41.756  33.358  31.267  1.00  0.00     0.031 A 
ATOM     15  C   UNL A   1      40.324  33.419  31.713  1.00  0.00     0.074 A 
ATOM     16  C   UNL A   1      42.421  32.193  31.432  1.00  0.00     0.049 A 
ATOM     17  N   UNL A   1      39.359  32.796  31.100  1.00  0.00    -0.248 NA
ATOM     18  C   UNL A   1      39.854  34.406  32.686  1.00  0.00     0.031 C 
ATOM     19  C   UNL A   1      42.849  31.325  30.330  1.00  0.00     0.029 A 
ATOM     20  N   UNL A   1      42.684  31.454  32.566  1.00  0.00    -0.354 N 
ATOM     21  C   UNL A   1      38.164  33.322  31.561  1.00  0.00     0.074 A 
ATOM     22  C   UNL A   1      38.521  34.315  32.548  1.00  0.00     0.031 C 
ATOM     23  C   UNL A   1      43.167  30.115  30.832  1.00  0.00     0.029 A 
ATOM     24  C   UNL A   1      43.085  30.144  32.295  1.00  0.00     0.049 A 
ATOM     25  H   UNL A   1      42.597  31.813  33.479  1.00  0.00     0.167 HD
ATOM     26  C   UNL A   1      36.957  32.903  31.094  1.00  0.00     0.037 A 
ATOM     27  C   UNL A   1      42.725  29.063  33.044  1.00  0.00     0.037 A 
ATOM     28  C   UNL A   1      37.016  31.854  30.120  1.00  0.00     0.049 A 
ATOM     29  C   UNL A   1      41.275  28.903  32.685  1.00  0.00     0.074 A 
ATOM     30  C   UNL A   1      36.957  31.725  28.751  1.00  0.00     0.029 A 
ATOM     31  N   UNL A   1      37.216  30.578  30.587  1.00  0.00    -0.354 N 
ATOM     32  N   UNL A   1      40.829  28.354  31.587  1.00  0.00    -0.248 NA
ATOM     33  C   UNL A   1      40.297  29.727  33.395  1.00  0.00     0.031 C 
ATOM     34  C   UNL A   1      37.586  30.473  28.464  1.00  0.00     0.029 A 
ATOM     35  C   UNL A   1      38.016  29.940  29.678  1.00  0.00     0.049 A 
ATOM     36  H   UNL A   1      36.853  30.194  31.418  1.00  0.00     0.167 HD
ATOM     37  C   UNL A   1      39.622  28.999  31.315  1.00  0.00     0.074 A 
ATOM     38  C   UNL A   1      39.327  29.795  32.491  1.00  0.00     0.031 C 
ATOM     39  C   UNL A   1      39.046  29.011  30.076  1.00  0.00     0.037 A 
BRANCH  26  40
ATOM     40  C   UNL A   1      35.625  33.287  31.608  1.00  0.00     0.057 A 
ATOM     41  C   UNL A   1      35.195  32.988  32.900  1.00  0.00     0.134 A 
ATOM     42  C   UNL A   1      34.902  34.245  30.884  1.00  0.00     0.134 A 
ATOM     43  F   UNL A   1      35.854  32.093  33.652  1.00  0.00    -0.206 F 
ATOM     44  C   UNL A   1      34.111  33.666  33.472  1.00  0.00     0.040 A 
ATOM     45  C   UNL A   1      33.834  34.940  31.447  1.00  0.00     0.040 A 
ATOM     46  F   UNL A   1      35.282  34.575  29.637  1.00  0.00    -0.206 F 
ATOM     47  C   UNL A   1      33.446  34.663  32.753  1.00  0.00     0.006 A 
ENDBRANCH  26  40
BRANCH  27  48
ATOM     48  C   UNL A   1      43.276  28.970  34.426  1.00  0.00     0.057 A 
ATOM     49  C   UNL A   1      43.030  29.852  35.486  1.00  0.00     0.134 A 
ATOM     50  C   UNL A   1      44.106  27.874  34.728  1.00  0.00     0.134 A 
ATOM     51  F   UNL A   1      42.157  30.860  35.373  1.00  0.00    -0.206 F 
ATOM     52  C   UNL A   1      43.679  29.731  36.722  1.00  0.00     0.040 A 
ATOM     53  C   UNL A   1      44.742  27.725  35.964  1.00  0.00     0.040 A 
ATOM     54  F   UNL A   1      44.310  26.908  33.818  1.00  0.00    -0.206 F 
ATOM     55  C   UNL A   1      44.553  28.675  36.959  1.00  0.00     0.006 A 
ENDBRANCH  27  48
BRANCH  39  56
ATOM     56  C   UNL A   1      39.747  28.195  29.046  1.00  0.00     0.057 A 
ATOM     57  C   UNL A   1      40.605  28.780  28.103  1.00  0.00     0.134 A 
ATOM     58  C   UNL A   1      39.574  26.810  28.991  1.00  0.00     0.134 A 
ATOM     59  F   UNL A   1      40.841  30.102  28.107  1.00  0.00    -0.206 F 
ATOM     60  C   UNL A   1      41.236  28.019  27.119  1.00  0.00     0.040 A 
ATOM     61  C   UNL A   1      40.224  26.035  28.030  1.00  0.00     0.040 A 
ATOM     62  F   UNL A   1      38.761  26.189  29.860  1.00  0.00    -0.206 F 
ATOM     63  C   UNL A   1      41.049  26.640  27.083  1.00  0.00     0.006 A 
ENDBRANCH  39  56
ENDBRANCH  13  14
ENDBRANCH   6   8
ENDBRANCH   3   4
ENDBRANCH   2   3
ENDBRANCH   1   2
BRANCH   1  64
ATOM     64  C   UNL A   1      44.575  31.979  25.955  1.00  0.00     0.116 C 
BRANCH  64  65
ATOM     65  N   UNL A   1      45.823  31.256  25.790  1.00  0.00    -0.356 N 
ATOM     66  C   UNL A   1      46.240  30.079  26.333  1.00  0.00     0.223 C 
ATOM     67  H   UNL A   1      46.473  31.686  25.189  1.00  0.00     0.163 HD
ATOM     68  O   UNL A   1      47.406  29.742  26.133  1.00  0.00    -0.275 OA
BRANCH  66  69
ATOM     69  C   UNL A   1      45.264  29.214  27.131  1.00  0.00     0.081 C 
ATOM     70  C   UNL A   1      45.981  28.245  28.078  1.00  0.00     0.030 C 
ATOM     71  C   UNL A   1      44.349  28.411  26.208  1.00  0.00     0.030 C 
ATOM     72  C   UNL A   1      46.681  27.093  27.357  1.00  0.00     0.103 C 
ATOM     73  C   UNL A   1      45.105  27.310  25.469  1.00  0.00     0.103 C 
ATOM     74  N   UNL A   1      45.753  26.365  26.423  1.00  0.00    -0.198 NA
BRANCH  74  75
ATOM     75  S   UNL A   1      46.617  25.068  25.651  1.00  0.00     0.243 S 
ATOM     76  O   UNL A   1      46.725  25.384  24.243  1.00  0.00    -0.207 OA
ATOM     77  O   UNL A   1      47.803  24.809  26.446  1.00  0.00    -0.207 OA
BRANCH  75  78
ATOM     78  C   UNL A   1      45.573  23.625  25.780  1.00  0.00     0.084 A 
ATOM     79  C   UNL A   1      44.207  23.788  26.021  1.00  0.00     0.024 A 
ATOM     80  C   UNL A   1      46.102  22.368  25.450  1.00  0.00     0.043 A 
ATOM     81  C   UNL A   1      43.348  22.684  26.007  1.00  0.00     0.031 A 
ATOM     82  C   UNL A   1      45.212  21.279  25.381  1.00  0.00     0.059 A 
ATOM     83  C   UNL A   1      43.848  21.413  25.663  1.00  0.00     0.085 A 
ATOM     84  S   UNL A   1      45.523  19.641  24.936  1.00  0.00    -0.077 S 
ATOM     85  N   UNL A   1      43.096  20.255  25.545  1.00  0.00    -0.203 NA
ATOM     86  C   UNL A   1      43.878  19.287  25.153  1.00  0.00     0.271 A 
BRANCH  86  87
ATOM     87  O   UNL A   1      43.360  18.092  24.939  1.00  0.00    -0.486 OA
ATOM     88  H   UNL A   1      43.586  17.616  24.165  1.00  0.00     0.296 HD
ENDBRANCH  86  87
ENDBRANCH  75  78
ENDBRANCH  74  75
ENDBRANCH  66  69
ENDBRANCH  64  65
ENDBRANCH   1  64
TORSDOF 14
ENDMDL
MODEL 3
REMARK VINA RESULT:     -11.1      5.916     10.580
REMARK SMILES O=C(NCCCCNC(=O)C1CCN(S(=O)(=O)c2ccc3nc(O)sc3c2)CC1)c1ccc(-c2c3nc(c(-c4c(F)cccc4F)c4ccc([nH]4)c(-c4c(F)cccc4F)c4nc(c(-c5c(F)cccc5F)c5ccc2[nH]5)C=C4)C=C3)cc1
REMARK SMILES IDX 6 1 5 2 4 3 3 4 1 5 2 6 30 8 31 9 83 10 32 11 82 12 33 13
REMARK SMILES IDX 34 14 35 15 76 16 36 17 81 18 75 19 77 20 37 21 80 22 74 23
REMARK SMILES IDX 73 24 38 26 64 27 47 28 63 29 48 30 51 31 62 32 78 33 49 34
REMARK SMILES IDX 50 35 61 37 79 38 52 39 39 40 40 41 45 42 41 43 42 44 44 45
REMARK SMILES IDX 46 46 43 47 65 48 66 49 71 50 67 51 68 52 70 53 72 54 69 55
REMARK SMILES IDX 53 56 54 57 59 58 55 59 56 60 58 61 60 62 57 63 7 64 8 65
REMARK SMILES IDX 9 66 10 68 11 69 12 70 29 71 13 72 28 73 14 74 15 75 16 76
REMARK SMILES IDX 17 77 18 78 19 79 27 80 20 81 26 82 21 83 25 84 22 85 23 86
REMARK SMILES IDX 24 87
REMARK H PARENT 3 7 77 25 51 36 8 67 24 88
REMARK Flexibility Score: inf
ROOT
ATOM      1  C   UNL A   1      32.737  29.481  25.435  1.00  0.00     0.023 C 
ENDROOT
BRANCH   1   2
ATOM      2  C   UNL A   1      32.303  30.546  26.459  1.00  0.00     0.023 C 
BRANCH   2   3
ATOM      3  C   UNL A   1      33.299  30.821  27.596  1.00  0.00     0.116 C 
BRANCH   3   4
ATOM      4  N   UNL A   1      34.091  32.002  27.307  1.00  0.00    -0.352 N 
ATOM      5  O   UNL A   1      35.594  33.608  27.620  1.00  0.00    -0.269 OA
ATOM      6  C   UNL A   1      35.304  32.422  27.776  1.00  0.00     0.251 C 
ATOM      7  H   UNL A   1      33.680  32.611  26.652  1.00  0.00     0.163 HD
BRANCH   6   8
ATOM      8  C   UNL A   1      36.287  31.525  28.426  1.00  0.00     0.039 A 
ATOM      9  C   UNL A   1      36.637  31.826  29.751  1.00  0.00     0.014 A 
ATOM     10  C   UNL A   1      36.994  30.534  27.738  1.00  0.00     0.014 A 
ATOM     11  C   UNL A   1      37.680  31.151  30.382  1.00  0.00     0.010 A 
ATOM     12  C   UNL A   1      38.037  29.850  28.376  1.00  0.00     0.010 A 
ATOM     13  C   UNL A   1      38.386  30.156  29.701  1.00  0.00    -0.014 A 
BRANCH  13  14
ATOM     14  C   UNL A   1      39.400  29.407  30.474  1.00  0.00     0.031 A 
ATOM     15  C   UNL A   1      39.488  27.956  30.101  1.00  0.00     0.074 A 
ATOM     16  C   UNL A   1      40.519  30.012  30.931  1.00  0.00     0.049 A 
ATOM     17  N   UNL A   1      40.132  27.526  29.054  1.00  0.00    -0.248 NA
ATOM     18  C   UNL A   1      38.624  26.944  30.709  1.00  0.00     0.031 C 
ATOM     19  C   UNL A   1      41.258  31.043  30.196  1.00  0.00     0.029 A 
ATOM     20  N   UNL A   1      41.327  29.724  32.012  1.00  0.00    -0.354 N 
ATOM     21  C   UNL A   1      39.740  26.216  28.832  1.00  0.00     0.074 A 
ATOM     22  C   UNL A   1      38.807  25.896  29.887  1.00  0.00     0.031 C 
ATOM     23  C   UNL A   1      42.477  31.183  30.754  1.00  0.00     0.029 A 
ATOM     24  C   UNL A   1      42.574  30.349  31.955  1.00  0.00     0.049 A 
ATOM     25  H   UNL A   1      41.052  29.136  32.752  1.00  0.00     0.167 HD
ATOM     26  C   UNL A   1      40.212  25.483  27.788  1.00  0.00     0.037 A 
ATOM     27  C   UNL A   1      43.738  29.772  32.371  1.00  0.00     0.037 A 
ATOM     28  C   UNL A   1      41.170  26.155  26.961  1.00  0.00     0.049 A 
ATOM     29  C   UNL A   1      43.980  28.748  31.297  1.00  0.00     0.074 A 
ATOM     30  C   UNL A   1      41.191  26.832  25.763  1.00  0.00     0.029 A 
ATOM     31  N   UNL A   1      42.461  26.221  27.426  1.00  0.00    -0.354 N 
ATOM     32  N   UNL A   1      44.471  29.002  30.114  1.00  0.00    -0.248 NA
ATOM     33  C   UNL A   1      43.296  27.460  31.410  1.00  0.00     0.031 C 
ATOM     34  C   UNL A   1      42.362  27.652  25.814  1.00  0.00     0.029 A 
ATOM     35  C   UNL A   1      42.957  27.442  27.057  1.00  0.00     0.049 A 
ATOM     36  H   UNL A   1      42.939  25.523  27.931  1.00  0.00     0.167 HD
ATOM     37  C   UNL A   1      43.902  28.051  29.266  1.00  0.00     0.074 A 
ATOM     38  C   UNL A   1      43.230  27.103  30.133  1.00  0.00     0.031 C 
ATOM     39  C   UNL A   1      43.833  28.208  27.911  1.00  0.00     0.037 A 
BRANCH  26  40
ATOM     40  C   UNL A   1      39.977  24.046  27.535  1.00  0.00     0.057 A 
ATOM     41  C   UNL A   1      39.027  23.580  26.627  1.00  0.00     0.134 A 
ATOM     42  C   UNL A   1      40.949  23.141  27.985  1.00  0.00     0.134 A 
ATOM     43  F   UNL A   1      38.081  24.400  26.143  1.00  0.00    -0.206 F 
ATOM     44  C   UNL A   1      39.080  22.268  26.141  1.00  0.00     0.040 A 
ATOM     45  C   UNL A   1      41.024  21.840  27.497  1.00  0.00     0.040 A 
ATOM     46  F   UNL A   1      41.892  23.544  28.855  1.00  0.00    -0.206 F 
ATOM     47  C   UNL A   1      40.096  21.404  26.557  1.00  0.00     0.006 A 
ENDBRANCH  26  40
BRANCH  27  48
ATOM     48  C   UNL A   1      43.900  29.528  33.832  1.00  0.00     0.057 A 
ATOM     49  C   UNL A   1      43.140  28.660  34.627  1.00  0.00     0.134 A 
ATOM     50  C   UNL A   1      44.939  30.207  34.498  1.00  0.00     0.134 A 
ATOM     51  F   UNL A   1      42.209  27.858  34.096  1.00  0.00    -0.206 F 
ATOM     52  C   UNL A   1      43.309  28.579  36.015  1.00  0.00     0.040 A 
ATOM     53  C   UNL A   1      45.137  30.118  35.879  1.00  0.00     0.040 A 
ATOM     54  F   UNL A   1      45.800  30.971  33.807  1.00  0.00    -0.206 F 
ATOM     55  C   UNL A   1      44.298  29.324  36.649  1.00  0.00     0.006 A 
ENDBRANCH  27  48
BRANCH  39  56
ATOM     56  C   UNL A   1      44.505  29.427  27.381  1.00  0.00     0.057 A 
ATOM     57  C   UNL A   1      43.798  30.619  27.158  1.00  0.00     0.134 A 
ATOM     58  C   UNL A   1      45.872  29.423  27.092  1.00  0.00     0.134 A 
ATOM     59  F   UNL A   1      42.487  30.708  27.435  1.00  0.00    -0.206 F 
ATOM     60  C   UNL A   1      44.422  31.750  26.633  1.00  0.00     0.040 A 
ATOM     61  C   UNL A   1      46.512  30.558  26.594  1.00  0.00     0.040 A 
ATOM     62  F   UNL A   1      46.604  28.313  27.276  1.00  0.00    -0.206 F 
ATOM     63  C   UNL A   1      45.785  31.723  26.353  1.00  0.00     0.006 A 
ENDBRANCH  39  56
ENDBRANCH  13  14
ENDBRANCH   6   8
ENDBRANCH   3   4
ENDBRANCH   2   3
ENDBRANCH   1   2
BRANCH   1  64
ATOM     64  C   UNL A   1      31.847  29.361  24.198  1.00  0.00     0.116 C 
BRANCH  64  65
ATOM     65  N   UNL A   1      30.806  28.366  24.384  1.00  0.00    -0.356 N 
ATOM     66  C   UNL A   1      30.726  27.079  23.947  1.00  0.00     0.223 C 
ATOM     67  H   UNL A   1      30.033  28.672  24.911  1.00  0.00     0.163 HD
ATOM     68  O   UNL A   1      29.667  26.480  24.132  1.00  0.00    -0.275 OA
BRANCH  66  69
ATOM     69  C   UNL A   1      31.934  26.418  23.284  1.00  0.00     0.081 C 
ATOM     70  C   UNL A   1      31.598  25.045  22.691  1.00  0.00     0.030 C 
ATOM     71  C   UNL A   1      33.092  26.258  24.268  1.00  0.00     0.030 C 
ATOM     72  C   UNL A   1      31.369  23.964  23.748  1.00  0.00     0.103 C 
ATOM     73  C   UNL A   1      32.794  25.209  25.335  1.00  0.00     0.103 C 
ATOM     74  N   UNL A   1      32.512  23.879  24.724  1.00  0.00    -0.198 NA
BRANCH  74  75
ATOM     75  S   UNL A   1      32.185  22.625  25.884  1.00  0.00     0.243 S 
ATOM     76  O   UNL A   1      32.781  23.018  27.141  1.00  0.00    -0.207 OA
ATOM     77  O   UNL A   1      30.769  22.320  25.798  1.00  0.00    -0.207 OA
BRANCH  75  78
ATOM     78  C   UNL A   1      33.068  21.179  25.321  1.00  0.00     0.084 A 
ATOM     79  C   UNL A   1      34.434  21.274  25.045  1.00  0.00     0.024 A 
ATOM     80  C   UNL A   1      32.423  19.932  25.345  1.00  0.00     0.043 A 
ATOM     81  C   UNL A   1      35.173  20.133  24.720  1.00  0.00     0.031 A 
ATOM     82  C   UNL A   1      33.197  18.788  25.075  1.00  0.00     0.059 A 
ATOM     83  C   UNL A   1      34.557  18.867  24.753  1.00  0.00     0.085 A 
ATOM     84  S   UNL A   1      32.733  17.126  25.099  1.00  0.00    -0.077 S 
ATOM     85  N   UNL A   1      35.187  17.656  24.520  1.00  0.00    -0.203 NA
ATOM     86  C   UNL A   1      34.324  16.693  24.695  1.00  0.00     0.271 A 
BRANCH  86  87
ATOM     87  O   UNL A   1      34.722  15.443  24.560  1.00  0.00    -0.486 OA
ATOM     88  H   UNL A   1      35.349  15.084  25.157  1.00  0.00     0.296 HD
ENDBRANCH  86  87
ENDBRANCH  75  78
ENDBRANCH  74  75
ENDBRANCH  66  69
ENDBRANCH  64  65
ENDBRANCH   1  64
TORSDOF 14
ENDMDL
