MODEL 1
REMARK VINA RESULT:     -12.7      0.000      0.000
REMARK SMILES O=C(NCCCCNC(=O)[C@@H](c1cccc(O)c1)[NH+]1CC[NH+](C2CCCC2)CC1)c1ccc(-c2c3nc(c(-c4c(F)cccc4F)c4ccc([nH]4)c(-c4c(F)cccc4F)c4nc(c(-c5c(F)cccc5F)c5ccc2[nH]5)C=C4)C=C3)cc1
REMARK SMILES IDX 5 1 4 2 3 3 1 4 2 5 30 7 31 8 83 9 32 10 82 11 33 12 34 13
REMARK SMILES IDX 35 14 76 15 36 16 81 17 75 18 77 19 37 20 80 21 74 22 73 23
REMARK SMILES IDX 38 25 64 26 47 27 63 28 48 29 51 30 62 31 78 32 49 33 50 34
REMARK SMILES IDX 61 36 79 37 52 38 39 39 40 40 45 41 41 42 42 43 44 44 46 45
REMARK SMILES IDX 43 46 65 47 66 48 71 49 67 50 68 51 70 52 72 53 69 54 53 55
REMARK SMILES IDX 54 56 59 57 55 58 56 59 58 60 60 61 57 62 6 63 7 64 8 65
REMARK SMILES IDX 9 66 10 68 11 69 12 70 13 71 18 72 14 73 16 74 15 75 17 76
REMARK SMILES IDX 19 78 20 79 29 80 21 82 28 83 22 84 23 86 24 87 27 88 25 89
REMARK SMILES IDX 26 90
REMARK H PARENT 3 6 77 24 51 35 8 67 17 77 19 81 22 85
REMARK Flexibility Score: inf
ROOT
ATOM      1  C   UNL A   1      37.823  19.928  24.991  1.00  0.00     0.023 C 
ENDROOT
BRANCH   1   2
ATOM      2  C   UNL A   1      39.023  20.251  25.861  1.00  0.00     0.116 C 
BRANCH   2   3
ATOM      3  N   UNL A   1      40.034  19.202  25.834  1.00  0.00    -0.352 N 
ATOM      4  O   UNL A   1      42.136  18.366  25.775  1.00  0.00    -0.269 OA
ATOM      5  C   UNL A   1      41.399  19.319  25.979  1.00  0.00     0.251 C 
ATOM      6  H   UNL A   1      39.697  18.288  25.695  1.00  0.00     0.163 HD
BRANCH   5   7
ATOM      7  C   UNL A   1      41.958  20.631  26.363  1.00  0.00     0.039 A 
ATOM      8  C   UNL A   1      42.150  20.933  27.711  1.00  0.00     0.014 A 
ATOM      9  C   UNL A   1      42.244  21.579  25.376  1.00  0.00     0.014 A 
ATOM     10  C   UNL A   1      42.453  22.232  28.082  1.00  0.00     0.010 A 
ATOM     11  C   UNL A   1      42.664  22.858  25.750  1.00  0.00     0.010 A 
ATOM     12  C   UNL A   1      42.741  23.204  27.107  1.00  0.00    -0.014 A 
BRANCH  12  13
ATOM     13  C   UNL A   1      43.195  24.539  27.568  1.00  0.00     0.031 A 
ATOM     14  C   UNL A   1      44.631  24.965  27.470  1.00  0.00     0.074 A 
ATOM     15  C   UNL A   1      42.257  25.400  28.006  1.00  0.00     0.049 A 
ATOM     16  N   UNL A   1      45.160  26.128  27.754  1.00  0.00    -0.248 NA
ATOM     17  C   UNL A   1      45.603  23.964  27.003  1.00  0.00     0.031 C 
ATOM     18  C   UNL A   1      40.833  25.082  28.165  1.00  0.00     0.029 A 
ATOM     19  N   UNL A   1      42.338  26.722  28.352  1.00  0.00    -0.354 N 
ATOM     20  C   UNL A   1      46.523  25.998  27.520  1.00  0.00     0.074 A 
ATOM     21  C   UNL A   1      46.745  24.633  27.090  1.00  0.00     0.031 C 
ATOM     22  C   UNL A   1      40.166  26.194  28.495  1.00  0.00     0.029 A 
ATOM     23  C   UNL A   1      41.119  27.286  28.644  1.00  0.00     0.049 A 
ATOM     24  H   UNL A   1      43.187  27.220  28.388  1.00  0.00     0.167 HD
ATOM     25  C   UNL A   1      47.494  26.934  27.648  1.00  0.00     0.037 A 
ATOM     26  C   UNL A   1      40.801  28.542  28.999  1.00  0.00     0.037 A 
ATOM     27  C   UNL A   1      47.260  28.295  28.062  1.00  0.00     0.049 A 
ATOM     28  C   UNL A   1      41.895  29.560  29.109  1.00  0.00     0.074 A 
ATOM     29  C   UNL A   1      48.177  29.320  28.221  1.00  0.00     0.029 A 
ATOM     30  N   UNL A   1      46.015  28.823  28.376  1.00  0.00    -0.354 N 
ATOM     31  N   UNL A   1      43.178  29.417  28.883  1.00  0.00    -0.248 NA
ATOM     32  C   UNL A   1      41.500  30.909  29.531  1.00  0.00     0.031 C 
ATOM     33  C   UNL A   1      47.491  30.459  28.659  1.00  0.00     0.029 A 
ATOM     34  C   UNL A   1      46.143  30.155  28.736  1.00  0.00     0.049 A 
ATOM     35  H   UNL A   1      45.167  28.324  28.348  1.00  0.00     0.167 HD
ATOM     36  C   UNL A   1      43.746  30.655  29.143  1.00  0.00     0.074 A 
ATOM     37  C   UNL A   1      42.661  31.546  29.502  1.00  0.00     0.031 C 
ATOM     38  C   UNL A   1      45.051  31.018  29.103  1.00  0.00     0.037 A 
BRANCH  25  39
ATOM     39  C   UNL A   1      48.904  26.523  27.343  1.00  0.00     0.057 A 
ATOM     40  C   UNL A   1      49.753  26.010  28.332  1.00  0.00     0.134 A 
ATOM     41  C   UNL A   1      49.401  26.581  26.034  1.00  0.00     0.134 A 
ATOM     42  F   UNL A   1      49.344  25.938  29.608  1.00  0.00    -0.206 F 
ATOM     43  C   UNL A   1      51.048  25.580  28.032  1.00  0.00     0.040 A 
ATOM     44  C   UNL A   1      50.685  26.135  25.718  1.00  0.00     0.040 A 
ATOM     45  F   UNL A   1      48.638  27.056  25.038  1.00  0.00    -0.206 F 
ATOM     46  C   UNL A   1      51.514  25.634  26.721  1.00  0.00     0.006 A 
ENDBRANCH  25  39
BRANCH  26  47
ATOM     47  C   UNL A   1      39.388  28.891  29.285  1.00  0.00     0.057 A 
ATOM     48  C   UNL A   1      38.551  29.408  28.292  1.00  0.00     0.134 A 
ATOM     49  C   UNL A   1      38.838  28.692  30.558  1.00  0.00     0.134 A 
ATOM     50  F   UNL A   1      39.024  29.634  27.057  1.00  0.00    -0.206 F 
ATOM     51  C   UNL A   1      37.219  29.728  28.557  1.00  0.00     0.040 A 
ATOM     52  C   UNL A   1      37.502  28.980  30.829  1.00  0.00     0.040 A 
ATOM     53  F   UNL A   1      39.589  28.187  31.548  1.00  0.00    -0.206 F 
ATOM     54  C   UNL A   1      36.689  29.507  29.827  1.00  0.00     0.006 A 
ENDBRANCH  26  47
BRANCH  38  55
ATOM     55  C   UNL A   1      45.358  32.439  29.465  1.00  0.00     0.057 A 
ATOM     56  C   UNL A   1      45.353  33.457  28.502  1.00  0.00     0.134 A 
ATOM     57  C   UNL A   1      45.670  32.791  30.783  1.00  0.00     0.134 A 
ATOM     58  F   UNL A   1      45.078  33.178  27.219  1.00  0.00    -0.206 F 
ATOM     59  C   UNL A   1      45.676  34.773  28.833  1.00  0.00     0.040 A 
ATOM     60  C   UNL A   1      45.973  34.108  31.130  1.00  0.00     0.040 A 
ATOM     61  F   UNL A   1      45.688  31.863  31.751  1.00  0.00    -0.206 F 
ATOM     62  C   UNL A   1      45.985  35.101  30.152  1.00  0.00     0.006 A 
ENDBRANCH  38  55
ENDBRANCH  12  13
ENDBRANCH   5   7
ENDBRANCH   2   3
ENDBRANCH   1   2
BRANCH   1  63
ATOM     63  C   UNL A   1      37.062  21.157  24.520  1.00  0.00     0.023 C 
BRANCH  63  64
ATOM     64  C   UNL A   1      36.657  22.126  25.629  1.00  0.00     0.116 C 
BRANCH  64  65
ATOM     65  N   UNL A   1      35.606  21.614  26.498  1.00  0.00    -0.351 N 
ATOM     66  C   UNL A   1      34.363  21.125  26.151  1.00  0.00     0.283 C 
ATOM     67  H   UNL A   1      35.809  21.617  27.462  1.00  0.00     0.163 HD
ATOM     68  O   UNL A   1      33.633  20.703  27.054  1.00  0.00    -0.268 OA
BRANCH  66  69
ATOM     69  C   UNL A   1      33.907  21.104  24.639  1.00  0.00     0.306 C 
BRANCH  69  70
ATOM     70  C   UNL A   1      33.740  19.612  24.201  1.00  0.00     0.023 A 
ATOM     71  C   UNL A   1      34.522  18.558  24.694  1.00  0.00     0.011 A 
ATOM     72  C   UNL A   1      32.721  19.225  23.299  1.00  0.00     0.056 A 
ATOM     73  C   UNL A   1      34.458  17.264  24.151  1.00  0.00     0.004 A 
ATOM     74  C   UNL A   1      32.649  17.939  22.762  1.00  0.00     0.116 A 
ATOM     75  C   UNL A   1      33.542  16.958  23.153  1.00  0.00     0.046 A 
BRANCH  74  76
ATOM     76  O   UNL A   1      31.698  17.703  21.814  1.00  0.00    -0.508 OA
ATOM     77  H   UNL A   1      30.986  17.122  21.998  1.00  0.00     0.293 HD
ENDBRANCH  74  76
ENDBRANCH  69  70
BRANCH  69  78
ATOM     78  N   UNL A   1      32.704  22.014  24.535  1.00  0.00    -0.312 N 
ATOM     79  C   UNL A   1      32.802  23.246  25.380  1.00  0.00     0.325 C 
ATOM     80  C   UNL A   1      32.275  22.422  23.191  1.00  0.00     0.325 C 
ATOM     81  H   UNL A   1      31.987  21.383  24.890  1.00  0.00     0.349 HD
ATOM     82  C   UNL A   1      33.384  24.539  24.739  1.00  0.00     0.324 C 
ATOM     83  C   UNL A   1      33.103  23.562  22.583  1.00  0.00     0.324 C 
ATOM     84  N   UNL A   1      32.985  24.808  23.348  1.00  0.00    -0.323 N 
ATOM     85  H   UNL A   1      33.634  25.474  22.928  1.00  0.00     0.348 HD
BRANCH  84  86
ATOM     86  C   UNL A   1      31.741  25.580  23.196  1.00  0.00     0.184 C 
ATOM     87  C   UNL A   1      31.300  26.411  24.412  1.00  0.00     0.065 C 
ATOM     88  C   UNL A   1      31.538  26.540  22.001  1.00  0.00     0.065 C 
ATOM     89  C   UNL A   1      30.153  27.249  23.868  1.00  0.00     0.006 C 
ATOM     90  C   UNL A   1      30.662  27.688  22.507  1.00  0.00     0.006 C 
ENDBRANCH  84  86
ENDBRANCH  69  78
ENDBRANCH  66  69
ENDBRANCH  64  65
ENDBRANCH  63  64
ENDBRANCH   1  63
TORSDOF 15
ENDMDL
MODEL 2
REMARK VINA RESULT:     -12.5      5.220     10.393
REMARK SMILES O=C(NCCCCNC(=O)[C@@H](c1cccc(O)c1)[NH+]1CC[NH+](C2CCCC2)CC1)c1ccc(-c2c3nc(c(-c4c(F)cccc4F)c4ccc([nH]4)c(-c4c(F)cccc4F)c4nc(c(-c5c(F)cccc5F)c5ccc2[nH]5)C=C4)C=C3)cc1
REMARK SMILES IDX 5 1 4 2 3 3 1 4 2 5 30 7 31 8 83 9 32 10 82 11 33 12 34 13
REMARK SMILES IDX 35 14 76 15 36 16 81 17 75 18 77 19 37 20 80 21 74 22 73 23
REMARK SMILES IDX 38 25 64 26 47 27 63 28 48 29 51 30 62 31 78 32 49 33 50 34
REMARK SMILES IDX 61 36 79 37 52 38 39 39 40 40 45 41 41 42 42 43 44 44 46 45
REMARK SMILES IDX 43 46 65 47 66 48 71 49 67 50 68 51 70 52 72 53 69 54 53 55
REMARK SMILES IDX 54 56 59 57 55 58 56 59 58 60 60 61 57 62 6 63 7 64 8 65
REMARK SMILES IDX 9 66 10 68 11 69 12 70 13 71 18 72 14 73 16 74 15 75 17 76
REMARK SMILES IDX 19 78 20 79 29 80 21 82 28 83 22 84 23 86 24 87 27 88 25 89
REMARK SMILES IDX 26 90
REMARK H PARENT 3 6 77 24 51 35 8 67 17 77 19 81 22 85
REMARK Flexibility Score: inf
ROOT
ATOM      1  C   UNL A   1      31.373  31.900  27.006  1.00  0.00     0.023 C 
ENDROOT
BRANCH   1   2
ATOM      2  C   UNL A   1      32.636  32.703  27.254  1.00  0.00     0.116 C 
BRANCH   2   3
ATOM      3  N   UNL A   1      32.360  34.091  27.601  1.00  0.00    -0.352 N 
ATOM      4  O   UNL A   1      32.528  35.980  28.836  1.00  0.00    -0.269 OA
ATOM      5  C   UNL A   1      32.975  34.879  28.548  1.00  0.00     0.251 C 
ATOM      6  H   UNL A   1      31.638  34.523  27.091  1.00  0.00     0.163 HD
BRANCH   5   7
ATOM      7  C   UNL A   1      34.177  34.357  29.230  1.00  0.00     0.039 A 
ATOM      8  C   UNL A   1      35.438  34.583  28.679  1.00  0.00     0.014 A 
ATOM      9  C   UNL A   1      34.037  33.596  30.394  1.00  0.00     0.014 A 
ATOM     10  C   UNL A   1      36.534  33.905  29.184  1.00  0.00     0.010 A 
ATOM     11  C   UNL A   1      35.166  33.007  30.972  1.00  0.00     0.010 A 
ATOM     12  C   UNL A   1      36.418  33.132  30.353  1.00  0.00    -0.014 A 
BRANCH  12  13
ATOM     13  C   UNL A   1      37.655  32.545  30.924  1.00  0.00     0.031 A 
ATOM     14  C   UNL A   1      38.226  33.015  32.231  1.00  0.00     0.074 A 
ATOM     15  C   UNL A   1      38.213  31.507  30.271  1.00  0.00     0.049 A 
ATOM     16  N   UNL A   1      39.250  32.541  32.894  1.00  0.00    -0.248 NA
ATOM     17  C   UNL A   1      37.576  34.167  32.875  1.00  0.00     0.031 C 
ATOM     18  C   UNL A   1      37.753  30.983  28.980  1.00  0.00     0.029 A 
ATOM     19  N   UNL A   1      39.247  30.677  30.613  1.00  0.00    -0.354 N 
ATOM     20  C   UNL A   1      39.382  33.342  34.021  1.00  0.00     0.074 A 
ATOM     21  C   UNL A   1      38.344  34.348  33.943  1.00  0.00     0.031 C 
ATOM     22  C   UNL A   1      38.445  29.877  28.681  1.00  0.00     0.029 A 
ATOM     23  C   UNL A   1      39.444  29.654  29.717  1.00  0.00     0.049 A 
ATOM     24  H   UNL A   1      39.796  30.803  31.420  1.00  0.00     0.167 HD
ATOM     25  C   UNL A   1      40.282  33.238  35.028  1.00  0.00     0.037 A 
ATOM     26  C   UNL A   1      40.335  28.648  29.724  1.00  0.00     0.037 A 
ATOM     27  C   UNL A   1      41.302  32.222  35.104  1.00  0.00     0.049 A 
ATOM     28  C   UNL A   1      41.303  28.548  30.863  1.00  0.00     0.074 A 
ATOM     29  C   UNL A   1      42.262  32.033  36.084  1.00  0.00     0.029 A 
ATOM     30  N   UNL A   1      41.489  31.218  34.165  1.00  0.00    -0.354 N 
ATOM     31  N   UNL A   1      41.411  29.316  31.921  1.00  0.00    -0.248 NA
ATOM     32  C   UNL A   1      42.276  27.452  30.807  1.00  0.00     0.031 C 
ATOM     33  C   UNL A   1      43.047  30.931  35.723  1.00  0.00     0.029 A 
ATOM     34  C   UNL A   1      42.553  30.412  34.538  1.00  0.00     0.049 A 
ATOM     35  H   UNL A   1      40.946  31.096  33.352  1.00  0.00     0.167 HD
ATOM     36  C   UNL A   1      42.469  28.800  32.653  1.00  0.00     0.074 A 
ATOM     37  C   UNL A   1      42.941  27.629  31.939  1.00  0.00     0.031 C 
ATOM     38  C   UNL A   1      43.013  29.261  33.805  1.00  0.00     0.037 A 
BRANCH  25  39
ATOM     39  C   UNL A   1      40.215  34.253  36.130  1.00  0.00     0.057 A 
ATOM     40  C   UNL A   1      40.900  35.473  36.054  1.00  0.00     0.134 A 
ATOM     41  C   UNL A   1      39.407  34.037  37.255  1.00  0.00     0.134 A 
ATOM     42  F   UNL A   1      41.701  35.738  35.010  1.00  0.00    -0.206 F 
ATOM     43  C   UNL A   1      40.792  36.436  37.060  1.00  0.00     0.040 A 
ATOM     44  C   UNL A   1      39.275  35.001  38.257  1.00  0.00     0.040 A 
ATOM     45  F   UNL A   1      38.719  32.894  37.388  1.00  0.00    -0.206 F 
ATOM     46  C   UNL A   1      39.971  36.204  38.161  1.00  0.00     0.006 A 
ENDBRANCH  25  39
BRANCH  26  47
ATOM     47  C   UNL A   1      40.352  27.672  28.607  1.00  0.00     0.057 A 
ATOM     48  C   UNL A   1      41.103  27.904  27.451  1.00  0.00     0.134 A 
ATOM     49  C   UNL A   1      39.631  26.473  28.683  1.00  0.00     0.134 A 
ATOM     50  F   UNL A   1      41.802  29.040  27.314  1.00  0.00    -0.206 F 
ATOM     51  C   UNL A   1      41.127  26.983  26.402  1.00  0.00     0.040 A 
ATOM     52  C   UNL A   1      39.670  25.532  27.656  1.00  0.00     0.040 A 
ATOM     53  F   UNL A   1      38.902  26.190  29.772  1.00  0.00    -0.206 F 
ATOM     54  C   UNL A   1      40.415  25.790  26.507  1.00  0.00     0.006 A 
ENDBRANCH  26  47
BRANCH  38  55
ATOM     55  C   UNL A   1      44.179  28.493  34.347  1.00  0.00     0.057 A 
ATOM     56  C   UNL A   1      45.497  28.824  34.006  1.00  0.00     0.134 A 
ATOM     57  C   UNL A   1      43.983  27.408  35.209  1.00  0.00     0.134 A 
ATOM     58  F   UNL A   1      45.747  29.843  33.169  1.00  0.00    -0.206 F 
ATOM     59  C   UNL A   1      46.579  28.084  34.481  1.00  0.00     0.040 A 
ATOM     60  C   UNL A   1      45.059  26.675  35.709  1.00  0.00     0.040 A 
ATOM     61  F   UNL A   1      42.746  27.043  35.577  1.00  0.00    -0.206 F 
ATOM     62  C   UNL A   1      46.362  27.006  35.337  1.00  0.00     0.006 A 
ENDBRANCH  38  55
ENDBRANCH  12  13
ENDBRANCH   5   7
ENDBRANCH   2   3
ENDBRANCH   1   2
BRANCH   1  63
ATOM     63  C   UNL A   1      31.433  31.037  25.757  1.00  0.00     0.023 C 
BRANCH  63  64
ATOM     64  C   UNL A   1      32.519  29.962  25.770  1.00  0.00     0.116 C 
BRANCH  64  65
ATOM     65  N   UNL A   1      33.103  29.704  24.460  1.00  0.00    -0.351 N 
ATOM     66  C   UNL A   1      32.653  28.857  23.468  1.00  0.00     0.283 C 
ATOM     67  H   UNL A   1      33.928  30.200  24.255  1.00  0.00     0.163 HD
ATOM     68  O   UNL A   1      33.286  28.817  22.408  1.00  0.00    -0.268 OA
BRANCH  66  69
ATOM     69  C   UNL A   1      31.358  27.979  23.693  1.00  0.00     0.306 C 
BRANCH  69  70
ATOM     70  C   UNL A   1      30.156  28.697  22.999  1.00  0.00     0.023 A 
ATOM     71  C   UNL A   1      30.294  29.745  22.078  1.00  0.00     0.011 A 
ATOM     72  C   UNL A   1      28.824  28.276  23.224  1.00  0.00     0.056 A 
ATOM     73  C   UNL A   1      29.190  30.477  21.608  1.00  0.00     0.004 A 
ATOM     74  C   UNL A   1      27.724  28.995  22.755  1.00  0.00     0.116 A 
ATOM     75  C   UNL A   1      27.898  30.124  21.976  1.00  0.00     0.046 A 
BRANCH  74  76
ATOM     76  O   UNL A   1      26.484  28.566  23.126  1.00  0.00    -0.508 OA
ATOM     77  H   UNL A   1      25.844  28.361  22.474  1.00  0.00     0.293 HD
ENDBRANCH  74  76
ENDBRANCH  69  70
BRANCH  69  78
ATOM     78  N   UNL A   1      31.702  26.576  23.249  1.00  0.00    -0.312 N 
ATOM     79  C   UNL A   1      33.027  26.089  23.748  1.00  0.00     0.325 C 
ATOM     80  C   UNL A   1      30.711  25.522  23.498  1.00  0.00     0.325 C 
ATOM     81  H   UNL A   1      31.724  26.721  22.240  1.00  0.00     0.349 HD
ATOM     82  C   UNL A   1      33.066  25.289  25.082  1.00  0.00     0.324 C 
ATOM     83  C   UNL A   1      30.706  24.989  24.938  1.00  0.00     0.324 C 
ATOM     84  N   UNL A   1      31.968  24.333  25.296  1.00  0.00    -0.323 N 
ATOM     85  H   UNL A   1      31.907  24.096  26.286  1.00  0.00     0.348 HD
BRANCH  84  86
ATOM     86  C   UNL A   1      32.204  22.983  24.757  1.00  0.00     0.184 C 
ATOM     87  C   UNL A   1      33.674  22.564  24.586  1.00  0.00     0.065 C 
ATOM     88  C   UNL A   1      31.539  21.741  25.394  1.00  0.00     0.065 C 
ATOM     89  C   UNL A   1      33.580  21.083  24.251  1.00  0.00     0.006 C 
ATOM     90  C   UNL A   1      32.517  20.578  25.210  1.00  0.00     0.006 C 
ENDBRANCH  84  86
ENDBRANCH  69  78
ENDBRANCH  66  69
ENDBRANCH  64  65
ENDBRANCH  63  64
ENDBRANCH   1  63
TORSDOF 15
ENDMDL
MODEL 3
REMARK VINA RESULT:     -12.5      1.479      2.359
REMARK SMILES O=C(NCCCCNC(=O)[C@@H](c1cccc(O)c1)[NH+]1CC[NH+](C2CCCC2)CC1)c1ccc(-c2c3nc(c(-c4c(F)cccc4F)c4ccc([nH]4)c(-c4c(F)cccc4F)c4nc(c(-c5c(F)cccc5F)c5ccc2[nH]5)C=C4)C=C3)cc1
REMARK SMILES IDX 5 1 4 2 3 3 1 4 2 5 30 7 31 8 83 9 32 10 82 11 33 12 34 13
REMARK SMILES IDX 35 14 76 15 36 16 81 17 75 18 77 19 37 20 80 21 74 22 73 23
REMARK SMILES IDX 38 25 64 26 47 27 63 28 48 29 51 30 62 31 78 32 49 33 50 34
REMARK SMILES IDX 61 36 79 37 52 38 39 39 40 40 45 41 41 42 42 43 44 44 46 45
REMARK SMILES IDX 43 46 65 47 66 48 71 49 67 50 68 51 70 52 72 53 69 54 53 55
REMARK SMILES IDX 54 56 59 57 55 58 56 59 58 60 60 61 57 62 6 63 7 64 8 65
REMARK SMILES IDX 9 66 10 68 11 69 12 70 13 71 18 72 14 73 16 74 15 75 17 76
REMARK SMILES IDX 19 78 20 79 29 80 21 82 28 83 22 84 23 86 24 87 27 88 25 89
REMARK SMILES IDX 26 90
REMARK H PARENT 3 6 77 24 51 35 8 67 17 77 19 81 22 85
REMARK Flexibility Score: inf
ROOT
ATOM      1  C   UNL A   1      37.751  19.991  24.991  1.00  0.00     0.023 C 
ENDROOT
BRANCH   1   2
ATOM      2  C   UNL A   1      38.988  20.435  25.748  1.00  0.00     0.116 C 
BRANCH   2   3
ATOM      3  N   UNL A   1      40.033  19.420  25.763  1.00  0.00    -0.352 N 
ATOM      4  O   UNL A   1      42.157  18.649  25.887  1.00  0.00    -0.269 OA
ATOM      5  C   UNL A   1      41.367  19.563  26.074  1.00  0.00     0.251 C 
ATOM      6  H   UNL A   1      39.748  18.510  25.518  1.00  0.00     0.163 HD
BRANCH   5   7
ATOM      7  C   UNL A   1      41.831  20.856  26.616  1.00  0.00     0.039 A 
ATOM      8  C   UNL A   1      41.808  21.076  27.993  1.00  0.00     0.014 A 
ATOM      9  C   UNL A   1      42.241  21.867  25.742  1.00  0.00     0.014 A 
ATOM     10  C   UNL A   1      42.021  22.354  28.482  1.00  0.00     0.010 A 
ATOM     11  C   UNL A   1      42.570  23.126  26.252  1.00  0.00     0.010 A 
ATOM     12  C   UNL A   1      42.431  23.388  27.623  1.00  0.00    -0.014 A 
BRANCH  12  13
ATOM     13  C   UNL A   1      42.779  24.698  28.227  1.00  0.00     0.031 A 
ATOM     14  C   UNL A   1      44.201  25.089  28.508  1.00  0.00     0.074 A 
ATOM     15  C   UNL A   1      41.776  25.572  28.442  1.00  0.00     0.049 A 
ATOM     16  N   UNL A   1      44.662  26.230  28.953  1.00  0.00    -0.248 NA
ATOM     17  C   UNL A   1      45.240  24.076  28.268  1.00  0.00     0.031 C 
ATOM     18  C   UNL A   1      40.353  25.286  28.226  1.00  0.00     0.029 A 
ATOM     19  N   UNL A   1      41.792  26.882  28.840  1.00  0.00    -0.354 N 
ATOM     20  C   UNL A   1      46.037  26.071  29.066  1.00  0.00     0.074 A 
ATOM     21  C   UNL A   1      46.336  24.713  28.661  1.00  0.00     0.031 C 
ATOM     22  C   UNL A   1      39.645  26.406  28.414  1.00  0.00     0.029 A 
ATOM     23  C   UNL A   1      40.550  27.468  28.833  1.00  0.00     0.049 A 
ATOM     24  H   UNL A   1      42.613  27.356  29.105  1.00  0.00     0.167 HD
ATOM     25  C   UNL A   1      46.961  26.977  29.464  1.00  0.00     0.037 A 
ATOM     26  C   UNL A   1      40.175  28.723  29.137  1.00  0.00     0.037 A 
ATOM     27  C   UNL A   1      46.655  28.332  29.850  1.00  0.00     0.049 A 
ATOM     28  C   UNL A   1      41.224  29.709  29.552  1.00  0.00     0.074 A 
ATOM     29  C   UNL A   1      47.522  29.328  30.268  1.00  0.00     0.029 A 
ATOM     30  N   UNL A   1      45.382  28.884  29.857  1.00  0.00    -0.354 N 
ATOM     31  N   UNL A   1      42.520  29.538  29.652  1.00  0.00    -0.248 NA
ATOM     32  C   UNL A   1      40.761  31.055  29.905  1.00  0.00     0.031 C 
ATOM     33  C   UNL A   1      46.769  30.473  30.556  1.00  0.00     0.029 A 
ATOM     34  C   UNL A   1      45.439  30.202  30.281  1.00  0.00     0.049 A 
ATOM     35  H   UNL A   1      44.559  28.408  29.600  1.00  0.00     0.167 HD
ATOM     36  C   UNL A   1      43.027  30.754  30.087  1.00  0.00     0.074 A 
ATOM     37  C   UNL A   1      41.903  31.663  30.190  1.00  0.00     0.031 C 
ATOM     38  C   UNL A   1      44.306  31.084  30.389  1.00  0.00     0.037 A 
BRANCH  25  39
ATOM     39  C   UNL A   1      48.395  26.538  29.512  1.00  0.00     0.057 A 
ATOM     40  C   UNL A   1      49.281  26.794  28.458  1.00  0.00     0.134 A 
ATOM     41  C   UNL A   1      48.913  25.906  30.651  1.00  0.00     0.134 A 
ATOM     42  F   UNL A   1      48.848  27.385  27.334  1.00  0.00    -0.206 F 
ATOM     43  C   UNL A   1      50.628  26.428  28.530  1.00  0.00     0.040 A 
ATOM     44  C   UNL A   1      50.261  25.555  30.743  1.00  0.00     0.040 A 
ATOM     45  F   UNL A   1      48.120  25.637  31.698  1.00  0.00    -0.206 F 
ATOM     46  C   UNL A   1      51.122  25.815  29.679  1.00  0.00     0.006 A 
ENDBRANCH  25  39
BRANCH  26  47
ATOM     47  C   UNL A   1      38.743  29.100  29.069  1.00  0.00     0.057 A 
ATOM     48  C   UNL A   1      37.916  29.022  30.193  1.00  0.00     0.134 A 
ATOM     49  C   UNL A   1      38.174  29.570  27.878  1.00  0.00     0.134 A 
ATOM     50  F   UNL A   1      38.399  28.566  31.359  1.00  0.00    -0.206 F 
ATOM     51  C   UNL A   1      36.570  29.385  30.134  1.00  0.00     0.040 A 
ATOM     52  C   UNL A   1      36.838  29.963  27.812  1.00  0.00     0.040 A 
ATOM     53  F   UNL A   1      38.920  29.679  26.769  1.00  0.00    -0.206 F 
ATOM     54  C   UNL A   1      36.030  29.864  28.942  1.00  0.00     0.006 A 
ENDBRANCH  26  47
BRANCH  38  55
ATOM     55  C   UNL A   1      44.538  32.486  30.862  1.00  0.00     0.057 A 
ATOM     56  C   UNL A   1      44.497  32.816  32.223  1.00  0.00     0.134 A 
ATOM     57  C   UNL A   1      44.796  33.516  29.950  1.00  0.00     0.134 A 
ATOM     58  F   UNL A   1      44.237  31.874  33.143  1.00  0.00    -0.206 F 
ATOM     59  C   UNL A   1      44.676  34.128  32.659  1.00  0.00     0.040 A 
ATOM     60  C   UNL A   1      44.999  34.828  30.376  1.00  0.00     0.040 A 
ATOM     61  F   UNL A   1      44.852  33.264  28.634  1.00  0.00    -0.206 F 
ATOM     62  C   UNL A   1      44.930  35.139  31.734  1.00  0.00     0.006 A 
ENDBRANCH  38  55
ENDBRANCH  12  13
ENDBRANCH   5   7
ENDBRANCH   2   3
ENDBRANCH   1   2
BRANCH   1  63
ATOM     63  C   UNL A   1      36.861  21.139  24.547  1.00  0.00     0.023 C 
BRANCH  63  64
ATOM     64  C   UNL A   1      37.077  22.450  25.303  1.00  0.00     0.116 C 
BRANCH  64  65
ATOM     65  N   UNL A   1      36.248  22.582  26.494  1.00  0.00    -0.351 N 
ATOM     66  C   UNL A   1      34.888  22.803  26.577  1.00  0.00     0.283 C 
ATOM     67  H   UNL A   1      36.720  22.503  27.354  1.00  0.00     0.163 HD
ATOM     68  O   UNL A   1      34.375  22.845  27.700  1.00  0.00    -0.268 OA
BRANCH  66  69
ATOM     69  C   UNL A   1      34.027  22.983  25.264  1.00  0.00     0.306 C 
BRANCH  69  70
ATOM     70  C   UNL A   1      33.475  21.582  24.847  1.00  0.00     0.023 A 
ATOM     71  C   UNL A   1      33.078  21.251  23.544  1.00  0.00     0.011 A 
ATOM     72  C   UNL A   1      33.397  20.520  25.779  1.00  0.00     0.056 A 
ATOM     73  C   UNL A   1      32.428  20.042  23.245  1.00  0.00     0.004 A 
ATOM     74  C   UNL A   1      32.759  19.314  25.485  1.00  0.00     0.116 A 
ATOM     75  C   UNL A   1      32.233  19.080  24.229  1.00  0.00     0.046 A 
BRANCH  74  76
ATOM     76  O   UNL A   1      32.639  18.402  26.492  1.00  0.00    -0.508 OA
ATOM     77  H   UNL A   1      31.836  18.334  26.970  1.00  0.00     0.293 HD
ENDBRANCH  74  76
ENDBRANCH  69  70
BRANCH  69  78
ATOM     78  N   UNL A   1      33.031  24.085  25.547  1.00  0.00    -0.312 N 
ATOM     79  C   UNL A   1      33.647  25.445  25.658  1.00  0.00     0.325 C 
ATOM     80  C   UNL A   1      31.864  24.189  24.663  1.00  0.00     0.325 C 
ATOM     81  H   UNL A   1      32.683  23.767  26.451  1.00  0.00     0.349 HD
ATOM     82  C   UNL A   1      33.719  26.331  24.381  1.00  0.00     0.324 C 
ATOM     83  C   UNL A   1      32.147  24.885  23.323  1.00  0.00     0.324 C 
ATOM     84  N   UNL A   1      32.546  26.286  23.494  1.00  0.00    -0.323 N 
ATOM     85  H   UNL A   1      32.800  26.635  22.570  1.00  0.00     0.348 HD
BRANCH  84  86
ATOM     86  C   UNL A   1      31.485  27.255  23.816  1.00  0.00     0.184 C 
ATOM     87  C   UNL A   1      31.947  28.673  24.191  1.00  0.00     0.065 C 
ATOM     88  C   UNL A   1      30.304  27.497  22.848  1.00  0.00     0.065 C 
ATOM     89  C   UNL A   1      30.650  29.467  24.229  1.00  0.00     0.006 C 
ATOM     90  C   UNL A   1      29.902  28.965  23.007  1.00  0.00     0.006 C 
ENDBRANCH  84  86
ENDBRANCH  69  78
ENDBRANCH  66  69
ENDBRANCH  64  65
ENDBRANCH  63  64
ENDBRANCH   1  63
TORSDOF 15
ENDMDL
