MODEL 1
REMARK VINA RESULT:     -13.0      0.000      0.000
REMARK SMILES O=C(Cn1c(-c2nc(-c3ccc(C(F)(F)F)cc3)no2)cc2ccccc21)NCCCCNC(=O)c1ccc(-c2c3nc(c(-c4c(F)cccc4F)c4ccc([nH]4)c(-c4c(F)cccc4F)c4nc(c(-c5c(F)cccc5F)c5ccc2[nH]5)C=C4)C=C3)cc1
REMARK SMILES IDX 29 1 28 2 1 3 2 4 3 6 4 7 5 8 27 9 21 10 22 11 26 12 23 13
REMARK SMILES IDX 25 14 24 15 6 16 7 17 20 18 8 19 19 20 9 21 10 22 18 23
REMARK SMILES IDX 11 24 17 25 12 26 13 27 14 28 15 29 16 30 30 31 31 32 32 33
REMARK SMILES IDX 33 34 34 35 35 37 36 38 37 39 89 40 38 41 88 42 39 43 40 44
REMARK SMILES IDX 41 45 82 46 42 47 87 48 81 49 83 50 43 51 86 52 80 53 79 54
REMARK SMILES IDX 44 56 70 57 53 58 69 59 54 60 57 61 68 62 84 63 55 64 56 65
REMARK SMILES IDX 67 67 85 68 58 69 45 70 46 71 51 72 47 73 48 74 50 75 52 76
REMARK SMILES IDX 49 77 71 78 72 79 77 80 73 81 74 82 76 83 78 84 75 85 59 86
REMARK SMILES IDX 60 87 65 88 61 89 62 90 64 91 66 92 63 93
REMARK H PARENT 28 5 33 36 83 55 57 66
REMARK Flexibility Score: inf
ROOT
ATOM      1  C   UNL A   1      37.541  23.643  25.802  1.00  0.00     0.116 C 
ENDROOT
BRANCH   1   2
ATOM      2  N   UNL A   1      36.410  22.877  26.290  1.00  0.00    -0.355 N 
ATOM      3  O   UNL A   1      36.115  21.647  24.373  1.00  0.00    -0.273 OA
ATOM      4  C   UNL A   1      35.815  21.876  25.547  1.00  0.00     0.239 C 
ATOM      5  H   UNL A   1      36.052  23.078  27.184  1.00  0.00     0.163 HD
BRANCH   4   6
ATOM      6  C   UNL A   1      34.778  21.057  26.299  1.00  0.00     0.222 C 
BRANCH   6   7
ATOM      7  N   UNL A   1      33.686  20.638  25.422  1.00  0.00    -0.327 N 
ATOM      8  C   UNL A   1      32.523  21.340  25.161  1.00  0.00     0.109 A 
ATOM      9  C   UNL A   1      33.697  19.453  24.695  1.00  0.00     0.049 A 
ATOM     10  C   UNL A   1      31.824  20.630  24.204  1.00  0.00     0.042 A 
ATOM     11  C   UNL A   1      32.587  19.487  23.848  1.00  0.00     0.000 A 
ATOM     12  C   UNL A   1      34.597  18.373  24.674  1.00  0.00     0.027 A 
ATOM     13  C   UNL A   1      32.433  18.472  22.882  1.00  0.00     0.010 A 
ATOM     14  C   UNL A   1      34.430  17.381  23.705  1.00  0.00     0.002 A 
ATOM     15  C   UNL A   1      33.374  17.440  22.804  1.00  0.00     0.001 A 
BRANCH   8  16
ATOM     16  C   UNL A   1      32.190  22.621  25.709  1.00  0.00     0.274 A 
ATOM     17  N   UNL A   1      32.802  23.758  25.429  1.00  0.00    -0.185 NA
ATOM     18  O   UNL A   1      31.202  22.777  26.644  1.00  0.00    -0.332 OA
ATOM     19  C   UNL A   1      32.168  24.653  26.264  1.00  0.00     0.202 A 
ATOM     20  N   UNL A   1      31.196  24.111  27.012  1.00  0.00    -0.057 NA
BRANCH  19  21
ATOM     21  C   UNL A   1      32.459  26.076  26.346  1.00  0.00     0.023 A 
ATOM     22  C   UNL A   1      33.693  26.549  25.877  1.00  0.00     0.013 A 
ATOM     23  C   UNL A   1      31.616  26.947  27.044  1.00  0.00     0.013 A 
ATOM     24  C   UNL A   1      34.116  27.848  26.173  1.00  0.00     0.014 A 
ATOM     25  C   UNL A   1      32.045  28.246  27.352  1.00  0.00     0.014 A 
ATOM     26  C   UNL A   1      33.315  28.697  26.950  1.00  0.00     0.056 A 
BRANCH  26  27
ATOM     27  C   UNL A   1      33.860  30.034  27.395  1.00  0.00     0.416 C 
ATOM     28  F   UNL A   1      34.717  29.912  28.449  1.00  0.00    -0.166 F 
ATOM     29  F   UNL A   1      34.562  30.671  26.418  1.00  0.00    -0.166 F 
ATOM     30  F   UNL A   1      32.900  30.910  27.801  1.00  0.00    -0.166 F 
ENDBRANCH  26  27
ENDBRANCH  19  21
ENDBRANCH   8  16
ENDBRANCH   6   7
ENDBRANCH   4   6
ENDBRANCH   1   2
BRANCH   1  31
ATOM     31  C   UNL A   1      38.847  23.244  26.489  1.00  0.00     0.023 C 
BRANCH  31  32
ATOM     32  C   UNL A   1      39.476  21.921  26.021  1.00  0.00     0.023 C 
BRANCH  32  33
ATOM     33  C   UNL A   1      40.925  21.691  26.451  1.00  0.00     0.116 C 
BRANCH  33  34
ATOM     34  N   UNL A   1      41.906  22.297  25.575  1.00  0.00    -0.352 N 
ATOM     35  C   UNL A   1      42.516  23.518  25.499  1.00  0.00     0.251 C 
ATOM     36  H   UNL A   1      42.203  21.683  24.864  1.00  0.00     0.163 HD
ATOM     37  O   UNL A   1      43.468  23.594  24.717  1.00  0.00    -0.269 OA
BRANCH  35  38
ATOM     38  C   UNL A   1      42.088  24.755  26.212  1.00  0.00     0.039 A 
ATOM     39  C   UNL A   1      41.242  25.740  25.708  1.00  0.00     0.014 A 
ATOM     40  C   UNL A   1      42.672  24.960  27.481  1.00  0.00     0.014 A 
ATOM     41  C   UNL A   1      41.076  26.941  26.398  1.00  0.00     0.010 A 
ATOM     42  C   UNL A   1      42.499  26.151  28.179  1.00  0.00     0.010 A 
ATOM     43  C   UNL A   1      41.743  27.165  27.610  1.00  0.00    -0.014 A 
BRANCH  43  44
ATOM     44  C   UNL A   1      41.533  28.445  28.286  1.00  0.00     0.031 A 
ATOM     45  C   UNL A   1      42.630  29.426  28.079  1.00  0.00     0.074 A 
ATOM     46  C   UNL A   1      40.427  28.765  28.992  1.00  0.00     0.049 A 
ATOM     47  N   UNL A   1      43.480  29.853  28.954  1.00  0.00    -0.248 NA
ATOM     48  C   UNL A   1      42.901  29.889  26.710  1.00  0.00     0.031 C 
ATOM     49  C   UNL A   1      39.167  28.020  29.068  1.00  0.00     0.029 A 
ATOM     50  N   UNL A   1      40.174  29.875  29.754  1.00  0.00    -0.354 N 
ATOM     51  C   UNL A   1      44.271  30.793  28.296  1.00  0.00     0.074 A 
ATOM     52  C   UNL A   1      43.973  30.661  26.895  1.00  0.00     0.031 C 
ATOM     53  C   UNL A   1      38.222  28.790  29.656  1.00  0.00     0.029 A 
ATOM     54  C   UNL A   1      38.844  30.012  30.138  1.00  0.00     0.049 A 
ATOM     55  H   UNL A   1      40.873  30.522  30.006  1.00  0.00     0.167 HD
ATOM     56  C   UNL A   1      44.914  31.770  28.994  1.00  0.00     0.037 A 
ATOM     57  C   UNL A   1      38.284  31.051  30.804  1.00  0.00     0.037 A 
ATOM     58  C   UNL A   1      44.947  31.458  30.399  1.00  0.00     0.049 A 
ATOM     59  C   UNL A   1      39.355  31.762  31.530  1.00  0.00     0.074 A 
ATOM     60  C   UNL A   1      45.663  30.632  31.236  1.00  0.00     0.029 A 
ATOM     61  N   UNL A   1      43.834  31.867  31.080  1.00  0.00    -0.354 N 
ATOM     62  N   UNL A   1      39.985  31.259  32.553  1.00  0.00    -0.248 NA
ATOM     63  C   UNL A   1      39.973  32.942  30.934  1.00  0.00     0.031 C 
ATOM     64  C   UNL A   1      44.829  30.403  32.373  1.00  0.00     0.029 A 
ATOM     65  C   UNL A   1      43.645  31.117  32.207  1.00  0.00     0.049 A 
ATOM     66  H   UNL A   1      43.246  32.603  30.795  1.00  0.00     0.167 HD
ATOM     67  C   UNL A   1      41.263  31.768  32.446  1.00  0.00     0.074 A 
ATOM     68  C   UNL A   1      41.148  32.925  31.570  1.00  0.00     0.031 C 
ATOM     69  C   UNL A   1      42.338  31.013  32.811  1.00  0.00     0.037 A 
BRANCH  56  70
ATOM     70  C   UNL A   1      45.052  33.210  28.535  1.00  0.00     0.057 A 
ATOM     71  C   UNL A   1      46.228  33.760  27.987  1.00  0.00     0.134 A 
ATOM     72  C   UNL A   1      43.882  33.963  28.301  1.00  0.00     0.134 A 
ATOM     73  F   UNL A   1      47.414  33.149  28.068  1.00  0.00    -0.206 F 
ATOM     74  C   UNL A   1      46.234  34.932  27.220  1.00  0.00     0.040 A 
ATOM     75  C   UNL A   1      43.871  35.112  27.499  1.00  0.00     0.040 A 
ATOM     76  F   UNL A   1      42.695  33.555  28.773  1.00  0.00    -0.206 F 
ATOM     77  C   UNL A   1      45.048  35.591  26.942  1.00  0.00     0.006 A 
ENDBRANCH  56  70
BRANCH  57  78
ATOM     78  C   UNL A   1      36.905  31.582  30.750  1.00  0.00     0.057 A 
ATOM     79  C   UNL A   1      36.461  32.297  29.627  1.00  0.00     0.134 A 
ATOM     80  C   UNL A   1      36.096  31.659  31.894  1.00  0.00     0.134 A 
ATOM     81  F   UNL A   1      37.197  32.340  28.506  1.00  0.00    -0.206 F 
ATOM     82  C   UNL A   1      35.297  33.072  29.646  1.00  0.00     0.040 A 
ATOM     83  C   UNL A   1      34.928  32.432  31.927  1.00  0.00     0.040 A 
ATOM     84  F   UNL A   1      36.454  31.037  33.026  1.00  0.00    -0.206 F 
ATOM     85  C   UNL A   1      34.533  33.155  30.806  1.00  0.00     0.006 A 
ENDBRANCH  57  78
BRANCH  69  86
ATOM     86  C   UNL A   1      42.078  29.889  33.762  1.00  0.00     0.057 A 
ATOM     87  C   UNL A   1      41.873  28.609  33.238  1.00  0.00     0.134 A 
ATOM     88  C   UNL A   1      41.984  30.036  35.152  1.00  0.00     0.134 A 
ATOM     89  F   UNL A   1      41.907  28.409  31.911  1.00  0.00    -0.206 F 
ATOM     90  C   UNL A   1      41.603  27.515  34.059  1.00  0.00     0.040 A 
ATOM     91  C   UNL A   1      41.747  28.942  35.989  1.00  0.00     0.040 A 
ATOM     92  F   UNL A   1      42.090  31.240  35.731  1.00  0.00    -0.206 F 
ATOM     93  C   UNL A   1      41.554  27.676  35.441  1.00  0.00     0.006 A 
ENDBRANCH  69  86
ENDBRANCH  43  44
ENDBRANCH  35  38
ENDBRANCH  33  34
ENDBRANCH  32  33
ENDBRANCH  31  32
ENDBRANCH   1  31
TORSDOF 15
ENDMDL
MODEL 2
REMARK VINA RESULT:     -12.9      3.677      7.509
REMARK SMILES O=C(Cn1c(-c2nc(-c3ccc(C(F)(F)F)cc3)no2)cc2ccccc21)NCCCCNC(=O)c1ccc(-c2c3nc(c(-c4c(F)cccc4F)c4ccc([nH]4)c(-c4c(F)cccc4F)c4nc(c(-c5c(F)cccc5F)c5ccc2[nH]5)C=C4)C=C3)cc1
REMARK SMILES IDX 29 1 28 2 1 3 2 4 3 6 4 7 5 8 27 9 21 10 22 11 26 12 23 13
REMARK SMILES IDX 25 14 24 15 6 16 7 17 20 18 8 19 19 20 9 21 10 22 18 23
REMARK SMILES IDX 11 24 17 25 12 26 13 27 14 28 15 29 16 30 30 31 31 32 32 33
REMARK SMILES IDX 33 34 34 35 35 37 36 38 37 39 89 40 38 41 88 42 39 43 40 44
REMARK SMILES IDX 41 45 82 46 42 47 87 48 81 49 83 50 43 51 86 52 80 53 79 54
REMARK SMILES IDX 44 56 70 57 53 58 69 59 54 60 57 61 68 62 84 63 55 64 56 65
REMARK SMILES IDX 67 67 85 68 58 69 45 70 46 71 51 72 47 73 48 74 50 75 52 76
REMARK SMILES IDX 49 77 71 78 72 79 77 80 73 81 74 82 76 83 78 84 75 85 59 86
REMARK SMILES IDX 60 87 65 88 61 89 62 90 64 91 66 92 63 93
REMARK H PARENT 28 5 33 36 83 55 57 66
REMARK Flexibility Score: inf
ROOT
ATOM      1  C   UNL A   1      33.625  26.185  26.238  1.00  0.00     0.116 C 
ENDROOT
BRANCH   1   2
ATOM      2  N   UNL A   1      34.186  25.277  25.256  1.00  0.00    -0.355 N 
ATOM      3  O   UNL A   1      34.259  23.447  26.642  1.00  0.00    -0.273 OA
ATOM      4  C   UNL A   1      34.403  23.939  25.521  1.00  0.00     0.239 C 
ATOM      5  H   UNL A   1      34.422  25.628  24.367  1.00  0.00     0.163 HD
BRANCH   4   6
ATOM      6  C   UNL A   1      34.808  23.110  24.312  1.00  0.00     0.222 C 
BRANCH   6   7
ATOM      7  N   UNL A   1      33.705  22.279  23.837  1.00  0.00    -0.327 N 
ATOM      8  C   UNL A   1      32.597  22.707  23.126  1.00  0.00     0.109 A 
ATOM      9  C   UNL A   1      33.645  20.902  24.022  1.00  0.00     0.049 A 
ATOM     10  C   UNL A   1      31.865  21.583  22.795  1.00  0.00     0.042 A 
ATOM     11  C   UNL A   1      32.554  20.441  23.282  1.00  0.00     0.000 A 
ATOM     12  C   UNL A   1      34.469  20.015  24.737  1.00  0.00     0.027 A 
ATOM     13  C   UNL A   1      32.345  19.052  23.166  1.00  0.00     0.010 A 
ATOM     14  C   UNL A   1      34.249  18.642  24.603  1.00  0.00     0.002 A 
ATOM     15  C   UNL A   1      33.214  18.163  23.809  1.00  0.00     0.001 A 
BRANCH   8  16
ATOM     16  C   UNL A   1      32.344  24.058  22.724  1.00  0.00     0.274 A 
ATOM     17  N   UNL A   1      31.538  24.903  23.341  1.00  0.00    -0.185 NA
ATOM     18  O   UNL A   1      32.897  24.596  21.593  1.00  0.00    -0.332 OA
ATOM     19  C   UNL A   1      31.582  26.011  22.522  1.00  0.00     0.202 A 
ATOM     20  N   UNL A   1      32.388  25.876  21.459  1.00  0.00    -0.057 NA
BRANCH  19  21
ATOM     21  C   UNL A   1      30.867  27.257  22.756  1.00  0.00     0.023 A 
ATOM     22  C   UNL A   1      29.570  27.211  23.287  1.00  0.00     0.013 A 
ATOM     23  C   UNL A   1      31.372  28.477  22.295  1.00  0.00     0.013 A 
ATOM     24  C   UNL A   1      28.758  28.349  23.280  1.00  0.00     0.014 A 
ATOM     25  C   UNL A   1      30.554  29.616  22.277  1.00  0.00     0.014 A 
ATOM     26  C   UNL A   1      29.227  29.553  22.736  1.00  0.00     0.056 A 
BRANCH  26  27
ATOM     27  C   UNL A   1      28.280  30.722  22.589  1.00  0.00     0.416 C 
ATOM     28  F   UNL A   1      27.601  30.687  21.407  1.00  0.00    -0.166 F 
ATOM     29  F   UNL A   1      27.329  30.757  23.562  1.00  0.00    -0.166 F 
ATOM     30  F   UNL A   1      28.898  31.936  22.623  1.00  0.00    -0.166 F 
ENDBRANCH  26  27
ENDBRANCH  19  21
ENDBRANCH   8  16
ENDBRANCH   6   7
ENDBRANCH   4   6
ENDBRANCH   1   2
BRANCH   1  31
ATOM     31  C   UNL A   1      33.274  27.545  25.634  1.00  0.00     0.023 C 
BRANCH  31  32
ATOM     32  C   UNL A   1      33.414  28.754  26.572  1.00  0.00     0.023 C 
BRANCH  32  33
ATOM     33  C   UNL A   1      34.846  29.211  26.851  1.00  0.00     0.116 C 
BRANCH  33  34
ATOM     34  N   UNL A   1      35.061  29.696  28.198  1.00  0.00    -0.352 N 
ATOM     35  C   UNL A   1      36.147  29.841  29.016  1.00  0.00     0.251 C 
ATOM     36  H   UNL A   1      34.225  29.990  28.628  1.00  0.00     0.163 HD
ATOM     37  O   UNL A   1      35.959  30.494  30.047  1.00  0.00    -0.269 OA
BRANCH  35  38
ATOM     38  C   UNL A   1      37.488  29.227  28.805  1.00  0.00     0.039 A 
ATOM     39  C   UNL A   1      38.144  28.368  29.685  1.00  0.00     0.014 A 
ATOM     40  C   UNL A   1      38.168  29.632  27.636  1.00  0.00     0.014 A 
ATOM     41  C   UNL A   1      39.475  28.018  29.461  1.00  0.00     0.010 A 
ATOM     42  C   UNL A   1      39.492  29.276  27.401  1.00  0.00     0.010 A 
ATOM     43  C   UNL A   1      40.164  28.511  28.345  1.00  0.00    -0.014 A 
BRANCH  43  44
ATOM     44  C   UNL A   1      41.559  28.113  28.164  1.00  0.00     0.031 A 
ATOM     45  C   UNL A   1      41.734  26.806  27.480  1.00  0.00     0.074 A 
ATOM     46  C   UNL A   1      42.622  28.868  28.518  1.00  0.00     0.049 A 
ATOM     47  N   UNL A   1      42.173  25.702  27.991  1.00  0.00    -0.248 NA
ATOM     48  C   UNL A   1      41.237  26.669  26.104  1.00  0.00     0.031 C 
ATOM     49  C   UNL A   1      42.620  30.268  28.953  1.00  0.00     0.029 A 
ATOM     50  N   UNL A   1      43.955  28.554  28.503  1.00  0.00    -0.354 N 
ATOM     51  C   UNL A   1      42.199  24.779  26.947  1.00  0.00     0.074 A 
ATOM     52  C   UNL A   1      41.474  25.379  25.859  1.00  0.00     0.031 C 
ATOM     53  C   UNL A   1      43.888  30.740  28.961  1.00  0.00     0.029 A 
ATOM     54  C   UNL A   1      44.800  29.643  28.687  1.00  0.00     0.049 A 
ATOM     55  H   UNL A   1      44.287  27.636  28.371  1.00  0.00     0.167 HD
ATOM     56  C   UNL A   1      43.037  23.706  26.991  1.00  0.00     0.037 A 
ATOM     57  C   UNL A   1      46.154  29.653  28.622  1.00  0.00     0.037 A 
ATOM     58  C   UNL A   1      43.541  23.504  28.325  1.00  0.00     0.049 A 
ATOM     59  C   UNL A   1      46.636  28.277  28.856  1.00  0.00     0.074 A 
ATOM     60  C   UNL A   1      43.084  22.975  29.510  1.00  0.00     0.029 A 
ATOM     61  N   UNL A   1      44.659  24.239  28.607  1.00  0.00    -0.354 N 
ATOM     62  N   UNL A   1      46.553  27.675  30.008  1.00  0.00    -0.248 NA
ATOM     63  C   UNL A   1      46.943  27.414  27.721  1.00  0.00     0.031 C 
ATOM     64  C   UNL A   1      43.859  23.590  30.541  1.00  0.00     0.029 A 
ATOM     65  C   UNL A   1      44.780  24.452  29.952  1.00  0.00     0.049 A 
ATOM     66  H   UNL A   1      45.292  24.572  27.931  1.00  0.00     0.167 HD
ATOM     67  C   UNL A   1      46.355  26.348  29.683  1.00  0.00     0.074 A 
ATOM     68  C   UNL A   1      46.794  26.220  28.300  1.00  0.00     0.031 C 
ATOM     69  C   UNL A   1      45.554  25.561  30.455  1.00  0.00     0.037 A 
BRANCH  56  70
ATOM     70  C   UNL A   1      43.805  23.161  25.801  1.00  0.00     0.057 A 
ATOM     71  C   UNL A   1      44.765  23.892  25.073  1.00  0.00     0.134 A 
ATOM     72  C   UNL A   1      43.851  21.765  25.605  1.00  0.00     0.134 A 
ATOM     73  F   UNL A   1      44.897  25.217  25.184  1.00  0.00    -0.206 F 
ATOM     74  C   UNL A   1      45.728  23.282  24.260  1.00  0.00     0.040 A 
ATOM     75  C   UNL A   1      44.838  21.143  24.828  1.00  0.00     0.040 A 
ATOM     76  F   UNL A   1      42.988  20.952  26.234  1.00  0.00    -0.206 F 
ATOM     77  C   UNL A   1      45.791  21.902  24.165  1.00  0.00     0.006 A 
ENDBRANCH  56  70
BRANCH  57  78
ATOM     78  C   UNL A   1      47.078  30.735  28.220  1.00  0.00     0.057 A 
ATOM     79  C   UNL A   1      47.874  31.384  29.178  1.00  0.00     0.134 A 
ATOM     80  C   UNL A   1      46.992  31.353  26.964  1.00  0.00     0.134 A 
ATOM     81  F   UNL A   1      47.967  30.908  30.428  1.00  0.00    -0.206 F 
ATOM     82  C   UNL A   1      48.522  32.595  28.914  1.00  0.00     0.040 A 
ATOM     83  C   UNL A   1      47.636  32.567  26.687  1.00  0.00     0.040 A 
ATOM     84  F   UNL A   1      46.229  30.828  25.995  1.00  0.00    -0.206 F 
ATOM     85  C   UNL A   1      48.391  33.200  27.669  1.00  0.00     0.006 A 
ENDBRANCH  57  78
BRANCH  69  86
ATOM     86  C   UNL A   1      45.332  26.006  31.865  1.00  0.00     0.057 A 
ATOM     87  C   UNL A   1      44.174  26.732  32.158  1.00  0.00     0.134 A 
ATOM     88  C   UNL A   1      46.232  25.780  32.915  1.00  0.00     0.134 A 
ATOM     89  F   UNL A   1      43.294  27.020  31.187  1.00  0.00    -0.206 F 
ATOM     90  C   UNL A   1      43.908  27.201  33.444  1.00  0.00     0.040 A 
ATOM     91  C   UNL A   1      45.961  26.215  34.215  1.00  0.00     0.040 A 
ATOM     92  F   UNL A   1      47.401  25.160  32.706  1.00  0.00    -0.206 F 
ATOM     93  C   UNL A   1      44.796  26.929  34.482  1.00  0.00     0.006 A 
ENDBRANCH  69  86
ENDBRANCH  43  44
ENDBRANCH  35  38
ENDBRANCH  33  34
ENDBRANCH  32  33
ENDBRANCH  31  32
ENDBRANCH   1  31
TORSDOF 15
ENDMDL
MODEL 3
REMARK VINA RESULT:     -12.9      3.228      7.591
REMARK SMILES O=C(Cn1c(-c2nc(-c3ccc(C(F)(F)F)cc3)no2)cc2ccccc21)NCCCCNC(=O)c1ccc(-c2c3nc(c(-c4c(F)cccc4F)c4ccc([nH]4)c(-c4c(F)cccc4F)c4nc(c(-c5c(F)cccc5F)c5ccc2[nH]5)C=C4)C=C3)cc1
REMARK SMILES IDX 29 1 28 2 1 3 2 4 3 6 4 7 5 8 27 9 21 10 22 11 26 12 23 13
REMARK SMILES IDX 25 14 24 15 6 16 7 17 20 18 8 19 19 20 9 21 10 22 18 23
REMARK SMILES IDX 11 24 17 25 12 26 13 27 14 28 15 29 16 30 30 31 31 32 32 33
REMARK SMILES IDX 33 34 34 35 35 37 36 38 37 39 89 40 38 41 88 42 39 43 40 44
REMARK SMILES IDX 41 45 82 46 42 47 87 48 81 49 83 50 43 51 86 52 80 53 79 54
REMARK SMILES IDX 44 56 70 57 53 58 69 59 54 60 57 61 68 62 84 63 55 64 56 65
REMARK SMILES IDX 67 67 85 68 58 69 45 70 46 71 51 72 47 73 48 74 50 75 52 76
REMARK SMILES IDX 49 77 71 78 72 79 77 80 73 81 74 82 76 83 78 84 75 85 59 86
REMARK SMILES IDX 60 87 65 88 61 89 62 90 64 91 66 92 63 93
REMARK H PARENT 28 5 33 36 83 55 57 66
REMARK Flexibility Score: inf
ROOT
ATOM      1  C   UNL A   1      31.294  27.031  26.577  1.00  0.00     0.116 C 
ENDROOT
BRANCH   1   2
ATOM      2  N   UNL A   1      32.328  26.110  26.146  1.00  0.00    -0.355 N 
ATOM      3  O   UNL A   1      31.411  24.249  27.130  1.00  0.00    -0.273 OA
ATOM      4  C   UNL A   1      32.271  24.755  26.406  1.00  0.00     0.239 C 
ATOM      5  H   UNL A   1      33.100  26.465  25.649  1.00  0.00     0.163 HD
BRANCH   4   6
ATOM      6  C   UNL A   1      33.339  23.929  25.708  1.00  0.00     0.222 C 
BRANCH   6   7
ATOM      7  N   UNL A   1      32.761  23.055  24.689  1.00  0.00    -0.327 N 
ATOM      8  C   UNL A   1      32.126  23.453  23.526  1.00  0.00     0.109 A 
ATOM      9  C   UNL A   1      32.806  21.667  24.752  1.00  0.00     0.049 A 
ATOM     10  C   UNL A   1      31.831  22.309  22.810  1.00  0.00     0.042 A 
ATOM     11  C   UNL A   1      32.323  21.190  23.532  1.00  0.00     0.000 A 
ATOM     12  C   UNL A   1      33.262  20.788  25.750  1.00  0.00     0.027 A 
ATOM     13  C   UNL A   1      32.397  19.809  23.261  1.00  0.00     0.010 A 
ATOM     14  C   UNL A   1      33.333  19.424  25.459  1.00  0.00     0.002 A 
ATOM     15  C   UNL A   1      32.928  18.940  24.221  1.00  0.00     0.001 A 
BRANCH   8  16
ATOM     16  C   UNL A   1      31.930  24.811  23.114  1.00  0.00     0.274 A 
ATOM     17  N   UNL A   1      30.829  25.517  23.297  1.00  0.00    -0.185 NA
ATOM     18  O   UNL A   1      32.886  25.505  22.421  1.00  0.00    -0.332 OA
ATOM     19  C   UNL A   1      31.121  26.701  22.655  1.00  0.00     0.202 A 
ATOM     20  N   UNL A   1      32.348  26.744  22.115  1.00  0.00    -0.057 NA
BRANCH  19  21
ATOM     21  C   UNL A   1      30.233  27.849  22.567  1.00  0.00     0.023 A 
ATOM     22  C   UNL A   1      30.738  29.071  22.099  1.00  0.00     0.013 A 
ATOM     23  C   UNL A   1      28.943  27.808  23.108  1.00  0.00     0.013 A 
ATOM     24  C   UNL A   1      30.000  30.248  22.246  1.00  0.00     0.014 A 
ATOM     25  C   UNL A   1      28.207  28.991  23.266  1.00  0.00     0.014 A 
ATOM     26  C   UNL A   1      28.745  30.228  22.870  1.00  0.00     0.056 A 
BRANCH  26  27
ATOM     27  C   UNL A   1      28.038  31.531  23.165  1.00  0.00     0.416 C 
ATOM     28  F   UNL A   1      27.313  31.974  22.099  1.00  0.00    -0.166 F 
ATOM     29  F   UNL A   1      27.157  31.432  24.198  1.00  0.00    -0.166 F 
ATOM     30  F   UNL A   1      28.882  32.551  23.487  1.00  0.00    -0.166 F 
ENDBRANCH  26  27
ENDBRANCH  19  21
ENDBRANCH   8  16
ENDBRANCH   6   7
ENDBRANCH   4   6
ENDBRANCH   1   2
BRANCH   1  31
ATOM     31  C   UNL A   1      31.407  28.391  25.888  1.00  0.00     0.023 C 
BRANCH  31  32
ATOM     32  C   UNL A   1      31.820  29.568  26.787  1.00  0.00     0.023 C 
BRANCH  32  33
ATOM     33  C   UNL A   1      33.316  29.882  26.817  1.00  0.00     0.116 C 
BRANCH  33  34
ATOM     34  N   UNL A   1      33.664  31.023  27.637  1.00  0.00    -0.352 N 
ATOM     35  C   UNL A   1      34.822  31.517  28.171  1.00  0.00     0.251 C 
ATOM     36  H   UNL A   1      32.880  31.574  27.866  1.00  0.00     0.163 HD
ATOM     37  O   UNL A   1      34.748  32.650  28.657  1.00  0.00    -0.269 OA
BRANCH  35  38
ATOM     38  C   UNL A   1      36.116  30.787  28.279  1.00  0.00     0.039 A 
ATOM     39  C   UNL A   1      36.320  29.436  28.008  1.00  0.00     0.014 A 
ATOM     40  C   UNL A   1      37.202  31.540  28.777  1.00  0.00     0.014 A 
ATOM     41  C   UNL A   1      37.534  28.832  28.334  1.00  0.00     0.010 A 
ATOM     42  C   UNL A   1      38.419  30.945  29.092  1.00  0.00     0.010 A 
ATOM     43  C   UNL A   1      38.566  29.576  28.920  1.00  0.00    -0.014 A 
BRANCH  43  44
ATOM     44  C   UNL A   1      39.815  28.887  29.244  1.00  0.00     0.031 A 
ATOM     45  C   UNL A   1      40.147  28.883  30.692  1.00  0.00     0.074 A 
ATOM     46  C   UNL A   1      40.592  28.247  28.343  1.00  0.00     0.049 A 
ATOM     47  N   UNL A   1      41.111  29.512  31.281  1.00  0.00    -0.248 NA
ATOM     48  C   UNL A   1      39.224  28.208  31.616  1.00  0.00     0.031 C 
ATOM     49  C   UNL A   1      40.274  27.940  26.945  1.00  0.00     0.029 A 
ATOM     50  N   UNL A   1      41.825  27.674  28.510  1.00  0.00    -0.354 N 
ATOM     51  C   UNL A   1      41.039  29.154  32.627  1.00  0.00     0.074 A 
ATOM     52  C   UNL A   1      39.779  28.481  32.798  1.00  0.00     0.031 C 
ATOM     53  C   UNL A   1      41.185  27.067  26.456  1.00  0.00     0.029 A 
ATOM     54  C   UNL A   1      42.233  26.877  27.445  1.00  0.00     0.049 A 
ATOM     55  H   UNL A   1      42.374  27.813  29.316  1.00  0.00     0.167 HD
ATOM     56  C   UNL A   1      42.142  29.223  33.422  1.00  0.00     0.037 A 
ATOM     57  C   UNL A   1      43.349  26.112  27.372  1.00  0.00     0.037 A 
ATOM     58  C   UNL A   1      43.173  30.013  32.802  1.00  0.00     0.049 A 
ATOM     59  C   UNL A   1      44.333  26.641  28.337  1.00  0.00     0.074 A 
ATOM     60  C   UNL A   1      43.447  31.347  32.606  1.00  0.00     0.029 A 
ATOM     61  N   UNL A   1      43.975  29.301  31.953  1.00  0.00    -0.354 N 
ATOM     62  N   UNL A   1      44.935  27.788  28.192  1.00  0.00    -0.248 NA
ATOM     63  C   UNL A   1      44.441  26.042  29.662  1.00  0.00     0.031 C 
ATOM     64  C   UNL A   1      44.300  31.412  31.462  1.00  0.00     0.029 A 
ATOM     65  C   UNL A   1      44.541  30.116  31.013  1.00  0.00     0.049 A 
ATOM     66  H   UNL A   1      44.123  28.329  32.011  1.00  0.00     0.167 HD
ATOM     67  C   UNL A   1      45.103  28.247  29.483  1.00  0.00     0.074 A 
ATOM     68  C   UNL A   1      44.965  27.072  30.333  1.00  0.00     0.031 C 
ATOM     69  C   UNL A   1      45.009  29.578  29.758  1.00  0.00     0.037 A 
BRANCH  56  70
ATOM     70  C   UNL A   1      42.507  28.199  34.482  1.00  0.00     0.057 A 
ATOM     71  C   UNL A   1      42.221  28.339  35.854  1.00  0.00     0.134 A 
ATOM     72  C   UNL A   1      42.826  26.886  34.075  1.00  0.00     0.134 A 
ATOM     73  F   UNL A   1      41.847  29.502  36.397  1.00  0.00    -0.206 F 
ATOM     74  C   UNL A   1      42.198  27.255  36.740  1.00  0.00     0.040 A 
ATOM     75  C   UNL A   1      42.762  25.789  34.945  1.00  0.00     0.040 A 
ATOM     76  F   UNL A   1      43.124  26.615  32.795  1.00  0.00    -0.206 F 
ATOM     77  C   UNL A   1      42.431  25.970  36.280  1.00  0.00     0.006 A 
ENDBRANCH  56  70
BRANCH  57  78
ATOM     78  C   UNL A   1      43.591  24.853  26.636  1.00  0.00     0.057 A 
ATOM     79  C   UNL A   1      44.228  24.870  25.385  1.00  0.00     0.134 A 
ATOM     80  C   UNL A   1      42.954  23.655  26.990  1.00  0.00     0.134 A 
ATOM     81  F   UNL A   1      44.809  25.990  24.926  1.00  0.00    -0.206 F 
ATOM     82  C   UNL A   1      44.207  23.772  24.520  1.00  0.00     0.040 A 
ATOM     83  C   UNL A   1      42.925  22.546  26.133  1.00  0.00     0.040 A 
ATOM     84  F   UNL A   1      42.290  23.552  28.150  1.00  0.00    -0.206 F 
ATOM     85  C   UNL A   1      43.539  22.608  24.886  1.00  0.00     0.006 A 
ENDBRANCH  57  78
BRANCH  69  86
ATOM     86  C   UNL A   1      45.230  30.518  28.616  1.00  0.00     0.057 A 
ATOM     87  C   UNL A   1      44.113  30.995  27.923  1.00  0.00     0.134 A 
ATOM     88  C   UNL A   1      46.491  30.925  28.161  1.00  0.00     0.134 A 
ATOM     89  F   UNL A   1      42.880  30.608  28.282  1.00  0.00    -0.206 F 
ATOM     90  C   UNL A   1      44.239  31.856  26.834  1.00  0.00     0.040 A 
ATOM     91  C   UNL A   1      46.629  31.815  27.092  1.00  0.00     0.040 A 
ATOM     92  F   UNL A   1      47.615  30.455  28.718  1.00  0.00    -0.206 F 
ATOM     93  C   UNL A   1      45.500  32.282  26.424  1.00  0.00     0.006 A 
ENDBRANCH  69  86
ENDBRANCH  43  44
ENDBRANCH  35  38
ENDBRANCH  33  34
ENDBRANCH  32  33
ENDBRANCH  31  32
ENDBRANCH   1  31
TORSDOF 15
ENDMDL
