MODEL 1
REMARK VINA RESULT:     -11.5      0.000      0.000
REMARK SMILES O=C(NCCCCNC(=O)[C@@H]1C[C@@H]1c1cccc(F)c1)c1ccc(-c2c3nc(c(-c4c(F)cccc4F)c4ccc([nH]4)c(-c4c(F)cccc4F)c4nc(c(-c5c(F)cccc5F)c5ccc2[nH]5)C=C4)C=C3)cc1
REMARK SMILES IDX 5 1 4 2 3 3 1 4 2 5 21 7 22 8 74 9 23 10 73 11 24 12 25 13
REMARK SMILES IDX 26 14 67 15 27 16 72 17 66 18 68 19 28 20 71 21 65 22 64 23
REMARK SMILES IDX 29 25 55 26 38 27 54 28 39 29 42 30 53 31 69 32 40 33 41 34
REMARK SMILES IDX 52 36 70 37 43 38 30 39 31 40 36 41 32 42 33 43 35 44 37 45
REMARK SMILES IDX 34 46 56 47 57 48 62 49 58 50 59 51 61 52 63 53 60 54 44 55
REMARK SMILES IDX 45 56 50 57 46 58 47 59 49 60 51 61 48 62 6 63 7 64 8 65
REMARK SMILES IDX 9 66 10 68 11 69 12 70 13 71 14 72 15 73 20 74 16 75 18 76
REMARK SMILES IDX 17 77 19 78
REMARK H PARENT 3 6 68 24 42 35 8 67
REMARK Flexibility Score: inf
ROOT
ATOM      1  C   UNL A   1      37.897  19.749  25.001  1.00  0.00     0.023 C 
ENDROOT
BRANCH   1   2
ATOM      2  C   UNL A   1      39.133  20.202  25.766  1.00  0.00     0.116 C 
BRANCH   2   3
ATOM      3  N   UNL A   1      40.150  19.169  25.859  1.00  0.00    -0.352 N 
ATOM      4  O   UNL A   1      42.248  18.353  26.015  1.00  0.00    -0.269 OA
ATOM      5  C   UNL A   1      41.496  19.318  26.087  1.00  0.00     0.251 C 
ATOM      6  H   UNL A   1      39.835  18.245  25.744  1.00  0.00     0.163 HD
BRANCH   5   7
ATOM      7  C   UNL A   1      42.036  20.658  26.401  1.00  0.00     0.039 A 
ATOM      8  C   UNL A   1      42.390  21.540  25.376  1.00  0.00     0.014 A 
ATOM      9  C   UNL A   1      42.169  21.037  27.739  1.00  0.00     0.014 A 
ATOM     10  C   UNL A   1      42.956  22.770  25.689  1.00  0.00     0.010 A 
ATOM     11  C   UNL A   1      42.680  22.299  28.053  1.00  0.00     0.010 A 
ATOM     12  C   UNL A   1      43.081  23.170  27.029  1.00  0.00    -0.014 A 
BRANCH  12  13
ATOM     13  C   UNL A   1      43.507  24.555  27.336  1.00  0.00     0.031 A 
ATOM     14  C   UNL A   1      42.526  25.593  27.792  1.00  0.00     0.074 A 
ATOM     15  C   UNL A   1      44.810  24.861  27.187  1.00  0.00     0.049 A 
ATOM     16  N   UNL A   1      42.741  26.853  28.070  1.00  0.00    -0.248 NA
ATOM     17  C   UNL A   1      41.126  25.172  27.956  1.00  0.00     0.031 C 
ATOM     18  C   UNL A   1      45.845  23.927  26.734  1.00  0.00     0.029 A 
ATOM     19  N   UNL A   1      45.489  26.032  27.400  1.00  0.00    -0.354 N 
ATOM     20  C   UNL A   1      41.508  27.380  28.430  1.00  0.00     0.074 A 
ATOM     21  C   UNL A   1      40.542  26.307  28.322  1.00  0.00     0.031 C 
ATOM     22  C   UNL A   1      47.029  24.553  26.725  1.00  0.00     0.029 A 
ATOM     23  C   UNL A   1      46.831  25.945  27.114  1.00  0.00     0.049 A 
ATOM     24  H   UNL A   1      45.060  26.855  27.726  1.00  0.00     0.167 HD
ATOM     25  C   UNL A   1      41.221  28.644  28.818  1.00  0.00     0.037 A 
ATOM     26  C   UNL A   1      47.791  26.886  27.130  1.00  0.00     0.037 A 
ATOM     27  C   UNL A   1      42.197  29.695  28.946  1.00  0.00     0.049 A 
ATOM     28  C   UNL A   1      47.431  28.285  27.529  1.00  0.00     0.074 A 
ATOM     29  C   UNL A   1      42.010  30.988  29.404  1.00  0.00     0.029 A 
ATOM     30  N   UNL A   1      43.536  29.579  28.608  1.00  0.00    -0.354 N 
ATOM     31  N   UNL A   1      46.270  28.756  27.911  1.00  0.00    -0.248 NA
ATOM     32  C   UNL A   1      48.504  29.287  27.486  1.00  0.00     0.031 C 
ATOM     33  C   UNL A   1      43.226  31.668  29.301  1.00  0.00     0.029 A 
ATOM     34  C   UNL A   1      44.179  30.788  28.813  1.00  0.00     0.049 A 
ATOM     35  H   UNL A   1      43.966  28.759  28.273  1.00  0.00     0.167 HD
ATOM     36  C   UNL A   1      46.469  30.107  28.150  1.00  0.00     0.074 A 
ATOM     37  C   UNL A   1      47.869  30.377  27.896  1.00  0.00     0.031 C 
ATOM     38  C   UNL A   1      45.569  31.041  28.539  1.00  0.00     0.037 A 
BRANCH  25  39
ATOM     39  C   UNL A   1      39.798  28.986  29.141  1.00  0.00     0.057 A 
ATOM     40  C   UNL A   1      39.310  28.833  30.445  1.00  0.00     0.134 A 
ATOM     41  C   UNL A   1      38.882  29.334  28.142  1.00  0.00     0.134 A 
ATOM     42  F   UNL A   1      40.136  28.490  31.445  1.00  0.00    -0.206 F 
ATOM     43  C   UNL A   1      37.955  28.993  30.740  1.00  0.00     0.040 A 
ATOM     44  C   UNL A   1      37.527  29.512  28.427  1.00  0.00     0.040 A 
ATOM     45  F   UNL A   1      39.290  29.499  26.874  1.00  0.00    -0.206 F 
ATOM     46  C   UNL A   1      37.059  29.329  29.727  1.00  0.00     0.006 A 
ENDBRANCH  25  39
BRANCH  26  47
ATOM     47  C   UNL A   1      49.171  26.528  26.724  1.00  0.00     0.057 A 
ATOM     48  C   UNL A   1      49.612  26.716  25.408  1.00  0.00     0.134 A 
ATOM     49  C   UNL A   1      50.069  25.956  27.631  1.00  0.00     0.134 A 
ATOM     50  F   UNL A   1      48.793  27.253  24.491  1.00  0.00    -0.206 F 
ATOM     51  C   UNL A   1      50.887  26.328  25.001  1.00  0.00     0.040 A 
ATOM     52  C   UNL A   1      51.358  25.584  27.244  1.00  0.00     0.040 A 
ATOM     53  F   UNL A   1      49.709  25.766  28.909  1.00  0.00    -0.206 F 
ATOM     54  C   UNL A   1      51.766  25.762  25.923  1.00  0.00     0.006 A 
ENDBRANCH  26  47
BRANCH  38  55
ATOM     55  C   UNL A   1      46.063  32.446  28.699  1.00  0.00     0.057 A 
ATOM     56  C   UNL A   1      46.048  33.339  27.623  1.00  0.00     0.134 A 
ATOM     57  C   UNL A   1      46.623  32.883  29.904  1.00  0.00     0.134 A 
ATOM     58  F   UNL A   1      45.530  32.974  26.440  1.00  0.00    -0.206 F 
ATOM     59  C   UNL A   1      46.591  34.620  27.734  1.00  0.00     0.040 A 
ATOM     60  C   UNL A   1      47.151  34.169  30.034  1.00  0.00     0.040 A 
ATOM     61  F   UNL A   1      46.653  32.074  30.974  1.00  0.00    -0.206 F 
ATOM     62  C   UNL A   1      47.145  35.037  28.944  1.00  0.00     0.006 A 
ENDBRANCH  38  55
ENDBRANCH  12  13
ENDBRANCH   5   7
ENDBRANCH   2   3
ENDBRANCH   1   2
BRANCH   1  63
ATOM     63  C   UNL A   1      36.967  20.873  24.543  1.00  0.00     0.023 C 
BRANCH  63  64
ATOM     64  C   UNL A   1      36.618  21.898  25.623  1.00  0.00     0.116 C 
BRANCH  64  65
ATOM     65  N   UNL A   1      35.534  21.437  26.460  1.00  0.00    -0.356 N 
ATOM     66  C   UNL A   1      34.238  21.152  26.134  1.00  0.00     0.223 C 
ATOM     67  H   UNL A   1      35.764  21.308  27.409  1.00  0.00     0.163 HD
ATOM     68  O   UNL A   1      33.490  20.702  26.998  1.00  0.00    -0.275 OA
BRANCH  66  69
ATOM     69  C   UNL A   1      33.755  21.263  24.737  1.00  0.00     0.086 C 
ATOM     70  C   UNL A   1      32.383  20.922  24.230  1.00  0.00     0.023 C 
ATOM     71  C   UNL A   1      33.534  20.010  23.893  1.00  0.00     0.032 C 
BRANCH  71  72
ATOM     72  C   UNL A   1      33.560  18.610  24.473  1.00  0.00    -0.041 A 
ATOM     73  C   UNL A   1      32.396  17.990  24.969  1.00  0.00     0.004 A 
ATOM     74  C   UNL A   1      34.742  17.853  24.490  1.00  0.00     0.043 A 
ATOM     75  C   UNL A   1      32.415  16.689  25.485  1.00  0.00     0.003 A 
ATOM     76  C   UNL A   1      34.757  16.557  25.001  1.00  0.00     0.123 A 
ATOM     77  C   UNL A   1      33.605  15.970  25.501  1.00  0.00     0.039 A 
ATOM     78  F   UNL A   1      35.903  15.863  25.003  1.00  0.00    -0.207 F 
ENDBRANCH  71  72
ENDBRANCH  66  69
ENDBRANCH  64  65
ENDBRANCH  63  64
ENDBRANCH   1  63
TORSDOF 12
ENDMDL
MODEL 2
REMARK VINA RESULT:     -11.5      6.688     11.466
REMARK SMILES O=C(NCCCCNC(=O)[C@@H]1C[C@@H]1c1cccc(F)c1)c1ccc(-c2c3nc(c(-c4c(F)cccc4F)c4ccc([nH]4)c(-c4c(F)cccc4F)c4nc(c(-c5c(F)cccc5F)c5ccc2[nH]5)C=C4)C=C3)cc1
REMARK SMILES IDX 5 1 4 2 3 3 1 4 2 5 21 7 22 8 74 9 23 10 73 11 24 12 25 13
REMARK SMILES IDX 26 14 67 15 27 16 72 17 66 18 68 19 28 20 71 21 65 22 64 23
REMARK SMILES IDX 29 25 55 26 38 27 54 28 39 29 42 30 53 31 69 32 40 33 41 34
REMARK SMILES IDX 52 36 70 37 43 38 30 39 31 40 36 41 32 42 33 43 35 44 37 45
REMARK SMILES IDX 34 46 56 47 57 48 62 49 58 50 59 51 61 52 63 53 60 54 44 55
REMARK SMILES IDX 45 56 50 57 46 58 47 59 49 60 51 61 48 62 6 63 7 64 8 65
REMARK SMILES IDX 9 66 10 68 11 69 12 70 13 71 14 72 15 73 20 74 16 75 18 76
REMARK SMILES IDX 17 77 19 78
REMARK H PARENT 3 6 68 24 42 35 8 67
REMARK Flexibility Score: inf
ROOT
ATOM      1  C   UNL A   1      31.415  31.792  26.462  1.00  0.00     0.023 C 
ENDROOT
BRANCH   1   2
ATOM      2  C   UNL A   1      32.687  32.482  26.934  1.00  0.00     0.116 C 
BRANCH   2   3
ATOM      3  N   UNL A   1      32.451  33.827  27.429  1.00  0.00    -0.352 N 
ATOM      4  O   UNL A   1      32.696  35.580  28.829  1.00  0.00    -0.269 OA
ATOM      5  C   UNL A   1      33.096  34.486  28.446  1.00  0.00     0.251 C 
ATOM      6  H   UNL A   1      31.737  34.331  26.977  1.00  0.00     0.163 HD
BRANCH   5   7
ATOM      7  C   UNL A   1      34.267  33.856  29.092  1.00  0.00     0.039 A 
ATOM      8  C   UNL A   1      34.099  32.809  30.003  1.00  0.00     0.014 A 
ATOM      9  C   UNL A   1      35.547  34.311  28.764  1.00  0.00     0.014 A 
ATOM     10  C   UNL A   1      35.206  32.272  30.649  1.00  0.00     0.010 A 
ATOM     11  C   UNL A   1      36.664  33.728  29.367  1.00  0.00     0.010 A 
ATOM     12  C   UNL A   1      36.498  32.708  30.317  1.00  0.00    -0.014 A 
BRANCH  12  13
ATOM     13  C   UNL A   1      37.671  31.994  30.873  1.00  0.00     0.031 A 
ATOM     14  C   UNL A   1      38.394  30.943  30.086  1.00  0.00     0.074 A 
ATOM     15  C   UNL A   1      38.069  32.313  32.119  1.00  0.00     0.049 A 
ATOM     16  N   UNL A   1      39.417  30.212  30.447  1.00  0.00    -0.248 NA
ATOM     17  C   UNL A   1      37.913  30.673  28.722  1.00  0.00     0.031 C 
ATOM     18  C   UNL A   1      37.426  33.313  32.977  1.00  0.00     0.029 A 
ATOM     19  N   UNL A   1      39.106  31.841  32.882  1.00  0.00    -0.354 N 
ATOM     20  C   UNL A   1      39.695  29.386  29.366  1.00  0.00     0.074 A 
ATOM     21  C   UNL A   1      38.726  29.696  28.337  1.00  0.00     0.031 C 
ATOM     22  C   UNL A   1      38.093  33.394  34.136  1.00  0.00     0.029 A 
ATOM     23  C   UNL A   1      39.174  32.415  34.128  1.00  0.00     0.049 A 
ATOM     24  H   UNL A   1      39.740  31.156  32.568  1.00  0.00     0.167 HD
ATOM     25  C   UNL A   1      40.677  28.462  29.252  1.00  0.00     0.037 A 
ATOM     26  C   UNL A   1      39.994  32.163  35.164  1.00  0.00     0.037 A 
ATOM     27  C   UNL A   1      41.652  28.183  30.275  1.00  0.00     0.049 A 
ATOM     28  C   UNL A   1      41.046  31.106  35.017  1.00  0.00     0.074 A 
ATOM     29  C   UNL A   1      42.729  27.316  30.220  1.00  0.00     0.029 A 
ATOM     30  N   UNL A   1      41.662  28.756  31.537  1.00  0.00    -0.354 N 
ATOM     31  N   UNL A   1      41.327  30.368  33.972  1.00  0.00    -0.248 NA
ATOM     32  C   UNL A   1      41.885  30.834  36.192  1.00  0.00     0.031 C 
ATOM     33  C   UNL A   1      43.366  27.330  31.464  1.00  0.00     0.029 A 
ATOM     34  C   UNL A   1      42.706  28.233  32.281  1.00  0.00     0.049 A 
ATOM     35  H   UNL A   1      41.024  29.434  31.857  1.00  0.00     0.167 HD
ATOM     36  C   UNL A   1      42.370  29.542  34.361  1.00  0.00     0.074 A 
ATOM     37  C   UNL A   1      42.691  29.888  35.730  1.00  0.00     0.031 C 
ATOM     38  C   UNL A   1      43.000  28.578  33.648  1.00  0.00     0.037 A 
BRANCH  25  39
ATOM     39  C   UNL A   1      40.770  27.672  27.983  1.00  0.00     0.057 A 
ATOM     40  C   UNL A   1      40.178  26.406  27.890  1.00  0.00     0.134 A 
ATOM     41  C   UNL A   1      41.555  28.103  26.907  1.00  0.00     0.134 A 
ATOM     42  F   UNL A   1      39.423  25.933  28.892  1.00  0.00    -0.206 F 
ATOM     43  C   UNL A   1      40.382  25.585  26.779  1.00  0.00     0.040 A 
ATOM     44  C   UNL A   1      41.754  27.297  25.783  1.00  0.00     0.040 A 
ATOM     45  F   UNL A   1      42.145  29.307  26.935  1.00  0.00    -0.206 F 
ATOM     46  C   UNL A   1      41.177  26.030  25.724  1.00  0.00     0.006 A 
ENDBRANCH  25  39
BRANCH  26  47
ATOM     47  C   UNL A   1      39.818  32.908  36.433  1.00  0.00     0.057 A 
ATOM     48  C   UNL A   1      38.855  32.522  37.374  1.00  0.00     0.134 A 
ATOM     49  C   UNL A   1      40.581  34.046  36.718  1.00  0.00     0.134 A 
ATOM     50  F   UNL A   1      38.087  31.445  37.152  1.00  0.00    -0.206 F 
ATOM     51  C   UNL A   1      38.640  33.251  38.542  1.00  0.00     0.040 A 
ATOM     52  C   UNL A   1      40.393  34.771  37.896  1.00  0.00     0.040 A 
ATOM     53  F   UNL A   1      41.528  34.454  35.862  1.00  0.00    -0.206 F 
ATOM     54  C   UNL A   1      39.415  34.379  38.807  1.00  0.00     0.006 A 
ENDBRANCH  26  47
BRANCH  38  55
ATOM     55  C   UNL A   1      44.090  27.816  34.337  1.00  0.00     0.057 A 
ATOM     56  C   UNL A   1      45.410  28.279  34.322  1.00  0.00     0.134 A 
ATOM     57  C   UNL A   1      43.836  26.584  34.949  1.00  0.00     0.134 A 
ATOM     58  F   UNL A   1      45.716  29.450  33.743  1.00  0.00    -0.206 F 
ATOM     59  C   UNL A   1      46.448  27.532  34.879  1.00  0.00     0.040 A 
ATOM     60  C   UNL A   1      44.863  25.836  35.527  1.00  0.00     0.040 A 
ATOM     61  F   UNL A   1      42.587  26.096  35.004  1.00  0.00    -0.206 F 
ATOM     62  C   UNL A   1      46.174  26.306  35.484  1.00  0.00     0.006 A 
ENDBRANCH  38  55
ENDBRANCH  12  13
ENDBRANCH   5   7
ENDBRANCH   2   3
ENDBRANCH   1   2
BRANCH   1  63
ATOM     63  C   UNL A   1      31.455  30.263  26.489  1.00  0.00     0.023 C 
BRANCH  63  64
ATOM     64  C   UNL A   1      32.739  29.644  25.934  1.00  0.00     0.116 C 
BRANCH  64  65
ATOM     65  N   UNL A   1      32.795  29.744  24.494  1.00  0.00    -0.356 N 
ATOM     66  C   UNL A   1      32.065  29.088  23.544  1.00  0.00     0.223 C 
ATOM     67  H   UNL A   1      33.460  30.380  24.144  1.00  0.00     0.163 HD
ATOM     68  O   UNL A   1      32.227  29.376  22.361  1.00  0.00    -0.275 OA
BRANCH  66  69
ATOM     69  C   UNL A   1      31.001  28.127  23.920  1.00  0.00     0.086 C 
ATOM     70  C   UNL A   1      30.062  27.414  22.989  1.00  0.00     0.023 C 
ATOM     71  C   UNL A   1      29.531  28.532  23.847  1.00  0.00     0.032 C 
BRANCH  71  72
ATOM     72  C   UNL A   1      29.060  29.811  23.183  1.00  0.00    -0.041 A 
ATOM     73  C   UNL A   1      29.162  31.062  23.822  1.00  0.00     0.004 A 
ATOM     74  C   UNL A   1      28.549  29.803  21.875  1.00  0.00     0.043 A 
ATOM     75  C   UNL A   1      28.747  32.245  23.200  1.00  0.00     0.003 A 
ATOM     76  C   UNL A   1      28.139  30.982  21.258  1.00  0.00     0.123 A 
ATOM     77  C   UNL A   1      28.231  32.203  21.910  1.00  0.00     0.039 A 
ATOM     78  F   UNL A   1      27.654  30.939  20.009  1.00  0.00    -0.207 F 
ENDBRANCH  71  72
ENDBRANCH  66  69
ENDBRANCH  64  65
ENDBRANCH  63  64
ENDBRANCH   1  63
TORSDOF 12
ENDMDL
MODEL 3
REMARK VINA RESULT:     -11.5      5.958     10.667
REMARK SMILES O=C(NCCCCNC(=O)[C@@H]1C[C@@H]1c1cccc(F)c1)c1ccc(-c2c3nc(c(-c4c(F)cccc4F)c4ccc([nH]4)c(-c4c(F)cccc4F)c4nc(c(-c5c(F)cccc5F)c5ccc2[nH]5)C=C4)C=C3)cc1
REMARK SMILES IDX 5 1 4 2 3 3 1 4 2 5 21 7 22 8 74 9 23 10 73 11 24 12 25 13
REMARK SMILES IDX 26 14 67 15 27 16 72 17 66 18 68 19 28 20 71 21 65 22 64 23
REMARK SMILES IDX 29 25 55 26 38 27 54 28 39 29 42 30 53 31 69 32 40 33 41 34
REMARK SMILES IDX 52 36 70 37 43 38 30 39 31 40 36 41 32 42 33 43 35 44 37 45
REMARK SMILES IDX 34 46 56 47 57 48 62 49 58 50 59 51 61 52 63 53 60 54 44 55
REMARK SMILES IDX 45 56 50 57 46 58 47 59 49 60 51 61 48 62 6 63 7 64 8 65
REMARK SMILES IDX 9 66 10 68 11 69 12 70 13 71 14 72 15 73 20 74 16 75 18 76
REMARK SMILES IDX 17 77 19 78
REMARK H PARENT 3 6 68 24 42 35 8 67
REMARK Flexibility Score: inf
ROOT
ATOM      1  C   UNL A   1      34.663  34.030  28.044  1.00  0.00     0.023 C 
ENDROOT
BRANCH   1   2
ATOM      2  C   UNL A   1      34.276  32.743  28.760  1.00  0.00     0.116 C 
BRANCH   2   3
ATOM      3  N   UNL A   1      33.781  31.720  27.854  1.00  0.00    -0.352 N 
ATOM      4  O   UNL A   1      33.901  29.856  26.589  1.00  0.00    -0.269 OA
ATOM      5  C   UNL A   1      34.400  30.561  27.459  1.00  0.00     0.251 C 
ATOM      6  H   UNL A   1      32.886  31.879  27.477  1.00  0.00     0.163 HD
BRANCH   5   7
ATOM      7  C   UNL A   1      35.687  30.178  28.077  1.00  0.00     0.039 A 
ATOM      8  C   UNL A   1      35.719  29.556  29.328  1.00  0.00     0.014 A 
ATOM      9  C   UNL A   1      36.873  30.428  27.381  1.00  0.00     0.014 A 
ATOM     10  C   UNL A   1      36.940  29.262  29.923  1.00  0.00     0.010 A 
ATOM     11  C   UNL A   1      38.098  30.074  27.951  1.00  0.00     0.010 A 
ATOM     12  C   UNL A   1      38.138  29.494  29.228  1.00  0.00    -0.014 A 
BRANCH  12  13
ATOM     13  C   UNL A   1      39.413  28.999  29.796  1.00  0.00     0.031 A 
ATOM     14  C   UNL A   1      40.033  29.636  31.003  1.00  0.00     0.074 A 
ATOM     15  C   UNL A   1      40.010  27.956  29.189  1.00  0.00     0.049 A 
ATOM     16  N   UNL A   1      41.158  29.336  31.599  1.00  0.00    -0.248 NA
ATOM     17  C   UNL A   1      39.303  30.753  31.625  1.00  0.00     0.031 C 
ATOM     18  C   UNL A   1      39.498  27.271  27.998  1.00  0.00     0.029 A 
ATOM     19  N   UNL A   1      41.169  27.285  29.484  1.00  0.00    -0.354 N 
ATOM     20  C   UNL A   1      41.281  30.230  32.654  1.00  0.00     0.074 A 
ATOM     21  C   UNL A   1      40.122  31.096  32.613  1.00  0.00     0.031 C 
ATOM     22  C   UNL A   1      40.324  26.267  27.678  1.00  0.00     0.029 A 
ATOM     23  C   UNL A   1      41.452  26.270  28.602  1.00  0.00     0.049 A 
ATOM     24  H   UNL A   1      41.742  27.509  30.252  1.00  0.00     0.167 HD
ATOM     25  C   UNL A   1      42.273  30.307  33.571  1.00  0.00     0.037 A 
ATOM     26  C   UNL A   1      42.517  25.452  28.524  1.00  0.00     0.037 A 
ATOM     27  C   UNL A   1      43.408  29.422  33.616  1.00  0.00     0.049 A 
ATOM     28  C   UNL A   1      43.616  25.590  29.533  1.00  0.00     0.074 A 
ATOM     29  C   UNL A   1      44.425  29.378  34.554  1.00  0.00     0.029 A 
ATOM     30  N   UNL A   1      43.680  28.434  32.683  1.00  0.00    -0.354 N 
ATOM     31  N   UNL A   1      43.695  26.409  30.553  1.00  0.00    -0.248 NA
ATOM     32  C   UNL A   1      44.778  24.706  29.377  1.00  0.00     0.031 C 
ATOM     33  C   UNL A   1      45.337  28.394  34.164  1.00  0.00     0.029 A 
ATOM     34  C   UNL A   1      44.869  27.800  33.003  1.00  0.00     0.049 A 
ATOM     35  H   UNL A   1      43.113  28.215  31.908  1.00  0.00     0.167 HD
ATOM     36  C   UNL A   1      44.914  26.144  31.157  1.00  0.00     0.074 A 
ATOM     37  C   UNL A   1      45.530  25.069  30.407  1.00  0.00     0.031 C 
ATOM     38  C   UNL A   1      45.474  26.744  32.235  1.00  0.00     0.037 A 
BRANCH  25  39
ATOM     39  C   UNL A   1      42.198  31.379  34.615  1.00  0.00     0.057 A 
ATOM     40  C   UNL A   1      41.568  31.131  35.842  1.00  0.00     0.134 A 
ATOM     41  C   UNL A   1      42.625  32.686  34.357  1.00  0.00     0.134 A 
ATOM     42  F   UNL A   1      41.127  29.902  36.145  1.00  0.00    -0.206 F 
ATOM     43  C   UNL A   1      41.346  32.153  36.767  1.00  0.00     0.040 A 
ATOM     44  C   UNL A   1      42.422  33.714  35.280  1.00  0.00     0.040 A 
ATOM     45  F   UNL A   1      43.238  32.985  33.202  1.00  0.00    -0.206 F 
ATOM     46  C   UNL A   1      41.770  33.451  36.483  1.00  0.00     0.006 A 
ENDBRANCH  25  39
BRANCH  26  47
ATOM     47  C   UNL A   1      42.595  24.459  27.426  1.00  0.00     0.057 A 
ATOM     48  C   UNL A   1      42.173  23.136  27.614  1.00  0.00     0.134 A 
ATOM     49  C   UNL A   1      43.127  24.797  26.178  1.00  0.00     0.134 A 
ATOM     50  F   UNL A   1      41.662  22.750  28.792  1.00  0.00    -0.206 F 
ATOM     51  C   UNL A   1      42.298  22.179  26.608  1.00  0.00     0.040 A 
ATOM     52  C   UNL A   1      43.235  23.855  25.153  1.00  0.00     0.040 A 
ATOM     53  F   UNL A   1      43.532  26.051  25.935  1.00  0.00    -0.206 F 
ATOM     54  C   UNL A   1      42.828  22.540  25.370  1.00  0.00     0.006 A 
ENDBRANCH  26  47
BRANCH  38  55
ATOM     55  C   UNL A   1      46.828  26.265  32.660  1.00  0.00     0.057 A 
ATOM     56  C   UNL A   1      47.990  26.833  32.127  1.00  0.00     0.134 A 
ATOM     57  C   UNL A   1      46.971  25.189  33.542  1.00  0.00     0.134 A 
ATOM     58  F   UNL A   1      47.916  27.863  31.271  1.00  0.00    -0.206 F 
ATOM     59  C   UNL A   1      49.254  26.334  32.445  1.00  0.00     0.040 A 
ATOM     60  C   UNL A   1      48.231  24.693  33.883  1.00  0.00     0.040 A 
ATOM     61  F   UNL A   1      45.892  24.613  34.093  1.00  0.00    -0.206 F 
ATOM     62  C   UNL A   1      49.375  25.260  33.326  1.00  0.00     0.006 A 
ENDBRANCH  38  55
ENDBRANCH  12  13
ENDBRANCH   5   7
ENDBRANCH   2   3
ENDBRANCH   1   2
BRANCH   1  63
ATOM     63  C   UNL A   1      34.106  35.312  28.665  1.00  0.00     0.023 C 
BRANCH  63  64
ATOM     64  C   UNL A   1      33.327  35.110  29.966  1.00  0.00     0.116 C 
BRANCH  64  65
ATOM     65  N   UNL A   1      33.903  35.870  31.052  1.00  0.00    -0.356 N 
ATOM     66  C   UNL A   1      34.334  35.451  32.278  1.00  0.00     0.223 C 
ATOM     67  H   UNL A   1      33.999  36.835  30.883  1.00  0.00     0.163 HD
ATOM     68  O   UNL A   1      34.862  36.261  33.036  1.00  0.00    -0.275 OA
BRANCH  66  69
ATOM     69  C   UNL A   1      34.286  34.019  32.662  1.00  0.00     0.086 C 
ATOM     70  C   UNL A   1      35.067  33.356  33.762  1.00  0.00     0.023 C 
ATOM     71  C   UNL A   1      35.450  33.090  32.329  1.00  0.00     0.032 C 
BRANCH  71  72
ATOM     72  C   UNL A   1      36.787  33.592  31.819  1.00  0.00    -0.041 A 
ATOM     73  C   UNL A   1      37.780  34.079  32.691  1.00  0.00     0.004 A 
ATOM     74  C   UNL A   1      37.108  33.539  30.453  1.00  0.00     0.043 A 
ATOM     75  C   UNL A   1      39.021  34.522  32.221  1.00  0.00     0.003 A 
ATOM     76  C   UNL A   1      38.345  33.978  29.989  1.00  0.00     0.123 A 
ATOM     77  C   UNL A   1      39.304  34.471  30.862  1.00  0.00     0.039 A 
ATOM     78  F   UNL A   1      38.619  33.916  28.679  1.00  0.00    -0.207 F 
ENDBRANCH  71  72
ENDBRANCH  66  69
ENDBRANCH  64  65
ENDBRANCH  63  64
ENDBRANCH   1  63
TORSDOF 12
ENDMDL
