MODEL 1
REMARK VINA RESULT:     -13.7      0.000      0.000
REMARK SMILES Cc1ccc(C(=O)N2C[C@@H](C(=O)NCCCCNC(=O)c3ccc(-c4c5nc(c(-c6c(F)cccc6F)c6ccc([nH]6)c(-c6c(F)cccc6F)c6nc(c(-c7c(F)cccc7F)c7ccc4[nH]7)C=C6)C=C5)cc3)C[C@H](C(=O)N3CCOCC3)C2)cc1F
REMARK SMILES IDX 15 1 14 2 13 3 11 4 12 5 10 7 8 8 9 9 85 10 76 11 75 12 6 13
REMARK SMILES IDX 7 14 5 15 1 16 2 17 3 18 87 19 4 20 86 21 88 22 77 23 78 24
REMARK SMILES IDX 79 25 80 26 84 27 81 28 83 29 82 30 16 31 17 32 18 33 19 34
REMARK SMILES IDX 20 36 21 37 22 38 74 39 23 40 73 41 24 42 25 43 26 44 67 45
REMARK SMILES IDX 27 46 72 47 66 48 68 49 28 50 71 51 65 52 64 53 29 55 55 56
REMARK SMILES IDX 38 57 54 58 39 59 42 60 53 61 69 62 40 63 41 64 52 66 70 67
REMARK SMILES IDX 43 68 30 69 31 70 36 71 32 72 33 73 35 74 37 75 34 76 56 77
REMARK SMILES IDX 57 78 62 79 58 80 59 81 61 82 63 83 60 84 44 85 45 86 50 87
REMARK SMILES IDX 46 88 47 89 49 90 51 91 48 92
REMARK H PARENT 13 6 18 35 68 54 42 65
REMARK Flexibility Score: inf
ROOT
ATOM      1  C   UNL A   1      31.724  28.848  26.004  1.00  0.00     0.023 C 
ENDROOT
BRANCH   1   2
ATOM      2  C   UNL A   1      31.790  28.089  24.678  1.00  0.00     0.116 C 
BRANCH   2   3
ATOM      3  N   UNL A   1      30.496  27.536  24.332  1.00  0.00    -0.356 N 
ATOM      4  C   UNL A   1      30.101  26.243  24.206  1.00  0.00     0.224 C 
ATOM      5  O   UNL A   1      29.000  26.024  23.696  1.00  0.00    -0.275 OA
ATOM      6  H   UNL A   1      29.793  28.203  24.159  1.00  0.00     0.163 HD
BRANCH   4   7
ATOM      7  C   UNL A   1      30.962  25.097  24.702  1.00  0.00     0.099 C 
ATOM      8  N   UNL A   1      31.551  22.726  24.181  1.00  0.00    -0.337 N 
ATOM      9  C   UNL A   1      30.959  23.961  23.691  1.00  0.00     0.133 C 
ATOM     10  C   UNL A   1      31.143  22.264  25.505  1.00  0.00     0.133 C 
ATOM     11  C   UNL A   1      31.257  23.351  26.589  1.00  0.00     0.099 C 
ATOM     12  C   UNL A   1      30.702  24.706  26.161  1.00  0.00     0.030 C 
BRANCH   8  13
ATOM     13  C   UNL A   1      32.289  21.988  23.260  1.00  0.00     0.254 C 
ATOM     14  O   UNL A   1      32.725  22.480  22.220  1.00  0.00    -0.269 OA
BRANCH  13  15
ATOM     15  C   UNL A   1      32.472  20.529  23.429  1.00  0.00     0.042 A 
ATOM     16  C   UNL A   1      33.965  16.500  23.279  1.00  0.00     0.047 C 
ATOM     17  C   UNL A   1      33.366  17.872  23.372  1.00  0.00    -0.015 A 
ATOM     18  C   UNL A   1      32.410  18.313  22.448  1.00  0.00     0.007 A 
ATOM     19  C   UNL A   1      33.822  18.763  24.348  1.00  0.00     0.126 A 
ATOM     20  C   UNL A   1      31.967  19.639  22.472  1.00  0.00     0.014 A 
ATOM     21  C   UNL A   1      33.391  20.083  24.382  1.00  0.00     0.053 A 
ATOM     22  F   UNL A   1      34.742  18.360  25.236  1.00  0.00    -0.207 F 
ENDBRANCH  13  15
ENDBRANCH   8  13
BRANCH  11  23
ATOM     23  C   UNL A   1      32.628  23.249  27.270  1.00  0.00     0.227 C 
ATOM     24  O   UNL A   1      32.706  22.566  28.299  1.00  0.00    -0.275 OA
ATOM     25  N   UNL A   1      33.767  23.663  26.631  1.00  0.00    -0.338 N 
ATOM     26  C   UNL A   1      34.048  24.962  26.024  1.00  0.00     0.148 C 
ATOM     27  C   UNL A   1      34.951  22.808  26.675  1.00  0.00     0.148 C 
ATOM     28  C   UNL A   1      34.628  24.764  24.616  1.00  0.00     0.181 C 
ATOM     29  C   UNL A   1      35.491  22.648  25.249  1.00  0.00     0.181 C 
ATOM     30  O   UNL A   1      35.800  23.930  24.670  1.00  0.00    -0.378 OA
ENDBRANCH  11  23
ENDBRANCH   4   7
ENDBRANCH   2   3
ENDBRANCH   1   2
BRANCH   1  31
ATOM     31  C   UNL A   1      32.539  28.228  27.143  1.00  0.00     0.023 C 
BRANCH  31  32
ATOM     32  C   UNL A   1      33.927  28.820  27.276  1.00  0.00     0.116 C 
BRANCH  32  33
ATOM     33  N   UNL A   1      33.895  30.237  27.633  1.00  0.00    -0.352 N 
ATOM     34  C   UNL A   1      34.790  30.911  28.438  1.00  0.00     0.251 C 
ATOM     35  H   UNL A   1      33.155  30.767  27.260  1.00  0.00     0.163 HD
ATOM     36  O   UNL A   1      34.565  32.024  28.882  1.00  0.00    -0.269 OA
BRANCH  34  37
ATOM     37  C   UNL A   1      36.069  30.247  28.696  1.00  0.00     0.039 A 
ATOM     38  C   UNL A   1      36.310  29.525  29.871  1.00  0.00     0.014 A 
ATOM     39  C   UNL A   1      37.021  30.355  27.688  1.00  0.00     0.014 A 
ATOM     40  C   UNL A   1      37.539  28.888  30.023  1.00  0.00     0.010 A 
ATOM     41  C   UNL A   1      38.143  29.590  27.760  1.00  0.00     0.010 A 
ATOM     42  C   UNL A   1      38.444  28.941  28.961  1.00  0.00    -0.014 A 
BRANCH  42  43
ATOM     43  C   UNL A   1      39.813  28.469  29.006  1.00  0.00     0.031 A 
ATOM     44  C   UNL A   1      40.161  27.113  28.587  1.00  0.00     0.074 A 
ATOM     45  C   UNL A   1      40.724  29.432  29.270  1.00  0.00     0.049 A 
ATOM     46  N   UNL A   1      41.223  26.493  28.958  1.00  0.00    -0.248 NA
ATOM     47  C   UNL A   1      39.301  26.319  27.718  1.00  0.00     0.031 C 
ATOM     48  C   UNL A   1      42.159  29.458  29.066  1.00  0.00     0.029 A 
ATOM     49  N   UNL A   1      40.453  30.640  29.922  1.00  0.00    -0.354 N 
ATOM     50  C   UNL A   1      41.372  25.409  28.117  1.00  0.00     0.074 A 
ATOM     51  C   UNL A   1      40.082  25.257  27.487  1.00  0.00     0.031 C 
ATOM     52  C   UNL A   1      42.678  30.452  29.816  1.00  0.00     0.029 A 
ATOM     53  C   UNL A   1      41.599  30.984  30.640  1.00  0.00     0.049 A 
ATOM     54  H   UNL A   1      39.613  31.151  29.881  1.00  0.00     0.167 HD
ATOM     55  C   UNL A   1      42.631  24.917  27.916  1.00  0.00     0.037 A 
ATOM     56  C   UNL A   1      41.533  30.932  32.005  1.00  0.00     0.037 A 
ATOM     57  C   UNL A   1      43.592  25.667  28.737  1.00  0.00     0.049 A 
ATOM     58  C   UNL A   1      42.428  29.844  32.543  1.00  0.00     0.074 A 
ATOM     59  C   UNL A   1      44.431  26.726  28.430  1.00  0.00     0.029 A 
ATOM     60  N   UNL A   1      43.506  25.625  30.127  1.00  0.00    -0.354 N 
ATOM     61  N   UNL A   1      42.734  28.758  31.886  1.00  0.00    -0.248 NA
ATOM     62  C   UNL A   1      43.101  29.937  33.832  1.00  0.00     0.031 C 
ATOM     63  C   UNL A   1      44.779  27.376  29.642  1.00  0.00     0.029 A 
ATOM     64  C   UNL A   1      44.171  26.701  30.687  1.00  0.00     0.049 A 
ATOM     65  H   UNL A   1      43.037  24.927  30.638  1.00  0.00     0.167 HD
ATOM     66  C   UNL A   1      43.658  28.045  32.599  1.00  0.00     0.074 A 
ATOM     67  C   UNL A   1      43.846  28.819  33.815  1.00  0.00     0.031 C 
ATOM     68  C   UNL A   1      44.219  26.891  32.132  1.00  0.00     0.037 A 
BRANCH  55  69
ATOM     69  C   UNL A   1      43.058  24.032  26.754  1.00  0.00     0.057 A 
ATOM     70  C   UNL A   1      43.053  22.626  26.887  1.00  0.00     0.134 A 
ATOM     71  C   UNL A   1      43.523  24.477  25.504  1.00  0.00     0.134 A 
ATOM     72  F   UNL A   1      42.547  22.020  27.969  1.00  0.00    -0.206 F 
ATOM     73  C   UNL A   1      43.560  21.754  25.911  1.00  0.00     0.040 A 
ATOM     74  C   UNL A   1      44.065  23.620  24.530  1.00  0.00     0.040 A 
ATOM     75  F   UNL A   1      43.427  25.754  25.124  1.00  0.00    -0.206 F 
ATOM     76  C   UNL A   1      44.095  22.251  24.736  1.00  0.00     0.006 A 
ENDBRANCH  55  69
BRANCH  56  77
ATOM     77  C   UNL A   1      40.164  31.274  32.518  1.00  0.00     0.057 A 
ATOM     78  C   UNL A   1      39.357  30.219  32.994  1.00  0.00     0.134 A 
ATOM     79  C   UNL A   1      39.840  32.561  32.965  1.00  0.00     0.134 A 
ATOM     80  F   UNL A   1      39.604  28.957  32.604  1.00  0.00    -0.206 F 
ATOM     81  C   UNL A   1      38.390  30.411  33.986  1.00  0.00     0.040 A 
ATOM     82  C   UNL A   1      38.856  32.765  33.945  1.00  0.00     0.040 A 
ATOM     83  F   UNL A   1      40.546  33.626  32.558  1.00  0.00    -0.206 F 
ATOM     84  C   UNL A   1      38.165  31.684  34.494  1.00  0.00     0.006 A 
ENDBRANCH  56  77
BRANCH  68  85
ATOM     85  C   UNL A   1      44.968  25.889  32.973  1.00  0.00     0.057 A 
ATOM     86  C   UNL A   1      46.353  25.677  32.890  1.00  0.00     0.134 A 
ATOM     87  C   UNL A   1      44.325  25.210  34.033  1.00  0.00     0.134 A 
ATOM     88  F   UNL A   1      47.120  26.354  32.024  1.00  0.00    -0.206 F 
ATOM     89  C   UNL A   1      47.033  24.799  33.742  1.00  0.00     0.040 A 
ATOM     90  C   UNL A   1      45.004  24.385  34.931  1.00  0.00     0.040 A 
ATOM     91  F   UNL A   1      43.010  25.339  34.265  1.00  0.00    -0.206 F 
ATOM     92  C   UNL A   1      46.362  24.160  34.775  1.00  0.00     0.006 A 
ENDBRANCH  68  85
ENDBRANCH  42  43
ENDBRANCH  34  37
ENDBRANCH  32  33
ENDBRANCH  31  32
ENDBRANCH   1  31
TORSDOF 14
ENDMDL
MODEL 2
REMARK VINA RESULT:     -13.6      3.177      8.431
REMARK SMILES Cc1ccc(C(=O)N2C[C@@H](C(=O)NCCCCNC(=O)c3ccc(-c4c5nc(c(-c6c(F)cccc6F)c6ccc([nH]6)c(-c6c(F)cccc6F)c6nc(c(-c7c(F)cccc7F)c7ccc4[nH]7)C=C6)C=C5)cc3)C[C@H](C(=O)N3CCOCC3)C2)cc1F
REMARK SMILES IDX 15 1 14 2 13 3 11 4 12 5 10 7 8 8 9 9 85 10 76 11 75 12 6 13
REMARK SMILES IDX 7 14 5 15 1 16 2 17 3 18 87 19 4 20 86 21 88 22 77 23 78 24
REMARK SMILES IDX 79 25 80 26 84 27 81 28 83 29 82 30 16 31 17 32 18 33 19 34
REMARK SMILES IDX 20 36 21 37 22 38 74 39 23 40 73 41 24 42 25 43 26 44 67 45
REMARK SMILES IDX 27 46 72 47 66 48 68 49 28 50 71 51 65 52 64 53 29 55 55 56
REMARK SMILES IDX 38 57 54 58 39 59 42 60 53 61 69 62 40 63 41 64 52 66 70 67
REMARK SMILES IDX 43 68 30 69 31 70 36 71 32 72 33 73 35 74 37 75 34 76 56 77
REMARK SMILES IDX 57 78 62 79 58 80 59 81 61 82 63 83 60 84 44 85 45 86 50 87
REMARK SMILES IDX 46 88 47 89 49 90 51 91 48 92
REMARK H PARENT 13 6 18 35 68 54 42 65
REMARK Flexibility Score: inf
ROOT
ATOM      1  C   UNL A   1      38.923  22.964  26.444  1.00  0.00     0.023 C 
ENDROOT
BRANCH   1   2
ATOM      2  C   UNL A   1      37.514  23.455  26.111  1.00  0.00     0.116 C 
BRANCH   2   3
ATOM      3  N   UNL A   1      37.324  23.561  24.678  1.00  0.00    -0.356 N 
ATOM      4  C   UNL A   1      36.349  23.053  23.884  1.00  0.00     0.224 C 
ATOM      5  O   UNL A   1      36.517  23.102  22.663  1.00  0.00    -0.275 OA
ATOM      6  H   UNL A   1      38.013  24.085  24.208  1.00  0.00     0.163 HD
BRANCH   4   7
ATOM      7  C   UNL A   1      35.075  22.467  24.463  1.00  0.00     0.099 C 
ATOM      8  N   UNL A   1      33.385  22.854  26.261  1.00  0.00    -0.337 N 
ATOM      9  C   UNL A   1      34.467  23.425  25.474  1.00  0.00     0.133 C 
ATOM     10  C   UNL A   1      33.602  21.531  26.841  1.00  0.00     0.133 C 
ATOM     11  C   UNL A   1      34.094  20.492  25.818  1.00  0.00     0.099 C 
ATOM     12  C   UNL A   1      35.206  21.006  24.907  1.00  0.00     0.030 C 
BRANCH   8  13
ATOM     13  C   UNL A   1      32.327  23.705  26.564  1.00  0.00     0.254 C 
ATOM     14  O   UNL A   1      31.706  23.631  27.624  1.00  0.00    -0.269 OA
BRANCH  13  15
ATOM     15  C   UNL A   1      31.809  24.659  25.559  1.00  0.00     0.042 A 
ATOM     16  C   UNL A   1      29.371  27.431  23.355  1.00  0.00     0.047 C 
ATOM     17  C   UNL A   1      30.282  26.465  24.052  1.00  0.00    -0.015 A 
ATOM     18  C   UNL A   1      30.287  25.103  23.724  1.00  0.00     0.007 A 
ATOM     19  C   UNL A   1      31.088  26.909  25.104  1.00  0.00     0.126 A 
ATOM     20  C   UNL A   1      31.044  24.201  24.479  1.00  0.00     0.014 A 
ATOM     21  C   UNL A   1      31.843  26.023  25.862  1.00  0.00     0.053 A 
ATOM     22  F   UNL A   1      31.091  28.208  25.436  1.00  0.00    -0.207 F 
ENDBRANCH  13  15
ENDBRANCH   8  13
BRANCH  11  23
ATOM     23  C   UNL A   1      32.890  19.743  25.232  1.00  0.00     0.227 C 
ATOM     24  O   UNL A   1      31.913  20.417  24.882  1.00  0.00    -0.275 OA
ATOM     25  N   UNL A   1      32.990  18.429  24.857  1.00  0.00    -0.338 N 
ATOM     26  C   UNL A   1      33.447  17.289  25.649  1.00  0.00     0.148 C 
ATOM     27  C   UNL A   1      32.426  18.017  23.573  1.00  0.00     0.148 C 
ATOM     28  C   UNL A   1      34.467  16.472  24.846  1.00  0.00     0.181 C 
ATOM     29  C   UNL A   1      33.481  17.201  22.816  1.00  0.00     0.181 C 
ATOM     30  O   UNL A   1      33.900  16.060  23.588  1.00  0.00    -0.378 OA
ENDBRANCH  11  23
ENDBRANCH   4   7
ENDBRANCH   2   3
ENDBRANCH   1   2
BRANCH   1  31
ATOM     31  C   UNL A   1      39.247  21.551  25.952  1.00  0.00     0.023 C 
BRANCH  31  32
ATOM     32  C   UNL A   1      40.276  20.841  26.809  1.00  0.00     0.116 C 
BRANCH  32  33
ATOM     33  N   UNL A   1      41.517  20.579  26.083  1.00  0.00    -0.352 N 
ATOM     34  C   UNL A   1      42.561  21.457  25.880  1.00  0.00     0.251 C 
ATOM     35  H   UNL A   1      41.619  19.680  25.697  1.00  0.00     0.163 HD
ATOM     36  O   UNL A   1      43.447  21.249  25.069  1.00  0.00    -0.269 OA
BRANCH  34  37
ATOM     37  C   UNL A   1      42.595  22.646  26.735  1.00  0.00     0.039 A 
ATOM     38  C   UNL A   1      42.612  22.559  28.132  1.00  0.00     0.014 A 
ATOM     39  C   UNL A   1      42.640  23.867  26.070  1.00  0.00     0.014 A 
ATOM     40  C   UNL A   1      42.687  23.736  28.872  1.00  0.00     0.010 A 
ATOM     41  C   UNL A   1      42.892  24.995  26.786  1.00  0.00     0.010 A 
ATOM     42  C   UNL A   1      42.816  24.942  28.182  1.00  0.00    -0.014 A 
BRANCH  42  43
ATOM     43  C   UNL A   1      42.754  26.260  28.782  1.00  0.00     0.031 A 
ATOM     44  C   UNL A   1      41.515  27.034  28.784  1.00  0.00     0.074 A 
ATOM     45  C   UNL A   1      43.854  26.600  29.489  1.00  0.00     0.049 A 
ATOM     46  N   UNL A   1      41.461  28.311  28.914  1.00  0.00    -0.248 NA
ATOM     47  C   UNL A   1      40.206  26.416  28.603  1.00  0.00     0.031 C 
ATOM     48  C   UNL A   1      44.055  27.627  30.492  1.00  0.00     0.029 A 
ATOM     49  N   UNL A   1      45.128  26.048  29.311  1.00  0.00    -0.354 N 
ATOM     50  C   UNL A   1      40.152  28.633  29.201  1.00  0.00     0.074 A 
ATOM     51  C   UNL A   1      39.398  27.457  28.835  1.00  0.00     0.031 C 
ATOM     52  C   UNL A   1      45.380  27.835  30.630  1.00  0.00     0.029 A 
ATOM     53  C   UNL A   1      46.054  27.052  29.600  1.00  0.00     0.049 A 
ATOM     54  H   UNL A   1      45.332  25.125  29.034  1.00  0.00     0.167 HD
ATOM     55  C   UNL A   1      39.909  29.779  29.905  1.00  0.00     0.037 A 
ATOM     56  C   UNL A   1      46.790  27.555  28.564  1.00  0.00     0.037 A 
ATOM     57  C   UNL A   1      41.175  30.478  30.163  1.00  0.00     0.049 A 
ATOM     58  C   UNL A   1      46.431  28.995  28.302  1.00  0.00     0.074 A 
ATOM     59  C   UNL A   1      42.005  30.494  31.273  1.00  0.00     0.029 A 
ATOM     60  N   UNL A   1      41.930  30.971  29.101  1.00  0.00    -0.354 N 
ATOM     61  N   UNL A   1      45.258  29.513  28.550  1.00  0.00    -0.248 NA
ATOM     62  C   UNL A   1      47.392  29.975  27.811  1.00  0.00     0.031 C 
ATOM     63  C   UNL A   1      43.292  30.917  30.851  1.00  0.00     0.029 A 
ATOM     64  C   UNL A   1      43.241  31.179  29.492  1.00  0.00     0.049 A 
ATOM     65  H   UNL A   1      41.579  31.147  28.198  1.00  0.00     0.167 HD
ATOM     66  C   UNL A   1      45.302  30.860  28.319  1.00  0.00     0.074 A 
ATOM     67  C   UNL A   1      46.655  31.099  27.847  1.00  0.00     0.031 C 
ATOM     68  C   UNL A   1      44.237  31.683  28.556  1.00  0.00     0.037 A 
BRANCH  55  69
ATOM     69  C   UNL A   1      38.626  30.095  30.661  1.00  0.00     0.057 A 
ATOM     70  C   UNL A   1      37.868  31.241  30.334  1.00  0.00     0.134 A 
ATOM     71  C   UNL A   1      38.098  29.361  31.738  1.00  0.00     0.134 A 
ATOM     72  F   UNL A   1      38.162  32.004  29.272  1.00  0.00    -0.206 F 
ATOM     73  C   UNL A   1      36.754  31.670  31.072  1.00  0.00     0.040 A 
ATOM     74  C   UNL A   1      37.005  29.794  32.508  1.00  0.00     0.040 A 
ATOM     75  F   UNL A   1      38.567  28.156  32.072  1.00  0.00    -0.206 F 
ATOM     76  C   UNL A   1      36.334  30.961  32.183  1.00  0.00     0.006 A 
ENDBRANCH  55  69
BRANCH  56  77
ATOM     77  C   UNL A   1      47.073  26.517  27.516  1.00  0.00     0.057 A 
ATOM     78  C   UNL A   1      46.338  26.581  26.314  1.00  0.00     0.134 A 
ATOM     79  C   UNL A   1      48.286  25.819  27.473  1.00  0.00     0.134 A 
ATOM     80  F   UNL A   1      45.162  27.230  26.279  1.00  0.00    -0.206 F 
ATOM     81  C   UNL A   1      46.855  26.118  25.099  1.00  0.00     0.040 A 
ATOM     82  C   UNL A   1      48.803  25.333  26.262  1.00  0.00     0.040 A 
ATOM     83  F   UNL A   1      49.047  25.699  28.570  1.00  0.00    -0.206 F 
ATOM     84  C   UNL A   1      48.113  25.527  25.065  1.00  0.00     0.006 A 
ENDBRANCH  56  77
BRANCH  68  85
ATOM     85  C   UNL A   1      44.092  33.086  28.023  1.00  0.00     0.057 A 
ATOM     86  C   UNL A   1      43.885  33.392  26.670  1.00  0.00     0.134 A 
ATOM     87  C   UNL A   1      43.991  34.187  28.904  1.00  0.00     0.134 A 
ATOM     88  F   UNL A   1      43.818  32.437  25.733  1.00  0.00    -0.206 F 
ATOM     89  C   UNL A   1      43.671  34.699  26.217  1.00  0.00     0.040 A 
ATOM     90  C   UNL A   1      43.710  35.484  28.472  1.00  0.00     0.040 A 
ATOM     91  F   UNL A   1      44.128  34.050  30.231  1.00  0.00    -0.206 F 
ATOM     92  C   UNL A   1      43.570  35.749  27.120  1.00  0.00     0.006 A 
ENDBRANCH  68  85
ENDBRANCH  42  43
ENDBRANCH  34  37
ENDBRANCH  32  33
ENDBRANCH  31  32
ENDBRANCH   1  31
TORSDOF 14
ENDMDL
MODEL 3
REMARK VINA RESULT:     -13.6      2.472      4.545
REMARK SMILES Cc1ccc(C(=O)N2C[C@@H](C(=O)NCCCCNC(=O)c3ccc(-c4c5nc(c(-c6c(F)cccc6F)c6ccc([nH]6)c(-c6c(F)cccc6F)c6nc(c(-c7c(F)cccc7F)c7ccc4[nH]7)C=C6)C=C5)cc3)C[C@H](C(=O)N3CCOCC3)C2)cc1F
REMARK SMILES IDX 15 1 14 2 13 3 11 4 12 5 10 7 8 8 9 9 85 10 76 11 75 12 6 13
REMARK SMILES IDX 7 14 5 15 1 16 2 17 3 18 87 19 4 20 86 21 88 22 77 23 78 24
REMARK SMILES IDX 79 25 80 26 84 27 81 28 83 29 82 30 16 31 17 32 18 33 19 34
REMARK SMILES IDX 20 36 21 37 22 38 74 39 23 40 73 41 24 42 25 43 26 44 67 45
REMARK SMILES IDX 27 46 72 47 66 48 68 49 28 50 71 51 65 52 64 53 29 55 55 56
REMARK SMILES IDX 38 57 54 58 39 59 42 60 53 61 69 62 40 63 41 64 52 66 70 67
REMARK SMILES IDX 43 68 30 69 31 70 36 71 32 72 33 73 35 74 37 75 34 76 56 77
REMARK SMILES IDX 57 78 62 79 58 80 59 81 61 82 63 83 60 84 44 85 45 86 50 87
REMARK SMILES IDX 46 88 47 89 49 90 51 91 48 92
REMARK H PARENT 13 6 18 35 68 54 42 65
REMARK Flexibility Score: inf
ROOT
ATOM      1  C   UNL A   1      34.775  30.554  27.635  1.00  0.00     0.023 C 
ENDROOT
BRANCH   1   2
ATOM      2  C   UNL A   1      34.391  29.282  26.880  1.00  0.00     0.116 C 
BRANCH   2   3
ATOM      3  N   UNL A   1      33.297  28.596  27.538  1.00  0.00    -0.356 N 
ATOM      4  C   UNL A   1      32.121  28.140  27.037  1.00  0.00     0.224 C 
ATOM      5  O   UNL A   1      31.257  27.775  27.838  1.00  0.00    -0.275 OA
ATOM      6  H   UNL A   1      33.427  28.438  28.501  1.00  0.00     0.163 HD
BRANCH   4   7
ATOM      7  C   UNL A   1      31.875  28.047  25.543  1.00  0.00     0.099 C 
ATOM      8  N   UNL A   1      32.992  27.367  23.415  1.00  0.00    -0.337 N 
ATOM      9  C   UNL A   1      33.012  27.296  24.868  1.00  0.00     0.133 C 
ATOM     10  C   UNL A   1      32.784  28.680  22.809  1.00  0.00     0.133 C 
ATOM     11  C   UNL A   1      31.560  29.422  23.373  1.00  0.00     0.099 C 
ATOM     12  C   UNL A   1      31.459  29.372  24.895  1.00  0.00     0.030 C 
BRANCH   8  13
ATOM     13  C   UNL A   1      33.383  26.217  22.736  1.00  0.00     0.254 C 
ATOM     14  O   UNL A   1      33.887  26.254  21.614  1.00  0.00    -0.269 OA
BRANCH  13  15
ATOM     15  C   UNL A   1      33.084  24.875  23.282  1.00  0.00     0.042 A 
ATOM     16  C   UNL A   1      32.451  20.650  23.765  1.00  0.00     0.047 C 
ATOM     17  C   UNL A   1      32.639  22.136  23.684  1.00  0.00    -0.015 A 
ATOM     18  C   UNL A   1      31.563  22.991  23.416  1.00  0.00     0.007 A 
ATOM     19  C   UNL A   1      33.922  22.680  23.798  1.00  0.00     0.126 A 
ATOM     20  C   UNL A   1      31.784  24.357  23.210  1.00  0.00     0.014 A 
ATOM     21  C   UNL A   1      34.155  24.034  23.594  1.00  0.00     0.053 A 
ATOM     22  F   UNL A   1      34.965  21.874  24.047  1.00  0.00    -0.207 F 
ENDBRANCH  13  15
ENDBRANCH   8  13
BRANCH  11  23
ATOM     23  C   UNL A   1      30.335  29.122  22.501  1.00  0.00     0.227 C 
ATOM     24  O   UNL A   1      30.228  27.979  22.039  1.00  0.00    -0.275 OA
ATOM     25  N   UNL A   1      29.271  29.984  22.456  1.00  0.00    -0.338 N 
ATOM     26  C   UNL A   1      29.270  31.413  22.149  1.00  0.00     0.148 C 
ATOM     27  C   UNL A   1      27.918  29.441  22.550  1.00  0.00     0.148 C 
ATOM     28  C   UNL A   1      28.452  32.172  23.202  1.00  0.00     0.181 C 
ATOM     29  C   UNL A   1      27.145  30.236  23.609  1.00  0.00     0.181 C 
ATOM     30  O   UNL A   1      27.118  31.638  23.280  1.00  0.00    -0.378 OA
ENDBRANCH  11  23
ENDBRANCH   4   7
ENDBRANCH   2   3
ENDBRANCH   1   2
BRANCH   1  31
ATOM     31  C   UNL A   1      33.622  31.530  27.884  1.00  0.00     0.023 C 
BRANCH  31  32
ATOM     32  C   UNL A   1      34.027  32.983  27.741  1.00  0.00     0.116 C 
BRANCH  32  33
ATOM     33  N   UNL A   1      33.712  33.768  28.934  1.00  0.00    -0.352 N 
ATOM     34  C   UNL A   1      34.413  33.790  30.121  1.00  0.00     0.251 C 
ATOM     35  H   UNL A   1      32.914  34.341  28.885  1.00  0.00     0.163 HD
ATOM     36  O   UNL A   1      33.959  34.277  31.143  1.00  0.00    -0.269 OA
BRANCH  34  37
ATOM     37  C   UNL A   1      35.772  33.246  30.093  1.00  0.00     0.039 A 
ATOM     38  C   UNL A   1      36.800  33.848  29.358  1.00  0.00     0.014 A 
ATOM     39  C   UNL A   1      35.985  32.109  30.866  1.00  0.00     0.014 A 
ATOM     40  C   UNL A   1      38.075  33.292  29.416  1.00  0.00     0.010 A 
ATOM     41  C   UNL A   1      37.259  31.679  31.062  1.00  0.00     0.010 A 
ATOM     42  C   UNL A   1      38.281  32.203  30.265  1.00  0.00    -0.014 A 
BRANCH  42  43
ATOM     43  C   UNL A   1      39.495  31.415  30.333  1.00  0.00     0.031 A 
ATOM     44  C   UNL A   1      39.621  30.153  29.606  1.00  0.00     0.074 A 
ATOM     45  C   UNL A   1      40.528  32.036  30.944  1.00  0.00     0.049 A 
ATOM     46  N   UNL A   1      40.452  29.223  29.912  1.00  0.00    -0.248 NA
ATOM     47  C   UNL A   1      38.775  29.820  28.465  1.00  0.00     0.031 C 
ATOM     48  C   UNL A   1      41.950  31.759  30.915  1.00  0.00     0.029 A 
ATOM     49  N   UNL A   1      40.406  33.085  31.862  1.00  0.00    -0.354 N 
ATOM     50  C   UNL A   1      40.514  28.366  28.833  1.00  0.00     0.074 A 
ATOM     51  C   UNL A   1      39.347  28.685  28.046  1.00  0.00     0.031 C 
ATOM     52  C   UNL A   1      42.529  32.391  31.957  1.00  0.00     0.029 A 
ATOM     53  C   UNL A   1      41.459  32.960  32.769  1.00  0.00     0.049 A 
ATOM     54  H   UNL A   1      39.709  33.780  31.867  1.00  0.00     0.167 HD
ATOM     55  C   UNL A   1      41.659  27.643  28.648  1.00  0.00     0.037 A 
ATOM     56  C   UNL A   1      41.154  32.605  34.054  1.00  0.00     0.037 A 
ATOM     57  C   UNL A   1      42.601  27.921  29.741  1.00  0.00     0.049 A 
ATOM     58  C   UNL A   1      41.699  31.237  34.376  1.00  0.00     0.074 A 
ATOM     59  C   UNL A   1      43.682  28.785  29.824  1.00  0.00     0.029 A 
ATOM     60  N   UNL A   1      42.274  27.575  31.050  1.00  0.00    -0.354 N 
ATOM     61  N   UNL A   1      41.881  30.296  33.489  1.00  0.00    -0.248 NA
ATOM     62  C   UNL A   1      42.149  30.857  35.709  1.00  0.00     0.031 C 
ATOM     63  C   UNL A   1      43.945  29.026  31.197  1.00  0.00     0.029 A 
ATOM     64  C   UNL A   1      43.042  28.293  31.949  1.00  0.00     0.049 A 
ATOM     65  H   UNL A   1      41.591  26.912  31.300  1.00  0.00     0.167 HD
ATOM     66  C   UNL A   1      42.502  29.232  34.083  1.00  0.00     0.074 A 
ATOM     67  C   UNL A   1      42.638  29.627  35.475  1.00  0.00     0.031 C 
ATOM     68  C   UNL A   1      42.883  28.119  33.387  1.00  0.00     0.037 A 
BRANCH  55  69
ATOM     69  C   UNL A   1      42.085  26.981  27.345  1.00  0.00     0.057 A 
ATOM     70  C   UNL A   1      42.236  25.578  27.273  1.00  0.00     0.134 A 
ATOM     71  C   UNL A   1      42.403  27.643  26.147  1.00  0.00     0.134 A 
ATOM     72  F   UNL A   1      41.882  24.776  28.286  1.00  0.00    -0.206 F 
ATOM     73  C   UNL A   1      42.754  24.912  26.152  1.00  0.00     0.040 A 
ATOM     74  C   UNL A   1      42.953  26.995  25.027  1.00  0.00     0.040 A 
ATOM     75  F   UNL A   1      42.145  28.941  25.963  1.00  0.00    -0.206 F 
ATOM     76  C   UNL A   1      43.142  25.624  25.031  1.00  0.00     0.006 A 
ENDBRANCH  55  69
BRANCH  56  77
ATOM     77  C   UNL A   1      39.818  33.141  34.485  1.00  0.00     0.057 A 
ATOM     78  C   UNL A   1      38.740  32.233  34.560  1.00  0.00     0.134 A 
ATOM     79  C   UNL A   1      39.698  34.320  35.229  1.00  0.00     0.134 A 
ATOM     80  F   UNL A   1      38.782  31.082  33.869  1.00  0.00    -0.206 F 
ATOM     81  C   UNL A   1      37.678  32.413  35.452  1.00  0.00     0.040 A 
ATOM     82  C   UNL A   1      38.624  34.518  36.111  1.00  0.00     0.040 A 
ATOM     83  F   UNL A   1      40.669  35.244  35.211  1.00  0.00    -0.206 F 
ATOM     84  C   UNL A   1      37.639  33.541  36.262  1.00  0.00     0.006 A 
ENDBRANCH  56  77
BRANCH  68  85
ATOM     85  C   UNL A   1      43.255  26.796  34.007  1.00  0.00     0.057 A 
ATOM     86  C   UNL A   1      42.367  26.000  34.746  1.00  0.00     0.134 A 
ATOM     87  C   UNL A   1      44.504  26.194  33.730  1.00  0.00     0.134 A 
ATOM     88  F   UNL A   1      41.102  26.378  34.972  1.00  0.00    -0.206 F 
ATOM     89  C   UNL A   1      42.718  24.738  35.238  1.00  0.00     0.040 A 
ATOM     90  C   UNL A   1      44.840  24.909  34.158  1.00  0.00     0.040 A 
ATOM     91  F   UNL A   1      45.446  26.814  33.004  1.00  0.00    -0.206 F 
ATOM     92  C   UNL A   1      43.953  24.182  34.934  1.00  0.00     0.006 A 
ENDBRANCH  68  85
ENDBRANCH  42  43
ENDBRANCH  34  37
ENDBRANCH  32  33
ENDBRANCH  31  32
ENDBRANCH   1  31
TORSDOF 14
ENDMDL
