MODEL 1
REMARK VINA RESULT:     -10.6      0.000      0.000
REMARK SMILES C[C@@H](NC(=O)NCCC(=O)NC1CC1)C(=O)NCCCCNC(=O)c1ccc(-c2c3nc(c(-c4c(F)cccc4F)c4ccc([nH]4)c(-c4c(F)cccc4F)c4nc(c(-c5c(F)cccc5F)c5ccc2[nH]5)C=C4)C=C3)cc1
REMARK SMILES IDX 18 1 17 2 15 3 16 4 2 6 1 7 3 8 4 9 5 11 6 12 7 14 8 15 9 16
REMARK SMILES IDX 10 17 11 18 12 20 13 21 14 22 19 23 20 24 21 25 22 26 23 27
REMARK SMILES IDX 24 29 25 30 26 31 78 32 27 33 77 34 28 35 29 36 30 37 71 38
REMARK SMILES IDX 31 39 76 40 70 41 72 42 32 43 75 44 69 45 68 46 33 48 59 49
REMARK SMILES IDX 42 50 58 51 43 52 46 53 57 54 73 55 44 56 45 57 56 59 74 60
REMARK SMILES IDX 47 61 34 62 35 63 40 64 36 65 37 66 39 67 41 68 38 69 60 70
REMARK SMILES IDX 61 71 66 72 62 73 63 74 65 75 67 76 64 77 48 78 49 79 54 80
REMARK SMILES IDX 50 81 51 82 53 83 55 84 52 85
REMARK H PARENT 17 5 3 10 6 13 11 19 22 28 72 47 46 58
REMARK Flexibility Score: inf
ROOT
ATOM      1  C   UNL A   1      35.424  20.937  25.709  1.00  0.00     0.116 C 
ENDROOT
BRANCH   1   2
ATOM      2  N   UNL A   1      34.309  20.027  25.542  1.00  0.00    -0.354 N 
ATOM      3  C   UNL A   1      32.991  20.306  25.355  1.00  0.00     0.242 C 
ATOM      4  O   UNL A   1      32.212  19.348  25.305  1.00  0.00    -0.273 OA
ATOM      5  H   UNL A   1      34.540  19.069  25.568  1.00  0.00     0.163 HD
BRANCH   3   6
ATOM      6  C   UNL A   1      32.448  21.748  25.359  1.00  0.00     0.170 C 
ATOM      7  C   UNL A   1      32.033  22.064  23.917  1.00  0.00     0.041 C 
BRANCH   6   8
ATOM      8  N   UNL A   1      31.326  22.039  26.246  1.00  0.00    -0.327 N 
ATOM      9  C   UNL A   1      30.876  23.139  26.847  1.00  0.00     0.315 C 
ATOM     10  H   UNL A   1      30.780  21.245  26.444  1.00  0.00     0.166 HD
ATOM     11  O   UNL A   1      29.822  23.052  27.482  1.00  0.00    -0.249 OA
ATOM     12  N   UNL A   1      31.526  24.300  26.890  1.00  0.00    -0.338 N 
ATOM     13  H   UNL A   1      31.125  24.921  27.540  1.00  0.00     0.165 HD
BRANCH  12  14
ATOM     14  C   UNL A   1      32.677  24.885  26.224  1.00  0.00     0.127 C 
BRANCH  14  15
ATOM     15  C   UNL A   1      32.285  25.779  25.053  1.00  0.00     0.121 C 
BRANCH  15  16
ATOM     16  C   UNL A   1      31.031  26.586  25.309  1.00  0.00     0.221 C 
ATOM     17  O   UNL A   1      29.916  26.121  25.072  1.00  0.00    -0.275 OA
ATOM     18  N   UNL A   1      31.130  27.859  25.806  1.00  0.00    -0.353 N 
ATOM     19  H   UNL A   1      30.278  28.277  26.066  1.00  0.00     0.163 HD
BRANCH  18  20
ATOM     20  C   UNL A   1      32.291  28.666  25.999  1.00  0.00     0.082 C 
ATOM     21  C   UNL A   1      32.239  29.723  27.076  1.00  0.00     0.027 C 
ATOM     22  C   UNL A   1      33.158  28.549  27.218  1.00  0.00     0.027 C 
ENDBRANCH  18  20
ENDBRANCH  15  16
ENDBRANCH  14  15
ENDBRANCH  12  14
ENDBRANCH   6   8
ENDBRANCH   3   6
ENDBRANCH   1   2
BRANCH   1  23
ATOM     23  C   UNL A   1      36.428  20.798  24.571  1.00  0.00     0.023 C 
BRANCH  23  24
ATOM     24  C   UNL A   1      37.553  19.799  24.860  1.00  0.00     0.023 C 
BRANCH  24  25
ATOM     25  C   UNL A   1      38.702  20.362  25.692  1.00  0.00     0.116 C 
BRANCH  25  26
ATOM     26  N   UNL A   1      39.814  19.423  25.792  1.00  0.00    -0.352 N 
ATOM     27  C   UNL A   1      41.135  19.662  26.062  1.00  0.00     0.251 C 
ATOM     28  H   UNL A   1      39.579  18.479  25.645  1.00  0.00     0.163 HD
ATOM     29  O   UNL A   1      41.976  18.781  25.856  1.00  0.00    -0.269 OA
BRANCH  27  30
ATOM     30  C   UNL A   1      41.564  20.969  26.594  1.00  0.00     0.039 A 
ATOM     31  C   UNL A   1      42.072  21.931  25.717  1.00  0.00     0.014 A 
ATOM     32  C   UNL A   1      41.487  21.239  27.963  1.00  0.00     0.014 A 
ATOM     33  C   UNL A   1      42.440  23.186  26.205  1.00  0.00     0.010 A 
ATOM     34  C   UNL A   1      41.780  22.513  28.436  1.00  0.00     0.010 A 
ATOM     35  C   UNL A   1      42.265  23.499  27.562  1.00  0.00    -0.014 A 
BRANCH  35  36
ATOM     36  C   UNL A   1      42.582  24.850  28.090  1.00  0.00     0.031 A 
ATOM     37  C   UNL A   1      43.983  25.184  28.523  1.00  0.00     0.074 A 
ATOM     38  C   UNL A   1      41.595  25.754  28.242  1.00  0.00     0.049 A 
ATOM     39  N   UNL A   1      44.439  26.279  29.075  1.00  0.00    -0.248 NA
ATOM     40  C   UNL A   1      45.001  24.138  28.336  1.00  0.00     0.031 C 
ATOM     41  C   UNL A   1      40.187  25.535  27.906  1.00  0.00     0.029 A 
ATOM     42  N   UNL A   1      41.625  27.036  28.731  1.00  0.00    -0.354 N 
ATOM     43  C   UNL A   1      45.789  26.050  29.311  1.00  0.00     0.074 A 
ATOM     44  C   UNL A   1      46.066  24.693  28.893  1.00  0.00     0.031 C 
ATOM     45  C   UNL A   1      39.491  26.650  28.182  1.00  0.00     0.029 A 
ATOM     46  C   UNL A   1      40.394  27.647  28.748  1.00  0.00     0.049 A 
ATOM     47  H   UNL A   1      42.449  27.476  29.040  1.00  0.00     0.167 HD
ATOM     48  C   UNL A   1      46.719  26.901  29.807  1.00  0.00     0.037 A 
ATOM     49  C   UNL A   1      40.032  28.869  29.181  1.00  0.00     0.037 A 
ATOM     50  C   UNL A   1      46.444  28.257  30.204  1.00  0.00     0.049 A 
ATOM     51  C   UNL A   1      41.081  29.792  29.735  1.00  0.00     0.074 A 
ATOM     52  C   UNL A   1      47.328  29.215  30.670  1.00  0.00     0.029 A 
ATOM     53  N   UNL A   1      45.189  28.846  30.186  1.00  0.00    -0.354 N 
ATOM     54  N   UNL A   1      42.367  29.586  29.889  1.00  0.00    -0.248 NA
ATOM     55  C   UNL A   1      40.630  31.123  30.169  1.00  0.00     0.031 C 
ATOM     56  C   UNL A   1      46.600  30.370  30.973  1.00  0.00     0.029 A 
ATOM     57  C   UNL A   1      45.272  30.149  30.650  1.00  0.00     0.049 A 
ATOM     58  H   UNL A   1      44.362  28.404  29.888  1.00  0.00     0.167 HD
ATOM     59  C   UNL A   1      42.882  30.765  30.411  1.00  0.00     0.074 A 
ATOM     60  C   UNL A   1      41.773  31.689  30.532  1.00  0.00     0.031 C 
ATOM     61  C   UNL A   1      44.159  31.058  30.757  1.00  0.00     0.037 A 
BRANCH  48  62
ATOM     62  C   UNL A   1      48.124  26.388  29.940  1.00  0.00     0.057 A 
ATOM     63  C   UNL A   1      48.571  25.754  31.107  1.00  0.00     0.134 A 
ATOM     64  C   UNL A   1      49.031  26.499  28.879  1.00  0.00     0.134 A 
ATOM     65  F   UNL A   1      47.755  25.625  32.166  1.00  0.00    -0.206 F 
ATOM     66  C   UNL A   1      49.876  25.276  31.225  1.00  0.00     0.040 A 
ATOM     67  C   UNL A   1      50.331  25.999  28.975  1.00  0.00     0.040 A 
ATOM     68  F   UNL A   1      48.668  27.088  27.730  1.00  0.00    -0.206 F 
ATOM     69  C   UNL A   1      50.759  25.392  30.154  1.00  0.00     0.006 A 
ENDBRANCH  48  62
BRANCH  49  70
ATOM     70  C   UNL A   1      38.613  29.298  29.092  1.00  0.00     0.057 A 
ATOM     71  C   UNL A   1      37.775  29.259  30.212  1.00  0.00     0.134 A 
ATOM     72  C   UNL A   1      38.060  29.749  27.888  1.00  0.00     0.134 A 
ATOM     73  F   UNL A   1      38.243  28.819  31.390  1.00  0.00    -0.206 F 
ATOM     74  C   UNL A   1      36.434  29.635  30.135  1.00  0.00     0.040 A 
ATOM     75  C   UNL A   1      36.727  30.153  27.802  1.00  0.00     0.040 A 
ATOM     76  F   UNL A   1      38.813  29.818  26.780  1.00  0.00    -0.206 F 
ATOM     77  C   UNL A   1      35.906  30.088  28.927  1.00  0.00     0.006 A 
ENDBRANCH  49  70
BRANCH  61  78
ATOM     78  C   UNL A   1      44.432  32.442  31.268  1.00  0.00     0.057 A 
ATOM     79  C   UNL A   1      44.358  32.758  32.630  1.00  0.00     0.134 A 
ATOM     80  C   UNL A   1      44.812  33.463  30.387  1.00  0.00     0.134 A 
ATOM     81  F   UNL A   1      43.987  31.829  33.524  1.00  0.00    -0.206 F 
ATOM     82  C   UNL A   1      44.630  34.046  33.096  1.00  0.00     0.040 A 
ATOM     83  C   UNL A   1      45.112  34.747  30.843  1.00  0.00     0.040 A 
ATOM     84  F   UNL A   1      44.911  33.225  29.070  1.00  0.00    -0.206 F 
ATOM     85  C   UNL A   1      45.015  35.043  32.202  1.00  0.00     0.006 A 
ENDBRANCH  61  78
ENDBRANCH  35  36
ENDBRANCH  27  30
ENDBRANCH  25  26
ENDBRANCH  24  25
ENDBRANCH  23  24
ENDBRANCH   1  23
TORSDOF 16
ENDMDL
MODEL 2
REMARK VINA RESULT:     -10.5      4.700     10.011
REMARK SMILES C[C@@H](NC(=O)NCCC(=O)NC1CC1)C(=O)NCCCCNC(=O)c1ccc(-c2c3nc(c(-c4c(F)cccc4F)c4ccc([nH]4)c(-c4c(F)cccc4F)c4nc(c(-c5c(F)cccc5F)c5ccc2[nH]5)C=C4)C=C3)cc1
REMARK SMILES IDX 18 1 17 2 15 3 16 4 2 6 1 7 3 8 4 9 5 11 6 12 7 14 8 15 9 16
REMARK SMILES IDX 10 17 11 18 12 20 13 21 14 22 19 23 20 24 21 25 22 26 23 27
REMARK SMILES IDX 24 29 25 30 26 31 78 32 27 33 77 34 28 35 29 36 30 37 71 38
REMARK SMILES IDX 31 39 76 40 70 41 72 42 32 43 75 44 69 45 68 46 33 48 59 49
REMARK SMILES IDX 42 50 58 51 43 52 46 53 57 54 73 55 44 56 45 57 56 59 74 60
REMARK SMILES IDX 47 61 34 62 35 63 40 64 36 65 37 66 39 67 41 68 38 69 60 70
REMARK SMILES IDX 61 71 66 72 62 73 63 74 65 75 67 76 64 77 48 78 49 79 54 80
REMARK SMILES IDX 50 81 51 82 53 83 55 84 52 85
REMARK H PARENT 17 5 3 10 6 13 11 19 22 28 72 47 46 58
REMARK Flexibility Score: inf
ROOT
ATOM      1  C   UNL A   1      34.753  34.169  33.728  1.00  0.00     0.116 C 
ENDROOT
BRANCH   1   2
ATOM      2  N   UNL A   1      34.584  35.606  33.798  1.00  0.00    -0.354 N 
ATOM      3  C   UNL A   1      33.712  36.403  33.123  1.00  0.00     0.242 C 
ATOM      4  O   UNL A   1      33.804  37.622  33.305  1.00  0.00    -0.273 OA
ATOM      5  H   UNL A   1      35.187  36.071  34.422  1.00  0.00     0.163 HD
BRANCH   3   6
ATOM      6  C   UNL A   1      32.747  35.848  32.058  1.00  0.00     0.170 C 
ATOM      7  C   UNL A   1      31.344  35.881  32.677  1.00  0.00     0.041 C 
BRANCH   6   8
ATOM      8  N   UNL A   1      32.707  36.530  30.769  1.00  0.00    -0.327 N 
ATOM      9  C   UNL A   1      33.198  36.264  29.559  1.00  0.00     0.315 C 
ATOM     10  H   UNL A   1      32.207  37.377  30.800  1.00  0.00     0.166 HD
ATOM     11  O   UNL A   1      32.903  37.033  28.642  1.00  0.00    -0.249 OA
ATOM     12  N   UNL A   1      34.056  35.283  29.289  1.00  0.00    -0.338 N 
ATOM     13  H   UNL A   1      34.444  35.374  28.388  1.00  0.00     0.165 HD
BRANCH  12  14
ATOM     14  C   UNL A   1      34.566  34.111  29.981  1.00  0.00     0.127 C 
BRANCH  14  15
ATOM     15  C   UNL A   1      34.286  32.816  29.227  1.00  0.00     0.121 C 
BRANCH  15  16
ATOM     16  C   UNL A   1      35.206  32.602  28.044  1.00  0.00     0.221 C 
ATOM     17  O   UNL A   1      35.886  33.523  27.591  1.00  0.00    -0.275 OA
ATOM     18  N   UNL A   1      35.282  31.366  27.456  1.00  0.00    -0.353 N 
ATOM     19  H   UNL A   1      35.987  31.265  26.778  1.00  0.00     0.163 HD
BRANCH  18  20
ATOM     20  C   UNL A   1      34.484  30.206  27.685  1.00  0.00     0.082 C 
ATOM     21  C   UNL A   1      33.444  29.853  26.649  1.00  0.00     0.027 C 
ATOM     22  C   UNL A   1      34.625  28.956  26.866  1.00  0.00     0.027 C 
ENDBRANCH  18  20
ENDBRANCH  15  16
ENDBRANCH  14  15
ENDBRANCH  12  14
ENDBRANCH   6   8
ENDBRANCH   3   6
ENDBRANCH   1   2
BRANCH   1  23
ATOM     23  C   UNL A   1      36.217  33.774  33.883  1.00  0.00     0.023 C 
BRANCH  23  24
ATOM     24  C   UNL A   1      37.044  33.961  32.607  1.00  0.00     0.023 C 
BRANCH  24  25
ATOM     25  C   UNL A   1      37.631  32.671  32.039  1.00  0.00     0.116 C 
BRANCH  25  26
ATOM     26  N   UNL A   1      36.619  31.635  31.878  1.00  0.00    -0.352 N 
ATOM     27  C   UNL A   1      36.659  30.482  31.138  1.00  0.00     0.251 C 
ATOM     28  H   UNL A   1      35.783  31.785  32.376  1.00  0.00     0.163 HD
ATOM     29  O   UNL A   1      35.619  29.854  30.919  1.00  0.00    -0.269 OA
BRANCH  27  30
ATOM     30  C   UNL A   1      37.938  29.989  30.595  1.00  0.00     0.039 A 
ATOM     31  C   UNL A   1      38.228  30.185  29.243  1.00  0.00     0.014 A 
ATOM     32  C   UNL A   1      38.844  29.311  31.416  1.00  0.00     0.014 A 
ATOM     33  C   UNL A   1      39.455  29.759  28.730  1.00  0.00     0.010 A 
ATOM     34  C   UNL A   1      40.095  28.957  30.923  1.00  0.00     0.010 A 
ATOM     35  C   UNL A   1      40.412  29.173  29.574  1.00  0.00    -0.014 A 
BRANCH  35  36
ATOM     36  C   UNL A   1      41.750  28.777  29.066  1.00  0.00     0.031 A 
ATOM     37  C   UNL A   1      41.994  27.373  28.588  1.00  0.00     0.074 A 
ATOM     38  C   UNL A   1      42.763  29.665  29.097  1.00  0.00     0.049 A 
ATOM     39  N   UNL A   1      43.107  26.820  28.179  1.00  0.00    -0.248 NA
ATOM     40  C   UNL A   1      40.839  26.461  28.595  1.00  0.00     0.031 C 
ATOM     41  C   UNL A   1      42.667  31.042  29.584  1.00  0.00     0.029 A 
ATOM     42  N   UNL A   1      44.077  29.535  28.725  1.00  0.00    -0.354 N 
ATOM     43  C   UNL A   1      42.790  25.498  27.893  1.00  0.00     0.074 A 
ATOM     44  C   UNL A   1      41.394  25.317  28.227  1.00  0.00     0.031 C 
ATOM     45  C   UNL A   1      43.865  31.635  29.464  1.00  0.00     0.029 A 
ATOM     46  C   UNL A   1      44.822  30.672  28.927  1.00  0.00     0.049 A 
ATOM     47  H   UNL A   1      44.451  28.707  28.347  1.00  0.00     0.167 HD
ATOM     48  C   UNL A   1      43.583  24.529  27.377  1.00  0.00     0.037 A 
ATOM     49  C   UNL A   1      46.130  30.908  28.715  1.00  0.00     0.037 A 
ATOM     50  C   UNL A   1      44.966  24.717  27.027  1.00  0.00     0.049 A 
ATOM     51  C   UNL A   1      46.991  29.814  28.148  1.00  0.00     0.074 A 
ATOM     52  C   UNL A   1      45.841  23.812  26.449  1.00  0.00     0.029 A 
ATOM     53  N   UNL A   1      45.679  25.890  27.228  1.00  0.00    -0.354 N 
ATOM     54  N   UNL A   1      46.662  28.588  27.819  1.00  0.00    -0.248 NA
ATOM     55  C   UNL A   1      48.406  30.139  27.915  1.00  0.00     0.031 C 
ATOM     56  C   UNL A   1      47.093  24.425  26.338  1.00  0.00     0.029 A 
ATOM     57  C   UNL A   1      46.987  25.726  26.802  1.00  0.00     0.049 A 
ATOM     58  H   UNL A   1      45.310  26.715  27.616  1.00  0.00     0.167 HD
ATOM     59  C   UNL A   1      47.817  28.005  27.317  1.00  0.00     0.074 A 
ATOM     60  C   UNL A   1      48.853  29.016  27.369  1.00  0.00     0.031 C 
ATOM     61  C   UNL A   1      48.004  26.745  26.854  1.00  0.00     0.037 A 
BRANCH  48  62
ATOM     62  C   UNL A   1      42.966  23.179  27.151  1.00  0.00     0.057 A 
ATOM     63  C   UNL A   1      42.741  22.284  28.207  1.00  0.00     0.134 A 
ATOM     64  C   UNL A   1      42.562  22.779  25.871  1.00  0.00     0.134 A 
ATOM     65  F   UNL A   1      43.115  22.600  29.457  1.00  0.00    -0.206 F 
ATOM     66  C   UNL A   1      42.165  21.031  27.993  1.00  0.00     0.040 A 
ATOM     67  C   UNL A   1      41.958  21.540  25.650  1.00  0.00     0.040 A 
ATOM     68  F   UNL A   1      42.740  23.588  24.816  1.00  0.00    -0.206 F 
ATOM     69  C   UNL A   1      41.765  20.659  26.712  1.00  0.00     0.006 A 
ENDBRANCH  48  62
BRANCH  49  70
ATOM     70  C   UNL A   1      46.703  32.243  29.024  1.00  0.00     0.057 A 
ATOM     71  C   UNL A   1      47.221  32.531  30.292  1.00  0.00     0.134 A 
ATOM     72  C   UNL A   1      46.741  33.262  28.066  1.00  0.00     0.134 A 
ATOM     73  F   UNL A   1      47.195  31.600  31.259  1.00  0.00    -0.206 F 
ATOM     74  C   UNL A   1      47.738  33.789  30.602  1.00  0.00     0.040 A 
ATOM     75  C   UNL A   1      47.279  34.517  28.354  1.00  0.00     0.040 A 
ATOM     76  F   UNL A   1      46.268  33.046  26.828  1.00  0.00    -0.206 F 
ATOM     77  C   UNL A   1      47.772  34.786  29.630  1.00  0.00     0.006 A 
ENDBRANCH  49  70
BRANCH  61  78
ATOM     78  C   UNL A   1      49.369  26.400  26.334  1.00  0.00     0.057 A 
ATOM     79  C   UNL A   1      49.801  26.800  25.064  1.00  0.00     0.134 A 
ATOM     80  C   UNL A   1      50.275  25.690  27.132  1.00  0.00     0.134 A 
ATOM     81  F   UNL A   1      48.977  27.472  24.245  1.00  0.00    -0.206 F 
ATOM     82  C   UNL A   1      51.079  26.487  24.596  1.00  0.00     0.040 A 
ATOM     83  C   UNL A   1      51.564  25.394  26.686  1.00  0.00     0.040 A 
ATOM     84  F   UNL A   1      49.928  25.284  28.363  1.00  0.00    -0.206 F 
ATOM     85  C   UNL A   1      51.967  25.788  25.412  1.00  0.00     0.006 A 
ENDBRANCH  61  78
ENDBRANCH  35  36
ENDBRANCH  27  30
ENDBRANCH  25  26
ENDBRANCH  24  25
ENDBRANCH  23  24
ENDBRANCH   1  23
TORSDOF 16
ENDMDL
MODEL 3
REMARK VINA RESULT:     -10.5      0.845      6.369
REMARK SMILES C[C@@H](NC(=O)NCCC(=O)NC1CC1)C(=O)NCCCCNC(=O)c1ccc(-c2c3nc(c(-c4c(F)cccc4F)c4ccc([nH]4)c(-c4c(F)cccc4F)c4nc(c(-c5c(F)cccc5F)c5ccc2[nH]5)C=C4)C=C3)cc1
REMARK SMILES IDX 18 1 17 2 15 3 16 4 2 6 1 7 3 8 4 9 5 11 6 12 7 14 8 15 9 16
REMARK SMILES IDX 10 17 11 18 12 20 13 21 14 22 19 23 20 24 21 25 22 26 23 27
REMARK SMILES IDX 24 29 25 30 26 31 78 32 27 33 77 34 28 35 29 36 30 37 71 38
REMARK SMILES IDX 31 39 76 40 70 41 72 42 32 43 75 44 69 45 68 46 33 48 59 49
REMARK SMILES IDX 42 50 58 51 43 52 46 53 57 54 73 55 44 56 45 57 56 59 74 60
REMARK SMILES IDX 47 61 34 62 35 63 40 64 36 65 37 66 39 67 41 68 38 69 60 70
REMARK SMILES IDX 61 71 66 72 62 73 63 74 65 75 67 76 64 77 48 78 49 79 54 80
REMARK SMILES IDX 50 81 51 82 53 83 55 84 52 85
REMARK H PARENT 17 5 3 10 6 13 11 19 22 28 72 47 46 58
REMARK Flexibility Score: inf
ROOT
ATOM      1  C   UNL A   1      35.592  21.208  25.636  1.00  0.00     0.116 C 
ENDROOT
BRANCH   1   2
ATOM      2  N   UNL A   1      34.531  20.222  25.600  1.00  0.00    -0.354 N 
ATOM      3  C   UNL A   1      33.195  20.402  25.421  1.00  0.00     0.242 C 
ATOM      4  O   UNL A   1      32.474  19.402  25.497  1.00  0.00    -0.273 OA
ATOM      5  H   UNL A   1      34.819  19.288  25.724  1.00  0.00     0.163 HD
BRANCH   3   6
ATOM      6  C   UNL A   1      32.566  21.802  25.282  1.00  0.00     0.170 C 
ATOM      7  C   UNL A   1      32.089  21.927  23.830  1.00  0.00     0.041 C 
BRANCH   6   8
ATOM      8  N   UNL A   1      31.456  22.130  26.171  1.00  0.00    -0.327 N 
ATOM      9  C   UNL A   1      31.055  23.239  26.790  1.00  0.00     0.315 C 
ATOM     10  H   UNL A   1      30.873  21.358  26.354  1.00  0.00     0.166 HD
ATOM     11  O   UNL A   1      29.997  23.190  27.421  1.00  0.00    -0.249 OA
ATOM     12  N   UNL A   1      31.758  24.367  26.854  1.00  0.00    -0.338 N 
ATOM     13  H   UNL A   1      31.384  24.995  27.514  1.00  0.00     0.165 HD
BRANCH  12  14
ATOM     14  C   UNL A   1      32.937  24.910  26.201  1.00  0.00     0.127 C 
BRANCH  14  15
ATOM     15  C   UNL A   1      32.713  26.319  25.662  1.00  0.00     0.121 C 
BRANCH  15  16
ATOM     16  C   UNL A   1      31.432  26.952  26.160  1.00  0.00     0.221 C 
ATOM     17  O   UNL A   1      31.205  27.069  27.364  1.00  0.00    -0.275 OA
ATOM     18  N   UNL A   1      30.499  27.399  25.260  1.00  0.00    -0.353 N 
ATOM     19  H   UNL A   1      29.753  27.910  25.647  1.00  0.00     0.163 HD
BRANCH  18  20
ATOM     20  C   UNL A   1      30.455  27.227  23.845  1.00  0.00     0.082 C 
ATOM     21  C   UNL A   1      29.282  27.821  23.102  1.00  0.00     0.027 C 
ATOM     22  C   UNL A   1      30.661  28.367  22.889  1.00  0.00     0.027 C 
ENDBRANCH  18  20
ENDBRANCH  15  16
ENDBRANCH  14  15
ENDBRANCH  12  14
ENDBRANCH   6   8
ENDBRANCH   3   6
ENDBRANCH   1   2
BRANCH   1  23
ATOM     23  C   UNL A   1      36.638  20.936  24.561  1.00  0.00     0.023 C 
BRANCH  23  24
ATOM     24  C   UNL A   1      37.664  19.870  24.955  1.00  0.00     0.023 C 
BRANCH  24  25
ATOM     25  C   UNL A   1      38.867  20.404  25.729  1.00  0.00     0.116 C 
BRANCH  25  26
ATOM     26  N   UNL A   1      39.932  19.414  25.832  1.00  0.00    -0.352 N 
ATOM     27  C   UNL A   1      41.265  19.591  26.096  1.00  0.00     0.251 C 
ATOM     28  H   UNL A   1      39.653  18.481  25.693  1.00  0.00     0.163 HD
ATOM     29  O   UNL A   1      42.061  18.670  25.893  1.00  0.00    -0.269 OA
BRANCH  27  30
ATOM     30  C   UNL A   1      41.758  20.880  26.616  1.00  0.00     0.039 A 
ATOM     31  C   UNL A   1      42.239  21.840  25.722  1.00  0.00     0.014 A 
ATOM     32  C   UNL A   1      41.767  21.134  27.991  1.00  0.00     0.014 A 
ATOM     33  C   UNL A   1      42.668  23.079  26.202  1.00  0.00     0.010 A 
ATOM     34  C   UNL A   1      42.121  22.395  28.460  1.00  0.00     0.010 A 
ATOM     35  C   UNL A   1      42.579  23.379  27.571  1.00  0.00    -0.014 A 
BRANCH  35  36
ATOM     36  C   UNL A   1      42.962  24.715  28.095  1.00  0.00     0.031 A 
ATOM     37  C   UNL A   1      41.913  25.763  28.335  1.00  0.00     0.074 A 
ATOM     38  C   UNL A   1      44.263  25.004  28.291  1.00  0.00     0.049 A 
ATOM     39  N   UNL A   1      42.057  27.007  28.717  1.00  0.00    -0.248 NA
ATOM     40  C   UNL A   1      40.516  25.372  28.085  1.00  0.00     0.031 C 
ATOM     41  C   UNL A   1      45.380  24.090  28.049  1.00  0.00     0.029 A 
ATOM     42  N   UNL A   1      44.866  26.157  28.728  1.00  0.00    -0.354 N 
ATOM     43  C   UNL A   1      40.777  27.546  28.743  1.00  0.00     0.074 A 
ATOM     44  C   UNL A   1      39.874  26.513  28.284  1.00  0.00     0.031 C 
ATOM     45  C   UNL A   1      46.531  24.710  28.356  1.00  0.00     0.029 A 
ATOM     46  C   UNL A   1      46.236  26.075  28.781  1.00  0.00     0.049 A 
ATOM     47  H   UNL A   1      44.365  26.966  28.980  1.00  0.00     0.167 HD
ATOM     48  C   UNL A   1      40.386  28.782  29.136  1.00  0.00     0.037 A 
ATOM     49  C   UNL A   1      47.154  26.999  29.123  1.00  0.00     0.037 A 
ATOM     50  C   UNL A   1      41.284  29.801  29.610  1.00  0.00     0.049 A 
ATOM     51  C   UNL A   1      46.695  28.367  29.549  1.00  0.00     0.074 A 
ATOM     52  C   UNL A   1      40.981  31.068  30.080  1.00  0.00     0.029 A 
ATOM     53  N   UNL A   1      42.664  29.673  29.670  1.00  0.00    -0.354 N 
ATOM     54  N   UNL A   1      45.476  28.842  29.633  1.00  0.00    -0.248 NA
ATOM     55  C   UNL A   1      47.741  29.326  29.935  1.00  0.00     0.031 C 
ATOM     56  C   UNL A   1      42.180  31.720  30.385  1.00  0.00     0.029 A 
ATOM     57  C   UNL A   1      43.227  30.844  30.152  1.00  0.00     0.049 A 
ATOM     58  H   UNL A   1      43.168  28.869  29.408  1.00  0.00     0.167 HD
ATOM     59  C   UNL A   1      45.605  30.141  30.105  1.00  0.00     0.074 A 
ATOM     60  C   UNL A   1      47.020  30.374  30.305  1.00  0.00     0.031 C 
ATOM     61  C   UNL A   1      44.638  31.058  30.352  1.00  0.00     0.037 A 
BRANCH  48  62
ATOM     62  C   UNL A   1      38.919  29.094  29.076  1.00  0.00     0.057 A 
ATOM     63  C   UNL A   1      38.095  28.986  30.206  1.00  0.00     0.134 A 
ATOM     64  C   UNL A   1      38.327  29.538  27.887  1.00  0.00     0.134 A 
ATOM     65  F   UNL A   1      38.596  28.555  31.374  1.00  0.00    -0.206 F 
ATOM     66  C   UNL A   1      36.732  29.281  30.147  1.00  0.00     0.040 A 
ATOM     67  C   UNL A   1      36.971  29.864  27.824  1.00  0.00     0.040 A 
ATOM     68  F   UNL A   1      39.057  29.671  26.771  1.00  0.00    -0.206 F 
ATOM     69  C   UNL A   1      36.168  29.728  28.955  1.00  0.00     0.006 A 
ENDBRANCH  48  62
BRANCH  49  70
ATOM     70  C   UNL A   1      48.598  26.658  29.096  1.00  0.00     0.057 A 
ATOM     71  C   UNL A   1      49.379  26.914  27.963  1.00  0.00     0.134 A 
ATOM     72  C   UNL A   1      49.230  26.062  30.193  1.00  0.00     0.134 A 
ATOM     73  F   UNL A   1      48.826  27.467  26.872  1.00  0.00    -0.206 F 
ATOM     74  C   UNL A   1      50.732  26.574  27.915  1.00  0.00     0.040 A 
ATOM     75  C   UNL A   1      50.588  25.740  30.169  1.00  0.00     0.040 A 
ATOM     76  F   UNL A   1      48.539  25.798  31.312  1.00  0.00    -0.206 F 
ATOM     77  C   UNL A   1      51.341  25.988  29.022  1.00  0.00     0.006 A 
ENDBRANCH  49  70
BRANCH  61  78
ATOM     78  C   UNL A   1      45.074  32.386  30.898  1.00  0.00     0.057 A 
ATOM     79  C   UNL A   1      45.214  32.611  32.272  1.00  0.00     0.134 A 
ATOM     80  C   UNL A   1      45.394  33.440  30.033  1.00  0.00     0.134 A 
ATOM     81  F   UNL A   1      44.912  31.647  33.155  1.00  0.00    -0.206 F 
ATOM     82  C   UNL A   1      45.636  33.847  32.769  1.00  0.00     0.040 A 
ATOM     83  C   UNL A   1      45.842  34.670  30.516  1.00  0.00     0.040 A 
ATOM     84  F   UNL A   1      45.289  33.287  28.704  1.00  0.00    -0.206 F 
ATOM     85  C   UNL A   1      45.958  34.877  31.889  1.00  0.00     0.006 A 
ENDBRANCH  61  78
ENDBRANCH  35  36
ENDBRANCH  27  30
ENDBRANCH  25  26
ENDBRANCH  24  25
ENDBRANCH  23  24
ENDBRANCH   1  23
TORSDOF 16
ENDMDL
