MODEL 1
REMARK VINA RESULT:     -13.1      0.000      0.000
REMARK SMILES CC1=C[C@H](C)[C@H](CN2C[C@]34C=C[C@@H](O3)[C@H](C(=O)NCCCCNC(=O)c3ccc(-c5c6nc(c(-c7c(F)cccc7F)c7ccc([nH]7)c(-c7c(F)cccc7F)c7nc(c(-c8c(F)cccc8F)c8ccc5[nH]8)C=C7)C=C6)cc3)[C@@H]4C2=O)[C@H](C)C1
REMARK SMILES IDX 20 1 19 2 18 3 16 4 17 5 15 7 8 8 9 9 81 10 10 11 80 12
REMARK SMILES IDX 82 13 11 14 14 15 12 16 13 17 7 18 6 19 1 20 2 21 3 22 85 23
REMARK SMILES IDX 4 24 83 25 5 26 84 27 21 28 22 29 23 30 24 31 25 33 26 34
REMARK SMILES IDX 27 35 79 36 28 37 78 38 29 39 30 40 31 41 72 42 32 43 77 44
REMARK SMILES IDX 71 45 73 46 33 47 76 48 70 49 69 50 34 52 60 53 43 54 59 55
REMARK SMILES IDX 44 56 47 57 58 58 74 59 45 60 46 61 57 63 75 64 48 65 35 66
REMARK SMILES IDX 36 67 41 68 37 69 38 70 40 71 42 72 39 73 61 74 62 75 67 76
REMARK SMILES IDX 63 77 64 78 66 79 68 80 65 81 49 82 50 83 55 84 51 85 52 86
REMARK SMILES IDX 54 87 56 88 53 89
REMARK H PARENT 18 6 23 32 73 51 47 62
REMARK Flexibility Score: inf
ROOT
ATOM      1  C   UNL A   1      31.573  30.660  26.171  1.00  0.00     0.023 C 
ENDROOT
BRANCH   1   2
ATOM      2  C   UNL A   1      32.428  29.750  27.057  1.00  0.00     0.116 C 
BRANCH   2   3
ATOM      3  N   UNL A   1      31.916  28.449  27.541  1.00  0.00    -0.356 N 
ATOM      4  C   UNL A   1      31.984  27.320  26.701  1.00  0.00     0.227 C 
ATOM      5  O   UNL A   1      33.068  26.772  26.510  1.00  0.00    -0.275 OA
ATOM      6  H   UNL A   1      31.530  28.373  28.443  1.00  0.00     0.163 HD
BRANCH   4   7
ATOM      7  C   UNL A   1      30.669  26.707  26.146  1.00  0.00     0.127 C 
ATOM      8  N   UNL A   1      32.052  23.523  26.074  1.00  0.00    -0.339 N 
ATOM      9  C   UNL A   1      32.162  24.546  25.121  1.00  0.00     0.160 C 
ATOM     10  C   UNL A   1      30.838  23.781  26.678  1.00  0.00     0.230 C 
ATOM     11  C   UNL A   1      30.690  24.841  24.526  1.00  0.00     0.117 C 
ATOM     12  C   UNL A   1      30.303  25.127  26.069  1.00  0.00     0.132 C 
ATOM     13  O   UNL A   1      30.192  23.005  27.349  1.00  0.00    -0.274 OA
ATOM     14  C   UNL A   1      31.474  25.599  23.430  1.00  0.00     0.009 C 
ATOM     15  O   UNL A   1      29.675  25.908  24.307  1.00  0.00    -0.360 OA
ATOM     16  C   UNL A   1      31.418  26.917  23.636  1.00  0.00     0.004 C 
ATOM     17  C   UNL A   1      30.395  27.103  24.687  1.00  0.00     0.155 C 
BRANCH   8  18
ATOM     18  C   UNL A   1      33.029  22.394  26.063  1.00  0.00     0.124 C 
BRANCH  18  19
ATOM     19  C   UNL A   1      32.563  21.051  25.364  1.00  0.00     0.018 C 
ATOM     20  C   UNL A   1      33.238  17.263  23.212  1.00  0.00     0.039 C 
ATOM     21  C   UNL A   1      32.640  18.495  23.841  1.00  0.00    -0.077 C 
ATOM     22  C   UNL A   1      32.356  19.631  23.157  1.00  0.00    -0.025 C 
ATOM     23  C   UNL A   1      32.798  18.553  25.335  1.00  0.00     0.034 C 
ATOM     24  C   UNL A   1      32.191  21.031  23.816  1.00  0.00     0.014 C 
ATOM     25  C   UNL A   1      33.491  19.868  25.664  1.00  0.00    -0.005 C 
ATOM     26  C   UNL A   1      32.927  22.088  22.972  1.00  0.00     0.012 C 
ATOM     27  C   UNL A   1      34.782  19.907  24.853  1.00  0.00     0.008 C 
ENDBRANCH  18  19
ENDBRANCH   8  18
ENDBRANCH   4   7
ENDBRANCH   2   3
ENDBRANCH   1   2
BRANCH   1  28
ATOM     28  C   UNL A   1      31.343  32.108  26.694  1.00  0.00     0.023 C 
BRANCH  28  29
ATOM     29  C   UNL A   1      32.453  33.182  26.663  1.00  0.00     0.116 C 
BRANCH  29  30
ATOM     30  N   UNL A   1      32.360  34.247  27.658  1.00  0.00    -0.352 N 
ATOM     31  C   UNL A   1      33.233  34.564  28.690  1.00  0.00     0.251 C 
ATOM     32  H   UNL A   1      31.564  34.822  27.587  1.00  0.00     0.163 HD
ATOM     33  O   UNL A   1      33.020  35.534  29.411  1.00  0.00    -0.269 OA
BRANCH  31  34
ATOM     34  C   UNL A   1      34.429  33.722  28.948  1.00  0.00     0.039 A 
ATOM     35  C   UNL A   1      35.714  34.239  28.815  1.00  0.00     0.014 A 
ATOM     36  C   UNL A   1      34.271  32.399  29.343  1.00  0.00     0.014 A 
ATOM     37  C   UNL A   1      36.819  33.466  29.213  1.00  0.00     0.010 A 
ATOM     38  C   UNL A   1      35.350  31.663  29.832  1.00  0.00     0.010 A 
ATOM     39  C   UNL A   1      36.644  32.198  29.803  1.00  0.00    -0.014 A 
BRANCH  39  40
ATOM     40  C   UNL A   1      37.775  31.467  30.454  1.00  0.00     0.031 A 
ATOM     41  C   UNL A   1      38.181  31.742  31.882  1.00  0.00     0.074 A 
ATOM     42  C   UNL A   1      38.519  30.610  29.719  1.00  0.00     0.049 A 
ATOM     43  N   UNL A   1      39.183  31.249  32.569  1.00  0.00    -0.248 NA
ATOM     44  C   UNL A   1      37.381  32.728  32.624  1.00  0.00     0.031 C 
ATOM     45  C   UNL A   1      38.308  30.308  28.301  1.00  0.00     0.029 A 
ATOM     46  N   UNL A   1      39.611  29.843  30.056  1.00  0.00    -0.354 N 
ATOM     47  C   UNL A   1      39.145  31.879  33.808  1.00  0.00     0.074 A 
ATOM     48  C   UNL A   1      38.062  32.836  33.756  1.00  0.00     0.031 C 
ATOM     49  C   UNL A   1      39.204  29.392  27.904  1.00  0.00     0.029 A 
ATOM     50  C   UNL A   1      40.089  29.076  29.019  1.00  0.00     0.049 A 
ATOM     51  H   UNL A   1      40.011  29.842  30.955  1.00  0.00     0.167 HD
ATOM     52  C   UNL A   1      39.919  31.665  34.902  1.00  0.00     0.037 A 
ATOM     53  C   UNL A   1      41.127  28.218  28.961  1.00  0.00     0.037 A 
ATOM     54  C   UNL A   1      40.977  30.688  34.970  1.00  0.00     0.049 A 
ATOM     55  C   UNL A   1      41.961  27.980  30.188  1.00  0.00     0.074 A 
ATOM     56  C   UNL A   1      41.757  30.336  36.059  1.00  0.00     0.029 A 
ATOM     57  N   UNL A   1      41.407  29.910  33.906  1.00  0.00    -0.354 N 
ATOM     58  N   UNL A   1      41.849  28.519  31.377  1.00  0.00    -0.248 NA
ATOM     59  C   UNL A   1      43.061  27.012  30.068  1.00  0.00     0.031 C 
ATOM     60  C   UNL A   1      42.695  29.388  35.639  1.00  0.00     0.029 A 
ATOM     61  C   UNL A   1      42.459  29.102  34.305  1.00  0.00     0.049 A 
ATOM     62  H   UNL A   1      41.022  29.930  33.000  1.00  0.00     0.167 HD
ATOM     63  C   UNL A   1      42.842  27.935  32.154  1.00  0.00     0.074 A 
ATOM     64  C   UNL A   1      43.540  26.993  31.304  1.00  0.00     0.031 C 
ATOM     65  C   UNL A   1      43.145  28.160  33.456  1.00  0.00     0.037 A 
BRANCH  52  66
ATOM     66  C   UNL A   1      39.645  32.497  36.125  1.00  0.00     0.057 A 
ATOM     67  C   UNL A   1      40.318  33.701  36.370  1.00  0.00     0.134 A 
ATOM     68  C   UNL A   1      38.669  32.108  37.054  1.00  0.00     0.134 A 
ATOM     69  F   UNL A   1      41.266  34.134  35.524  1.00  0.00    -0.206 F 
ATOM     70  C   UNL A   1      40.064  34.466  37.511  1.00  0.00     0.040 A 
ATOM     71  C   UNL A   1      38.382  32.882  38.181  1.00  0.00     0.040 A 
ATOM     72  F   UNL A   1      37.972  30.976  36.878  1.00  0.00    -0.206 F 
ATOM     73  C   UNL A   1      39.087  34.059  38.417  1.00  0.00     0.006 A 
ENDBRANCH  52  66
BRANCH  53  74
ATOM     74  C   UNL A   1      41.419  27.495  27.694  1.00  0.00     0.057 A 
ATOM     75  C   UNL A   1      40.877  26.228  27.444  1.00  0.00     0.134 A 
ATOM     76  C   UNL A   1      42.233  28.053  26.701  1.00  0.00     0.134 A 
ATOM     77  F   UNL A   1      40.103  25.633  28.363  1.00  0.00    -0.206 F 
ATOM     78  C   UNL A   1      41.146  25.537  26.262  1.00  0.00     0.040 A 
ATOM     79  C   UNL A   1      42.488  27.385  25.502  1.00  0.00     0.040 A 
ATOM     80  F   UNL A   1      42.774  29.269  26.873  1.00  0.00    -0.206 F 
ATOM     81  C   UNL A   1      41.949  26.120  25.283  1.00  0.00     0.006 A 
ENDBRANCH  53  74
BRANCH  65  82
ATOM     82  C   UNL A   1      44.253  27.347  34.062  1.00  0.00     0.057 A 
ATOM     83  C   UNL A   1      44.030  26.081  34.614  1.00  0.00     0.134 A 
ATOM     84  C   UNL A   1      45.572  27.820  34.041  1.00  0.00     0.134 A 
ATOM     85  F   UNL A   1      42.789  25.575  34.678  1.00  0.00    -0.206 F 
ATOM     86  C   UNL A   1      45.076  25.318  35.139  1.00  0.00     0.040 A 
ATOM     87  C   UNL A   1      46.630  27.056  34.537  1.00  0.00     0.040 A 
ATOM     88  F   UNL A   1      45.857  29.022  33.520  1.00  0.00    -0.206 F 
ATOM     89  C   UNL A   1      46.381  25.803  35.092  1.00  0.00     0.006 A 
ENDBRANCH  65  82
ENDBRANCH  39  40
ENDBRANCH  31  34
ENDBRANCH  29  30
ENDBRANCH  28  29
ENDBRANCH   1  28
TORSDOF 13
ENDMDL
MODEL 2
REMARK VINA RESULT:     -13.0      4.330      7.830
REMARK SMILES CC1=C[C@H](C)[C@H](CN2C[C@]34C=C[C@@H](O3)[C@H](C(=O)NCCCCNC(=O)c3ccc(-c5c6nc(c(-c7c(F)cccc7F)c7ccc([nH]7)c(-c7c(F)cccc7F)c7nc(c(-c8c(F)cccc8F)c8ccc5[nH]8)C=C7)C=C6)cc3)[C@@H]4C2=O)[C@H](C)C1
REMARK SMILES IDX 20 1 19 2 18 3 16 4 17 5 15 7 8 8 9 9 81 10 10 11 80 12
REMARK SMILES IDX 82 13 11 14 14 15 12 16 13 17 7 18 6 19 1 20 2 21 3 22 85 23
REMARK SMILES IDX 4 24 83 25 5 26 84 27 21 28 22 29 23 30 24 31 25 33 26 34
REMARK SMILES IDX 27 35 79 36 28 37 78 38 29 39 30 40 31 41 72 42 32 43 77 44
REMARK SMILES IDX 71 45 73 46 33 47 76 48 70 49 69 50 34 52 60 53 43 54 59 55
REMARK SMILES IDX 44 56 47 57 58 58 74 59 45 60 46 61 57 63 75 64 48 65 35 66
REMARK SMILES IDX 36 67 41 68 37 69 38 70 40 71 42 72 39 73 61 74 62 75 67 76
REMARK SMILES IDX 63 77 64 78 66 79 68 80 65 81 49 82 50 83 55 84 51 85 52 86
REMARK SMILES IDX 54 87 56 88 53 89
REMARK H PARENT 18 6 23 32 73 51 47 62
REMARK Flexibility Score: inf
ROOT
ATOM      1  C   UNL A   1      34.685  28.969  26.799  1.00  0.00     0.023 C 
ENDROOT
BRANCH   1   2
ATOM      2  C   UNL A   1      33.691  28.062  26.067  1.00  0.00     0.116 C 
BRANCH   2   3
ATOM      3  N   UNL A   1      32.264  28.432  25.942  1.00  0.00    -0.356 N 
ATOM      4  C   UNL A   1      31.303  27.427  25.717  1.00  0.00     0.227 C 
ATOM      5  O   UNL A   1      30.982  26.679  26.639  1.00  0.00    -0.275 OA
ATOM      6  H   UNL A   1      31.988  29.374  26.016  1.00  0.00     0.163 HD
BRANCH   4   7
ATOM      7  C   UNL A   1      30.566  27.374  24.351  1.00  0.00     0.127 C 
ATOM      8  N   UNL A   1      32.296  24.518  23.400  1.00  0.00    -0.339 N 
ATOM      9  C   UNL A   1      32.702  25.858  23.308  1.00  0.00     0.160 C 
ATOM     10  C   UNL A   1      30.919  24.598  23.332  1.00  0.00     0.230 C 
ATOM     11  C   UNL A   1      31.702  26.618  22.292  1.00  0.00     0.117 C 
ATOM     12  C   UNL A   1      30.552  26.125  23.314  1.00  0.00     0.132 C 
ATOM     13  O   UNL A   1      30.161  23.687  23.079  1.00  0.00    -0.274 OA
ATOM     14  C   UNL A   1      32.795  27.712  22.310  1.00  0.00     0.009 C 
ATOM     15  O   UNL A   1      30.776  27.776  22.160  1.00  0.00    -0.360 OA
ATOM     16  C   UNL A   1      32.430  28.732  23.090  1.00  0.00     0.004 C 
ATOM     17  C   UNL A   1      31.002  28.495  23.395  1.00  0.00     0.155 C 
BRANCH   8  18
ATOM     18  C   UNL A   1      33.315  23.430  23.321  1.00  0.00     0.124 C 
BRANCH  18  19
ATOM     19  C   UNL A   1      34.742  23.741  23.935  1.00  0.00     0.018 C 
ATOM     20  C   UNL A   1      38.449  22.687  26.075  1.00  0.00     0.039 C 
ATOM     21  C   UNL A   1      37.308  23.408  25.407  1.00  0.00    -0.077 C 
ATOM     22  C   UNL A   1      36.261  23.951  26.075  1.00  0.00    -0.025 C 
ATOM     23  C   UNL A   1      37.168  23.098  23.942  1.00  0.00     0.034 C 
ATOM     24  C   UNL A   1      34.882  24.273  25.429  1.00  0.00     0.014 C 
ATOM     25  C   UNL A   1      35.745  22.601  23.721  1.00  0.00    -0.005 C 
ATOM     26  C   UNL A   1      33.752  23.820  26.373  1.00  0.00     0.012 C 
ATOM     27  C   UNL A   1      35.528  21.432  24.676  1.00  0.00     0.008 C 
ENDBRANCH  18  19
ENDBRANCH   8  18
ENDBRANCH   4   7
ENDBRANCH   2   3
ENDBRANCH   1   2
BRANCH   1  28
ATOM     28  C   UNL A   1      34.106  30.284  27.395  1.00  0.00     0.023 C 
BRANCH  28  29
ATOM     29  C   UNL A   1      35.006  31.373  28.020  1.00  0.00     0.116 C 
BRANCH  29  30
ATOM     30  N   UNL A   1      35.036  31.439  29.478  1.00  0.00    -0.352 N 
ATOM     31  C   UNL A   1      35.999  30.965  30.360  1.00  0.00     0.251 C 
ATOM     32  H   UNL A   1      34.263  31.882  29.897  1.00  0.00     0.163 HD
ATOM     33  O   UNL A   1      35.884  31.152  31.567  1.00  0.00    -0.269 OA
BRANCH  31  34
ATOM     34  C   UNL A   1      37.173  30.209  29.855  1.00  0.00     0.039 A 
ATOM     35  C   UNL A   1      37.591  30.330  28.532  1.00  0.00     0.014 A 
ATOM     36  C   UNL A   1      37.880  29.376  30.712  1.00  0.00     0.014 A 
ATOM     37  C   UNL A   1      38.792  29.724  28.125  1.00  0.00     0.010 A 
ATOM     38  C   UNL A   1      39.121  28.855  30.344  1.00  0.00     0.010 A 
ATOM     39  C   UNL A   1      39.613  29.046  29.048  1.00  0.00    -0.014 A 
BRANCH  39  40
ATOM     40  C   UNL A   1      41.001  28.608  28.697  1.00  0.00     0.031 A 
ATOM     41  C   UNL A   1      41.304  27.186  28.288  1.00  0.00     0.074 A 
ATOM     42  C   UNL A   1      42.026  29.475  28.845  1.00  0.00     0.049 A 
ATOM     43  N   UNL A   1      42.460  26.628  28.025  1.00  0.00    -0.248 NA
ATOM     44  C   UNL A   1      40.164  26.260  28.201  1.00  0.00     0.031 C 
ATOM     45  C   UNL A   1      41.905  30.857  29.319  1.00  0.00     0.029 A 
ATOM     46  N   UNL A   1      43.376  29.326  28.625  1.00  0.00    -0.354 N 
ATOM     47  C   UNL A   1      42.189  25.289  27.765  1.00  0.00     0.074 A 
ATOM     48  C   UNL A   1      40.769  25.105  27.965  1.00  0.00     0.031 C 
ATOM     49  C   UNL A   1      43.113  31.438  29.309  1.00  0.00     0.029 A 
ATOM     50  C   UNL A   1      44.108  30.462  28.880  1.00  0.00     0.049 A 
ATOM     51  H   UNL A   1      43.780  28.484  28.312  1.00  0.00     0.167 HD
ATOM     52  C   UNL A   1      43.036  24.306  27.367  1.00  0.00     0.037 A 
ATOM     53  C   UNL A   1      45.432  30.699  28.789  1.00  0.00     0.037 A 
ATOM     54  C   UNL A   1      44.445  24.492  27.132  1.00  0.00     0.049 A 
ATOM     55  C   UNL A   1      46.351  29.602  28.329  1.00  0.00     0.074 A 
ATOM     56  C   UNL A   1      45.367  23.580  26.645  1.00  0.00     0.029 A 
ATOM     57  N   UNL A   1      45.139  25.668  27.373  1.00  0.00    -0.354 N 
ATOM     58  N   UNL A   1      46.060  28.368  27.999  1.00  0.00    -0.248 NA
ATOM     59  C   UNL A   1      47.780  29.931  28.224  1.00  0.00     0.031 C 
ATOM     60  C   UNL A   1      46.627  24.187  26.644  1.00  0.00     0.029 A 
ATOM     61  C   UNL A   1      46.481  25.496  27.071  1.00  0.00     0.049 A 
ATOM     62  H   UNL A   1      44.739  26.502  27.710  1.00  0.00     0.167 HD
ATOM     63  C   UNL A   1      47.261  27.783  27.618  1.00  0.00     0.074 A 
ATOM     64  C   UNL A   1      48.283  28.800  27.749  1.00  0.00     0.031 C 
ATOM     65  C   UNL A   1      47.492  26.516  27.196  1.00  0.00     0.037 A 
BRANCH  52  66
ATOM     66  C   UNL A   1      42.458  22.934  27.147  1.00  0.00     0.057 A 
ATOM     67  C   UNL A   1      42.286  22.397  25.865  1.00  0.00     0.134 A 
ATOM     68  C   UNL A   1      42.101  22.123  28.234  1.00  0.00     0.134 A 
ATOM     69  F   UNL A   1      42.605  23.117  24.777  1.00  0.00    -0.206 F 
ATOM     70  C   UNL A   1      41.743  21.125  25.667  1.00  0.00     0.040 A 
ATOM     71  C   UNL A   1      41.589  20.836  28.051  1.00  0.00     0.040 A 
ATOM     72  F   UNL A   1      42.252  22.563  29.492  1.00  0.00    -0.206 F 
ATOM     73  C   UNL A   1      41.399  20.338  26.764  1.00  0.00     0.006 A 
ENDBRANCH  52  66
BRANCH  53  74
ATOM     74  C   UNL A   1      45.966  32.048  29.117  1.00  0.00     0.057 A 
ATOM     75  C   UNL A   1      46.428  32.348  30.405  1.00  0.00     0.134 A 
ATOM     76  C   UNL A   1      46.039  33.061  28.155  1.00  0.00     0.134 A 
ATOM     77  F   UNL A   1      46.368  31.425  31.375  1.00  0.00    -0.206 F 
ATOM     78  C   UNL A   1      46.928  33.611  30.727  1.00  0.00     0.040 A 
ATOM     79  C   UNL A   1      46.563  34.320  28.456  1.00  0.00     0.040 A 
ATOM     80  F   UNL A   1      45.624  32.835  26.899  1.00  0.00    -0.206 F 
ATOM     81  C   UNL A   1      47.002  34.600  29.747  1.00  0.00     0.006 A 
ENDBRANCH  53  74
BRANCH  65  82
ATOM     82  C   UNL A   1      48.898  26.160  26.803  1.00  0.00     0.057 A 
ATOM     83  C   UNL A   1      49.421  26.479  25.544  1.00  0.00     0.134 A 
ATOM     84  C   UNL A   1      49.756  25.540  27.721  1.00  0.00     0.134 A 
ATOM     85  F   UNL A   1      48.649  27.061  24.614  1.00  0.00    -0.206 F 
ATOM     86  C   UNL A   1      50.742  26.178  25.205  1.00  0.00     0.040 A 
ATOM     87  C   UNL A   1      51.086  25.260  27.405  1.00  0.00     0.040 A 
ATOM     88  F   UNL A   1      49.322  25.214  28.947  1.00  0.00    -0.206 F 
ATOM     89  C   UNL A   1      51.580  25.575  26.141  1.00  0.00     0.006 A 
ENDBRANCH  65  82
ENDBRANCH  39  40
ENDBRANCH  31  34
ENDBRANCH  29  30
ENDBRANCH  28  29
ENDBRANCH   1  28
TORSDOF 13
ENDMDL
MODEL 3
REMARK VINA RESULT:     -12.9      2.142      2.978
REMARK SMILES CC1=C[C@H](C)[C@H](CN2C[C@]34C=C[C@@H](O3)[C@H](C(=O)NCCCCNC(=O)c3ccc(-c5c6nc(c(-c7c(F)cccc7F)c7ccc([nH]7)c(-c7c(F)cccc7F)c7nc(c(-c8c(F)cccc8F)c8ccc5[nH]8)C=C7)C=C6)cc3)[C@@H]4C2=O)[C@H](C)C1
REMARK SMILES IDX 20 1 19 2 18 3 16 4 17 5 15 7 8 8 9 9 81 10 10 11 80 12
REMARK SMILES IDX 82 13 11 14 14 15 12 16 13 17 7 18 6 19 1 20 2 21 3 22 85 23
REMARK SMILES IDX 4 24 83 25 5 26 84 27 21 28 22 29 23 30 24 31 25 33 26 34
REMARK SMILES IDX 27 35 79 36 28 37 78 38 29 39 30 40 31 41 72 42 32 43 77 44
REMARK SMILES IDX 71 45 73 46 33 47 76 48 70 49 69 50 34 52 60 53 43 54 59 55
REMARK SMILES IDX 44 56 47 57 58 58 74 59 45 60 46 61 57 63 75 64 48 65 35 66
REMARK SMILES IDX 36 67 41 68 37 69 38 70 40 71 42 72 39 73 61 74 62 75 67 76
REMARK SMILES IDX 63 77 64 78 66 79 68 80 65 81 49 82 50 83 55 84 51 85 52 86
REMARK SMILES IDX 54 87 56 88 53 89
REMARK H PARENT 18 6 23 32 73 51 47 62
REMARK Flexibility Score: inf
ROOT
ATOM      1  C   UNL A   1      34.061  29.736  27.805  1.00  0.00     0.023 C 
ENDROOT
BRANCH   1   2
ATOM      2  C   UNL A   1      34.705  29.194  26.525  1.00  0.00     0.116 C 
BRANCH   2   3
ATOM      3  N   UNL A   1      33.975  28.268  25.631  1.00  0.00    -0.356 N 
ATOM      4  C   UNL A   1      33.011  28.779  24.740  1.00  0.00     0.227 C 
ATOM      5  O   UNL A   1      33.377  29.389  23.737  1.00  0.00    -0.275 OA
ATOM      6  H   UNL A   1      34.163  27.303  25.659  1.00  0.00     0.163 HD
BRANCH   4   7
ATOM      7  C   UNL A   1      31.512  28.440  24.969  1.00  0.00     0.127 C 
ATOM      8  N   UNL A   1      32.128  25.033  24.713  1.00  0.00    -0.339 N 
ATOM      9  C   UNL A   1      31.923  25.964  23.684  1.00  0.00     0.160 C 
ATOM     10  C   UNL A   1      31.431  25.574  25.775  1.00  0.00     0.230 C 
ATOM     11  C   UNL A   1      30.422  26.544  23.821  1.00  0.00     0.117 C 
ATOM     12  C   UNL A   1      30.899  26.975  25.303  1.00  0.00     0.132 C 
ATOM     13  O   UNL A   1      31.080  24.987  26.776  1.00  0.00    -0.274 OA
ATOM     14  C   UNL A   1      30.679  27.064  22.388  1.00  0.00     0.009 C 
ATOM     15  O   UNL A   1      29.625  27.794  23.956  1.00  0.00    -0.360 OA
ATOM     16  C   UNL A   1      30.952  28.371  22.402  1.00  0.00     0.004 C 
ATOM     17  C   UNL A   1      30.627  28.821  23.773  1.00  0.00     0.155 C 
BRANCH   8  18
ATOM     18  C   UNL A   1      32.769  23.720  24.405  1.00  0.00     0.124 C 
BRANCH  18  19
ATOM     19  C   UNL A   1      34.338  23.628  24.596  1.00  0.00     0.018 C 
ATOM     20  C   UNL A   1      38.140  21.473  25.172  1.00  0.00     0.039 C 
ATOM     21  C   UNL A   1      37.057  22.515  25.076  1.00  0.00    -0.077 C 
ATOM     22  C   UNL A   1      36.373  22.995  26.143  1.00  0.00    -0.025 C 
ATOM     23  C   UNL A   1      36.471  22.657  23.698  1.00  0.00     0.034 C 
ATOM     24  C   UNL A   1      34.982  23.688  26.051  1.00  0.00     0.014 C 
ATOM     25  C   UNL A   1      34.966  22.460  23.826  1.00  0.00    -0.005 C 
ATOM     26  C   UNL A   1      34.067  23.159  27.172  1.00  0.00     0.012 C 
ATOM     27  C   UNL A   1      34.749  21.114  24.510  1.00  0.00     0.008 C 
ENDBRANCH  18  19
ENDBRANCH   8  18
ENDBRANCH   4   7
ENDBRANCH   2   3
ENDBRANCH   1   2
BRANCH   1  28
ATOM     28  C   UNL A   1      32.942  30.800  27.613  1.00  0.00     0.023 C 
BRANCH  28  29
ATOM     29  C   UNL A   1      33.180  32.116  26.840  1.00  0.00     0.116 C 
BRANCH  29  30
ATOM     30  N   UNL A   1      32.623  33.331  27.428  1.00  0.00    -0.352 N 
ATOM     31  C   UNL A   1      33.155  34.155  28.412  1.00  0.00     0.251 C 
ATOM     32  H   UNL A   1      31.744  33.604  27.080  1.00  0.00     0.163 HD
ATOM     33  O   UNL A   1      32.564  35.174  28.758  1.00  0.00    -0.269 OA
BRANCH  31  34
ATOM     34  C   UNL A   1      34.437  33.804  29.072  1.00  0.00     0.039 A 
ATOM     35  C   UNL A   1      34.463  33.039  30.234  1.00  0.00     0.014 A 
ATOM     36  C   UNL A   1      35.639  34.231  28.520  1.00  0.00     0.014 A 
ATOM     37  C   UNL A   1      35.693  32.595  30.749  1.00  0.00     0.010 A 
ATOM     38  C   UNL A   1      36.856  33.715  28.964  1.00  0.00     0.010 A 
ATOM     39  C   UNL A   1      36.901  32.860  30.073  1.00  0.00    -0.014 A 
BRANCH  39  40
ATOM     40  C   UNL A   1      38.185  32.199  30.461  1.00  0.00     0.031 A 
ATOM     41  C   UNL A   1      39.158  32.853  31.414  1.00  0.00     0.074 A 
ATOM     42  C   UNL A   1      38.535  31.034  29.872  1.00  0.00     0.049 A 
ATOM     43  N   UNL A   1      40.345  32.447  31.795  1.00  0.00    -0.248 NA
ATOM     44  C   UNL A   1      38.763  34.150  31.983  1.00  0.00     0.031 C 
ATOM     45  C   UNL A   1      37.743  30.324  28.864  1.00  0.00     0.029 A 
ATOM     46  N   UNL A   1      39.651  30.243  30.024  1.00  0.00    -0.354 N 
ATOM     47  C   UNL A   1      40.843  33.446  32.625  1.00  0.00     0.074 A 
ATOM     48  C   UNL A   1      39.858  34.504  32.640  1.00  0.00     0.031 C 
ATOM     49  C   UNL A   1      38.370  29.189  28.524  1.00  0.00     0.029 A 
ATOM     50  C   UNL A   1      39.635  29.108  29.246  1.00  0.00     0.049 A 
ATOM     51  H   UNL A   1      40.391  30.468  30.632  1.00  0.00     0.167 HD
ATOM     52  C   UNL A   1      42.000  33.471  33.334  1.00  0.00     0.037 A 
ATOM     53  C   UNL A   1      40.535  28.113  29.118  1.00  0.00     0.037 A 
ATOM     54  C   UNL A   1      42.968  32.404  33.349  1.00  0.00     0.049 A 
ATOM     55  C   UNL A   1      41.801  28.151  29.926  1.00  0.00     0.074 A 
ATOM     56  C   UNL A   1      44.126  32.300  34.103  1.00  0.00     0.029 A 
ATOM     57  N   UNL A   1      42.896  31.258  32.571  1.00  0.00    -0.354 N 
ATOM     58  N   UNL A   1      42.209  29.060  30.776  1.00  0.00    -0.248 NA
ATOM     59  C   UNL A   1      42.729  27.022  29.762  1.00  0.00     0.031 C 
ATOM     60  C   UNL A   1      44.781  31.119  33.740  1.00  0.00     0.029 A 
ATOM     61  C   UNL A   1      44.002  30.457  32.807  1.00  0.00     0.049 A 
ATOM     62  H   UNL A   1      42.168  31.046  31.944  1.00  0.00     0.167 HD
ATOM     63  C   UNL A   1      43.424  28.601  31.270  1.00  0.00     0.074 A 
ATOM     64  C   UNL A   1      43.681  27.327  30.633  1.00  0.00     0.031 C 
ATOM     65  C   UNL A   1      44.248  29.185  32.174  1.00  0.00     0.037 A 
BRANCH  52  66
ATOM     66  C   UNL A   1      42.281  34.693  34.167  1.00  0.00     0.057 A 
ATOM     67  C   UNL A   1      42.885  35.836  33.627  1.00  0.00     0.134 A 
ATOM     68  C   UNL A   1      41.910  34.741  35.518  1.00  0.00     0.134 A 
ATOM     69  F   UNL A   1      43.267  35.860  32.341  1.00  0.00    -0.206 F 
ATOM     70  C   UNL A   1      43.149  36.965  34.407  1.00  0.00     0.040 A 
ATOM     71  C   UNL A   1      42.138  35.876  36.300  1.00  0.00     0.040 A 
ATOM     72  F   UNL A   1      41.312  33.691  36.100  1.00  0.00    -0.206 F 
ATOM     73  C   UNL A   1      42.768  36.988  35.747  1.00  0.00     0.006 A 
ENDBRANCH  52  66
BRANCH  53  74
ATOM     74  C   UNL A   1      40.254  26.976  28.201  1.00  0.00     0.057 A 
ATOM     75  C   UNL A   1      40.811  26.929  26.917  1.00  0.00     0.134 A 
ATOM     76  C   UNL A   1      39.435  25.908  28.586  1.00  0.00     0.134 A 
ATOM     77  F   UNL A   1      41.590  27.930  26.483  1.00  0.00    -0.206 F 
ATOM     78  C   UNL A   1      40.553  25.870  26.044  1.00  0.00     0.040 A 
ATOM     79  C   UNL A   1      39.190  24.829  27.735  1.00  0.00     0.040 A 
ATOM     80  F   UNL A   1      38.880  25.886  29.807  1.00  0.00    -0.206 F 
ATOM     81  C   UNL A   1      39.744  24.811  26.457  1.00  0.00     0.006 A 
ENDBRANCH  53  74
BRANCH  65  82
ATOM     82  C   UNL A   1      45.492  28.438  32.564  1.00  0.00     0.057 A 
ATOM     83  C   UNL A   1      45.502  27.506  33.609  1.00  0.00     0.134 A 
ATOM     84  C   UNL A   1      46.681  28.615  31.844  1.00  0.00     0.134 A 
ATOM     85  F   UNL A   1      44.401  27.299  34.347  1.00  0.00    -0.206 F 
ATOM     86  C   UNL A   1      46.655  26.789  33.936  1.00  0.00     0.040 A 
ATOM     87  C   UNL A   1      47.832  27.884  32.143  1.00  0.00     0.040 A 
ATOM     88  F   UNL A   1      46.739  29.486  30.826  1.00  0.00    -0.206 F 
ATOM     89  C   UNL A   1      47.821  26.971  33.195  1.00  0.00     0.006 A 
ENDBRANCH  65  82
ENDBRANCH  39  40
ENDBRANCH  31  34
ENDBRANCH  29  30
ENDBRANCH  28  29
ENDBRANCH   1  28
TORSDOF 13
ENDMDL
