MODEL 1
REMARK VINA RESULT:     -11.6      0.000      0.000
REMARK SMILES C[C@@H](C(=O)NCCCCNC(=O)c1ccc(-c2c3nc(c(-c4c(F)cccc4F)c4ccc([nH]4)c(-c4c(F)cccc4F)c4nc(c(-c5c(F)cccc5F)c5ccc2[nH]5)C=C4)C=C3)cc1)N(C)c1ccc(C(N)=O)nn1
REMARK SMILES IDX 7 1 6 2 5 3 3 4 4 5 2 7 1 8 67 9 68 10 69 11 70 12 77 13
REMARK SMILES IDX 71 14 76 15 72 16 73 17 74 18 75 19 8 22 9 23 10 24 11 25
REMARK SMILES IDX 12 27 13 28 14 29 66 30 15 31 65 32 16 33 17 34 18 35 59 36
REMARK SMILES IDX 19 37 64 38 58 39 60 40 20 41 63 42 57 43 56 44 21 46 47 47
REMARK SMILES IDX 30 48 46 49 31 50 34 51 45 52 61 53 32 54 33 55 44 57 62 58
REMARK SMILES IDX 35 59 22 60 23 61 28 62 24 63 25 64 27 65 29 66 26 67 48 68
REMARK SMILES IDX 49 69 54 70 50 71 51 72 53 73 55 74 52 75 36 76 37 77 42 78
REMARK SMILES IDX 38 79 39 80 41 81 43 82 40 83
REMARK H PARENT 5 6 74 20 74 21 10 26 60 45 34 56
REMARK Flexibility Score: inf
ROOT
ATOM      1  C   UNL A   1      31.408  30.760  26.132  1.00  0.00     0.023 C 
ENDROOT
BRANCH   1   2
ATOM      2  C   UNL A   1      32.789  30.114  26.014  1.00  0.00     0.116 C 
BRANCH   2   3
ATOM      3  N   UNL A   1      33.105  29.798  24.637  1.00  0.00    -0.354 N 
ATOM      4  C   UNL A   1      32.635  28.802  23.824  1.00  0.00     0.242 C 
ATOM      5  O   UNL A   1      33.109  28.774  22.686  1.00  0.00    -0.273 OA
ATOM      6  H   UNL A   1      33.765  30.396  24.218  1.00  0.00     0.163 HD
BRANCH   4   7
ATOM      7  C   UNL A   1      31.519  27.833  24.324  1.00  0.00     0.169 C 
ATOM      8  C   UNL A   1      32.009  26.414  24.612  1.00  0.00     0.042 C 
BRANCH   7   9
ATOM      9  N   UNL A   1      30.315  27.817  23.443  1.00  0.00    -0.346 N 
ATOM     10  C   UNL A   1      29.323  26.780  23.716  1.00  0.00     0.146 C 
BRANCH   9  11
ATOM     11  C   UNL A   1      29.776  29.002  22.932  1.00  0.00     0.151 A 
ATOM     12  C   UNL A   1      29.203  29.964  23.759  1.00  0.00     0.051 A 
ATOM     13  N   UNL A   1      29.839  29.267  21.603  1.00  0.00    -0.132 NA
ATOM     14  C   UNL A   1      28.646  31.128  23.231  1.00  0.00     0.040 A 
ATOM     15  N   UNL A   1      29.283  30.412  21.053  1.00  0.00    -0.143 NA
ATOM     16  C   UNL A   1      28.688  31.307  21.866  1.00  0.00     0.150 A 
BRANCH  16  17
ATOM     17  C   UNL A   1      28.088  32.517  21.243  1.00  0.00     0.269 C 
ATOM     18  N   UNL A   1      27.713  32.407  19.932  1.00  0.00    -0.364 N 
ATOM     19  O   UNL A   1      27.931  33.563  21.867  1.00  0.00    -0.268 OA
ATOM     20  H   UNL A   1      27.847  31.559  19.451  1.00  0.00     0.160 HD
ATOM     21  H   UNL A   1      27.307  33.177  19.470  1.00  0.00     0.160 HD
ENDBRANCH  16  17
ENDBRANCH   9  11
ENDBRANCH   7   9
ENDBRANCH   4   7
ENDBRANCH   2   3
ENDBRANCH   1   2
BRANCH   1  22
ATOM     22  C   UNL A   1      31.366  32.009  27.017  1.00  0.00     0.023 C 
BRANCH  22  23
ATOM     23  C   UNL A   1      32.438  33.054  26.723  1.00  0.00     0.116 C 
BRANCH  23  24
ATOM     24  N   UNL A   1      32.349  34.219  27.589  1.00  0.00    -0.352 N 
ATOM     25  C   UNL A   1      33.147  34.575  28.651  1.00  0.00     0.251 C 
ATOM     26  H   UNL A   1      31.613  34.842  27.386  1.00  0.00     0.163 HD
ATOM     27  O   UNL A   1      32.847  35.532  29.357  1.00  0.00    -0.269 OA
BRANCH  25  28
ATOM     28  C   UNL A   1      34.346  33.769  28.962  1.00  0.00     0.039 A 
ATOM     29  C   UNL A   1      35.605  34.300  28.672  1.00  0.00     0.014 A 
ATOM     30  C   UNL A   1      34.229  32.524  29.584  1.00  0.00     0.014 A 
ATOM     31  C   UNL A   1      36.751  33.625  29.098  1.00  0.00     0.010 A 
ATOM     32  C   UNL A   1      35.368  31.885  30.065  1.00  0.00     0.010 A 
ATOM     33  C   UNL A   1      36.639  32.444  29.850  1.00  0.00    -0.014 A 
BRANCH  33  34
ATOM     34  C   UNL A   1      37.828  31.823  30.491  1.00  0.00     0.031 A 
ATOM     35  C   UNL A   1      38.605  30.749  29.784  1.00  0.00     0.074 A 
ATOM     36  C   UNL A   1      38.143  32.166  31.757  1.00  0.00     0.049 A 
ATOM     37  N   UNL A   1      39.596  30.022  30.231  1.00  0.00    -0.248 NA
ATOM     38  C   UNL A   1      38.205  30.437  28.404  1.00  0.00     0.031 C 
ATOM     39  C   UNL A   1      37.435  33.161  32.566  1.00  0.00     0.029 A 
ATOM     40  N   UNL A   1      39.126  31.699  32.595  1.00  0.00    -0.354 N 
ATOM     41  C   UNL A   1      39.930  29.158  29.197  1.00  0.00     0.074 A 
ATOM     42  C   UNL A   1      39.014  29.428  28.109  1.00  0.00     0.031 C 
ATOM     43  C   UNL A   1      38.007  33.232  33.779  1.00  0.00     0.029 A 
ATOM     44  C   UNL A   1      39.088  32.256  33.853  1.00  0.00     0.049 A 
ATOM     45  H   UNL A   1      39.793  31.030  32.323  1.00  0.00     0.167 HD
ATOM     46  C   UNL A   1      40.918  28.234  29.156  1.00  0.00     0.037 A 
ATOM     47  C   UNL A   1      39.820  31.990  34.951  1.00  0.00     0.037 A 
ATOM     48  C   UNL A   1      41.843  27.986  30.232  1.00  0.00     0.049 A 
ATOM     49  C   UNL A   1      40.892  30.935  34.881  1.00  0.00     0.074 A 
ATOM     50  C   UNL A   1      42.933  27.134  30.248  1.00  0.00     0.029 A 
ATOM     51  N   UNL A   1      41.780  28.578  31.483  1.00  0.00    -0.354 N 
ATOM     52  N   UNL A   1      41.259  30.196  33.863  1.00  0.00    -0.248 NA
ATOM     53  C   UNL A   1      41.650  30.675  36.113  1.00  0.00     0.031 C 
ATOM     54  C   UNL A   1      43.491  27.160  31.528  1.00  0.00     0.029 A 
ATOM     55  C   UNL A   1      42.785  28.073  32.293  1.00  0.00     0.049 A 
ATOM     56  H   UNL A   1      41.121  29.257  31.756  1.00  0.00     0.167 HD
ATOM     57  C   UNL A   1      42.299  29.401  34.325  1.00  0.00     0.074 A 
ATOM     58  C   UNL A   1      42.524  29.766  35.707  1.00  0.00     0.031 C 
ATOM     59  C   UNL A   1      43.000  28.447  33.667  1.00  0.00     0.037 A 
BRANCH  46  60
ATOM     60  C   UNL A   1      41.065  27.408  27.912  1.00  0.00     0.057 A 
ATOM     61  C   UNL A   1      41.876  27.814  26.847  1.00  0.00     0.134 A 
ATOM     62  C   UNL A   1      40.467  26.143  27.826  1.00  0.00     0.134 A 
ATOM     63  F   UNL A   1      42.472  29.015  26.865  1.00  0.00    -0.206 F 
ATOM     64  C   UNL A   1      42.083  26.994  25.735  1.00  0.00     0.040 A 
ATOM     65  C   UNL A   1      40.686  25.305  26.732  1.00  0.00     0.040 A 
ATOM     66  F   UNL A   1      39.684  25.691  28.817  1.00  0.00    -0.206 F 
ATOM     67  C   UNL A   1      41.497  25.731  25.682  1.00  0.00     0.006 A 
ENDBRANCH  46  60
BRANCH  47  68
ATOM     68  C   UNL A   1      39.553  32.704  36.228  1.00  0.00     0.057 A 
ATOM     69  C   UNL A   1      40.310  33.818  36.609  1.00  0.00     0.134 A 
ATOM     70  C   UNL A   1      38.569  32.259  37.119  1.00  0.00     0.134 A 
ATOM     71  F   UNL A   1      41.281  34.281  35.808  1.00  0.00    -0.206 F 
ATOM     72  C   UNL A   1      40.123  34.442  37.844  1.00  0.00     0.040 A 
ATOM     73  C   UNL A   1      38.350  32.893  38.344  1.00  0.00     0.040 A 
ATOM     74  F   UNL A   1      37.804  31.202  36.813  1.00  0.00    -0.206 F 
ATOM     75  C   UNL A   1      39.137  33.980  38.715  1.00  0.00     0.006 A 
ENDBRANCH  47  68
BRANCH  59  76
ATOM     76  C   UNL A   1      44.088  27.744  34.425  1.00  0.00     0.057 A 
ATOM     77  C   UNL A   1      43.863  26.521  35.069  1.00  0.00     0.134 A 
ATOM     78  C   UNL A   1      45.384  28.270  34.470  1.00  0.00     0.134 A 
ATOM     79  F   UNL A   1      42.639  25.970  35.076  1.00  0.00    -0.206 F 
ATOM     80  C   UNL A   1      44.885  25.857  35.750  1.00  0.00     0.040 A 
ATOM     81  C   UNL A   1      46.421  27.601  35.121  1.00  0.00     0.040 A 
ATOM     82  F   UNL A   1      45.671  29.434  33.865  1.00  0.00    -0.206 F 
ATOM     83  C   UNL A   1      46.171  26.392  35.769  1.00  0.00     0.006 A 
ENDBRANCH  59  76
ENDBRANCH  33  34
ENDBRANCH  25  28
ENDBRANCH  23  24
ENDBRANCH  22  23
ENDBRANCH   1  22
TORSDOF 14
ENDMDL
MODEL 2
REMARK VINA RESULT:     -11.5      1.293      2.065
REMARK SMILES C[C@@H](C(=O)NCCCCNC(=O)c1ccc(-c2c3nc(c(-c4c(F)cccc4F)c4ccc([nH]4)c(-c4c(F)cccc4F)c4nc(c(-c5c(F)cccc5F)c5ccc2[nH]5)C=C4)C=C3)cc1)N(C)c1ccc(C(N)=O)nn1
REMARK SMILES IDX 7 1 6 2 5 3 3 4 4 5 2 7 1 8 67 9 68 10 69 11 70 12 77 13
REMARK SMILES IDX 71 14 76 15 72 16 73 17 74 18 75 19 8 22 9 23 10 24 11 25
REMARK SMILES IDX 12 27 13 28 14 29 66 30 15 31 65 32 16 33 17 34 18 35 59 36
REMARK SMILES IDX 19 37 64 38 58 39 60 40 20 41 63 42 57 43 56 44 21 46 47 47
REMARK SMILES IDX 30 48 46 49 31 50 34 51 45 52 61 53 32 54 33 55 44 57 62 58
REMARK SMILES IDX 35 59 22 60 23 61 28 62 24 63 25 64 27 65 29 66 26 67 48 68
REMARK SMILES IDX 49 69 54 70 50 71 51 72 53 73 55 74 52 75 36 76 37 77 42 78
REMARK SMILES IDX 38 79 39 80 41 81 43 82 40 83
REMARK H PARENT 5 6 74 20 74 21 10 26 60 45 34 56
REMARK Flexibility Score: inf
ROOT
ATOM      1  C   UNL A   1      32.410  30.057  26.212  1.00  0.00     0.023 C 
ENDROOT
BRANCH   1   2
ATOM      2  C   UNL A   1      31.809  28.872  26.968  1.00  0.00     0.116 C 
BRANCH   2   3
ATOM      3  N   UNL A   1      32.294  27.614  26.443  1.00  0.00    -0.354 N 
ATOM      4  C   UNL A   1      31.785  26.807  25.462  1.00  0.00     0.242 C 
ATOM      5  O   UNL A   1      32.418  25.772  25.240  1.00  0.00    -0.273 OA
ATOM      6  H   UNL A   1      33.123  27.285  26.858  1.00  0.00     0.163 HD
BRANCH   4   7
ATOM      7  C   UNL A   1      30.524  27.242  24.654  1.00  0.00     0.169 C 
ATOM      8  C   UNL A   1      29.475  26.141  24.494  1.00  0.00     0.042 C 
BRANCH   7   9
ATOM      9  N   UNL A   1      30.852  27.864  23.339  1.00  0.00    -0.346 N 
ATOM     10  C   UNL A   1      31.215  26.951  22.258  1.00  0.00     0.146 C 
BRANCH   9  11
ATOM     11  C   UNL A   1      30.209  29.030  22.909  1.00  0.00     0.151 A 
ATOM     12  C   UNL A   1      29.809  30.020  23.802  1.00  0.00     0.051 A 
ATOM     13  N   UNL A   1      29.996  29.248  21.586  1.00  0.00    -0.132 NA
ATOM     14  C   UNL A   1      29.146  31.163  23.360  1.00  0.00     0.040 A 
ATOM     15  N   UNL A   1      29.328  30.372  21.123  1.00  0.00    -0.143 NA
ATOM     16  C   UNL A   1      28.905  31.295  22.010  1.00  0.00     0.150 A 
BRANCH  16  17
ATOM     17  C   UNL A   1      28.180  32.481  21.483  1.00  0.00     0.269 C 
ATOM     18  N   UNL A   1      27.694  32.382  20.207  1.00  0.00    -0.364 N 
ATOM     19  O   UNL A   1      28.019  33.497  22.151  1.00  0.00    -0.268 OA
ATOM     20  H   UNL A   1      27.835  31.558  19.689  1.00  0.00     0.160 HD
ATOM     21  H   UNL A   1      27.203  33.137  19.808  1.00  0.00     0.160 HD
ENDBRANCH  16  17
ENDBRANCH   9  11
ENDBRANCH   7   9
ENDBRANCH   4   7
ENDBRANCH   2   3
ENDBRANCH   1   2
BRANCH   1  22
ATOM     22  C   UNL A   1      31.914  31.427  26.683  1.00  0.00     0.023 C 
BRANCH  22  23
ATOM     23  C   UNL A   1      32.952  32.284  27.404  1.00  0.00     0.116 C 
BRANCH  23  24
ATOM     24  N   UNL A   1      32.529  33.666  27.574  1.00  0.00    -0.352 N 
ATOM     25  C   UNL A   1      33.033  34.632  28.411  1.00  0.00     0.251 C 
ATOM     26  H   UNL A   1      31.773  33.950  27.007  1.00  0.00     0.163 HD
ATOM     27  O   UNL A   1      32.468  35.714  28.519  1.00  0.00    -0.269 OA
BRANCH  25  28
ATOM     28  C   UNL A   1      34.239  34.340  29.215  1.00  0.00     0.039 A 
ATOM     29  C   UNL A   1      34.080  33.797  30.492  1.00  0.00     0.014 A 
ATOM     30  C   UNL A   1      35.516  34.554  28.691  1.00  0.00     0.014 A 
ATOM     31  C   UNL A   1      35.203  33.372  31.204  1.00  0.00     0.010 A 
ATOM     32  C   UNL A   1      36.629  34.071  29.373  1.00  0.00     0.010 A 
ATOM     33  C   UNL A   1      36.480  33.451  30.625  1.00  0.00    -0.014 A 
BRANCH  33  34
ATOM     34  C   UNL A   1      37.659  32.817  31.271  1.00  0.00     0.031 A 
ATOM     35  C   UNL A   1      38.301  31.600  30.668  1.00  0.00     0.074 A 
ATOM     36  C   UNL A   1      38.088  33.290  32.459  1.00  0.00     0.049 A 
ATOM     37  N   UNL A   1      39.262  30.854  31.148  1.00  0.00    -0.248 NA
ATOM     38  C   UNL A   1      37.782  31.150  29.367  1.00  0.00     0.031 C 
ATOM     39  C   UNL A   1      37.516  34.437  33.170  1.00  0.00     0.029 A 
ATOM     40  N   UNL A   1      39.088  32.852  33.293  1.00  0.00    -0.354 N 
ATOM     41  C   UNL A   1      39.455  29.840  30.219  1.00  0.00     0.074 A 
ATOM     42  C   UNL A   1      38.489  30.046  29.161  1.00  0.00     0.031 C 
ATOM     43  C   UNL A   1      38.175  34.612  34.327  1.00  0.00     0.029 A 
ATOM     44  C   UNL A   1      39.181  33.565  34.465  1.00  0.00     0.049 A 
ATOM     45  H   UNL A   1      39.681  32.099  33.072  1.00  0.00     0.167 HD
ATOM     46  C   UNL A   1      40.364  28.837  30.243  1.00  0.00     0.037 A 
ATOM     47  C   UNL A   1      39.965  33.380  35.544  1.00  0.00     0.037 A 
ATOM     48  C   UNL A   1      41.340  28.650  31.286  1.00  0.00     0.049 A 
ATOM     49  C   UNL A   1      40.945  32.237  35.551  1.00  0.00     0.074 A 
ATOM     50  C   UNL A   1      42.360  27.717  31.350  1.00  0.00     0.029 A 
ATOM     51  N   UNL A   1      41.410  29.400  32.449  1.00  0.00    -0.354 N 
ATOM     52  N   UNL A   1      41.182  31.346  34.620  1.00  0.00    -0.248 NA
ATOM     53  C   UNL A   1      41.765  32.072  36.760  1.00  0.00     0.031 C 
ATOM     54  C   UNL A   1      43.006  27.858  32.580  1.00  0.00     0.029 A 
ATOM     55  C   UNL A   1      42.428  28.918  33.258  1.00  0.00     0.049 A 
ATOM     56  H   UNL A   1      40.826  30.161  32.668  1.00  0.00     0.167 HD
ATOM     57  C   UNL A   1      42.188  30.530  35.121  1.00  0.00     0.074 A 
ATOM     58  C   UNL A   1      42.536  31.047  36.427  1.00  0.00     0.031 C 
ATOM     59  C   UNL A   1      42.766  29.444  34.554  1.00  0.00     0.037 A 
BRANCH  46  60
ATOM     60  C   UNL A   1      40.360  27.850  29.113  1.00  0.00     0.057 A 
ATOM     61  C   UNL A   1      39.549  26.710  29.131  1.00  0.00     0.134 A 
ATOM     62  C   UNL A   1      41.100  28.101  27.950  1.00  0.00     0.134 A 
ATOM     63  F   UNL A   1      38.821  26.409  30.216  1.00  0.00    -0.206 F 
ATOM     64  C   UNL A   1      39.479  25.848  28.033  1.00  0.00     0.040 A 
ATOM     65  C   UNL A   1      41.020  27.261  26.838  1.00  0.00     0.040 A 
ATOM     66  F   UNL A   1      41.891  29.181  27.865  1.00  0.00    -0.206 F 
ATOM     67  C   UNL A   1      40.206  26.131  26.879  1.00  0.00     0.006 A 
ENDBRANCH  46  60
BRANCH  47  68
ATOM     68  C   UNL A   1      39.844  34.270  36.728  1.00  0.00     0.057 A 
ATOM     69  C   UNL A   1      40.590  35.450  36.830  1.00  0.00     0.134 A 
ATOM     70  C   UNL A   1      39.016  33.938  37.808  1.00  0.00     0.134 A 
ATOM     71  F   UNL A   1      41.417  35.814  35.839  1.00  0.00    -0.206 F 
ATOM     72  C   UNL A   1      40.546  36.247  37.976  1.00  0.00     0.040 A 
ATOM     73  C   UNL A   1      38.938  34.743  38.946  1.00  0.00     0.040 A 
ATOM     74  F   UNL A   1      38.268  32.825  37.773  1.00  0.00    -0.206 F 
ATOM     75  C   UNL A   1      39.715  35.895  39.037  1.00  0.00     0.006 A 
ENDBRANCH  47  68
BRANCH  59  76
ATOM     76  C   UNL A   1      43.846  28.753  35.334  1.00  0.00     0.057 A 
ATOM     77  C   UNL A   1      45.195  29.099  35.188  1.00  0.00     0.134 A 
ATOM     78  C   UNL A   1      43.530  27.765  36.274  1.00  0.00     0.134 A 
ATOM     79  F   UNL A   1      45.567  30.028  34.293  1.00  0.00    -0.206 F 
ATOM     80  C   UNL A   1      46.194  28.473  35.936  1.00  0.00     0.040 A 
ATOM     81  C   UNL A   1      44.515  27.153  37.049  1.00  0.00     0.040 A 
ATOM     82  F   UNL A   1      42.256  27.392  36.471  1.00  0.00    -0.206 F 
ATOM     83  C   UNL A   1      45.854  27.503  36.876  1.00  0.00     0.006 A 
ENDBRANCH  59  76
ENDBRANCH  33  34
ENDBRANCH  25  28
ENDBRANCH  23  24
ENDBRANCH  22  23
ENDBRANCH   1  22
TORSDOF 14
ENDMDL
MODEL 3
REMARK VINA RESULT:     -11.4      6.221     10.512
REMARK SMILES C[C@@H](C(=O)NCCCCNC(=O)c1ccc(-c2c3nc(c(-c4c(F)cccc4F)c4ccc([nH]4)c(-c4c(F)cccc4F)c4nc(c(-c5c(F)cccc5F)c5ccc2[nH]5)C=C4)C=C3)cc1)N(C)c1ccc(C(N)=O)nn1
REMARK SMILES IDX 7 1 6 2 5 3 3 4 4 5 2 7 1 8 67 9 68 10 69 11 70 12 77 13
REMARK SMILES IDX 71 14 76 15 72 16 73 17 74 18 75 19 8 22 9 23 10 24 11 25
REMARK SMILES IDX 12 27 13 28 14 29 66 30 15 31 65 32 16 33 17 34 18 35 59 36
REMARK SMILES IDX 19 37 64 38 58 39 60 40 20 41 63 42 57 43 56 44 21 46 47 47
REMARK SMILES IDX 30 48 46 49 31 50 34 51 45 52 61 53 32 54 33 55 44 57 62 58
REMARK SMILES IDX 35 59 22 60 23 61 28 62 24 63 25 64 27 65 29 66 26 67 48 68
REMARK SMILES IDX 49 69 54 70 50 71 51 72 53 73 55 74 52 75 36 76 37 77 42 78
REMARK SMILES IDX 38 79 39 80 41 81 43 82 40 83
REMARK H PARENT 5 6 74 20 74 21 10 26 60 45 34 56
REMARK Flexibility Score: inf
ROOT
ATOM      1  C   UNL A   1      36.679  22.449  24.464  1.00  0.00     0.023 C 
ENDROOT
BRANCH   1   2
ATOM      2  C   UNL A   1      36.176  23.181  25.709  1.00  0.00     0.116 C 
BRANCH   2   3
ATOM      3  N   UNL A   1      35.537  22.268  26.633  1.00  0.00    -0.354 N 
ATOM      4  C   UNL A   1      34.227  21.892  26.746  1.00  0.00     0.242 C 
ATOM      5  O   UNL A   1      33.976  21.097  27.655  1.00  0.00    -0.273 OA
ATOM      6  H   UNL A   1      36.145  21.850  27.285  1.00  0.00     0.163 HD
BRANCH   4   7
ATOM      7  C   UNL A   1      33.165  22.405  25.725  1.00  0.00     0.169 C 
ATOM      8  C   UNL A   1      31.844  22.835  26.362  1.00  0.00     0.042 C 
BRANCH   7   9
ATOM      9  N   UNL A   1      32.932  21.461  24.593  1.00  0.00    -0.346 N 
ATOM     10  C   UNL A   1      33.277  21.945  23.259  1.00  0.00     0.146 C 
BRANCH   9  11
ATOM     11  C   UNL A   1      33.092  20.080  24.757  1.00  0.00     0.151 A 
ATOM     12  C   UNL A   1      34.291  19.440  24.461  1.00  0.00     0.051 A 
ATOM     13  N   UNL A   1      32.080  19.327  25.259  1.00  0.00    -0.132 NA
ATOM     14  C   UNL A   1      34.426  18.060  24.605  1.00  0.00     0.040 A 
ATOM     15  N   UNL A   1      32.186  17.952  25.401  1.00  0.00    -0.143 NA
ATOM     16  C   UNL A   1      33.340  17.345  25.061  1.00  0.00     0.150 A 
BRANCH  16  17
ATOM     17  C   UNL A   1      33.416  15.867  25.211  1.00  0.00     0.269 C 
ATOM     18  N   UNL A   1      32.229  15.209  25.382  1.00  0.00    -0.364 N 
ATOM     19  O   UNL A   1      34.483  15.262  25.181  1.00  0.00    -0.268 OA
ATOM     20  H   UNL A   1      31.384  15.714  25.403  1.00  0.00     0.160 HD
ATOM     21  H   UNL A   1      32.220  14.229  25.484  1.00  0.00     0.160 HD
ENDBRANCH  16  17
ENDBRANCH   9  11
ENDBRANCH   7   9
ENDBRANCH   4   7
ENDBRANCH   2   3
ENDBRANCH   1   2
BRANCH   1  22
ATOM     22  C   UNL A   1      37.409  21.135  24.753  1.00  0.00     0.023 C 
BRANCH  22  23
ATOM     23  C   UNL A   1      38.611  21.248  25.686  1.00  0.00     0.116 C 
BRANCH  23  24
ATOM     24  N   UNL A   1      39.465  20.070  25.659  1.00  0.00    -0.352 N 
ATOM     25  C   UNL A   1      40.784  19.945  26.024  1.00  0.00     0.251 C 
ATOM     26  H   UNL A   1      39.037  19.245  25.331  1.00  0.00     0.163 HD
ATOM     27  O   UNL A   1      41.389  18.900  25.812  1.00  0.00    -0.269 OA
BRANCH  25  28
ATOM     28  C   UNL A   1      41.482  21.095  26.637  1.00  0.00     0.039 A 
ATOM     29  C   UNL A   1      42.158  21.990  25.805  1.00  0.00     0.014 A 
ATOM     30  C   UNL A   1      41.424  21.315  28.015  1.00  0.00     0.014 A 
ATOM     31  C   UNL A   1      42.691  23.163  26.345  1.00  0.00     0.010 A 
ATOM     32  C   UNL A   1      41.898  22.514  28.541  1.00  0.00     0.010 A 
ATOM     33  C   UNL A   1      42.512  23.462  27.705  1.00  0.00    -0.014 A 
BRANCH  33  34
ATOM     34  C   UNL A   1      42.883  24.791  28.258  1.00  0.00     0.031 A 
ATOM     35  C   UNL A   1      41.840  25.851  28.466  1.00  0.00     0.074 A 
ATOM     36  C   UNL A   1      44.184  25.068  28.479  1.00  0.00     0.049 A 
ATOM     37  N   UNL A   1      41.995  27.097  28.832  1.00  0.00    -0.248 NA
ATOM     38  C   UNL A   1      40.442  25.469  28.210  1.00  0.00     0.031 C 
ATOM     39  C   UNL A   1      45.296  24.138  28.269  1.00  0.00     0.029 A 
ATOM     40  N   UNL A   1      44.797  26.221  28.906  1.00  0.00    -0.354 N 
ATOM     41  C   UNL A   1      40.722  27.653  28.838  1.00  0.00     0.074 A 
ATOM     42  C   UNL A   1      39.807  26.617  28.407  1.00  0.00     0.031 C 
ATOM     43  C   UNL A   1      46.450  24.753  28.570  1.00  0.00     0.029 A 
ATOM     44  C   UNL A   1      46.169  26.134  28.946  1.00  0.00     0.049 A 
ATOM     45  H   UNL A   1      44.301  27.032  29.159  1.00  0.00     0.167 HD
ATOM     46  C   UNL A   1      40.352  28.908  29.184  1.00  0.00     0.037 A 
ATOM     47  C   UNL A   1      47.099  27.068  29.224  1.00  0.00     0.037 A 
ATOM     48  C   UNL A   1      41.264  29.928  29.635  1.00  0.00     0.049 A 
ATOM     49  C   UNL A   1      46.655  28.463  29.577  1.00  0.00     0.074 A 
ATOM     50  C   UNL A   1      40.969  31.200  30.094  1.00  0.00     0.029 A 
ATOM     51  N   UNL A   1      42.643  29.798  29.675  1.00  0.00    -0.354 N 
ATOM     52  N   UNL A   1      45.440  28.944  29.672  1.00  0.00    -0.248 NA
ATOM     53  C   UNL A   1      47.712  29.446  29.856  1.00  0.00     0.031 C 
ATOM     54  C   UNL A   1      42.172  31.863  30.349  1.00  0.00     0.029 A 
ATOM     55  C   UNL A   1      43.215  30.985  30.105  1.00  0.00     0.049 A 
ATOM     56  H   UNL A   1      43.142  28.984  29.434  1.00  0.00     0.167 HD
ATOM     57  C   UNL A   1      45.586  30.275  30.041  1.00  0.00     0.074 A 
ATOM     58  C   UNL A   1      47.005  30.519  30.178  1.00  0.00     0.031 C 
ATOM     59  C   UNL A   1      44.630  31.213  30.240  1.00  0.00     0.037 A 
BRANCH  46  60
ATOM     60  C   UNL A   1      38.899  29.270  29.090  1.00  0.00     0.057 A 
ATOM     61  C   UNL A   1      38.298  29.606  27.872  1.00  0.00     0.134 A 
ATOM     62  C   UNL A   1      38.072  29.178  30.218  1.00  0.00     0.134 A 
ATOM     63  F   UNL A   1      39.035  29.717  26.757  1.00  0.00    -0.206 F 
ATOM     64  C   UNL A   1      36.925  29.846  27.780  1.00  0.00     0.040 A 
ATOM     65  C   UNL A   1      36.696  29.392  30.133  1.00  0.00     0.040 A 
ATOM     66  F   UNL A   1      38.584  28.852  31.414  1.00  0.00    -0.206 F 
ATOM     67  C   UNL A   1      36.119  29.726  28.909  1.00  0.00     0.006 A 
ENDBRANCH  46  60
BRANCH  47  68
ATOM     68  C   UNL A   1      48.546  26.737  29.153  1.00  0.00     0.057 A 
ATOM     69  C   UNL A   1      49.249  26.304  30.283  1.00  0.00     0.134 A 
ATOM     70  C   UNL A   1      49.271  26.893  27.965  1.00  0.00     0.134 A 
ATOM     71  F   UNL A   1      48.616  26.155  31.456  1.00  0.00    -0.206 F 
ATOM     72  C   UNL A   1      50.626  26.074  30.245  1.00  0.00     0.040 A 
ATOM     73  C   UNL A   1      50.642  26.636  27.905  1.00  0.00     0.040 A 
ATOM     74  F   UNL A   1      48.658  27.298  26.843  1.00  0.00    -0.206 F 
ATOM     75  C   UNL A   1      51.326  26.237  29.051  1.00  0.00     0.006 A 
ENDBRANCH  47  68
BRANCH  59  76
ATOM     76  C   UNL A   1      45.084  32.586  30.645  1.00  0.00     0.057 A 
ATOM     77  C   UNL A   1      45.294  32.926  31.987  1.00  0.00     0.134 A 
ATOM     78  C   UNL A   1      45.362  33.561  29.679  1.00  0.00     0.134 A 
ATOM     79  F   UNL A   1      45.033  32.041  32.962  1.00  0.00    -0.206 F 
ATOM     80  C   UNL A   1      45.744  34.194  32.356  1.00  0.00     0.040 A 
ATOM     81  C   UNL A   1      45.841  34.823  30.033  1.00  0.00     0.040 A 
ATOM     82  F   UNL A   1      45.191  33.298  28.374  1.00  0.00    -0.206 F 
ATOM     83  C   UNL A   1      46.028  35.144  31.376  1.00  0.00     0.006 A 
ENDBRANCH  59  76
ENDBRANCH  33  34
ENDBRANCH  25  28
ENDBRANCH  23  24
ENDBRANCH  22  23
ENDBRANCH   1  22
TORSDOF 14
ENDMDL
