MODEL 1
REMARK VINA RESULT:     -13.4      0.000      0.000
REMARK SMILES [NH3+][C@H](CS[C@@H]1CC(=O)N(c2ccc3ccccc3c2)C1=O)C(=O)NCCCCNC(=O)c1ccc(-c2c3nc(c(-c4c(F)cccc4F)c4ccc([nH]4)c(-c4c(F)cccc4F)c4nc(c(-c5c(F)cccc5F)c5ccc2[nH]5)C=C4)C=C3)cc1
REMARK SMILES IDX 25 1 24 2 22 3 23 4 2 6 1 7 3 11 4 12 5 13 6 14 20 15 7 16
REMARK SMILES IDX 9 17 21 18 8 19 10 20 11 21 19 22 12 23 18 24 13 25 17 26
REMARK SMILES IDX 14 27 16 28 15 29 26 30 27 31 28 32 29 33 30 34 31 36 32 37
REMARK SMILES IDX 33 38 85 39 34 40 84 41 35 42 36 43 37 44 78 45 38 46 83 47
REMARK SMILES IDX 77 48 79 49 39 50 82 51 76 52 75 53 40 55 66 56 49 57 65 58
REMARK SMILES IDX 50 59 53 60 64 61 80 62 51 63 52 64 63 66 81 67 54 68 41 69
REMARK SMILES IDX 42 70 47 71 43 72 44 73 46 74 48 75 45 76 67 77 68 78 73 79
REMARK SMILES IDX 69 80 70 81 72 82 74 83 71 84 55 85 56 86 61 87 57 88 58 89
REMARK SMILES IDX 60 90 62 91 59 92
REMARK H PARENT 24 5 1 8 1 9 1 10 29 35 79 54 53 65
REMARK Flexibility Score: inf
ROOT
ATOM      1  C   UNL A   1      38.881  22.579  26.239  1.00  0.00     0.116 C 
ENDROOT
BRANCH   1   2
ATOM      2  N   UNL A   1      38.139  22.696  25.012  1.00  0.00    -0.351 N 
ATOM      3  C   UNL A   1      36.974  22.123  24.612  1.00  0.00     0.279 C 
ATOM      4  O   UNL A   1      36.520  22.435  23.510  1.00  0.00    -0.268 OA
ATOM      5  H   UNL A   1      38.547  23.295  24.347  1.00  0.00     0.163 HD
BRANCH   3   6
ATOM      6  C   UNL A   1      36.244  21.132  25.524  1.00  0.00     0.280 C 
BRANCH   6   7
ATOM      7  N   UNL A   1      36.385  19.745  25.009  1.00  0.00    -0.347 N 
ATOM      8  H   UNL A   1      35.636  19.550  24.344  1.00  0.00     0.345 HD
ATOM      9  H   UNL A   1      36.331  19.086  25.786  1.00  0.00     0.345 HD
ATOM     10  H   UNL A   1      37.287  19.645  24.542  1.00  0.00     0.345 HD
ENDBRANCH   6   7
BRANCH   6  11
ATOM     11  C   UNL A   1      34.790  21.531  25.867  1.00  0.00     0.145 C 
BRANCH  11  12
ATOM     12  S   UNL A   1      33.461  20.926  24.708  1.00  0.00    -0.141 SA
BRANCH  12  13
ATOM     13  C   UNL A   1      32.657  22.429  23.856  1.00  0.00     0.146 C 
ATOM     14  C   UNL A   1      33.295  23.226  22.104  1.00  0.00     0.125 C 
ATOM     15  C   UNL A   1      32.336  24.008  25.093  1.00  0.00     0.247 C 
ATOM     16  C   UNL A   1      33.266  25.226  22.388  1.00  0.00     0.235 C 
ATOM     17  N   UNL A   1      32.759  25.475  24.113  1.00  0.00    -0.250 N 
ATOM     18  O   UNL A   1      31.851  24.031  26.213  1.00  0.00    -0.273 OA
ATOM     19  O   UNL A   1      33.612  26.094  21.604  1.00  0.00    -0.274 OA
BRANCH  17  20
ATOM     20  C   UNL A   1      32.718  26.782  24.706  1.00  0.00     0.052 A 
ATOM     21  C   UNL A   1      31.535  27.523  24.700  1.00  0.00     0.027 A 
ATOM     22  C   UNL A   1      33.834  27.304  25.373  1.00  0.00     0.035 A 
ATOM     23  C   UNL A   1      31.512  28.827  25.198  1.00  0.00     0.011 A 
ATOM     24  C   UNL A   1      33.739  28.517  26.091  1.00  0.00    -0.016 A 
ATOM     25  C   UNL A   1      32.596  29.326  25.922  1.00  0.00    -0.018 A 
ATOM     26  C   UNL A   1      34.718  28.931  27.013  1.00  0.00     0.009 A 
ATOM     27  C   UNL A   1      32.531  30.587  26.535  1.00  0.00     0.009 A 
ATOM     28  C   UNL A   1      34.590  30.141  27.702  1.00  0.00     0.001 A 
ATOM     29  C   UNL A   1      33.520  30.988  27.430  1.00  0.00     0.001 A 
ENDBRANCH  17  20
ENDBRANCH  12  13
ENDBRANCH  11  12
ENDBRANCH   6  11
ENDBRANCH   3   6
ENDBRANCH   1   2
BRANCH   1  30
ATOM     30  C   UNL A   1      40.434  21.914  26.175  1.00  0.00     0.023 C 
BRANCH  30  31
ATOM     31  C   UNL A   1      41.317  19.889  26.096  1.00  0.00     0.023 C 
BRANCH  31  32
ATOM     32  C   UNL A   1      42.893  19.231  26.304  1.00  0.00     0.116 C 
BRANCH  32  33
ATOM     33  N   UNL A   1      43.740  18.881  25.174  1.00  0.00    -0.352 N 
ATOM     34  C   UNL A   1      44.536  19.701  24.420  1.00  0.00     0.251 C 
ATOM     35  H   UNL A   1      43.743  17.930  24.920  1.00  0.00     0.163 HD
ATOM     36  O   UNL A   1      45.099  19.298  23.410  1.00  0.00    -0.269 OA
BRANCH  34  37
ATOM     37  C   UNL A   1      44.703  21.089  24.843  1.00  0.00     0.039 A 
ATOM     38  C   UNL A   1      44.157  22.110  24.067  1.00  0.00     0.014 A 
ATOM     39  C   UNL A   1      45.409  21.358  26.016  1.00  0.00     0.014 A 
ATOM     40  C   UNL A   1      44.306  23.420  24.492  1.00  0.00     0.010 A 
ATOM     41  C   UNL A   1      45.462  22.649  26.496  1.00  0.00     0.010 A 
ATOM     42  C   UNL A   1      44.943  23.686  25.716  1.00  0.00    -0.014 A 
BRANCH  42  43
ATOM     43  C   UNL A   1      45.128  25.068  26.183  1.00  0.00     0.031 A 
ATOM     44  C   UNL A   1      46.490  25.688  26.090  1.00  0.00     0.074 A 
ATOM     45  C   UNL A   1      44.079  25.695  26.742  1.00  0.00     0.049 A 
ATOM     46  N   UNL A   1      46.884  26.869  26.479  1.00  0.00    -0.248 NA
ATOM     47  C   UNL A   1      47.566  24.851  25.526  1.00  0.00     0.031 C 
ATOM     48  C   UNL A   1      42.748  25.107  26.929  1.00  0.00     0.029 A 
ATOM     49  N   UNL A   1      43.963  26.955  27.251  1.00  0.00    -0.354 N 
ATOM     50  C   UNL A   1      48.249  26.907  26.225  1.00  0.00     0.074 A 
ATOM     51  C   UNL A   1      48.632  25.609  25.725  1.00  0.00     0.031 C 
ATOM     52  C   UNL A   1      41.936  26.027  27.471  1.00  0.00     0.029 A 
ATOM     53  C   UNL A   1      42.699  27.247  27.700  1.00  0.00     0.049 A 
ATOM     54  H   UNL A   1      44.712  27.593  27.292  1.00  0.00     0.167 HD
ATOM     55  C   UNL A   1      49.092  27.954  26.369  1.00  0.00     0.037 A 
ATOM     56  C   UNL A   1      42.224  28.386  28.228  1.00  0.00     0.037 A 
ATOM     57  C   UNL A   1      48.656  29.239  26.842  1.00  0.00     0.049 A 
ATOM     58  C   UNL A   1      43.173  29.545  28.346  1.00  0.00     0.074 A 
ATOM     59  C   UNL A   1      49.380  30.407  26.973  1.00  0.00     0.029 A 
ATOM     60  N   UNL A   1      47.359  29.516  27.262  1.00  0.00    -0.354 N 
ATOM     61  N   UNL A   1      44.445  29.605  28.025  1.00  0.00    -0.248 NA
ATOM     62  C   UNL A   1      42.626  30.793  28.884  1.00  0.00     0.031 C 
ATOM     63  C   UNL A   1      48.535  31.376  27.524  1.00  0.00     0.029 A 
ATOM     64  C   UNL A   1      47.267  30.830  27.677  1.00  0.00     0.049 A 
ATOM     65  H   UNL A   1      46.616  28.870  27.264  1.00  0.00     0.167 HD
ATOM     66  C   UNL A   1      44.847  30.903  28.297  1.00  0.00     0.074 A 
ATOM     67  C   UNL A   1      43.673  31.600  28.790  1.00  0.00     0.031 C 
ATOM     68  C   UNL A   1      46.070  31.475  28.159  1.00  0.00     0.037 A 
BRANCH  55  69
ATOM     69  C   UNL A   1      50.538  27.742  26.015  1.00  0.00     0.057 A 
ATOM     70  C   UNL A   1      51.503  27.418  26.980  1.00  0.00     0.134 A 
ATOM     71  C   UNL A   1      50.974  27.860  24.689  1.00  0.00     0.134 A 
ATOM     72  F   UNL A   1      51.162  27.306  28.273  1.00  0.00    -0.206 F 
ATOM     73  C   UNL A   1      52.850  27.255  26.646  1.00  0.00     0.040 A 
ATOM     74  C   UNL A   1      52.312  27.666  24.338  1.00  0.00     0.040 A 
ATOM     75  F   UNL A   1      50.109  28.170  23.712  1.00  0.00    -0.206 F 
ATOM     76  C   UNL A   1      53.256  27.372  25.320  1.00  0.00     0.006 A 
ENDBRANCH  55  69
BRANCH  56  77
ATOM     77  C   UNL A   1      40.795  28.490  28.616  1.00  0.00     0.057 A 
ATOM     78  C   UNL A   1      39.822  28.889  27.692  1.00  0.00     0.134 A 
ATOM     79  C   UNL A   1      40.358  28.159  29.904  1.00  0.00     0.134 A 
ATOM     80  F   UNL A   1      40.175  29.220  26.441  1.00  0.00    -0.206 F 
ATOM     81  C   UNL A   1      38.473  28.979  28.039  1.00  0.00     0.040 A 
ATOM     82  C   UNL A   1      39.008  28.218  30.259  1.00  0.00     0.040 A 
ATOM     83  F   UNL A   1      41.234  27.745  30.832  1.00  0.00    -0.206 F 
ATOM     84  C   UNL A   1      38.062  28.637  29.326  1.00  0.00     0.006 A 
ENDBRANCH  56  77
BRANCH  68  85
ATOM     85  C   UNL A   1      46.175  32.926  28.520  1.00  0.00     0.057 A 
ATOM     86  C   UNL A   1      45.933  33.938  27.584  1.00  0.00     0.134 A 
ATOM     87  C   UNL A   1      46.480  33.308  29.833  1.00  0.00     0.134 A 
ATOM     88  F   UNL A   1      45.649  33.633  26.309  1.00  0.00    -0.206 F 
ATOM     89  C   UNL A   1      46.020  35.284  27.935  1.00  0.00     0.040 A 
ATOM     90  C   UNL A   1      46.535  34.650  30.203  1.00  0.00     0.040 A 
ATOM     91  F   UNL A   1      46.709  32.383  30.777  1.00  0.00    -0.206 F 
ATOM     92  C   UNL A   1      46.314  35.643  29.250  1.00  0.00     0.006 A 
ENDBRANCH  68  85
ENDBRANCH  42  43
ENDBRANCH  34  37
ENDBRANCH  32  33
ENDBRANCH  31  32
ENDBRANCH  30  31
ENDBRANCH   1  30
TORSDOF 16
ENDMDL
MODEL 2
REMARK VINA RESULT:     -13.2      0.465      6.228
REMARK SMILES [NH3+][C@H](CS[C@@H]1CC(=O)N(c2ccc3ccccc3c2)C1=O)C(=O)NCCCCNC(=O)c1ccc(-c2c3nc(c(-c4c(F)cccc4F)c4ccc([nH]4)c(-c4c(F)cccc4F)c4nc(c(-c5c(F)cccc5F)c5ccc2[nH]5)C=C4)C=C3)cc1
REMARK SMILES IDX 25 1 24 2 22 3 23 4 2 6 1 7 3 11 4 12 5 13 6 14 20 15 7 16
REMARK SMILES IDX 9 17 21 18 8 19 10 20 11 21 19 22 12 23 18 24 13 25 17 26
REMARK SMILES IDX 14 27 16 28 15 29 26 30 27 31 28 32 29 33 30 34 31 36 32 37
REMARK SMILES IDX 33 38 85 39 34 40 84 41 35 42 36 43 37 44 78 45 38 46 83 47
REMARK SMILES IDX 77 48 79 49 39 50 82 51 76 52 75 53 40 55 66 56 49 57 65 58
REMARK SMILES IDX 50 59 53 60 64 61 80 62 51 63 52 64 63 66 81 67 54 68 41 69
REMARK SMILES IDX 42 70 47 71 43 72 44 73 46 74 48 75 45 76 67 77 68 78 73 79
REMARK SMILES IDX 69 80 70 81 72 82 74 83 71 84 55 85 56 86 61 87 57 88 58 89
REMARK SMILES IDX 60 90 62 91 59 92
REMARK H PARENT 24 5 1 8 1 9 1 10 29 35 79 54 53 65
REMARK Flexibility Score: inf
ROOT
ATOM      1  C   UNL A   1      38.904  22.369  26.223  1.00  0.00     0.116 C 
ENDROOT
BRANCH   1   2
ATOM      2  N   UNL A   1      38.149  22.553  25.013  1.00  0.00    -0.351 N 
ATOM      3  C   UNL A   1      36.950  22.049  24.620  1.00  0.00     0.279 C 
ATOM      4  O   UNL A   1      36.495  22.410  23.534  1.00  0.00    -0.268 OA
ATOM      5  H   UNL A   1      38.576  23.149  24.355  1.00  0.00     0.163 HD
BRANCH   3   6
ATOM      6  C   UNL A   1      36.187  21.072  25.520  1.00  0.00     0.280 C 
BRANCH   6   7
ATOM      7  N   UNL A   1      36.302  19.684  25.001  1.00  0.00    -0.347 N 
ATOM      8  H   UNL A   1      35.441  19.429  24.518  1.00  0.00     0.345 HD
ATOM      9  H   UNL A   1      36.459  19.042  25.779  1.00  0.00     0.345 HD
ATOM     10  H   UNL A   1      37.086  19.627  24.351  1.00  0.00     0.345 HD
ENDBRANCH   6   7
BRANCH   6  11
ATOM     11  C   UNL A   1      34.739  21.504  25.848  1.00  0.00     0.145 C 
BRANCH  11  12
ATOM     12  S   UNL A   1      33.405  20.904  24.692  1.00  0.00    -0.141 SA
BRANCH  12  13
ATOM     13  C   UNL A   1      32.628  22.409  23.817  1.00  0.00     0.146 C 
ATOM     14  C   UNL A   1      33.323  23.211  22.089  1.00  0.00     0.125 C 
ATOM     15  C   UNL A   1      32.264  23.984  25.046  1.00  0.00     0.247 C 
ATOM     16  C   UNL A   1      33.282  25.209  22.377  1.00  0.00     0.235 C 
ATOM     17  N   UNL A   1      32.718  25.454  24.084  1.00  0.00    -0.250 N 
ATOM     18  O   UNL A   1      31.742  24.004  26.149  1.00  0.00    -0.273 OA
ATOM     19  O   UNL A   1      33.653  26.080  21.606  1.00  0.00    -0.274 OA
BRANCH  17  20
ATOM     20  C   UNL A   1      32.655  26.760  24.678  1.00  0.00     0.052 A 
ATOM     21  C   UNL A   1      31.452  27.467  24.704  1.00  0.00     0.027 A 
ATOM     22  C   UNL A   1      33.773  27.314  25.315  1.00  0.00     0.035 A 
ATOM     23  C   UNL A   1      31.405  28.769  25.203  1.00  0.00     0.011 A 
ATOM     24  C   UNL A   1      33.663  28.524  26.035  1.00  0.00    -0.016 A 
ATOM     25  C   UNL A   1      32.493  29.300  25.898  1.00  0.00    -0.018 A 
ATOM     26  C   UNL A   1      34.655  28.966  26.931  1.00  0.00     0.009 A 
ATOM     27  C   UNL A   1      32.409  30.559  26.513  1.00  0.00     0.009 A 
ATOM     28  C   UNL A   1      34.510  30.172  27.624  1.00  0.00     0.001 A 
ATOM     29  C   UNL A   1      33.410  30.988  27.381  1.00  0.00     0.001 A 
ENDBRANCH  17  20
ENDBRANCH  12  13
ENDBRANCH  11  12
ENDBRANCH   6  11
ENDBRANCH   3   6
ENDBRANCH   1   2
BRANCH   1  30
ATOM     30  C   UNL A   1      40.474  21.753  26.100  1.00  0.00     0.023 C 
BRANCH  30  31
ATOM     31  C   UNL A   1      41.431  19.761  26.155  1.00  0.00     0.023 C 
BRANCH  31  32
ATOM     32  C   UNL A   1      43.050  19.181  26.204  1.00  0.00     0.116 C 
BRANCH  32  33
ATOM     33  N   UNL A   1      43.781  18.824  24.997  1.00  0.00    -0.352 N 
ATOM     34  C   UNL A   1      44.521  19.635  24.179  1.00  0.00     0.251 C 
ATOM     35  H   UNL A   1      43.739  17.875  24.736  1.00  0.00     0.163 HD
ATOM     36  O   UNL A   1      44.979  19.230  23.118  1.00  0.00    -0.269 OA
BRANCH  34  37
ATOM     37  C   UNL A   1      44.757  21.015  24.596  1.00  0.00     0.039 A 
ATOM     38  C   UNL A   1      44.221  22.057  23.842  1.00  0.00     0.014 A 
ATOM     39  C   UNL A   1      45.517  21.254  25.741  1.00  0.00     0.014 A 
ATOM     40  C   UNL A   1      44.437  23.360  24.262  1.00  0.00     0.010 A 
ATOM     41  C   UNL A   1      45.638  22.540  26.219  1.00  0.00     0.010 A 
ATOM     42  C   UNL A   1      45.130  23.599  25.460  1.00  0.00    -0.014 A 
BRANCH  42  43
ATOM     43  C   UNL A   1      45.385  24.971  25.921  1.00  0.00     0.031 A 
ATOM     44  C   UNL A   1      44.254  25.758  26.512  1.00  0.00     0.074 A 
ATOM     45  C   UNL A   1      46.609  25.489  25.728  1.00  0.00     0.049 A 
ATOM     46  N   UNL A   1      44.245  26.990  26.941  1.00  0.00    -0.248 NA
ATOM     47  C   UNL A   1      42.942  25.087  26.590  1.00  0.00     0.031 C 
ATOM     48  C   UNL A   1      47.727  24.791  25.084  1.00  0.00     0.029 A 
ATOM     49  N   UNL A   1      47.120  26.712  26.051  1.00  0.00    -0.354 N 
ATOM     50  C   UNL A   1      42.932  27.243  27.317  1.00  0.00     0.074 A 
ATOM     51  C   UNL A   1      42.156  26.070  26.995  1.00  0.00     0.031 C 
ATOM     52  C   UNL A   1      48.808  25.585  25.103  1.00  0.00     0.029 A 
ATOM     53  C   UNL A   1      48.446  26.852  25.723  1.00  0.00     0.049 A 
ATOM     54  H   UNL A   1      46.590  27.424  26.477  1.00  0.00     0.167 HD
ATOM     55  C   UNL A   1      42.437  28.352  27.913  1.00  0.00     0.037 A 
ATOM     56  C   UNL A   1      49.266  27.897  25.921  1.00  0.00     0.037 A 
ATOM     57  C   UNL A   1      43.258  29.483  28.244  1.00  0.00     0.049 A 
ATOM     58  C   UNL A   1      48.700  29.103  26.614  1.00  0.00     0.074 A 
ATOM     59  C   UNL A   1      42.910  30.643  28.908  1.00  0.00     0.029 A 
ATOM     60  N   UNL A   1      44.608  29.587  27.928  1.00  0.00    -0.354 N 
ATOM     61  N   UNL A   1      47.477  29.307  27.047  1.00  0.00    -0.248 NA
ATOM     62  C   UNL A   1      49.622  30.216  26.859  1.00  0.00     0.031 C 
ATOM     63  C   UNL A   1      44.037  31.470  28.945  1.00  0.00     0.029 A 
ATOM     64  C   UNL A   1      45.104  30.801  28.361  1.00  0.00     0.049 A 
ATOM     65  H   UNL A   1      45.134  28.896  27.463  1.00  0.00     0.167 HD
ATOM     66  C   UNL A   1      47.485  30.560  27.640  1.00  0.00     0.074 A 
ATOM     67  C   UNL A   1      48.844  31.057  27.526  1.00  0.00     0.031 C 
ATOM     68  C   UNL A   1      46.469  31.246  28.223  1.00  0.00     0.037 A 
BRANCH  55  69
ATOM     69  C   UNL A   1      40.968  28.378  28.231  1.00  0.00     0.057 A 
ATOM     70  C   UNL A   1      40.015  28.857  27.321  1.00  0.00     0.134 A 
ATOM     71  C   UNL A   1      40.495  27.915  29.466  1.00  0.00     0.134 A 
ATOM     72  F   UNL A   1      40.396  29.333  26.125  1.00  0.00    -0.206 F 
ATOM     73  C   UNL A   1      38.655  28.908  27.638  1.00  0.00     0.040 A 
ATOM     74  C   UNL A   1      39.135  27.930  29.782  1.00  0.00     0.040 A 
ATOM     75  F   UNL A   1      41.347  27.444  30.389  1.00  0.00    -0.206 F 
ATOM     76  C   UNL A   1      38.211  28.436  28.870  1.00  0.00     0.006 A 
ENDBRANCH  55  69
BRANCH  56  77
ATOM     77  C   UNL A   1      50.691  27.814  25.512  1.00  0.00     0.057 A 
ATOM     78  C   UNL A   1      51.695  27.535  26.448  1.00  0.00     0.134 A 
ATOM     79  C   UNL A   1      51.084  27.973  24.178  1.00  0.00     0.134 A 
ATOM     80  F   UNL A   1      51.385  27.371  27.742  1.00  0.00    -0.206 F 
ATOM     81  C   UNL A   1      53.038  27.440  26.076  1.00  0.00     0.040 A 
ATOM     82  C   UNL A   1      52.420  27.855  23.788  1.00  0.00     0.040 A 
ATOM     83  F   UNL A   1      50.170  28.217  23.227  1.00  0.00    -0.206 F 
ATOM     84  C   UNL A   1      53.403  27.596  24.741  1.00  0.00     0.006 A 
ENDBRANCH  56  77
BRANCH  68  85
ATOM     85  C   UNL A   1      46.812  32.586  28.801  1.00  0.00     0.057 A 
ATOM     86  C   UNL A   1      47.284  32.725  30.111  1.00  0.00     0.134 A 
ATOM     87  C   UNL A   1      46.707  33.742  28.017  1.00  0.00     0.134 A 
ATOM     88  F   UNL A   1      47.394  31.655  30.913  1.00  0.00    -0.206 F 
ATOM     89  C   UNL A   1      47.612  33.974  30.633  1.00  0.00     0.040 A 
ATOM     90  C   UNL A   1      47.066  34.992  28.517  1.00  0.00     0.040 A 
ATOM     91  F   UNL A   1      46.274  33.671  26.749  1.00  0.00    -0.206 F 
ATOM     92  C   UNL A   1      47.512  35.111  29.833  1.00  0.00     0.006 A 
ENDBRANCH  68  85
ENDBRANCH  42  43
ENDBRANCH  34  37
ENDBRANCH  32  33
ENDBRANCH  31  32
ENDBRANCH  30  31
ENDBRANCH   1  30
TORSDOF 16
ENDMDL
MODEL 3
REMARK VINA RESULT:     -13.1      5.987     11.729
REMARK SMILES [NH3+][C@H](CS[C@@H]1CC(=O)N(c2ccc3ccccc3c2)C1=O)C(=O)NCCCCNC(=O)c1ccc(-c2c3nc(c(-c4c(F)cccc4F)c4ccc([nH]4)c(-c4c(F)cccc4F)c4nc(c(-c5c(F)cccc5F)c5ccc2[nH]5)C=C4)C=C3)cc1
REMARK SMILES IDX 25 1 24 2 22 3 23 4 2 6 1 7 3 11 4 12 5 13 6 14 20 15 7 16
REMARK SMILES IDX 9 17 21 18 8 19 10 20 11 21 19 22 12 23 18 24 13 25 17 26
REMARK SMILES IDX 14 27 16 28 15 29 26 30 27 31 28 32 29 33 30 34 31 36 32 37
REMARK SMILES IDX 33 38 85 39 34 40 84 41 35 42 36 43 37 44 78 45 38 46 83 47
REMARK SMILES IDX 77 48 79 49 39 50 82 51 76 52 75 53 40 55 66 56 49 57 65 58
REMARK SMILES IDX 50 59 53 60 64 61 80 62 51 63 52 64 63 66 81 67 54 68 41 69
REMARK SMILES IDX 42 70 47 71 43 72 44 73 46 74 48 75 45 76 67 77 68 78 73 79
REMARK SMILES IDX 69 80 70 81 72 82 74 83 71 84 55 85 56 86 61 87 57 88 58 89
REMARK SMILES IDX 60 90 62 91 59 92
REMARK H PARENT 24 5 1 8 1 9 1 10 29 35 79 54 53 65
REMARK Flexibility Score: inf
ROOT
ATOM      1  C   UNL A   1      34.984  30.268  27.581  1.00  0.00     0.116 C 
ENDROOT
BRANCH   1   2
ATOM      2  N   UNL A   1      33.815  29.488  27.886  1.00  0.00    -0.351 N 
ATOM      3  C   UNL A   1      32.624  29.372  27.244  1.00  0.00     0.279 C 
ATOM      4  O   UNL A   1      31.793  28.583  27.697  1.00  0.00    -0.268 OA
ATOM      5  H   UNL A   1      33.892  28.945  28.703  1.00  0.00     0.163 HD
BRANCH   3   6
ATOM      6  C   UNL A   1      32.340  30.191  25.981  1.00  0.00     0.280 C 
BRANCH   6   7
ATOM      7  N   UNL A   1      31.457  31.345  26.293  1.00  0.00    -0.347 N 
ATOM      8  H   UNL A   1      30.486  31.032  26.320  1.00  0.00     0.345 HD
ATOM      9  H   UNL A   1      31.564  32.060  25.573  1.00  0.00     0.345 HD
ATOM     10  H   UNL A   1      31.713  31.735  27.200  1.00  0.00     0.345 HD
ENDBRANCH   6   7
BRANCH   6  11
ATOM     11  C   UNL A   1      31.877  29.353  24.767  1.00  0.00     0.145 C 
BRANCH  11  12
ATOM     12  S   UNL A   1      32.990  27.952  24.243  1.00  0.00    -0.141 SA
BRANCH  12  13
ATOM     13  C   UNL A   1      32.018  26.317  24.365  1.00  0.00     0.146 C 
ATOM     14  C   UNL A   1      31.018  25.703  26.019  1.00  0.00     0.125 C 
ATOM     15  C   UNL A   1      33.045  24.692  23.710  1.00  0.00     0.247 C 
ATOM     16  C   UNL A   1      31.469  23.744  26.216  1.00  0.00     0.235 C 
ATOM     17  N   UNL A   1      32.641  23.368  24.883  1.00  0.00    -0.250 N 
ATOM     18  O   UNL A   1      33.705  24.548  22.693  1.00  0.00    -0.273 OA
ATOM     19  O   UNL A   1      31.114  22.984  27.102  1.00  0.00    -0.274 OA
BRANCH  17  20
ATOM     20  C   UNL A   1      33.260  22.078  24.764  1.00  0.00     0.052 A 
ATOM     21  C   UNL A   1      34.452  21.802  25.435  1.00  0.00     0.027 A 
ATOM     22  C   UNL A   1      32.641  21.047  24.046  1.00  0.00     0.035 A 
ATOM     23  C   UNL A   1      35.102  20.580  25.256  1.00  0.00     0.011 A 
ATOM     24  C   UNL A   1      33.171  19.738  24.066  1.00  0.00    -0.016 A 
ATOM     25  C   UNL A   1      34.461  19.529  24.599  1.00  0.00    -0.018 A 
ATOM     26  C   UNL A   1      32.444  18.618  23.622  1.00  0.00     0.009 A 
ATOM     27  C   UNL A   1      35.053  18.259  24.525  1.00  0.00     0.009 A 
ATOM     28  C   UNL A   1      33.005  17.337  23.655  1.00  0.00     0.001 A 
ATOM     29  C   UNL A   1      34.324  17.165  24.065  1.00  0.00     0.001 A 
ENDBRANCH  17  20
ENDBRANCH  12  13
ENDBRANCH  11  12
ENDBRANCH   6  11
ENDBRANCH   3   6
ENDBRANCH   1   2
BRANCH   1  30
ATOM     30  C   UNL A   1      35.019  31.885  28.074  1.00  0.00     0.023 C 
BRANCH  30  31
ATOM     31  C   UNL A   1      33.572  33.548  28.242  1.00  0.00     0.023 C 
BRANCH  31  32
ATOM     32  C   UNL A   1      33.625  35.161  28.839  1.00  0.00     0.116 C 
BRANCH  32  33
ATOM     33  N   UNL A   1      32.819  35.594  29.971  1.00  0.00    -0.352 N 
ATOM     34  C   UNL A   1      32.978  35.287  31.296  1.00  0.00     0.251 C 
ATOM     35  H   UNL A   1      32.062  36.185  29.756  1.00  0.00     0.163 HD
ATOM     36  O   UNL A   1      32.148  35.613  32.134  1.00  0.00    -0.269 OA
BRANCH  34  37
ATOM     37  C   UNL A   1      34.172  34.549  31.701  1.00  0.00     0.039 A 
ATOM     38  C   UNL A   1      34.046  33.229  32.127  1.00  0.00     0.014 A 
ATOM     39  C   UNL A   1      35.411  35.189  31.652  1.00  0.00     0.014 A 
ATOM     40  C   UNL A   1      35.190  32.534  32.488  1.00  0.00     0.010 A 
ATOM     41  C   UNL A   1      36.558  34.467  31.904  1.00  0.00     0.010 A 
ATOM     42  C   UNL A   1      36.446  33.150  32.359  1.00  0.00    -0.014 A 
BRANCH  42  43
ATOM     43  C   UNL A   1      37.674  32.442  32.749  1.00  0.00     0.031 A 
ATOM     44  C   UNL A   1      38.323  32.784  34.056  1.00  0.00     0.074 A 
ATOM     45  C   UNL A   1      38.204  31.564  31.881  1.00  0.00     0.049 A 
ATOM     46  N   UNL A   1      39.425  32.317  34.574  1.00  0.00    -0.248 NA
ATOM     47  C   UNL A   1      37.671  33.826  34.872  1.00  0.00     0.031 C 
ATOM     48  C   UNL A   1      37.654  31.251  30.557  1.00  0.00     0.029 A 
ATOM     49  N   UNL A   1      39.314  30.777  31.977  1.00  0.00    -0.354 N 
ATOM     50  C   UNL A   1      39.606  33.019  35.759  1.00  0.00     0.074 A 
ATOM     51  C   UNL A   1      38.548  33.997  35.848  1.00  0.00     0.031 C 
ATOM     52  C   UNL A   1      38.407  30.300  29.984  1.00  0.00     0.029 A 
ATOM     53  C   UNL A   1      39.505  29.970  30.882  1.00  0.00     0.049 A 
ATOM     54  H   UNL A   1      39.919  30.786  32.753  1.00  0.00     0.167 HD
ATOM     55  C   UNL A   1      40.557  32.830  36.701  1.00  0.00     0.037 A 
ATOM     56  C   UNL A   1      40.466  29.060  30.652  1.00  0.00     0.037 A 
ATOM     57  C   UNL A   1      41.572  31.820  36.582  1.00  0.00     0.049 A 
ATOM     58  C   UNL A   1      41.492  28.846  31.728  1.00  0.00     0.074 A 
ATOM     59  C   UNL A   1      42.555  31.468  37.486  1.00  0.00     0.029 A 
ATOM     60  N   UNL A   1      41.724  30.994  35.475  1.00  0.00    -0.354 N 
ATOM     61  N   UNL A   1      41.610  29.452  32.888  1.00  0.00    -0.248 NA
ATOM     62  C   UNL A   1      42.505  27.818  31.478  1.00  0.00     0.031 C 
ATOM     63  C   UNL A   1      43.336  30.466  36.901  1.00  0.00     0.029 A 
ATOM     64  C   UNL A   1      42.801  30.148  35.660  1.00  0.00     0.049 A 
ATOM     65  H   UNL A   1      41.149  31.009  34.675  1.00  0.00     0.167 HD
ATOM     66  C   UNL A   1      42.695  28.864  33.518  1.00  0.00     0.074 A 
ATOM     67  C   UNL A   1      43.185  27.838  32.616  1.00  0.00     0.031 C 
ATOM     68  C   UNL A   1      43.246  29.142  34.727  1.00  0.00     0.037 A 
BRANCH  55  69
ATOM     69  C   UNL A   1      40.532  33.724  37.910  1.00  0.00     0.057 A 
ATOM     70  C   UNL A   1      41.325  34.877  38.003  1.00  0.00     0.134 A 
ATOM     71  C   UNL A   1      39.701  33.430  38.999  1.00  0.00     0.134 A 
ATOM     72  F   UNL A   1      42.158  35.212  37.006  1.00  0.00    -0.206 F 
ATOM     73  C   UNL A   1      41.319  35.683  39.144  1.00  0.00     0.040 A 
ATOM     74  C   UNL A   1      39.662  34.246  40.132  1.00  0.00     0.040 A 
ATOM     75  F   UNL A   1      38.916  32.343  38.984  1.00  0.00    -0.206 F 
ATOM     76  C   UNL A   1      40.480  35.372  40.210  1.00  0.00     0.006 A 
ENDBRANCH  55  69
BRANCH  56  77
ATOM     77  C   UNL A   1      40.456  28.267  29.397  1.00  0.00     0.057 A 
ATOM     78  C   UNL A   1      39.682  27.106  29.283  1.00  0.00     0.134 A 
ATOM     79  C   UNL A   1      41.187  28.663  28.271  1.00  0.00     0.134 A 
ATOM     80  F   UNL A   1      38.958  26.671  30.325  1.00  0.00    -0.206 F 
ATOM     81  C   UNL A   1      39.653  26.357  28.105  1.00  0.00     0.040 A 
ATOM     82  C   UNL A   1      41.147  27.939  27.078  1.00  0.00     0.040 A 
ATOM     83  F   UNL A   1      41.930  29.780  28.304  1.00  0.00    -0.206 F 
ATOM     84  C   UNL A   1      40.384  26.776  26.995  1.00  0.00     0.006 A 
ENDBRANCH  56  77
BRANCH  68  85
ATOM     85  C   UNL A   1      44.414  28.298  35.139  1.00  0.00     0.057 A 
ATOM     86  C   UNL A   1      45.731  28.672  34.852  1.00  0.00     0.134 A 
ATOM     87  C   UNL A   1      44.213  27.120  35.870  1.00  0.00     0.134 A 
ATOM     88  F   UNL A   1      45.985  29.783  34.144  1.00  0.00    -0.206 F 
ATOM     89  C   UNL A   1      46.811  27.886  35.252  1.00  0.00     0.040 A 
ATOM     90  C   UNL A   1      45.285  26.345  36.306  1.00  0.00     0.040 A 
ATOM     91  F   UNL A   1      42.973  26.717  36.188  1.00  0.00    -0.206 F 
ATOM     92  C   UNL A   1      46.589  26.723  35.989  1.00  0.00     0.006 A 
ENDBRANCH  68  85
ENDBRANCH  42  43
ENDBRANCH  34  37
ENDBRANCH  32  33
ENDBRANCH  31  32
ENDBRANCH  30  31
ENDBRANCH   1  30
TORSDOF 16
ENDMDL
