MODEL 1
REMARK VINA RESULT:      -9.5      0.000      0.000
REMARK SMILES Cc1ncccc1C(=O)NCCOCC(=O)NCCCCNC(=O)c1ccc(-c2c3nc(c(-c4c(F)cccc4F)c4ccc([nH]4)c(-c4c(F)cccc4F)c4nc(c(-c5c(F)cccc5F)c5ccc2[nH]5)C=C4)C=C3)cc1
REMARK SMILES IDX 18 1 17 2 15 3 16 4 14 6 13 7 12 8 11 9 10 10 8 11 9 12 7 14
REMARK SMILES IDX 1 15 2 16 3 17 4 18 6 19 5 20 19 21 20 22 21 23 22 24 23 25
REMARK SMILES IDX 24 27 25 28 26 29 78 30 27 31 77 32 28 33 29 34 30 35 71 36
REMARK SMILES IDX 31 37 76 38 70 39 72 40 32 41 75 42 69 43 68 44 33 46 59 47
REMARK SMILES IDX 42 48 58 49 43 50 46 51 57 52 73 53 44 54 45 55 56 57 74 58
REMARK SMILES IDX 47 59 34 60 35 61 40 62 36 63 37 64 39 65 41 66 38 67 60 68
REMARK SMILES IDX 61 69 66 70 62 71 63 72 65 73 67 74 64 75 48 76 49 77 54 78
REMARK SMILES IDX 50 79 51 80 53 81 55 82 52 83
REMARK H PARENT 17 5 10 13 22 26 72 45 46 56
REMARK Flexibility Score: inf
ROOT
ATOM      1  C   UNL A   1      33.483  35.674  29.912  1.00  0.00     0.116 C 
ENDROOT
BRANCH   1   2
ATOM      2  N   UNL A   1      32.445  35.654  30.924  1.00  0.00    -0.354 N 
ATOM      3  C   UNL A   1      32.377  36.386  32.077  1.00  0.00     0.245 C 
ATOM      4  O   UNL A   1      31.389  36.266  32.800  1.00  0.00    -0.272 OA
ATOM      5  H   UNL A   1      31.695  35.037  30.760  1.00  0.00     0.163 HD
BRANCH   3   6
ATOM      6  C   UNL A   1      33.545  37.314  32.443  1.00  0.00     0.260 C 
BRANCH   6   7
ATOM      7  O   UNL A   1      34.768  36.753  32.898  1.00  0.00    -0.370 OA
BRANCH   7   8
ATOM      8  C   UNL A   1      34.649  35.559  33.669  1.00  0.00     0.182 C 
BRANCH   8   9
ATOM      9  C   UNL A   1      35.321  34.332  33.060  1.00  0.00     0.144 C 
BRANCH   9  10
ATOM     10  N   UNL A   1      36.241  34.599  31.974  1.00  0.00    -0.350 N 
ATOM     11  C   UNL A   1      37.415  34.001  31.604  1.00  0.00     0.253 C 
ATOM     12  O   UNL A   1      37.959  34.397  30.571  1.00  0.00    -0.269 OA
ATOM     13  H   UNL A   1      35.972  35.350  31.397  1.00  0.00     0.163 HD
BRANCH  11  14
ATOM     14  C   UNL A   1      38.103  32.959  32.402  1.00  0.00     0.061 A 
ATOM     15  C   UNL A   1      39.868  34.441  33.523  1.00  0.00     0.067 C 
ATOM     16  C   UNL A   1      39.198  33.131  33.253  1.00  0.00     0.050 A 
ATOM     17  N   UNL A   1      39.735  32.096  33.964  1.00  0.00    -0.261 NA
ATOM     18  C   UNL A   1      39.123  30.894  33.909  1.00  0.00     0.111 A 
ATOM     19  C   UNL A   1      37.485  31.694  32.393  1.00  0.00     0.017 A 
ATOM     20  C   UNL A   1      37.991  30.651  33.160  1.00  0.00     0.021 A 
ENDBRANCH  11  14
ENDBRANCH   9  10
ENDBRANCH   8   9
ENDBRANCH   7   8
ENDBRANCH   6   7
ENDBRANCH   3   6
ENDBRANCH   1   2
BRANCH   1  21
ATOM     21  C   UNL A   1      33.368  34.513  28.925  1.00  0.00     0.023 C 
BRANCH  21  22
ATOM     22  C   UNL A   1      34.230  33.291  29.248  1.00  0.00     0.023 C 
BRANCH  22  23
ATOM     23  C   UNL A   1      34.718  32.502  28.040  1.00  0.00     0.116 C 
BRANCH  23  24
ATOM     24  N   UNL A   1      34.035  31.229  27.873  1.00  0.00    -0.352 N 
ATOM     25  C   UNL A   1      34.555  29.959  27.924  1.00  0.00     0.251 C 
ATOM     26  H   UNL A   1      33.068  31.285  27.699  1.00  0.00     0.163 HD
ATOM     27  O   UNL A   1      33.849  28.990  27.661  1.00  0.00    -0.269 OA
BRANCH  25  28
ATOM     28  C   UNL A   1      35.981  29.769  28.256  1.00  0.00     0.039 A 
ATOM     29  C   UNL A   1      36.319  29.317  29.533  1.00  0.00     0.014 A 
ATOM     30  C   UNL A   1      36.976  30.000  27.302  1.00  0.00     0.014 A 
ATOM     31  C   UNL A   1      37.651  29.028  29.833  1.00  0.00     0.010 A 
ATOM     32  C   UNL A   1      38.292  29.642  27.577  1.00  0.00     0.010 A 
ATOM     33  C   UNL A   1      38.642  29.152  28.844  1.00  0.00    -0.014 A 
BRANCH  33  34
ATOM     34  C   UNL A   1      40.049  28.769  29.116  1.00  0.00     0.031 A 
ATOM     35  C   UNL A   1      40.968  29.727  29.822  1.00  0.00     0.074 A 
ATOM     36  C   UNL A   1      40.517  27.588  28.668  1.00  0.00     0.049 A 
ATOM     37  N   UNL A   1      42.243  29.603  30.092  1.00  0.00    -0.248 NA
ATOM     38  C   UNL A   1      40.383  31.003  30.259  1.00  0.00     0.031 C 
ATOM     39  C   UNL A   1      39.738  26.593  27.930  1.00  0.00     0.029 A 
ATOM     40  N   UNL A   1      41.766  27.027  28.763  1.00  0.00    -0.354 N 
ATOM     41  C   UNL A   1      42.613  30.788  30.715  1.00  0.00     0.074 A 
ATOM     42  C   UNL A   1      41.443  31.639  30.733  1.00  0.00     0.031 C 
ATOM     43  C   UNL A   1      40.519  25.534  27.661  1.00  0.00     0.029 A 
ATOM     44  C   UNL A   1      41.862  25.791  28.173  1.00  0.00     0.049 A 
ATOM     45  H   UNL A   1      42.523  27.470  29.211  1.00  0.00     0.167 HD
ATOM     46  C   UNL A   1      43.811  31.126  31.246  1.00  0.00     0.037 A 
ATOM     47  C   UNL A   1      42.914  24.960  28.055  1.00  0.00     0.037 A 
ATOM     48  C   UNL A   1      44.967  30.267  31.245  1.00  0.00     0.049 A 
ATOM     49  C   UNL A   1      44.238  25.365  28.641  1.00  0.00     0.074 A 
ATOM     50  C   UNL A   1      46.211  30.494  31.809  1.00  0.00     0.029 A 
ATOM     51  N   UNL A   1      45.021  29.017  30.647  1.00  0.00    -0.354 N 
ATOM     52  N   UNL A   1      44.556  26.459  29.290  1.00  0.00    -0.248 NA
ATOM     53  C   UNL A   1      45.349  24.415  28.483  1.00  0.00     0.031 C 
ATOM     54  C   UNL A   1      47.030  29.400  31.516  1.00  0.00     0.029 A 
ATOM     55  C   UNL A   1      46.283  28.470  30.810  1.00  0.00     0.049 A 
ATOM     56  H   UNL A   1      44.273  28.583  30.178  1.00  0.00     0.167 HD
ATOM     57  C   UNL A   1      45.892  26.317  29.643  1.00  0.00     0.074 A 
ATOM     58  C   UNL A   1      46.320  25.025  29.148  1.00  0.00     0.031 C 
ATOM     59  C   UNL A   1      46.690  27.178  30.319  1.00  0.00     0.037 A 
BRANCH  46  60
ATOM     60  C   UNL A   1      43.928  32.484  31.874  1.00  0.00     0.057 A 
ATOM     61  C   UNL A   1      43.678  32.691  33.237  1.00  0.00     0.134 A 
ATOM     62  C   UNL A   1      44.317  33.594  31.114  1.00  0.00     0.134 A 
ATOM     63  F   UNL A   1      43.289  31.672  34.019  1.00  0.00    -0.206 F 
ATOM     64  C   UNL A   1      43.781  33.958  33.815  1.00  0.00     0.040 A 
ATOM     65  C   UNL A   1      44.451  34.861  31.687  1.00  0.00     0.040 A 
ATOM     66  F   UNL A   1      44.578  33.466  29.805  1.00  0.00    -0.206 F 
ATOM     67  C   UNL A   1      44.174  35.046  33.039  1.00  0.00     0.006 A 
ENDBRANCH  46  60
BRANCH  47  68
ATOM     68  C   UNL A   1      42.755  23.649  27.375  1.00  0.00     0.057 A 
ATOM     69  C   UNL A   1      42.413  22.501  28.099  1.00  0.00     0.134 A 
ATOM     70  C   UNL A   1      42.951  23.508  25.997  1.00  0.00     0.134 A 
ATOM     71  F   UNL A   1      42.231  22.570  29.426  1.00  0.00    -0.206 F 
ATOM     72  C   UNL A   1      42.291  21.256  27.481  1.00  0.00     0.040 A 
ATOM     73  C   UNL A   1      42.807  22.273  25.361  1.00  0.00     0.040 A 
ATOM     74  F   UNL A   1      43.273  24.571  25.245  1.00  0.00    -0.206 F 
ATOM     75  C   UNL A   1      42.484  21.140  26.106  1.00  0.00     0.006 A 
ENDBRANCH  47  68
BRANCH  59  76
ATOM     76  C   UNL A   1      48.098  26.736  30.595  1.00  0.00     0.057 A 
ATOM     77  C   UNL A   1      48.429  25.982  31.727  1.00  0.00     0.134 A 
ATOM     78  C   UNL A   1      49.127  27.040  29.694  1.00  0.00     0.134 A 
ATOM     79  F   UNL A   1      47.492  25.670  32.634  1.00  0.00    -0.206 F 
ATOM     80  C   UNL A   1      49.739  25.564  31.966  1.00  0.00     0.040 A 
ATOM     81  C   UNL A   1      50.436  26.605  29.909  1.00  0.00     0.040 A 
ATOM     82  F   UNL A   1      48.876  27.753  28.586  1.00  0.00    -0.206 F 
ATOM     83  C   UNL A   1      50.746  25.868  31.051  1.00  0.00     0.006 A 
ENDBRANCH  59  76
ENDBRANCH  33  34
ENDBRANCH  25  28
ENDBRANCH  23  24
ENDBRANCH  22  23
ENDBRANCH  21  22
ENDBRANCH   1  21
TORSDOF 16
ENDMDL
MODEL 2
REMARK VINA RESULT:      -9.4      4.187      9.707
REMARK SMILES Cc1ncccc1C(=O)NCCOCC(=O)NCCCCNC(=O)c1ccc(-c2c3nc(c(-c4c(F)cccc4F)c4ccc([nH]4)c(-c4c(F)cccc4F)c4nc(c(-c5c(F)cccc5F)c5ccc2[nH]5)C=C4)C=C3)cc1
REMARK SMILES IDX 18 1 17 2 15 3 16 4 14 6 13 7 12 8 11 9 10 10 8 11 9 12 7 14
REMARK SMILES IDX 1 15 2 16 3 17 4 18 6 19 5 20 19 21 20 22 21 23 22 24 23 25
REMARK SMILES IDX 24 27 25 28 26 29 78 30 27 31 77 32 28 33 29 34 30 35 71 36
REMARK SMILES IDX 31 37 76 38 70 39 72 40 32 41 75 42 69 43 68 44 33 46 59 47
REMARK SMILES IDX 42 48 58 49 43 50 46 51 57 52 73 53 44 54 45 55 56 57 74 58
REMARK SMILES IDX 47 59 34 60 35 61 40 62 36 63 37 64 39 65 41 66 38 67 60 68
REMARK SMILES IDX 61 69 66 70 62 71 63 72 65 73 67 74 64 75 48 76 49 77 54 78
REMARK SMILES IDX 50 79 51 80 53 81 55 82 52 83
REMARK H PARENT 17 5 10 13 22 26 72 45 46 56
REMARK Flexibility Score: inf
ROOT
ATOM      1  C   UNL A   1      35.546  21.290  24.708  1.00  0.00     0.116 C 
ENDROOT
BRANCH   1   2
ATOM      2  N   UNL A   1      35.161  21.194  26.102  1.00  0.00    -0.354 N 
ATOM      3  C   UNL A   1      34.307  22.003  26.799  1.00  0.00     0.245 C 
ATOM      4  O   UNL A   1      34.065  21.739  27.976  1.00  0.00    -0.272 OA
ATOM      5  H   UNL A   1      35.564  20.453  26.611  1.00  0.00     0.163 HD
BRANCH   3   6
ATOM      6  C   UNL A   1      33.697  23.226  26.097  1.00  0.00     0.260 C 
BRANCH   6   7
ATOM      7  O   UNL A   1      32.636  23.045  25.171  1.00  0.00    -0.370 OA
BRANCH   7   8
ATOM      8  C   UNL A   1      31.395  22.623  25.733  1.00  0.00     0.182 C 
BRANCH   8   9
ATOM      9  C   UNL A   1      30.641  23.701  26.506  1.00  0.00     0.144 C 
BRANCH   9  10
ATOM     10  N   UNL A   1      29.953  24.684  25.696  1.00  0.00    -0.350 N 
ATOM     11  C   UNL A   1      30.308  25.942  25.287  1.00  0.00     0.253 C 
ATOM     12  O   UNL A   1      29.541  26.535  24.526  1.00  0.00    -0.269 OA
ATOM     13  H   UNL A   1      29.066  24.395  25.380  1.00  0.00     0.163 HD
BRANCH  11  14
ATOM     14  C   UNL A   1      31.518  26.656  25.759  1.00  0.00     0.061 A 
ATOM     15  C   UNL A   1      33.047  26.175  23.759  1.00  0.00     0.067 C 
ATOM     16  C   UNL A   1      32.746  26.763  25.101  1.00  0.00     0.050 A 
ATOM     17  N   UNL A   1      33.789  27.474  25.623  1.00  0.00    -0.261 NA
ATOM     18  C   UNL A   1      33.588  28.167  26.763  1.00  0.00     0.111 A 
ATOM     19  C   UNL A   1      31.347  27.412  26.934  1.00  0.00     0.017 A 
ATOM     20  C   UNL A   1      32.386  28.185  27.439  1.00  0.00     0.021 A 
ENDBRANCH  11  14
ENDBRANCH   9  10
ENDBRANCH   8   9
ENDBRANCH   7   8
ENDBRANCH   6   7
ENDBRANCH   3   6
ENDBRANCH   1   2
BRANCH   1  21
ATOM     21  C   UNL A   1      37.052  21.475  24.523  1.00  0.00     0.023 C 
BRANCH  21  22
ATOM     22  C   UNL A   1      37.902  20.232  24.788  1.00  0.00     0.023 C 
BRANCH  22  23
ATOM     23  C   UNL A   1      38.882  20.348  25.948  1.00  0.00     0.116 C 
BRANCH  23  24
ATOM     24  N   UNL A   1      39.955  19.367  25.893  1.00  0.00    -0.352 N 
ATOM     25  C   UNL A   1      41.289  19.534  26.170  1.00  0.00     0.251 C 
ATOM     26  H   UNL A   1      39.688  18.460  25.618  1.00  0.00     0.163 HD
ATOM     27  O   UNL A   1      42.081  18.617  25.975  1.00  0.00    -0.269 OA
BRANCH  25  28
ATOM     28  C   UNL A   1      41.773  20.839  26.663  1.00  0.00     0.039 A 
ATOM     29  C   UNL A   1      42.230  21.778  25.736  1.00  0.00     0.014 A 
ATOM     30  C   UNL A   1      41.743  21.147  28.025  1.00  0.00     0.014 A 
ATOM     31  C   UNL A   1      42.591  23.055  26.170  1.00  0.00     0.010 A 
ATOM     32  C   UNL A   1      42.031  22.441  28.447  1.00  0.00     0.010 A 
ATOM     33  C   UNL A   1      42.457  23.408  27.523  1.00  0.00    -0.014 A 
BRANCH  33  34
ATOM     34  C   UNL A   1      42.753  24.784  27.991  1.00  0.00     0.031 A 
ATOM     35  C   UNL A   1      44.166  25.184  28.313  1.00  0.00     0.074 A 
ATOM     36  C   UNL A   1      41.742  25.652  28.190  1.00  0.00     0.049 A 
ATOM     37  N   UNL A   1      44.617  26.314  28.795  1.00  0.00    -0.248 NA
ATOM     38  C   UNL A   1      45.207  24.169  28.087  1.00  0.00     0.031 C 
ATOM     39  C   UNL A   1      40.325  25.370  27.960  1.00  0.00     0.029 A 
ATOM     40  N   UNL A   1      41.753  26.949  28.640  1.00  0.00    -0.354 N 
ATOM     41  C   UNL A   1      45.987  26.141  28.943  1.00  0.00     0.074 A 
ATOM     42  C   UNL A   1      46.286  24.779  28.553  1.00  0.00     0.031 C 
ATOM     43  C   UNL A   1      39.606  26.468  28.246  1.00  0.00     0.029 A 
ATOM     44  C   UNL A   1      40.505  27.517  28.715  1.00  0.00     0.049 A 
ATOM     45  H   UNL A   1      42.578  27.427  28.886  1.00  0.00     0.167 HD
ATOM     46  C   UNL A   1      46.915  27.041  29.344  1.00  0.00     0.037 A 
ATOM     47  C   UNL A   1      40.128  28.744  29.119  1.00  0.00     0.037 A 
ATOM     48  C   UNL A   1      46.616  28.401  29.710  1.00  0.00     0.049 A 
ATOM     49  C   UNL A   1      41.177  29.722  29.573  1.00  0.00     0.074 A 
ATOM     50  C   UNL A   1      47.493  29.408  30.074  1.00  0.00     0.029 A 
ATOM     51  N   UNL A   1      45.340  28.942  29.762  1.00  0.00    -0.354 N 
ATOM     52  N   UNL A   1      42.477  29.568  29.641  1.00  0.00    -0.248 NA
ATOM     53  C   UNL A   1      40.706  31.047  30.000  1.00  0.00     0.031 C 
ATOM     54  C   UNL A   1      46.745  30.547  30.387  1.00  0.00     0.029 A 
ATOM     55  C   UNL A   1      45.405  30.263  30.173  1.00  0.00     0.049 A 
ATOM     56  H   UNL A   1      44.513  28.459  29.539  1.00  0.00     0.167 HD
ATOM     57  C   UNL A   1      42.981  30.782  30.089  1.00  0.00     0.074 A 
ATOM     58  C   UNL A   1      41.847  31.666  30.264  1.00  0.00     0.031 C 
ATOM     59  C   UNL A   1      44.267  31.133  30.332  1.00  0.00     0.037 A 
BRANCH  46  60
ATOM     60  C   UNL A   1      48.342  26.579  29.403  1.00  0.00     0.057 A 
ATOM     61  C   UNL A   1      48.885  26.006  30.559  1.00  0.00     0.134 A 
ATOM     62  C   UNL A   1      49.177  26.688  28.284  1.00  0.00     0.134 A 
ATOM     63  F   UNL A   1      48.143  25.884  31.671  1.00  0.00    -0.206 F 
ATOM     64  C   UNL A   1      50.216  25.585  30.611  1.00  0.00     0.040 A 
ATOM     65  C   UNL A   1      50.500  26.244  28.314  1.00  0.00     0.040 A 
ATOM     66  F   UNL A   1      48.719  27.221  27.141  1.00  0.00    -0.206 F 
ATOM     67  C   UNL A   1      51.025  25.698  29.484  1.00  0.00     0.006 A 
ENDBRANCH  46  60
BRANCH  47  68
ATOM     68  C   UNL A   1      38.695  29.131  29.091  1.00  0.00     0.057 A 
ATOM     69  C   UNL A   1      37.893  29.004  30.231  1.00  0.00     0.134 A 
ATOM     70  C   UNL A   1      38.089  29.623  27.929  1.00  0.00     0.134 A 
ATOM     71  F   UNL A   1      38.413  28.520  31.370  1.00  0.00    -0.206 F 
ATOM     72  C   UNL A   1      36.538  29.333  30.214  1.00  0.00     0.040 A 
ATOM     73  C   UNL A   1      36.739  29.979  27.904  1.00  0.00     0.040 A 
ATOM     74  F   UNL A   1      38.804  29.775  26.804  1.00  0.00    -0.206 F 
ATOM     75  C   UNL A   1      35.958  29.826  29.047  1.00  0.00     0.006 A 
ENDBRANCH  47  68
BRANCH  59  76
ATOM     76  C   UNL A   1      44.521  32.544  30.777  1.00  0.00     0.057 A 
ATOM     77  C   UNL A   1      44.586  32.894  32.131  1.00  0.00     0.134 A 
ATOM     78  C   UNL A   1      44.738  33.557  29.835  1.00  0.00     0.134 A 
ATOM     79  F   UNL A   1      44.374  31.972  33.082  1.00  0.00    -0.206 F 
ATOM     80  C   UNL A   1      44.838  34.206  32.533  1.00  0.00     0.040 A 
ATOM     81  C   UNL A   1      45.016  34.869  30.225  1.00  0.00     0.040 A 
ATOM     82  F   UNL A   1      44.697  33.289  28.521  1.00  0.00    -0.206 F 
ATOM     83  C   UNL A   1      45.062  35.197  31.578  1.00  0.00     0.006 A 
ENDBRANCH  59  76
ENDBRANCH  33  34
ENDBRANCH  25  28
ENDBRANCH  23  24
ENDBRANCH  22  23
ENDBRANCH  21  22
ENDBRANCH   1  21
TORSDOF 16
ENDMDL
MODEL 3
REMARK VINA RESULT:      -9.4      4.614     10.243
REMARK SMILES Cc1ncccc1C(=O)NCCOCC(=O)NCCCCNC(=O)c1ccc(-c2c3nc(c(-c4c(F)cccc4F)c4ccc([nH]4)c(-c4c(F)cccc4F)c4nc(c(-c5c(F)cccc5F)c5ccc2[nH]5)C=C4)C=C3)cc1
REMARK SMILES IDX 18 1 17 2 15 3 16 4 14 6 13 7 12 8 11 9 10 10 8 11 9 12 7 14
REMARK SMILES IDX 1 15 2 16 3 17 4 18 6 19 5 20 19 21 20 22 21 23 22 24 23 25
REMARK SMILES IDX 24 27 25 28 26 29 78 30 27 31 77 32 28 33 29 34 30 35 71 36
REMARK SMILES IDX 31 37 76 38 70 39 72 40 32 41 75 42 69 43 68 44 33 46 59 47
REMARK SMILES IDX 42 48 58 49 43 50 46 51 57 52 73 53 44 54 45 55 56 57 74 58
REMARK SMILES IDX 47 59 34 60 35 61 40 62 36 63 37 64 39 65 41 66 38 67 60 68
REMARK SMILES IDX 61 69 66 70 62 71 63 72 65 73 67 74 64 75 48 76 49 77 54 78
REMARK SMILES IDX 50 79 51 80 53 81 55 82 52 83
REMARK H PARENT 17 5 10 13 22 26 72 45 46 56
REMARK Flexibility Score: inf
ROOT
ATOM      1  C   UNL A   1      31.744  29.775  25.236  1.00  0.00     0.116 C 
ENDROOT
BRANCH   1   2
ATOM      2  N   UNL A   1      30.668  30.318  24.429  1.00  0.00    -0.354 N 
ATOM      3  C   UNL A   1      29.951  29.692  23.448  1.00  0.00     0.245 C 
ATOM      4  O   UNL A   1      29.038  30.304  22.896  1.00  0.00    -0.272 OA
ATOM      5  H   UNL A   1      30.423  31.254  24.611  1.00  0.00     0.163 HD
BRANCH   3   6
ATOM      6  C   UNL A   1      30.324  28.255  23.052  1.00  0.00     0.260 C 
BRANCH   6   7
ATOM      7  O   UNL A   1      29.486  27.180  23.449  1.00  0.00    -0.370 OA
BRANCH   7   8
ATOM      8  C   UNL A   1      30.112  26.170  24.237  1.00  0.00     0.182 C 
BRANCH   8   9
ATOM      9  C   UNL A   1      30.390  24.862  23.502  1.00  0.00     0.144 C 
BRANCH   9  10
ATOM     10  N   UNL A   1      31.465  24.907  22.534  1.00  0.00    -0.350 N 
ATOM     11  C   UNL A   1      32.578  24.126  22.366  1.00  0.00     0.253 C 
ATOM     12  O   UNL A   1      33.296  24.354  21.392  1.00  0.00    -0.269 OA
ATOM     13  H   UNL A   1      31.382  25.634  21.875  1.00  0.00     0.163 HD
BRANCH  11  14
ATOM     14  C   UNL A   1      33.003  23.075  23.320  1.00  0.00     0.061 A 
ATOM     15  C   UNL A   1      34.208  24.569  25.020  1.00  0.00     0.067 C 
ATOM     16  C   UNL A   1      33.735  23.249  24.498  1.00  0.00     0.050 A 
ATOM     17  N   UNL A   1      34.048  22.203  25.319  1.00  0.00    -0.261 NA
ATOM     18  C   UNL A   1      33.551  20.983  25.023  1.00  0.00     0.111 A 
ATOM     19  C   UNL A   1      32.488  21.790  23.063  1.00  0.00     0.017 A 
ATOM     20  C   UNL A   1      32.754  20.733  23.926  1.00  0.00     0.021 A 
ENDBRANCH  11  14
ENDBRANCH   9  10
ENDBRANCH   8   9
ENDBRANCH   7   8
ENDBRANCH   6   7
ENDBRANCH   3   6
ENDBRANCH   1   2
BRANCH   1  21
ATOM     21  C   UNL A   1      31.781  30.366  26.645  1.00  0.00     0.023 C 
BRANCH  21  22
ATOM     22  C   UNL A   1      31.546  31.875  26.729  1.00  0.00     0.023 C 
BRANCH  22  23
ATOM     23  C   UNL A   1      32.721  32.689  27.257  1.00  0.00     0.116 C 
BRANCH  23  24
ATOM     24  N   UNL A   1      32.366  34.060  27.584  1.00  0.00    -0.352 N 
ATOM     25  C   UNL A   1      32.945  34.905  28.500  1.00  0.00     0.251 C 
ATOM     26  H   UNL A   1      31.607  34.435  27.082  1.00  0.00     0.163 HD
ATOM     27  O   UNL A   1      32.454  36.007  28.722  1.00  0.00    -0.269 OA
BRANCH  25  28
ATOM     28  C   UNL A   1      34.138  34.460  29.247  1.00  0.00     0.039 A 
ATOM     29  C   UNL A   1      33.963  33.871  30.501  1.00  0.00     0.014 A 
ATOM     30  C   UNL A   1      35.417  34.590  28.700  1.00  0.00     0.014 A 
ATOM     31  C   UNL A   1      35.067  33.348  31.177  1.00  0.00     0.010 A 
ATOM     32  C   UNL A   1      36.504  34.002  29.338  1.00  0.00     0.010 A 
ATOM     33  C   UNL A   1      36.340  33.375  30.583  1.00  0.00    -0.014 A 
BRANCH  33  34
ATOM     34  C   UNL A   1      37.510  32.748  31.245  1.00  0.00     0.031 A 
ATOM     35  C   UNL A   1      38.175  31.551  30.626  1.00  0.00     0.074 A 
ATOM     36  C   UNL A   1      37.931  33.216  32.436  1.00  0.00     0.049 A 
ATOM     37  N   UNL A   1      39.164  30.826  31.083  1.00  0.00    -0.248 NA
ATOM     38  C   UNL A   1      37.640  31.092  29.335  1.00  0.00     0.031 C 
ATOM     39  C   UNL A   1      37.340  34.342  33.162  1.00  0.00     0.029 A 
ATOM     40  N   UNL A   1      38.952  32.796  33.251  1.00  0.00    -0.354 N 
ATOM     41  C   UNL A   1      39.359  29.820  30.146  1.00  0.00     0.074 A 
ATOM     42  C   UNL A   1      38.350  29.995  29.123  1.00  0.00     0.031 C 
ATOM     43  C   UNL A   1      38.023  34.538  34.301  1.00  0.00     0.029 A 
ATOM     44  C   UNL A   1      39.075  33.532  34.405  1.00  0.00     0.049 A 
ATOM     45  H   UNL A   1      39.541  32.039  33.030  1.00  0.00     0.167 HD
ATOM     46  C   UNL A   1      40.307  28.855  30.125  1.00  0.00     0.037 A 
ATOM     47  C   UNL A   1      39.936  33.406  35.432  1.00  0.00     0.037 A 
ATOM     48  C   UNL A   1      41.323  28.698  31.134  1.00  0.00     0.049 A 
ATOM     49  C   UNL A   1      40.972  32.316  35.392  1.00  0.00     0.074 A 
ATOM     50  C   UNL A   1      42.365  27.787  31.174  1.00  0.00     0.029 A 
ATOM     51  N   UNL A   1      41.421  29.470  32.282  1.00  0.00    -0.354 N 
ATOM     52  N   UNL A   1      41.189  31.415  34.465  1.00  0.00    -0.248 NA
ATOM     53  C   UNL A   1      41.885  32.230  36.540  1.00  0.00     0.031 C 
ATOM     54  C   UNL A   1      43.068  27.980  32.367  1.00  0.00     0.029 A 
ATOM     55  C   UNL A   1      42.493  29.042  33.047  1.00  0.00     0.049 A 
ATOM     56  H   UNL A   1      40.819  30.212  32.516  1.00  0.00     0.167 HD
ATOM     57  C   UNL A   1      42.281  30.675  34.902  1.00  0.00     0.074 A 
ATOM     58  C   UNL A   1      42.688  31.243  36.171  1.00  0.00     0.031 C 
ATOM     59  C   UNL A   1      42.891  29.624  34.305  1.00  0.00     0.037 A 
BRANCH  46  60
ATOM     60  C   UNL A   1      40.288  27.895  28.971  1.00  0.00     0.057 A 
ATOM     61  C   UNL A   1      41.016  28.136  27.799  1.00  0.00     0.134 A 
ATOM     62  C   UNL A   1      39.554  26.705  29.041  1.00  0.00     0.134 A 
ATOM     63  F   UNL A   1      41.731  29.263  27.662  1.00  0.00    -0.206 F 
ATOM     64  C   UNL A   1      40.989  27.243  26.725  1.00  0.00     0.040 A 
ATOM     65  C   UNL A   1      39.542  25.790  27.986  1.00  0.00     0.040 A 
ATOM     66  F   UNL A   1      38.840  26.407  30.138  1.00  0.00    -0.206 F 
ATOM     67  C   UNL A   1      40.255  26.064  26.821  1.00  0.00     0.006 A 
ENDBRANCH  46  60
BRANCH  47  68
ATOM     68  C   UNL A   1      39.875  34.352  36.575  1.00  0.00     0.057 A 
ATOM     69  C   UNL A   1      40.545  35.579  36.529  1.00  0.00     0.134 A 
ATOM     70  C   UNL A   1      39.160  34.051  37.740  1.00  0.00     0.134 A 
ATOM     71  F   UNL A   1      41.262  35.916  35.446  1.00  0.00    -0.206 F 
ATOM     72  C   UNL A   1      40.524  36.466  37.606  1.00  0.00     0.040 A 
ATOM     73  C   UNL A   1      39.110  34.939  38.816  1.00  0.00     0.040 A 
ATOM     74  F   UNL A   1      38.490  32.893  37.844  1.00  0.00    -0.206 F 
ATOM     75  C   UNL A   1      39.800  36.148  38.753  1.00  0.00     0.006 A 
ENDBRANCH  47  68
BRANCH  59  76
ATOM     76  C   UNL A   1      44.087  29.041  34.998  1.00  0.00     0.057 A 
ATOM     77  C   UNL A   1      45.383  29.519  34.769  1.00  0.00     0.134 A 
ATOM     78  C   UNL A   1      43.933  28.011  35.935  1.00  0.00     0.134 A 
ATOM     79  F   UNL A   1      45.599  30.495  33.874  1.00  0.00    -0.206 F 
ATOM     80  C   UNL A   1      46.487  28.979  35.431  1.00  0.00     0.040 A 
ATOM     81  C   UNL A   1      45.026  27.480  36.623  1.00  0.00     0.040 A 
ATOM     82  F   UNL A   1      42.718  27.511  36.207  1.00  0.00    -0.206 F 
ATOM     83  C   UNL A   1      46.309  27.962  36.367  1.00  0.00     0.006 A 
ENDBRANCH  59  76
ENDBRANCH  33  34
ENDBRANCH  25  28
ENDBRANCH  23  24
ENDBRANCH  22  23
ENDBRANCH  21  22
ENDBRANCH   1  21
TORSDOF 16
ENDMDL
