MODEL 1
REMARK VINA RESULT:     -11.6      0.000      0.000
REMARK SMILES O=C(NCCCCNC(=O)[C@H]1c2[nH]cnc2CC[N@H+]1Cc1ccoc1)c1ccc(-c2c3nc(c(-c4c(F)cccc4F)c4ccc([nH]4)c(-c4c(F)cccc4F)c4nc(c(-c5c(F)cccc5F)c5ccc2[nH]5)C=C4)C=C3)cc1
REMARK SMILES IDX 5 1 4 2 3 3 1 4 2 5 26 7 27 8 79 9 28 10 78 11 29 12 30 13
REMARK SMILES IDX 31 14 72 15 32 16 77 17 71 18 73 19 33 20 76 21 70 22 69 23
REMARK SMILES IDX 34 25 60 26 43 27 59 28 44 29 47 30 58 31 74 32 45 33 46 34
REMARK SMILES IDX 57 36 75 37 48 38 35 39 36 40 41 41 37 42 38 43 40 44 42 45
REMARK SMILES IDX 39 46 61 47 62 48 67 49 63 50 64 51 66 52 68 53 65 54 49 55
REMARK SMILES IDX 50 56 55 57 51 58 52 59 54 60 56 61 53 62 6 63 7 64 8 65
REMARK SMILES IDX 9 66 10 68 11 69 12 70 19 71 13 72 16 73 18 74 14 76 15 78
REMARK SMILES IDX 17 79 20 80 21 81 22 82 25 83 23 84 24 85
REMARK H PARENT 3 6 73 24 47 35 8 67 19 75 13 77
REMARK Flexibility Score: inf
ROOT
ATOM      1  C   UNL A   1      35.297  31.810  27.873  1.00  0.00     0.023 C 
ENDROOT
BRANCH   1   2
ATOM      2  C   UNL A   1      34.389  32.793  28.602  1.00  0.00     0.116 C 
BRANCH   2   3
ATOM      3  N   UNL A   1      34.306  32.583  30.030  1.00  0.00    -0.352 N 
ATOM      4  O   UNL A   1      34.709  32.271  32.161  1.00  0.00    -0.269 OA
ATOM      5  C   UNL A   1      35.140  32.133  31.019  1.00  0.00     0.251 C 
ATOM      6  H   UNL A   1      33.419  32.825  30.383  1.00  0.00     0.163 HD
BRANCH   5   7
ATOM      7  C   UNL A   1      36.463  31.464  30.836  1.00  0.00     0.039 A 
ATOM      8  C   UNL A   1      37.697  32.084  30.645  1.00  0.00     0.014 A 
ATOM      9  C   UNL A   1      36.423  30.051  30.828  1.00  0.00     0.014 A 
ATOM     10  C   UNL A   1      38.842  31.312  30.405  1.00  0.00     0.010 A 
ATOM     11  C   UNL A   1      37.557  29.279  30.581  1.00  0.00     0.010 A 
ATOM     12  C   UNL A   1      38.770  29.910  30.344  1.00  0.00    -0.014 A 
BRANCH  12  13
ATOM     13  C   UNL A   1      40.012  29.137  30.219  1.00  0.00     0.031 A 
ATOM     14  C   UNL A   1      40.713  28.898  31.512  1.00  0.00     0.074 A 
ATOM     15  C   UNL A   1      40.470  28.532  29.100  1.00  0.00     0.049 A 
ATOM     16  N   UNL A   1      41.858  29.366  31.886  1.00  0.00    -0.248 NA
ATOM     17  C   UNL A   1      40.013  28.127  32.550  1.00  0.00     0.031 C 
ATOM     18  C   UNL A   1      39.792  28.366  27.814  1.00  0.00     0.029 A 
ATOM     19  N   UNL A   1      41.647  27.858  28.911  1.00  0.00    -0.354 N 
ATOM     20  C   UNL A   1      42.114  28.810  33.138  1.00  0.00     0.074 A 
ATOM     21  C   UNL A   1      40.892  28.171  33.554  1.00  0.00     0.031 C 
ATOM     22  C   UNL A   1      40.477  27.477  27.055  1.00  0.00     0.029 A 
ATOM     23  C   UNL A   1      41.710  27.115  27.735  1.00  0.00     0.049 A 
ATOM     24  H   UNL A   1      42.390  27.896  29.555  1.00  0.00     0.167 HD
ATOM     25  C   UNL A   1      43.380  28.746  33.639  1.00  0.00     0.037 A 
ATOM     26  C   UNL A   1      42.688  26.246  27.363  1.00  0.00     0.037 A 
ATOM     27  C   UNL A   1      44.267  29.637  32.935  1.00  0.00     0.049 A 
ATOM     28  C   UNL A   1      43.901  26.555  28.154  1.00  0.00     0.074 A 
ATOM     29  C   UNL A   1      44.305  30.998  32.700  1.00  0.00     0.029 A 
ATOM     30  N   UNL A   1      45.147  29.084  32.039  1.00  0.00    -0.354 N 
ATOM     31  N   UNL A   1      44.636  27.615  27.983  1.00  0.00    -0.248 NA
ATOM     32  C   UNL A   1      44.079  25.868  29.422  1.00  0.00     0.031 C 
ATOM     33  C   UNL A   1      44.800  31.127  31.369  1.00  0.00     0.029 A 
ATOM     34  C   UNL A   1      45.093  29.846  30.901  1.00  0.00     0.049 A 
ATOM     35  H   UNL A   1      45.710  28.291  32.185  1.00  0.00     0.167 HD
ATOM     36  C   UNL A   1      45.001  27.991  29.264  1.00  0.00     0.074 A 
ATOM     37  C   UNL A   1      44.725  26.822  30.096  1.00  0.00     0.031 C 
ATOM     38  C   UNL A   1      45.223  29.301  29.573  1.00  0.00     0.037 A 
BRANCH  25  39
ATOM     39  C   UNL A   1      43.907  27.626  34.503  1.00  0.00     0.057 A 
ATOM     40  C   UNL A   1      44.560  27.941  35.711  1.00  0.00     0.134 A 
ATOM     41  C   UNL A   1      44.083  26.301  34.058  1.00  0.00     0.134 A 
ATOM     42  F   UNL A   1      44.477  29.171  36.240  1.00  0.00    -0.206 F 
ATOM     43  C   UNL A   1      45.399  27.035  36.371  1.00  0.00     0.040 A 
ATOM     44  C   UNL A   1      44.878  25.373  34.737  1.00  0.00     0.040 A 
ATOM     45  F   UNL A   1      43.586  25.863  32.896  1.00  0.00    -0.206 F 
ATOM     46  C   UNL A   1      45.570  25.749  35.877  1.00  0.00     0.006 A 
ENDBRANCH  25  39
BRANCH  26  47
ATOM     47  C   UNL A   1      42.617  25.007  26.551  1.00  0.00     0.057 A 
ATOM     48  C   UNL A   1      43.392  24.847  25.389  1.00  0.00     0.134 A 
ATOM     49  C   UNL A   1      42.031  23.839  27.063  1.00  0.00     0.134 A 
ATOM     50  F   UNL A   1      44.025  25.894  24.841  1.00  0.00    -0.206 F 
ATOM     51  C   UNL A   1      43.604  23.594  24.797  1.00  0.00     0.040 A 
ATOM     52  C   UNL A   1      42.231  22.582  26.478  1.00  0.00     0.040 A 
ATOM     53  F   UNL A   1      41.327  23.865  28.203  1.00  0.00    -0.206 F 
ATOM     54  C   UNL A   1      43.033  22.453  25.352  1.00  0.00     0.006 A 
ENDBRANCH  26  47
BRANCH  38  55
ATOM     55  C   UNL A   1      45.375  30.278  28.442  1.00  0.00     0.057 A 
ATOM     56  C   UNL A   1      46.581  30.557  27.781  1.00  0.00     0.134 A 
ATOM     57  C   UNL A   1      44.219  30.877  27.925  1.00  0.00     0.134 A 
ATOM     58  F   UNL A   1      47.725  29.954  28.133  1.00  0.00    -0.206 F 
ATOM     59  C   UNL A   1      46.638  31.434  26.693  1.00  0.00     0.040 A 
ATOM     60  C   UNL A   1      44.257  31.723  26.815  1.00  0.00     0.040 A 
ATOM     61  F   UNL A   1      43.020  30.616  28.471  1.00  0.00    -0.206 F 
ATOM     62  C   UNL A   1      45.472  32.015  26.204  1.00  0.00     0.006 A 
ENDBRANCH  38  55
ENDBRANCH  12  13
ENDBRANCH   5   7
ENDBRANCH   2   3
ENDBRANCH   1   2
BRANCH   1  63
ATOM     63  C   UNL A   1      34.724  30.409  27.615  1.00  0.00     0.023 C 
BRANCH  63  64
ATOM     64  C   UNL A   1      33.420  30.286  26.809  1.00  0.00     0.116 C 
BRANCH  64  65
ATOM     65  N   UNL A   1      33.575  29.775  25.459  1.00  0.00    -0.351 N 
ATOM     66  C   UNL A   1      32.692  29.225  24.564  1.00  0.00     0.284 C 
ATOM     67  H   UNL A   1      34.496  29.833  25.117  1.00  0.00     0.163 HD
ATOM     68  O   UNL A   1      33.142  29.058  23.422  1.00  0.00    -0.268 OA
BRANCH  66  69
ATOM     69  C   UNL A   1      31.226  28.865  24.945  1.00  0.00     0.324 C 
ATOM     70  C   UNL A   1      30.321  29.187  23.782  1.00  0.00     0.106 A 
ATOM     71  N   UNL A   1      31.026  27.440  25.320  1.00  0.00    -0.315 N 
ATOM     72  N   UNL A   1      30.267  30.331  23.030  1.00  0.00    -0.343 N 
ATOM     73  C   UNL A   1      29.450  28.324  23.155  1.00  0.00     0.074 A 
ATOM     74  C   UNL A   1      30.591  26.482  24.292  1.00  0.00     0.270 C 
ATOM     75  H   UNL A   1      30.144  27.643  25.791  1.00  0.00     0.349 HD
ATOM     76  C   UNL A   1      29.371  30.105  22.014  1.00  0.00     0.197 A 
ATOM     77  H   UNL A   1      30.774  31.158  23.188  1.00  0.00     0.167 HD
ATOM     78  N   UNL A   1      28.842  28.903  22.080  1.00  0.00    -0.241 NA
ATOM     79  C   UNL A   1      29.297  26.917  23.569  1.00  0.00     0.120 C 
BRANCH  71  80
ATOM     80  C   UNL A   1      31.778  26.877  26.419  1.00  0.00     0.303 C 
BRANCH  80  81
ATOM     81  C   UNL A   1      32.808  25.852  26.045  1.00  0.00     0.044 A 
ATOM     82  C   UNL A   1      34.067  25.975  25.386  1.00  0.00     0.051 A 
ATOM     83  C   UNL A   1      32.712  24.499  26.329  1.00  0.00     0.204 A 
ATOM     84  C   UNL A   1      34.642  24.728  25.359  1.00  0.00     0.195 A 
ATOM     85  O   UNL A   1      33.816  23.823  25.929  1.00  0.00    -0.472 OA
ENDBRANCH  80  81
ENDBRANCH  71  80
ENDBRANCH  66  69
ENDBRANCH  64  65
ENDBRANCH  63  64
ENDBRANCH   1  63
TORSDOF 13
ENDMDL
MODEL 2
REMARK VINA RESULT:     -11.6      3.278      8.341
REMARK SMILES O=C(NCCCCNC(=O)[C@H]1c2[nH]cnc2CC[N@H+]1Cc1ccoc1)c1ccc(-c2c3nc(c(-c4c(F)cccc4F)c4ccc([nH]4)c(-c4c(F)cccc4F)c4nc(c(-c5c(F)cccc5F)c5ccc2[nH]5)C=C4)C=C3)cc1
REMARK SMILES IDX 5 1 4 2 3 3 1 4 2 5 26 7 27 8 79 9 28 10 78 11 29 12 30 13
REMARK SMILES IDX 31 14 72 15 32 16 77 17 71 18 73 19 33 20 76 21 70 22 69 23
REMARK SMILES IDX 34 25 60 26 43 27 59 28 44 29 47 30 58 31 74 32 45 33 46 34
REMARK SMILES IDX 57 36 75 37 48 38 35 39 36 40 41 41 37 42 38 43 40 44 42 45
REMARK SMILES IDX 39 46 61 47 62 48 67 49 63 50 64 51 66 52 68 53 65 54 49 55
REMARK SMILES IDX 50 56 55 57 51 58 52 59 54 60 56 61 53 62 6 63 7 64 8 65
REMARK SMILES IDX 9 66 10 68 11 69 12 70 19 71 13 72 16 73 18 74 14 76 15 78
REMARK SMILES IDX 17 79 20 80 21 81 22 82 25 83 23 84 24 85
REMARK H PARENT 3 6 73 24 47 35 8 67 19 75 13 77
REMARK Flexibility Score: inf
ROOT
ATOM      1  C   UNL A   1      39.388  21.732  26.004  1.00  0.00     0.023 C 
ENDROOT
BRANCH   1   2
ATOM      2  C   UNL A   1      40.834  21.508  26.431  1.00  0.00     0.116 C 
BRANCH   2   3
ATOM      3  N   UNL A   1      41.816  22.076  25.535  1.00  0.00    -0.352 N 
ATOM      4  O   UNL A   1      43.421  23.236  24.597  1.00  0.00    -0.269 OA
ATOM      5  C   UNL A   1      42.559  23.225  25.472  1.00  0.00     0.251 C 
ATOM      6  H   UNL A   1      41.997  21.483  24.770  1.00  0.00     0.163 HD
BRANCH   5   7
ATOM      7  C   UNL A   1      42.386  24.446  26.314  1.00  0.00     0.039 A 
ATOM      8  C   UNL A   1      42.979  24.705  27.549  1.00  0.00     0.014 A 
ATOM      9  C   UNL A   1      41.495  25.412  25.792  1.00  0.00     0.014 A 
ATOM     10  C   UNL A   1      42.650  25.869  28.257  1.00  0.00     0.010 A 
ATOM     11  C   UNL A   1      41.158  26.567  26.496  1.00  0.00     0.010 A 
ATOM     12  C   UNL A   1      41.718  26.789  27.746  1.00  0.00    -0.014 A 
BRANCH  12  13
ATOM     13  C   UNL A   1      41.500  28.054  28.458  1.00  0.00     0.031 A 
ATOM     14  C   UNL A   1      42.552  29.080  28.210  1.00  0.00     0.074 A 
ATOM     15  C   UNL A   1      40.403  28.394  29.169  1.00  0.00     0.049 A 
ATOM     16  N   UNL A   1      43.408  29.553  29.055  1.00  0.00    -0.248 NA
ATOM     17  C   UNL A   1      42.737  29.567  26.835  1.00  0.00     0.031 C 
ATOM     18  C   UNL A   1      39.131  27.679  29.276  1.00  0.00     0.029 A 
ATOM     19  N   UNL A   1      40.175  29.527  29.904  1.00  0.00    -0.354 N 
ATOM     20  C   UNL A   1      44.130  30.529  28.372  1.00  0.00     0.074 A 
ATOM     21  C   UNL A   1      43.772  30.399  26.983  1.00  0.00     0.031 C 
ATOM     22  C   UNL A   1      38.209  28.482  29.860  1.00  0.00     0.029 A 
ATOM     23  C   UNL A   1      38.851  29.713  30.294  1.00  0.00     0.049 A 
ATOM     24  H   UNL A   1      40.891  30.162  30.138  1.00  0.00     0.167 HD
ATOM     25  C   UNL A   1      44.811  31.502  29.039  1.00  0.00     0.037 A 
ATOM     26  C   UNL A   1      38.318  30.806  30.900  1.00  0.00     0.037 A 
ATOM     27  C   UNL A   1      45.003  31.152  30.423  1.00  0.00     0.049 A 
ATOM     28  C   UNL A   1      39.424  31.574  31.515  1.00  0.00     0.074 A 
ATOM     29  C   UNL A   1      45.608  30.107  31.096  1.00  0.00     0.029 A 
ATOM     30  N   UNL A   1      44.217  31.783  31.355  1.00  0.00    -0.354 N 
ATOM     31  N   UNL A   1      40.088  31.188  32.566  1.00  0.00    -0.248 NA
ATOM     32  C   UNL A   1      40.064  32.604  30.715  1.00  0.00     0.031 C 
ATOM     33  C   UNL A   1      44.775  29.867  32.227  1.00  0.00     0.029 A 
ATOM     34  C   UNL A   1      43.754  30.817  32.210  1.00  0.00     0.049 A 
ATOM     35  H   UNL A   1      44.023  32.746  31.402  1.00  0.00     0.167 HD
ATOM     36  C   UNL A   1      41.395  31.563  32.304  1.00  0.00     0.074 A 
ATOM     37  C   UNL A   1      41.302  32.524  31.208  1.00  0.00     0.031 C 
ATOM     38  C   UNL A   1      42.442  30.847  32.807  1.00  0.00     0.037 A 
BRANCH  25  39
ATOM     39  C   UNL A   1      44.980  32.922  28.552  1.00  0.00     0.057 A 
ATOM     40  C   UNL A   1      46.278  33.452  28.422  1.00  0.00     0.134 A 
ATOM     41  C   UNL A   1      43.941  33.871  28.514  1.00  0.00     0.134 A 
ATOM     42  F   UNL A   1      47.356  32.653  28.448  1.00  0.00    -0.206 F 
ATOM     43  C   UNL A   1      46.526  34.828  28.356  1.00  0.00     0.040 A 
ATOM     44  C   UNL A   1      44.174  35.245  28.398  1.00  0.00     0.040 A 
ATOM     45  F   UNL A   1      42.658  33.539  28.693  1.00  0.00    -0.206 F 
ATOM     46  C   UNL A   1      45.471  35.731  28.356  1.00  0.00     0.006 A 
ENDBRANCH  25  39
BRANCH  26  47
ATOM     47  C   UNL A   1      36.958  31.392  30.807  1.00  0.00     0.057 A 
ATOM     48  C   UNL A   1      36.165  31.589  31.950  1.00  0.00     0.134 A 
ATOM     49  C   UNL A   1      36.537  32.059  29.646  1.00  0.00     0.134 A 
ATOM     50  F   UNL A   1      36.502  31.027  33.120  1.00  0.00    -0.206 F 
ATOM     51  C   UNL A   1      35.042  32.429  31.948  1.00  0.00     0.040 A 
ATOM     52  C   UNL A   1      35.414  32.897  29.628  1.00  0.00     0.040 A 
ATOM     53  F   UNL A   1      37.255  31.996  28.516  1.00  0.00    -0.206 F 
ATOM     54  C   UNL A   1      34.673  33.098  30.786  1.00  0.00     0.006 A 
ENDBRANCH  26  47
BRANCH  38  55
ATOM     55  C   UNL A   1      42.160  29.850  33.895  1.00  0.00     0.057 A 
ATOM     56  C   UNL A   1      41.763  28.521  33.679  1.00  0.00     0.134 A 
ATOM     57  C   UNL A   1      42.415  30.226  35.219  1.00  0.00     0.134 A 
ATOM     58  F   UNL A   1      41.596  28.035  32.442  1.00  0.00    -0.206 F 
ATOM     59  C   UNL A   1      41.577  27.629  34.739  1.00  0.00     0.040 A 
ATOM     60  C   UNL A   1      42.271  29.333  36.283  1.00  0.00     0.040 A 
ATOM     61  F   UNL A   1      42.849  31.466  35.499  1.00  0.00    -0.206 F 
ATOM     62  C   UNL A   1      41.837  28.032  36.046  1.00  0.00     0.006 A 
ENDBRANCH  38  55
ENDBRANCH  12  13
ENDBRANCH   5   7
ENDBRANCH   2   3
ENDBRANCH   1   2
BRANCH   1  63
ATOM     63  C   UNL A   1      38.749  23.064  26.418  1.00  0.00     0.023 C 
BRANCH  63  64
ATOM     64  C   UNL A   1      37.389  23.447  25.811  1.00  0.00     0.116 C 
BRANCH  64  65
ATOM     65  N   UNL A   1      36.230  22.992  26.559  1.00  0.00    -0.351 N 
ATOM     66  C   UNL A   1      35.142  22.228  26.218  1.00  0.00     0.284 C 
ATOM     67  H   UNL A   1      36.222  23.292  27.496  1.00  0.00     0.163 HD
ATOM     68  O   UNL A   1      34.425  21.888  27.168  1.00  0.00    -0.268 OA
BRANCH  66  69
ATOM     69  C   UNL A   1      34.847  21.796  24.752  1.00  0.00     0.324 C 
ATOM     70  C   UNL A   1      33.969  20.569  24.766  1.00  0.00     0.106 A 
ATOM     71  N   UNL A   1      34.184  22.842  23.929  1.00  0.00    -0.315 N 
ATOM     72  N   UNL A   1      34.116  19.420  25.498  1.00  0.00    -0.343 N 
ATOM     73  C   UNL A   1      32.755  20.420  24.135  1.00  0.00     0.074 A 
ATOM     74  C   UNL A   1      32.716  22.847  23.821  1.00  0.00     0.270 C 
ATOM     75  H   UNL A   1      34.448  22.385  23.057  1.00  0.00     0.349 HD
ATOM     76  C   UNL A   1      33.007  18.646  25.262  1.00  0.00     0.197 A 
ATOM     77  H   UNL A   1      34.874  19.192  26.082  1.00  0.00     0.167 HD
ATOM     78  N   UNL A   1      32.174  19.218  24.420  1.00  0.00    -0.241 NA
ATOM     79  C   UNL A   1      32.142  21.497  23.335  1.00  0.00     0.120 C 
BRANCH  71  80
ATOM     80  C   UNL A   1      34.826  24.126  23.750  1.00  0.00     0.303 C 
BRANCH  80  81
ATOM     81  C   UNL A   1      34.136  25.294  24.392  1.00  0.00     0.044 A 
ATOM     82  C   UNL A   1      33.878  25.603  25.760  1.00  0.00     0.051 A 
ATOM     83  C   UNL A   1      33.614  26.376  23.702  1.00  0.00     0.204 A 
ATOM     84  C   UNL A   1      33.275  26.836  25.798  1.00  0.00     0.195 A 
ATOM     85  O   UNL A   1      33.106  27.309  24.543  1.00  0.00    -0.472 OA
ENDBRANCH  80  81
ENDBRANCH  71  80
ENDBRANCH  66  69
ENDBRANCH  64  65
ENDBRANCH  63  64
ENDBRANCH   1  63
TORSDOF 13
ENDMDL
MODEL 3
REMARK VINA RESULT:     -11.6      1.125      2.796
REMARK SMILES O=C(NCCCCNC(=O)[C@H]1c2[nH]cnc2CC[N@H+]1Cc1ccoc1)c1ccc(-c2c3nc(c(-c4c(F)cccc4F)c4ccc([nH]4)c(-c4c(F)cccc4F)c4nc(c(-c5c(F)cccc5F)c5ccc2[nH]5)C=C4)C=C3)cc1
REMARK SMILES IDX 5 1 4 2 3 3 1 4 2 5 26 7 27 8 79 9 28 10 78 11 29 12 30 13
REMARK SMILES IDX 31 14 72 15 32 16 77 17 71 18 73 19 33 20 76 21 70 22 69 23
REMARK SMILES IDX 34 25 60 26 43 27 59 28 44 29 47 30 58 31 74 32 45 33 46 34
REMARK SMILES IDX 57 36 75 37 48 38 35 39 36 40 41 41 37 42 38 43 40 44 42 45
REMARK SMILES IDX 39 46 61 47 62 48 67 49 63 50 64 51 66 52 68 53 65 54 49 55
REMARK SMILES IDX 50 56 55 57 51 58 52 59 54 60 56 61 53 62 6 63 7 64 8 65
REMARK SMILES IDX 9 66 10 68 11 69 12 70 19 71 13 72 16 73 18 74 14 76 15 78
REMARK SMILES IDX 17 79 20 80 21 81 22 82 25 83 23 84 24 85
REMARK H PARENT 3 6 73 24 47 35 8 67 19 75 13 77
REMARK Flexibility Score: inf
ROOT
ATOM      1  C   UNL A   1      33.871  31.454  27.691  1.00  0.00     0.023 C 
ENDROOT
BRANCH   1   2
ATOM      2  C   UNL A   1      34.291  32.693  28.472  1.00  0.00     0.116 C 
BRANCH   2   3
ATOM      3  N   UNL A   1      34.225  32.543  29.909  1.00  0.00    -0.352 N 
ATOM      4  O   UNL A   1      34.652  32.324  32.047  1.00  0.00    -0.269 OA
ATOM      5  C   UNL A   1      35.070  32.137  30.907  1.00  0.00     0.251 C 
ATOM      6  H   UNL A   1      33.341  32.799  30.262  1.00  0.00     0.163 HD
BRANCH   5   7
ATOM      7  C   UNL A   1      36.392  31.464  30.738  1.00  0.00     0.039 A 
ATOM      8  C   UNL A   1      37.630  32.078  30.556  1.00  0.00     0.014 A 
ATOM      9  C   UNL A   1      36.348  30.051  30.734  1.00  0.00     0.014 A 
ATOM     10  C   UNL A   1      38.774  31.301  30.328  1.00  0.00     0.010 A 
ATOM     11  C   UNL A   1      37.481  29.274  30.500  1.00  0.00     0.010 A 
ATOM     12  C   UNL A   1      38.698  29.899  30.271  1.00  0.00    -0.014 A 
BRANCH  12  13
ATOM     13  C   UNL A   1      39.938  29.122  30.160  1.00  0.00     0.031 A 
ATOM     14  C   UNL A   1      40.644  28.913  31.455  1.00  0.00     0.074 A 
ATOM     15  C   UNL A   1      40.390  28.489  29.054  1.00  0.00     0.049 A 
ATOM     16  N   UNL A   1      41.792  29.388  31.813  1.00  0.00    -0.248 NA
ATOM     17  C   UNL A   1      39.948  28.169  32.515  1.00  0.00     0.031 C 
ATOM     18  C   UNL A   1      39.707  28.292  27.776  1.00  0.00     0.029 A 
ATOM     19  N   UNL A   1      41.566  27.809  28.877  1.00  0.00    -0.354 N 
ATOM     20  C   UNL A   1      42.053  28.863  33.077  1.00  0.00     0.074 A 
ATOM     21  C   UNL A   1      40.832  28.236  33.514  1.00  0.00     0.031 C 
ATOM     22  C   UNL A   1      40.387  27.384  27.035  1.00  0.00     0.029 A 
ATOM     23  C   UNL A   1      41.623  27.037  27.719  1.00  0.00     0.049 A 
ATOM     24  H   UNL A   1      42.312  27.861  29.517  1.00  0.00     0.167 HD
ATOM     25  C   UNL A   1      43.320  28.809  33.574  1.00  0.00     0.037 A 
ATOM     26  C   UNL A   1      42.597  26.158  27.364  1.00  0.00     0.037 A 
ATOM     27  C   UNL A   1      44.205  29.681  32.845  1.00  0.00     0.049 A 
ATOM     28  C   UNL A   1      43.814  26.484  28.142  1.00  0.00     0.074 A 
ATOM     29  C   UNL A   1      44.245  31.036  32.576  1.00  0.00     0.029 A 
ATOM     30  N   UNL A   1      45.081  29.105  31.958  1.00  0.00    -0.354 N 
ATOM     31  N   UNL A   1      44.550  27.539  27.942  1.00  0.00    -0.248 NA
ATOM     32  C   UNL A   1      43.997  25.828  29.426  1.00  0.00     0.031 C 
ATOM     33  C   UNL A   1      44.735  31.132  31.241  1.00  0.00     0.029 A 
ATOM     34  C   UNL A   1      45.024  29.839  30.803  1.00  0.00     0.049 A 
ATOM     35  H   UNL A   1      45.643  28.315  32.121  1.00  0.00     0.167 HD
ATOM     36  C   UNL A   1      44.922  27.944  29.212  1.00  0.00     0.074 A 
ATOM     37  C   UNL A   1      44.647  26.797  30.074  1.00  0.00     0.031 C 
ATOM     38  C   UNL A   1      45.147  29.262  29.487  1.00  0.00     0.037 A 
BRANCH  25  39
ATOM     39  C   UNL A   1      43.849  27.709  34.463  1.00  0.00     0.057 A 
ATOM     40  C   UNL A   1      44.488  28.052  35.671  1.00  0.00     0.134 A 
ATOM     41  C   UNL A   1      44.042  26.379  34.043  1.00  0.00     0.134 A 
ATOM     42  F   UNL A   1      44.389  29.291  36.177  1.00  0.00    -0.206 F 
ATOM     43  C   UNL A   1      45.330  27.167  36.355  1.00  0.00     0.040 A 
ATOM     44  C   UNL A   1      44.839  25.471  34.746  1.00  0.00     0.040 A 
ATOM     45  F   UNL A   1      43.560  25.916  32.885  1.00  0.00    -0.206 F 
ATOM     46  C   UNL A   1      45.517  25.873  35.886  1.00  0.00     0.006 A 
ENDBRANCH  25  39
BRANCH  26  47
ATOM     47  C   UNL A   1      42.521  24.900  26.583  1.00  0.00     0.057 A 
ATOM     48  C   UNL A   1      43.282  24.714  25.415  1.00  0.00     0.134 A 
ATOM     49  C   UNL A   1      41.947  23.741  27.131  1.00  0.00     0.134 A 
ATOM     50  F   UNL A   1      43.903  25.751  24.833  1.00  0.00    -0.206 F 
ATOM     51  C   UNL A   1      43.491  23.449  24.850  1.00  0.00     0.040 A 
ATOM     52  C   UNL A   1      42.145  22.472  26.574  1.00  0.00     0.040 A 
ATOM     53  F   UNL A   1      41.258  23.792  28.279  1.00  0.00    -0.206 F 
ATOM     54  C   UNL A   1      42.933  22.319  25.440  1.00  0.00     0.006 A 
ENDBRANCH  26  47
BRANCH  38  55
ATOM     55  C   UNL A   1      45.295  30.211  28.333  1.00  0.00     0.057 A 
ATOM     56  C   UNL A   1      44.229  30.843  27.674  1.00  0.00     0.134 A 
ATOM     57  C   UNL A   1      46.588  30.588  27.947  1.00  0.00     0.134 A 
ATOM     58  F   UNL A   1      42.958  30.629  28.040  1.00  0.00    -0.206 F 
ATOM     59  C   UNL A   1      44.443  31.764  26.645  1.00  0.00     0.040 A 
ATOM     60  C   UNL A   1      46.815  31.536  26.948  1.00  0.00     0.040 A 
ATOM     61  F   UNL A   1      47.658  30.066  28.568  1.00  0.00    -0.206 F 
ATOM     62  C   UNL A   1      45.740  32.117  26.282  1.00  0.00     0.006 A 
ENDBRANCH  38  55
ENDBRANCH  12  13
ENDBRANCH   5   7
ENDBRANCH   2   3
ENDBRANCH   1   2
BRANCH   1  63
ATOM     63  C   UNL A   1      34.970  30.423  27.398  1.00  0.00     0.023 C 
BRANCH  63  64
ATOM     64  C   UNL A   1      34.584  28.935  27.343  1.00  0.00     0.116 C 
BRANCH  64  65
ATOM     65  N   UNL A   1      33.200  28.643  27.672  1.00  0.00    -0.351 N 
ATOM     66  C   UNL A   1      32.198  27.997  26.993  1.00  0.00     0.284 C 
ATOM     67  H   UNL A   1      32.926  28.975  28.557  1.00  0.00     0.163 HD
ATOM     68  O   UNL A   1      31.177  27.775  27.658  1.00  0.00    -0.268 OA
BRANCH  66  69
ATOM     69  C   UNL A   1      32.342  27.549  25.510  1.00  0.00     0.324 C 
ATOM     70  C   UNL A   1      32.492  26.048  25.459  1.00  0.00     0.106 A 
ATOM     71  N   UNL A   1      31.200  27.940  24.641  1.00  0.00    -0.315 N 
ATOM     72  N   UNL A   1      33.319  25.245  26.199  1.00  0.00    -0.343 N 
ATOM     73  C   UNL A   1      31.714  25.169  24.740  1.00  0.00     0.074 A 
ATOM     74  C   UNL A   1      30.103  26.984  24.425  1.00  0.00     0.270 C 
ATOM     75  H   UNL A   1      31.748  27.812  23.790  1.00  0.00     0.349 HD
ATOM     76  C   UNL A   1      33.010  23.946  25.882  1.00  0.00     0.197 A 
ATOM     77  H   UNL A   1      34.006  25.544  26.837  1.00  0.00     0.167 HD
ATOM     78  N   UNL A   1      32.055  23.870  24.981  1.00  0.00    -0.241 NA
ATOM     79  C   UNL A   1      30.588  25.615  23.898  1.00  0.00     0.120 C 
BRANCH  71  80
ATOM     80  C   UNL A   1      30.846  29.336  24.510  1.00  0.00     0.303 C 
BRANCH  80  81
ATOM     81  C   UNL A   1      29.946  29.673  23.357  1.00  0.00     0.044 A 
ATOM     82  C   UNL A   1      28.598  30.136  23.316  1.00  0.00     0.051 A 
ATOM     83  C   UNL A   1      30.318  29.612  22.023  1.00  0.00     0.204 A 
ATOM     84  C   UNL A   1      28.278  30.357  21.998  1.00  0.00     0.195 A 
ATOM     85  O   UNL A   1      29.323  30.033  21.205  1.00  0.00    -0.472 OA
ENDBRANCH  80  81
ENDBRANCH  71  80
ENDBRANCH  66  69
ENDBRANCH  64  65
ENDBRANCH  63  64
ENDBRANCH   1  63
TORSDOF 13
ENDMDL
