MODEL 1
REMARK VINA RESULT:     -11.2      0.000      0.000
REMARK SMILES CC(C)[C@H](C)CNC(=O)N1CC(n2cc(C(=O)NCCCCNC(=O)c3ccc(-c4c5nc(c(-c6c(F)cccc6F)c6ccc([nH]6)c(-c6c(F)cccc6F)c6nc(c(-c7c(F)cccc7F)c7ccc4[nH]7)C=C6)C=C5)cc3)nn2)C1
REMARK SMILES IDX 19 1 18 2 16 3 17 4 15 6 13 7 14 8 81 9 80 10 12 11 7 12
REMARK SMILES IDX 8 13 9 15 10 16 11 17 82 18 6 19 4 20 5 21 2 22 1 23 3 24
REMARK SMILES IDX 20 25 21 26 22 27 23 28 24 29 25 31 26 32 27 33 79 34 28 35
REMARK SMILES IDX 78 36 29 37 30 38 31 39 72 40 32 41 77 42 71 43 73 44 33 45
REMARK SMILES IDX 76 46 70 47 69 48 34 50 60 51 43 52 59 53 44 54 47 55 58 56
REMARK SMILES IDX 74 57 45 58 46 59 57 61 75 62 48 63 35 64 36 65 41 66 37 67
REMARK SMILES IDX 38 68 40 69 42 70 39 71 61 72 62 73 67 74 63 75 64 76 66 77
REMARK SMILES IDX 68 78 65 79 49 80 50 81 55 82 51 83 52 84 54 85 56 86 53 87
REMARK H PARENT 18 5 7 14 23 30 73 49 47 60
REMARK Flexibility Score: inf
ROOT
ATOM      1  C   UNL A   1      37.132  22.090  25.178  1.00  0.00     0.116 C 
ENDROOT
BRANCH   1   2
ATOM      2  N   UNL A   1      36.066  21.582  26.019  1.00  0.00    -0.351 N 
ATOM      3  C   UNL A   1      34.772  22.008  26.224  1.00  0.00     0.273 C 
ATOM      4  O   UNL A   1      34.065  21.282  26.923  1.00  0.00    -0.267 OA
ATOM      5  H   UNL A   1      36.313  20.785  26.540  1.00  0.00     0.163 HD
BRANCH   3   6
ATOM      6  C   UNL A   1      34.256  23.233  25.619  1.00  0.00     0.170 A 
ATOM      7  N   UNL A   1      33.648  25.248  25.065  1.00  0.00    -0.245 N 
ATOM      8  C   UNL A   1      34.112  24.511  26.123  1.00  0.00     0.145 A 
ATOM      9  N   UNL A   1      33.445  24.478  23.991  1.00  0.00    -0.066 NA
ATOM     10  N   UNL A   1      33.779  23.238  24.322  1.00  0.00    -0.125 NA
BRANCH   7  11
ATOM     11  C   UNL A   1      33.514  26.670  25.101  1.00  0.00     0.148 C 
ATOM     12  N   UNL A   1      31.156  29.901  23.869  1.00  0.00    -0.338 N 
ATOM     13  C   UNL A   1      31.739  29.372  24.975  1.00  0.00     0.317 C 
ATOM     14  H   UNL A   1      31.237  30.880  23.786  1.00  0.00     0.165 HD
ATOM     15  O   UNL A   1      32.029  30.122  25.905  1.00  0.00    -0.249 OA
ATOM     16  N   UNL A   1      31.986  28.037  25.014  1.00  0.00    -0.320 N 
ATOM     17  C   UNL A   1      32.529  27.252  26.123  1.00  0.00     0.150 C 
ATOM     18  C   UNL A   1      32.532  27.143  24.007  1.00  0.00     0.150 C 
BRANCH  12  19
ATOM     19  C   UNL A   1      30.429  29.252  22.789  1.00  0.00     0.121 C 
BRANCH  19  20
ATOM     20  C   UNL A   1      28.897  29.439  22.888  1.00  0.00     0.008 C 
ATOM     21  C   UNL A   1      28.410  30.369  21.764  1.00  0.00     0.010 C 
BRANCH  20  22
ATOM     22  C   UNL A   1      28.086  28.092  23.005  1.00  0.00    -0.013 C 
ATOM     23  C   UNL A   1      28.789  26.967  23.776  1.00  0.00     0.008 C 
ATOM     24  C   UNL A   1      26.658  28.229  23.550  1.00  0.00     0.008 C 
ENDBRANCH  20  22
ENDBRANCH  19  20
ENDBRANCH  12  19
ENDBRANCH   7  11
ENDBRANCH   3   6
ENDBRANCH   1   2
BRANCH   1  25
ATOM     25  C   UNL A   1      38.513  21.865  25.802  1.00  0.00     0.023 C 
BRANCH  25  26
ATOM     26  C   UNL A   1      39.319  20.689  25.225  1.00  0.00     0.023 C 
BRANCH  26  27
ATOM     27  C   UNL A   1      39.796  19.667  26.252  1.00  0.00     0.116 C 
BRANCH  27  28
ATOM     28  N   UNL A   1      41.054  19.010  25.883  1.00  0.00    -0.352 N 
ATOM     29  C   UNL A   1      42.291  19.599  25.659  1.00  0.00     0.251 C 
ATOM     30  H   UNL A   1      41.017  18.032  25.781  1.00  0.00     0.163 HD
ATOM     31  O   UNL A   1      43.154  19.046  25.001  1.00  0.00    -0.269 OA
BRANCH  29  32
ATOM     32  C   UNL A   1      42.549  20.911  26.276  1.00  0.00     0.039 A 
ATOM     33  C   UNL A   1      42.851  22.055  25.531  1.00  0.00     0.014 A 
ATOM     34  C   UNL A   1      42.418  20.968  27.658  1.00  0.00     0.014 A 
ATOM     35  C   UNL A   1      42.945  23.276  26.197  1.00  0.00     0.010 A 
ATOM     36  C   UNL A   1      42.290  22.180  28.265  1.00  0.00     0.010 A 
ATOM     37  C   UNL A   1      42.650  23.325  27.567  1.00  0.00    -0.014 A 
BRANCH  37  38
ATOM     38  C   UNL A   1      42.616  24.570  28.317  1.00  0.00     0.031 A 
ATOM     39  C   UNL A   1      41.349  25.336  28.194  1.00  0.00     0.074 A 
ATOM     40  C   UNL A   1      43.547  24.841  29.260  1.00  0.00     0.049 A 
ATOM     41  N   UNL A   1      41.184  26.499  27.658  1.00  0.00    -0.248 NA
ATOM     42  C   UNL A   1      40.089  24.679  28.580  1.00  0.00     0.031 C 
ATOM     43  C   UNL A   1      44.674  24.007  29.703  1.00  0.00     0.029 A 
ATOM     44  N   UNL A   1      43.598  25.883  30.128  1.00  0.00    -0.354 N 
ATOM     45  C   UNL A   1      39.841  26.819  27.842  1.00  0.00     0.074 A 
ATOM     46  C   UNL A   1      39.187  25.595  28.221  1.00  0.00     0.031 C 
ATOM     47  C   UNL A   1      45.126  24.448  30.897  1.00  0.00     0.029 A 
ATOM     48  C   UNL A   1      44.446  25.687  31.216  1.00  0.00     0.049 A 
ATOM     49  H   UNL A   1      43.080  26.710  30.000  1.00  0.00     0.167 HD
ATOM     50  C   UNL A   1      39.435  28.118  27.918  1.00  0.00     0.037 A 
ATOM     51  C   UNL A   1      44.527  26.479  32.314  1.00  0.00     0.037 A 
ATOM     52  C   UNL A   1      40.464  29.008  27.439  1.00  0.00     0.049 A 
ATOM     53  C   UNL A   1      43.949  27.797  31.939  1.00  0.00     0.074 A 
ATOM     54  C   UNL A   1      41.155  29.135  26.248  1.00  0.00     0.029 A 
ATOM     55  N   UNL A   1      41.217  29.679  28.375  1.00  0.00    -0.354 N 
ATOM     56  N   UNL A   1      44.499  28.597  31.063  1.00  0.00    -0.248 NA
ATOM     57  C   UNL A   1      42.516  27.976  32.132  1.00  0.00     0.031 C 
ATOM     58  C   UNL A   1      42.502  29.395  26.636  1.00  0.00     0.029 A 
ATOM     59  C   UNL A   1      42.534  29.511  28.025  1.00  0.00     0.049 A 
ATOM     60  H   UNL A   1      40.877  30.184  29.148  1.00  0.00     0.167 HD
ATOM     61  C   UNL A   1      43.441  29.064  30.294  1.00  0.00     0.074 A 
ATOM     62  C   UNL A   1      42.236  28.694  31.039  1.00  0.00     0.031 C 
ATOM     63  C   UNL A   1      43.611  29.424  28.987  1.00  0.00     0.037 A 
BRANCH  50  64
ATOM     64  C   UNL A   1      38.293  28.614  28.772  1.00  0.00     0.057 A 
ATOM     65  C   UNL A   1      37.411  29.571  28.238  1.00  0.00     0.134 A 
ATOM     66  C   UNL A   1      38.201  28.430  30.166  1.00  0.00     0.134 A 
ATOM     67  F   UNL A   1      37.402  29.842  26.924  1.00  0.00    -0.206 F 
ATOM     68  C   UNL A   1      36.570  30.350  29.041  1.00  0.00     0.040 A 
ATOM     69  C   UNL A   1      37.327  29.165  30.972  1.00  0.00     0.040 A 
ATOM     70  F   UNL A   1      39.014  27.611  30.842  1.00  0.00    -0.206 F 
ATOM     71  C   UNL A   1      36.534  30.155  30.415  1.00  0.00     0.006 A 
ENDBRANCH  50  64
BRANCH  51  72
ATOM     72  C   UNL A   1      44.762  26.064  33.718  1.00  0.00     0.057 A 
ATOM     73  C   UNL A   1      44.097  24.964  34.279  1.00  0.00     0.134 A 
ATOM     74  C   UNL A   1      45.837  26.577  34.470  1.00  0.00     0.134 A 
ATOM     75  F   UNL A   1      43.089  24.372  33.622  1.00  0.00    -0.206 F 
ATOM     76  C   UNL A   1      44.486  24.401  35.505  1.00  0.00     0.040 A 
ATOM     77  C   UNL A   1      46.231  26.029  35.696  1.00  0.00     0.040 A 
ATOM     78  F   UNL A   1      46.597  27.577  34.000  1.00  0.00    -0.206 F 
ATOM     79  C   UNL A   1      45.561  24.928  36.212  1.00  0.00     0.006 A 
ENDBRANCH  51  72
BRANCH  63  80
ATOM     80  C   UNL A   1      45.009  29.499  28.432  1.00  0.00     0.057 A 
ATOM     81  C   UNL A   1      45.664  28.436  27.791  1.00  0.00     0.134 A 
ATOM     82  C   UNL A   1      45.641  30.747  28.375  1.00  0.00     0.134 A 
ATOM     83  F   UNL A   1      45.098  27.228  27.696  1.00  0.00    -0.206 F 
ATOM     84  C   UNL A   1      46.900  28.598  27.156  1.00  0.00     0.040 A 
ATOM     85  C   UNL A   1      46.859  30.930  27.716  1.00  0.00     0.040 A 
ATOM     86  F   UNL A   1      45.050  31.827  28.911  1.00  0.00    -0.206 F 
ATOM     87  C   UNL A   1      47.498  29.853  27.111  1.00  0.00     0.006 A 
ENDBRANCH  63  80
ENDBRANCH  37  38
ENDBRANCH  29  32
ENDBRANCH  27  28
ENDBRANCH  26  27
ENDBRANCH  25  26
ENDBRANCH   1  25
TORSDOF 15
ENDMDL
MODEL 2
REMARK VINA RESULT:     -11.2      3.763      9.338
REMARK SMILES CC(C)[C@H](C)CNC(=O)N1CC(n2cc(C(=O)NCCCCNC(=O)c3ccc(-c4c5nc(c(-c6c(F)cccc6F)c6ccc([nH]6)c(-c6c(F)cccc6F)c6nc(c(-c7c(F)cccc7F)c7ccc4[nH]7)C=C6)C=C5)cc3)nn2)C1
REMARK SMILES IDX 19 1 18 2 16 3 17 4 15 6 13 7 14 8 81 9 80 10 12 11 7 12
REMARK SMILES IDX 8 13 9 15 10 16 11 17 82 18 6 19 4 20 5 21 2 22 1 23 3 24
REMARK SMILES IDX 20 25 21 26 22 27 23 28 24 29 25 31 26 32 27 33 79 34 28 35
REMARK SMILES IDX 78 36 29 37 30 38 31 39 72 40 32 41 77 42 71 43 73 44 33 45
REMARK SMILES IDX 76 46 70 47 69 48 34 50 60 51 43 52 59 53 44 54 47 55 58 56
REMARK SMILES IDX 74 57 45 58 46 59 57 61 75 62 48 63 35 64 36 65 41 66 37 67
REMARK SMILES IDX 38 68 40 69 42 70 39 71 61 72 62 73 67 74 63 75 64 76 66 77
REMARK SMILES IDX 68 78 65 79 49 80 50 81 55 82 51 83 52 84 54 85 56 86 53 87
REMARK H PARENT 18 5 7 14 23 30 73 49 47 60
REMARK Flexibility Score: inf
ROOT
ATOM      1  C   UNL A   1      33.717  29.239  27.024  1.00  0.00     0.116 C 
ENDROOT
BRANCH   1   2
ATOM      2  N   UNL A   1      32.682  29.253  26.010  1.00  0.00    -0.351 N 
ATOM      3  C   UNL A   1      31.914  28.248  25.463  1.00  0.00     0.273 C 
ATOM      4  O   UNL A   1      31.021  28.602  24.693  1.00  0.00    -0.267 OA
ATOM      5  H   UNL A   1      32.491  30.146  25.644  1.00  0.00     0.163 HD
BRANCH   3   6
ATOM      6  C   UNL A   1      32.123  26.843  25.803  1.00  0.00     0.170 A 
ATOM      7  N   UNL A   1      32.827  24.814  26.153  1.00  0.00    -0.245 N 
ATOM      8  C   UNL A   1      33.143  25.967  25.485  1.00  0.00     0.145 A 
ATOM      9  N   UNL A   1      31.656  24.927  26.788  1.00  0.00    -0.066 NA
ATOM     10  N   UNL A   1      31.196  26.149  26.558  1.00  0.00    -0.125 NA
BRANCH   7  11
ATOM     11  C   UNL A   1      33.705  23.689  26.232  1.00  0.00     0.148 C 
ATOM     12  N   UNL A   1      34.096  19.605  25.405  1.00  0.00    -0.338 N 
ATOM     13  C   UNL A   1      34.730  20.791  25.223  1.00  0.00     0.317 C 
ATOM     14  H   UNL A   1      34.683  18.856  25.662  1.00  0.00     0.165 HD
ATOM     15  O   UNL A   1      35.951  20.791  25.080  1.00  0.00    -0.249 OA
ATOM     16  N   UNL A   1      33.997  21.934  25.209  1.00  0.00    -0.320 N 
ATOM     17  C   UNL A   1      34.457  23.299  24.954  1.00  0.00     0.150 C 
ATOM     18  C   UNL A   1      32.911  22.376  26.068  1.00  0.00     0.150 C 
BRANCH  12  19
ATOM     19  C   UNL A   1      32.687  19.264  25.280  1.00  0.00     0.121 C 
BRANCH  19  20
ATOM     20  C   UNL A   1      32.432  18.076  24.323  1.00  0.00     0.008 C 
ATOM     21  C   UNL A   1      32.226  18.594  22.890  1.00  0.00     0.010 C 
BRANCH  20  22
ATOM     22  C   UNL A   1      33.487  16.911  24.441  1.00  0.00    -0.013 C 
ATOM     23  C   UNL A   1      32.965  15.612  25.068  1.00  0.00     0.008 C 
ATOM     24  C   UNL A   1      34.223  16.556  23.141  1.00  0.00     0.008 C 
ENDBRANCH  20  22
ENDBRANCH  19  20
ENDBRANCH  12  19
ENDBRANCH   7  11
ENDBRANCH   3   6
ENDBRANCH   1   2
BRANCH   1  25
ATOM     25  C   UNL A   1      34.131  30.654  27.441  1.00  0.00     0.023 C 
BRANCH  25  26
ATOM     26  C   UNL A   1      33.331  31.797  26.795  1.00  0.00     0.023 C 
BRANCH  26  27
ATOM     27  C   UNL A   1      32.206  32.366  27.655  1.00  0.00     0.116 C 
BRANCH  27  28
ATOM     28  N   UNL A   1      32.198  33.831  27.714  1.00  0.00    -0.352 N 
ATOM     29  C   UNL A   1      32.976  34.657  28.514  1.00  0.00     0.251 C 
ATOM     30  H   UNL A   1      31.564  34.284  27.113  1.00  0.00     0.163 HD
ATOM     31  O   UNL A   1      32.641  35.800  28.771  1.00  0.00    -0.269 OA
BRANCH  29  32
ATOM     32  C   UNL A   1      34.251  34.121  29.020  1.00  0.00     0.039 A 
ATOM     33  C   UNL A   1      34.331  33.263  30.121  1.00  0.00     0.014 A 
ATOM     34  C   UNL A   1      35.385  34.473  28.301  1.00  0.00     0.014 A 
ATOM     35  C   UNL A   1      35.568  32.703  30.439  1.00  0.00     0.010 A 
ATOM     36  C   UNL A   1      36.532  33.760  28.474  1.00  0.00     0.010 A 
ATOM     37  C   UNL A   1      36.660  32.952  29.597  1.00  0.00    -0.014 A 
BRANCH  37  38
ATOM     38  C   UNL A   1      37.957  32.324  29.790  1.00  0.00     0.031 A 
ATOM     39  C   UNL A   1      38.052  30.928  29.294  1.00  0.00     0.074 A 
ATOM     40  C   UNL A   1      39.043  33.058  30.126  1.00  0.00     0.049 A 
ATOM     41  N   UNL A   1      38.241  29.858  29.991  1.00  0.00    -0.248 NA
ATOM     42  C   UNL A   1      37.761  30.664  27.874  1.00  0.00     0.031 C 
ATOM     43  C   UNL A   1      39.143  34.510  30.329  1.00  0.00     0.029 A 
ATOM     44  N   UNL A   1      40.337  32.660  30.226  1.00  0.00    -0.354 N 
ATOM     45  C   UNL A   1      38.319  28.812  29.076  1.00  0.00     0.074 A 
ATOM     46  C   UNL A   1      37.817  29.331  27.832  1.00  0.00     0.031 C 
ATOM     47  C   UNL A   1      40.438  34.890  30.274  1.00  0.00     0.029 A 
ATOM     48  C   UNL A   1      41.263  33.702  30.209  1.00  0.00     0.049 A 
ATOM     49  H   UNL A   1      40.601  31.716  30.305  1.00  0.00     0.167 HD
ATOM     50  C   UNL A   1      39.033  27.686  29.359  1.00  0.00     0.037 A 
ATOM     51  C   UNL A   1      42.608  33.569  30.097  1.00  0.00     0.037 A 
ATOM     52  C   UNL A   1      39.337  27.608  30.767  1.00  0.00     0.049 A 
ATOM     53  C   UNL A   1      42.937  32.171  30.488  1.00  0.00     0.074 A 
ATOM     54  C   UNL A   1      38.575  27.599  31.920  1.00  0.00     0.029 A 
ATOM     55  N   UNL A   1      40.608  27.950  31.167  1.00  0.00    -0.354 N 
ATOM     56  N   UNL A   1      42.781  31.712  31.703  1.00  0.00    -0.248 NA
ATOM     57  C   UNL A   1      42.927  31.164  29.436  1.00  0.00     0.031 C 
ATOM     58  C   UNL A   1      39.285  28.436  32.830  1.00  0.00     0.029 A 
ATOM     59  C   UNL A   1      40.477  28.823  32.217  1.00  0.00     0.049 A 
ATOM     60  H   UNL A   1      41.451  27.629  30.775  1.00  0.00     0.167 HD
ATOM     61  C   UNL A   1      42.226  30.450  31.537  1.00  0.00     0.074 A 
ATOM     62  C   UNL A   1      42.395  30.143  30.116  1.00  0.00     0.031 C 
ATOM     63  C   UNL A   1      41.404  29.900  32.481  1.00  0.00     0.037 A 
BRANCH  50  64
ATOM     64  C   UNL A   1      39.787  26.866  28.339  1.00  0.00     0.057 A 
ATOM     65  C   UNL A   1      40.665  27.520  27.456  1.00  0.00     0.134 A 
ATOM     66  C   UNL A   1      39.470  25.538  27.991  1.00  0.00     0.134 A 
ATOM     67  F   UNL A   1      41.043  28.789  27.674  1.00  0.00    -0.206 F 
ATOM     68  C   UNL A   1      41.116  26.930  26.270  1.00  0.00     0.040 A 
ATOM     69  C   UNL A   1      39.957  24.920  26.835  1.00  0.00     0.040 A 
ATOM     70  F   UNL A   1      38.596  24.798  28.683  1.00  0.00    -0.206 F 
ATOM     71  C   UNL A   1      40.753  25.628  25.951  1.00  0.00     0.006 A 
ENDBRANCH  50  64
BRANCH  51  72
ATOM     72  C   UNL A   1      43.552  34.454  29.373  1.00  0.00     0.057 A 
ATOM     73  C   UNL A   1      44.247  35.480  30.029  1.00  0.00     0.134 A 
ATOM     74  C   UNL A   1      43.994  34.152  28.070  1.00  0.00     0.134 A 
ATOM     75  F   UNL A   1      43.934  35.812  31.290  1.00  0.00    -0.206 F 
ATOM     76  C   UNL A   1      45.323  36.154  29.432  1.00  0.00     0.040 A 
ATOM     77  C   UNL A   1      45.061  34.821  27.461  1.00  0.00     0.040 A 
ATOM     78  F   UNL A   1      43.459  33.139  27.373  1.00  0.00    -0.206 F 
ATOM     79  C   UNL A   1      45.739  35.820  28.148  1.00  0.00     0.006 A 
ENDBRANCH  51  72
BRANCH  63  80
ATOM     80  C   UNL A   1      41.259  30.597  33.809  1.00  0.00     0.057 A 
ATOM     81  C   UNL A   1      42.176  30.487  34.865  1.00  0.00     0.134 A 
ATOM     82  C   UNL A   1      40.255  31.562  33.952  1.00  0.00     0.134 A 
ATOM     83  F   UNL A   1      43.233  29.670  34.785  1.00  0.00    -0.206 F 
ATOM     84  C   UNL A   1      42.081  31.271  36.020  1.00  0.00     0.040 A 
ATOM     85  C   UNL A   1      40.167  32.375  35.085  1.00  0.00     0.040 A 
ATOM     86  F   UNL A   1      39.375  31.772  32.961  1.00  0.00    -0.206 F 
ATOM     87  C   UNL A   1      41.076  32.226  36.128  1.00  0.00     0.006 A 
ENDBRANCH  63  80
ENDBRANCH  37  38
ENDBRANCH  29  32
ENDBRANCH  27  28
ENDBRANCH  26  27
ENDBRANCH  25  26
ENDBRANCH   1  25
TORSDOF 15
ENDMDL
MODEL 3
REMARK VINA RESULT:     -11.1      2.679      6.629
REMARK SMILES CC(C)[C@H](C)CNC(=O)N1CC(n2cc(C(=O)NCCCCNC(=O)c3ccc(-c4c5nc(c(-c6c(F)cccc6F)c6ccc([nH]6)c(-c6c(F)cccc6F)c6nc(c(-c7c(F)cccc7F)c7ccc4[nH]7)C=C6)C=C5)cc3)nn2)C1
REMARK SMILES IDX 19 1 18 2 16 3 17 4 15 6 13 7 14 8 81 9 80 10 12 11 7 12
REMARK SMILES IDX 8 13 9 15 10 16 11 17 82 18 6 19 4 20 5 21 2 22 1 23 3 24
REMARK SMILES IDX 20 25 21 26 22 27 23 28 24 29 25 31 26 32 27 33 79 34 28 35
REMARK SMILES IDX 78 36 29 37 30 38 31 39 72 40 32 41 77 42 71 43 73 44 33 45
REMARK SMILES IDX 76 46 70 47 69 48 34 50 60 51 43 52 59 53 44 54 47 55 58 56
REMARK SMILES IDX 74 57 45 58 46 59 57 61 75 62 48 63 35 64 36 65 41 66 37 67
REMARK SMILES IDX 38 68 40 69 42 70 39 71 61 72 62 73 67 74 63 75 64 76 66 77
REMARK SMILES IDX 68 78 65 79 49 80 50 81 55 82 51 83 52 84 54 85 56 86 53 87
REMARK H PARENT 18 5 7 14 23 30 73 49 47 60
REMARK Flexibility Score: inf
ROOT
ATOM      1  C   UNL A   1      36.133  23.117  26.060  1.00  0.00     0.116 C 
ENDROOT
BRANCH   1   2
ATOM      2  N   UNL A   1      35.760  21.775  25.660  1.00  0.00    -0.351 N 
ATOM      3  C   UNL A   1      34.590  21.257  25.151  1.00  0.00     0.273 C 
ATOM      4  O   UNL A   1      34.626  20.080  24.793  1.00  0.00    -0.267 OA
ATOM      5  H   UNL A   1      36.477  21.111  25.773  1.00  0.00     0.163 HD
BRANCH   3   6
ATOM      6  C   UNL A   1      33.382  22.066  25.010  1.00  0.00     0.170 A 
ATOM      7  N   UNL A   1      31.851  23.569  24.646  1.00  0.00    -0.245 N 
ATOM      8  C   UNL A   1      33.208  23.408  24.731  1.00  0.00     0.145 A 
ATOM      9  N   UNL A   1      31.210  22.428  24.922  1.00  0.00    -0.066 NA
ATOM     10  N   UNL A   1      32.130  21.508  25.179  1.00  0.00    -0.125 NA
BRANCH   7  11
ATOM     11  C   UNL A   1      31.231  24.780  24.210  1.00  0.00     0.148 C 
ATOM     12  N   UNL A   1      31.892  28.813  23.308  1.00  0.00    -0.338 N 
ATOM     13  C   UNL A   1      31.331  27.688  22.797  1.00  0.00     0.317 C 
ATOM     14  H   UNL A   1      31.362  29.635  23.184  1.00  0.00     0.165 HD
ATOM     15  O   UNL A   1      30.417  27.804  21.982  1.00  0.00    -0.249 OA
ATOM     16  N   UNL A   1      31.792  26.478  23.204  1.00  0.00    -0.320 N 
ATOM     17  C   UNL A   1      31.391  25.153  22.731  1.00  0.00     0.150 C 
ATOM     18  C   UNL A   1      32.136  25.990  24.529  1.00  0.00     0.150 C 
BRANCH  12  19
ATOM     19  C   UNL A   1      33.153  28.997  24.009  1.00  0.00     0.121 C 
BRANCH  19  20
ATOM     20  C   UNL A   1      32.984  29.639  25.407  1.00  0.00     0.008 C 
ATOM     21  C   UNL A   1      31.565  30.215  25.549  1.00  0.00     0.010 C 
BRANCH  20  22
ATOM     22  C   UNL A   1      33.425  28.712  26.603  1.00  0.00    -0.013 C 
ATOM     23  C   UNL A   1      34.566  29.258  27.471  1.00  0.00     0.008 C 
ATOM     24  C   UNL A   1      32.292  28.251  27.531  1.00  0.00     0.008 C 
ENDBRANCH  20  22
ENDBRANCH  19  20
ENDBRANCH  12  19
ENDBRANCH   7  11
ENDBRANCH   3   6
ENDBRANCH   1   2
BRANCH   1  25
ATOM     25  C   UNL A   1      37.602  23.423  25.750  1.00  0.00     0.023 C 
BRANCH  25  26
ATOM     26  C   UNL A   1      38.575  22.245  25.924  1.00  0.00     0.023 C 
BRANCH  26  27
ATOM     27  C   UNL A   1      39.773  22.524  26.826  1.00  0.00     0.116 C 
BRANCH  27  28
ATOM     28  N   UNL A   1      41.065  22.266  26.180  1.00  0.00    -0.352 N 
ATOM     29  C   UNL A   1      41.988  23.195  25.719  1.00  0.00     0.251 C 
ATOM     30  H   UNL A   1      41.306  21.320  26.058  1.00  0.00     0.163 HD
ATOM     31  O   UNL A   1      42.821  22.906  24.877  1.00  0.00    -0.269 OA
BRANCH  29  32
ATOM     32  C   UNL A   1      41.960  24.544  26.308  1.00  0.00     0.039 A 
ATOM     33  C   UNL A   1      41.132  25.564  25.831  1.00  0.00     0.014 A 
ATOM     34  C   UNL A   1      42.771  24.738  27.419  1.00  0.00     0.014 A 
ATOM     35  C   UNL A   1      41.078  26.764  26.540  1.00  0.00     0.010 A 
ATOM     36  C   UNL A   1      42.550  25.814  28.225  1.00  0.00     0.010 A 
ATOM     37  C   UNL A   1      41.786  26.870  27.745  1.00  0.00    -0.014 A 
BRANCH  37  38
ATOM     38  C   UNL A   1      41.701  28.040  28.603  1.00  0.00     0.031 A 
ATOM     39  C   UNL A   1      42.767  29.051  28.384  1.00  0.00     0.074 A 
ATOM     40  C   UNL A   1      40.584  28.298  29.321  1.00  0.00     0.049 A 
ATOM     41  N   UNL A   1      43.691  29.409  29.211  1.00  0.00    -0.248 NA
ATOM     42  C   UNL A   1      42.921  29.632  27.039  1.00  0.00     0.031 C 
ATOM     43  C   UNL A   1      39.328  27.537  29.369  1.00  0.00     0.029 A 
ATOM     44  N   UNL A   1      40.289  29.393  30.068  1.00  0.00    -0.354 N 
ATOM     45  C   UNL A   1      44.403  30.423  28.576  1.00  0.00     0.074 A 
ATOM     46  C   UNL A   1      44.022  30.371  27.190  1.00  0.00     0.031 C 
ATOM     47  C   UNL A   1      38.347  28.307  29.887  1.00  0.00     0.029 A 
ATOM     48  C   UNL A   1      38.936  29.542  30.364  1.00  0.00     0.049 A 
ATOM     49  H   UNL A   1      40.974  30.028  30.376  1.00  0.00     0.167 HD
ATOM     50  C   UNL A   1      45.048  31.383  29.297  1.00  0.00     0.037 A 
ATOM     51  C   UNL A   1      38.359  30.636  30.919  1.00  0.00     0.037 A 
ATOM     52  C   UNL A   1      45.177  30.990  30.680  1.00  0.00     0.049 A 
ATOM     53  C   UNL A   1      39.445  31.405  31.585  1.00  0.00     0.074 A 
ATOM     54  C   UNL A   1      45.743  29.908  31.327  1.00  0.00     0.029 A 
ATOM     55  N   UNL A   1      44.311  31.552  31.588  1.00  0.00    -0.354 N 
ATOM     56  N   UNL A   1      40.099  30.962  32.628  1.00  0.00    -0.248 NA
ATOM     57  C   UNL A   1      40.147  32.399  30.784  1.00  0.00     0.031 C 
ATOM     58  C   UNL A   1      44.813  29.574  32.356  1.00  0.00     0.029 A 
ATOM     59  C   UNL A   1      43.793  30.526  32.337  1.00  0.00     0.049 A 
ATOM     60  H   UNL A   1      44.102  32.509  31.684  1.00  0.00     0.167 HD
ATOM     61  C   UNL A   1      41.427  31.280  32.374  1.00  0.00     0.074 A 
ATOM     62  C   UNL A   1      41.387  32.218  31.250  1.00  0.00     0.031 C 
ATOM     63  C   UNL A   1      42.451  30.527  32.875  1.00  0.00     0.037 A 
BRANCH  50  64
ATOM     64  C   UNL A   1      45.213  32.820  28.864  1.00  0.00     0.057 A 
ATOM     65  C   UNL A   1      46.493  33.401  28.908  1.00  0.00     0.134 A 
ATOM     66  C   UNL A   1      44.149  33.731  28.701  1.00  0.00     0.134 A 
ATOM     67  F   UNL A   1      47.589  32.643  29.063  1.00  0.00    -0.206 F 
ATOM     68  C   UNL A   1      46.692  34.787  28.886  1.00  0.00     0.040 A 
ATOM     69  C   UNL A   1      44.341  35.114  28.625  1.00  0.00     0.040 A 
ATOM     70  F   UNL A   1      42.866  33.353  28.710  1.00  0.00    -0.206 F 
ATOM     71  C   UNL A   1      45.611  35.648  28.755  1.00  0.00     0.006 A 
ENDBRANCH  50  64
BRANCH  51  72
ATOM     72  C   UNL A   1      37.021  31.206  30.626  1.00  0.00     0.057 A 
ATOM     73  C   UNL A   1      36.107  31.496  31.648  1.00  0.00     0.134 A 
ATOM     74  C   UNL A   1      36.701  31.721  29.355  1.00  0.00     0.134 A 
ATOM     75  F   UNL A   1      36.342  31.091  32.905  1.00  0.00    -0.206 F 
ATOM     76  C   UNL A   1      34.953  32.264  31.424  1.00  0.00     0.040 A 
ATOM     77  C   UNL A   1      35.551  32.482  29.116  1.00  0.00     0.040 A 
ATOM     78  F   UNL A   1      37.537  31.575  28.317  1.00  0.00    -0.206 F 
ATOM     79  C   UNL A   1      34.678  32.767  30.157  1.00  0.00     0.006 A 
ENDBRANCH  51  72
BRANCH  63  80
ATOM     80  C   UNL A   1      42.134  29.451  33.881  1.00  0.00     0.057 A 
ATOM     81  C   UNL A   1      41.877  28.111  33.552  1.00  0.00     0.134 A 
ATOM     82  C   UNL A   1      42.281  29.742  35.242  1.00  0.00     0.134 A 
ATOM     83  F   UNL A   1      41.823  27.707  32.278  1.00  0.00    -0.206 F 
ATOM     84  C   UNL A   1      41.740  27.118  34.528  1.00  0.00     0.040 A 
ATOM     85  C   UNL A   1      42.179  28.755  36.225  1.00  0.00     0.040 A 
ATOM     86  F   UNL A   1      42.587  30.988  35.636  1.00  0.00    -0.206 F 
ATOM     87  C   UNL A   1      41.899  27.439  35.871  1.00  0.00     0.006 A 
ENDBRANCH  63  80
ENDBRANCH  37  38
ENDBRANCH  29  32
ENDBRANCH  27  28
ENDBRANCH  26  27
ENDBRANCH  25  26
ENDBRANCH   1  25
TORSDOF 15
ENDMDL
