MODEL 1
REMARK VINA RESULT:     -10.8      0.000      0.000
REMARK SMILES NC(=O)C[C@H](NC(=O)[C@@H]1CCC[NH2+]1)C(=O)NCCCCNC(=O)c1ccc(-c2c3nc(c(-c4c(F)cccc4F)c4ccc([nH]4)c(-c4c(F)cccc4F)c4nc(c(-c5c(F)cccc5F)c5ccc2[nH]5)C=C4)C=C3)cc1
REMARK SMILES IDX 18 1 17 2 16 3 14 4 15 5 5 7 4 8 2 9 1 10 3 13 6 14 7 15
REMARK SMILES IDX 8 17 9 18 10 19 13 20 11 21 12 22 19 25 20 26 21 27 22 28
REMARK SMILES IDX 23 30 24 31 25 32 77 33 26 34 76 35 27 36 28 37 29 38 70 39
REMARK SMILES IDX 30 40 75 41 69 42 71 43 31 44 74 45 68 46 67 47 32 49 58 50
REMARK SMILES IDX 41 51 57 52 42 53 45 54 56 55 72 56 43 57 44 58 55 60 73 61
REMARK SMILES IDX 46 62 33 63 34 64 39 65 35 66 36 67 38 68 40 69 37 70 59 71
REMARK SMILES IDX 60 72 65 73 61 74 62 75 64 76 66 77 63 78 47 79 48 80 53 81
REMARK SMILES IDX 49 82 50 83 52 84 54 85 51 86
REMARK H PARENT 16 6 1 11 1 12 6 16 13 23 13 24 21 29 71 48 45 59
REMARK Flexibility Score: inf
ROOT
ATOM      1  C   UNL A   1      31.603  30.508  26.525  1.00  0.00     0.023 C 
ENDROOT
BRANCH   1   2
ATOM      2  C   UNL A   1      32.662  30.091  25.516  1.00  0.00     0.116 C 
BRANCH   2   3
ATOM      3  N   UNL A   1      33.272  28.813  25.811  1.00  0.00    -0.354 N 
ATOM      4  C   UNL A   1      32.819  27.547  25.595  1.00  0.00     0.243 C 
ATOM      5  O   UNL A   1      33.653  26.636  25.642  1.00  0.00    -0.273 OA
ATOM      6  H   UNL A   1      34.158  28.868  26.236  1.00  0.00     0.163 HD
BRANCH   4   7
ATOM      7  C   UNL A   1      31.353  27.224  25.227  1.00  0.00     0.180 C 
BRANCH   7   8
ATOM      8  C   UNL A   1      30.650  26.303  26.224  1.00  0.00     0.134 C 
BRANCH   8   9
ATOM      9  C   UNL A   1      30.648  24.840  25.876  1.00  0.00     0.220 C 
ATOM     10  N   UNL A   1      29.729  24.073  26.524  1.00  0.00    -0.370 N 
ATOM     11  H   UNL A   1      29.676  23.107  26.341  1.00  0.00     0.159 HD
ATOM     12  H   UNL A   1      29.116  24.485  27.176  1.00  0.00     0.159 HD
ATOM     13  O   UNL A   1      31.401  24.350  25.043  1.00  0.00    -0.275 OA
ENDBRANCH   8   9
ENDBRANCH   7   8
BRANCH   7  14
ATOM     14  N   UNL A   1      31.182  26.855  23.817  1.00  0.00    -0.339 N 
ATOM     15  C   UNL A   1      30.777  27.591  22.741  1.00  0.00     0.278 C 
ATOM     16  H   UNL A   1      31.394  25.917  23.612  1.00  0.00     0.164 HD
ATOM     17  O   UNL A   1      31.032  27.121  21.628  1.00  0.00    -0.268 OA
BRANCH  15  18
ATOM     18  C   UNL A   1      30.004  28.912  22.885  1.00  0.00     0.272 C 
ATOM     19  C   UNL A   1      28.493  28.793  22.812  1.00  0.00     0.081 C 
ATOM     20  N   UNL A   1      30.418  29.881  21.847  1.00  0.00    -0.336 N 
ATOM     21  C   UNL A   1      28.030  30.062  22.119  1.00  0.00     0.068 C 
ATOM     22  C   UNL A   1      29.281  30.768  21.621  1.00  0.00     0.261 C 
ATOM     23  H   UNL A   1      30.659  29.391  20.985  1.00  0.00     0.346 HD
ATOM     24  H   UNL A   1      31.241  30.407  22.144  1.00  0.00     0.346 HD
ENDBRANCH  15  18
ENDBRANCH   7  14
ENDBRANCH   4   7
ENDBRANCH   2   3
ENDBRANCH   1   2
BRANCH   1  25
ATOM     25  C   UNL A   1      31.403  32.013  26.662  1.00  0.00     0.023 C 
BRANCH  25  26
ATOM     26  C   UNL A   1      32.634  32.802  27.093  1.00  0.00     0.116 C 
BRANCH  26  27
ATOM     27  N   UNL A   1      32.329  34.123  27.624  1.00  0.00    -0.352 N 
ATOM     28  C   UNL A   1      32.969  34.822  28.621  1.00  0.00     0.251 C 
ATOM     29  H   UNL A   1      31.560  34.579  27.212  1.00  0.00     0.163 HD
ATOM     30  O   UNL A   1      32.528  35.894  29.012  1.00  0.00    -0.269 OA
BRANCH  28  31
ATOM     31  C   UNL A   1      34.177  34.242  29.243  1.00  0.00     0.039 A 
ATOM     32  C   UNL A   1      34.027  33.360  30.316  1.00  0.00     0.014 A 
ATOM     33  C   UNL A   1      35.447  34.537  28.742  1.00  0.00     0.014 A 
ATOM     34  C   UNL A   1      35.152  32.724  30.845  1.00  0.00     0.010 A 
ATOM     35  C   UNL A   1      36.551  33.834  29.207  1.00  0.00     0.010 A 
ATOM     36  C   UNL A   1      36.418  32.931  30.273  1.00  0.00    -0.014 A 
BRANCH  36  37
ATOM     37  C   UNL A   1      37.624  32.246  30.802  1.00  0.00     0.031 A 
ATOM     38  C   UNL A   1      38.293  32.768  32.044  1.00  0.00     0.074 A 
ATOM     39  C   UNL A   1      38.150  31.198  30.138  1.00  0.00     0.049 A 
ATOM     40  N   UNL A   1      39.387  32.356  32.632  1.00  0.00    -0.248 NA
ATOM     41  C   UNL A   1      37.670  33.934  32.691  1.00  0.00     0.031 C 
ATOM     42  C   UNL A   1      37.629  30.632  28.892  1.00  0.00     0.029 A 
ATOM     43  N   UNL A   1      39.248  30.425  30.420  1.00  0.00    -0.354 N 
ATOM     44  C   UNL A   1      39.588  33.220  33.700  1.00  0.00     0.074 A 
ATOM     45  C   UNL A   1      38.545  34.218  33.642  1.00  0.00     0.031 C 
ATOM     46  C   UNL A   1      38.389  29.585  28.534  1.00  0.00     0.029 A 
ATOM     47  C   UNL A   1      39.468  29.425  29.505  1.00  0.00     0.049 A 
ATOM     48  H   UNL A   1      39.825  30.574  31.204  1.00  0.00     0.167 HD
ATOM     49  C   UNL A   1      40.540  33.170  34.663  1.00  0.00     0.037 A 
ATOM     50  C   UNL A   1      40.429  28.484  29.457  1.00  0.00     0.037 A 
ATOM     51  C   UNL A   1      41.555  32.154  34.740  1.00  0.00     0.049 A 
ATOM     52  C   UNL A   1      41.462  28.434  30.551  1.00  0.00     0.074 A 
ATOM     53  C   UNL A   1      42.530  31.981  35.705  1.00  0.00     0.029 A 
ATOM     54  N   UNL A   1      41.719  31.134  33.815  1.00  0.00    -0.354 N 
ATOM     55  N   UNL A   1      41.601  29.218  31.592  1.00  0.00    -0.248 NA
ATOM     56  C   UNL A   1      42.461  27.360  30.469  1.00  0.00     0.031 C 
ATOM     57  C   UNL A   1      43.308  30.876  35.346  1.00  0.00     0.029 A 
ATOM     58  C   UNL A   1      42.786  30.332  34.183  1.00  0.00     0.049 A 
ATOM     59  H   UNL A   1      41.160  31.000  33.017  1.00  0.00     0.167 HD
ATOM     60  C   UNL A   1      42.678  28.711  32.309  1.00  0.00     0.074 A 
ATOM     61  C   UNL A   1      43.149  27.547  31.586  1.00  0.00     0.031 C 
ATOM     62  C   UNL A   1      43.227  29.166  33.462  1.00  0.00     0.037 A 
BRANCH  49  63
ATOM     63  C   UNL A   1      40.512  34.242  35.714  1.00  0.00     0.057 A 
ATOM     64  C   UNL A   1      39.783  34.091  36.902  1.00  0.00     0.134 A 
ATOM     65  C   UNL A   1      41.233  35.429  35.546  1.00  0.00     0.134 A 
ATOM     66  F   UNL A   1      39.058  32.983  37.119  1.00  0.00    -0.206 F 
ATOM     67  C   UNL A   1      39.745  35.097  37.869  1.00  0.00     0.040 A 
ATOM     68  C   UNL A   1      41.227  36.430  36.520  1.00  0.00     0.040 A 
ATOM     69  F   UNL A   1      41.955  35.638  34.435  1.00  0.00    -0.206 F 
ATOM     70  C   UNL A   1      40.475  36.268  37.682  1.00  0.00     0.006 A 
ENDBRANCH  49  63
BRANCH  50  71
ATOM     71  C   UNL A   1      40.440  27.482  28.362  1.00  0.00     0.057 A 
ATOM     72  C   UNL A   1      41.167  27.708  27.186  1.00  0.00     0.134 A 
ATOM     73  C   UNL A   1      39.719  26.286  28.453  1.00  0.00     0.134 A 
ATOM     74  F   UNL A   1      41.864  28.843  27.032  1.00  0.00    -0.206 F 
ATOM     75  C   UNL A   1      41.158  26.793  26.132  1.00  0.00     0.040 A 
ATOM     76  C   UNL A   1      39.720  25.351  27.417  1.00  0.00     0.040 A 
ATOM     77  F   UNL A   1      39.009  26.006  29.556  1.00  0.00    -0.206 F 
ATOM     78  C   UNL A   1      40.435  25.607  26.248  1.00  0.00     0.006 A 
ENDBRANCH  50  71
BRANCH  62  79
ATOM     79  C   UNL A   1      44.360  28.373  34.043  1.00  0.00     0.057 A 
ATOM     80  C   UNL A   1      44.145  27.289  34.903  1.00  0.00     0.134 A 
ATOM     81  C   UNL A   1      45.685  28.677  33.702  1.00  0.00     0.134 A 
ATOM     82  F   UNL A   1      42.901  26.953  35.276  1.00  0.00    -0.206 F 
ATOM     83  C   UNL A   1      45.210  26.553  35.426  1.00  0.00     0.040 A 
ATOM     84  C   UNL A   1      46.755  27.931  34.197  1.00  0.00     0.040 A 
ATOM     85  F   UNL A   1      45.958  29.697  32.875  1.00  0.00    -0.206 F 
ATOM     86  C   UNL A   1      46.518  26.869  35.067  1.00  0.00     0.006 A 
ENDBRANCH  62  79
ENDBRANCH  36  37
ENDBRANCH  28  31
ENDBRANCH  26  27
ENDBRANCH  25  26
ENDBRANCH   1  25
TORSDOF 15
ENDMDL
MODEL 2
REMARK VINA RESULT:     -10.8      5.289     10.307
REMARK SMILES NC(=O)C[C@H](NC(=O)[C@@H]1CCC[NH2+]1)C(=O)NCCCCNC(=O)c1ccc(-c2c3nc(c(-c4c(F)cccc4F)c4ccc([nH]4)c(-c4c(F)cccc4F)c4nc(c(-c5c(F)cccc5F)c5ccc2[nH]5)C=C4)C=C3)cc1
REMARK SMILES IDX 18 1 17 2 16 3 14 4 15 5 5 7 4 8 2 9 1 10 3 13 6 14 7 15
REMARK SMILES IDX 8 17 9 18 10 19 13 20 11 21 12 22 19 25 20 26 21 27 22 28
REMARK SMILES IDX 23 30 24 31 25 32 77 33 26 34 76 35 27 36 28 37 29 38 70 39
REMARK SMILES IDX 30 40 75 41 69 42 71 43 31 44 74 45 68 46 67 47 32 49 58 50
REMARK SMILES IDX 41 51 57 52 42 53 45 54 56 55 72 56 43 57 44 58 55 60 73 61
REMARK SMILES IDX 46 62 33 63 34 64 39 65 35 66 36 67 38 68 40 69 37 70 59 71
REMARK SMILES IDX 60 72 65 73 61 74 62 75 64 76 66 77 63 78 47 79 48 80 53 81
REMARK SMILES IDX 49 82 50 83 52 84 54 85 51 86
REMARK H PARENT 16 6 1 11 1 12 6 16 13 23 13 24 21 29 71 48 45 59
REMARK Flexibility Score: inf
ROOT
ATOM      1  C   UNL A   1      36.676  20.396  25.001  1.00  0.00     0.023 C 
ENDROOT
BRANCH   1   2
ATOM      2  C   UNL A   1      36.915  21.858  25.344  1.00  0.00     0.116 C 
BRANCH   2   3
ATOM      3  N   UNL A   1      36.174  22.311  26.501  1.00  0.00    -0.354 N 
ATOM      4  C   UNL A   1      34.920  22.834  26.598  1.00  0.00     0.243 C 
ATOM      5  O   UNL A   1      34.401  22.845  27.719  1.00  0.00    -0.273 OA
ATOM      6  H   UNL A   1      36.653  22.227  27.356  1.00  0.00     0.163 HD
BRANCH   4   7
ATOM      7  C   UNL A   1      34.114  23.332  25.377  1.00  0.00     0.180 C 
BRANCH   7   8
ATOM      8  C   UNL A   1      34.316  24.814  25.060  1.00  0.00     0.134 C 
BRANCH   8   9
ATOM      9  C   UNL A   1      33.082  25.671  25.123  1.00  0.00     0.220 C 
ATOM     10  N   UNL A   1      32.743  26.316  23.973  1.00  0.00    -0.370 N 
ATOM     11  H   UNL A   1      31.946  26.893  23.948  1.00  0.00     0.159 HD
ATOM     12  H   UNL A   1      33.295  26.205  23.165  1.00  0.00     0.159 HD
ATOM     13  O   UNL A   1      32.392  25.777  26.130  1.00  0.00    -0.275 OA
ENDBRANCH   8   9
ENDBRANCH   7   8
BRANCH   7  14
ATOM     14  N   UNL A   1      32.716  22.887  25.390  1.00  0.00    -0.339 N 
ATOM     15  C   UNL A   1      32.174  21.635  25.421  1.00  0.00     0.278 C 
ATOM     16  H   UNL A   1      32.055  23.617  25.373  1.00  0.00     0.164 HD
ATOM     17  O   UNL A   1      30.985  21.560  25.750  1.00  0.00    -0.268 OA
BRANCH  15  18
ATOM     18  C   UNL A   1      32.968  20.379  25.028  1.00  0.00     0.272 C 
ATOM     19  C   UNL A   1      32.528  19.709  23.740  1.00  0.00     0.081 C 
ATOM     20  N   UNL A   1      32.905  19.359  26.097  1.00  0.00    -0.336 N 
ATOM     21  C   UNL A   1      32.733  18.223  23.978  1.00  0.00     0.068 C 
ATOM     22  C   UNL A   1      33.073  18.061  25.451  1.00  0.00     0.261 C 
ATOM     23  H   UNL A   1      32.002  19.402  26.571  1.00  0.00     0.346 HD
ATOM     24  H   UNL A   1      33.629  19.517  26.798  1.00  0.00     0.346 HD
ENDBRANCH  15  18
ENDBRANCH   7  14
ENDBRANCH   4   7
ENDBRANCH   2   3
ENDBRANCH   1   2
BRANCH   1  25
ATOM     25  C   UNL A   1      37.940  19.561  24.829  1.00  0.00     0.023 C 
BRANCH  25  26
ATOM     26  C   UNL A   1      39.104  19.941  25.738  1.00  0.00     0.116 C 
BRANCH  26  27
ATOM     27  N   UNL A   1      40.163  18.944  25.782  1.00  0.00    -0.352 N 
ATOM     28  C   UNL A   1      41.503  19.118  26.045  1.00  0.00     0.251 C 
ATOM     29  H   UNL A   1      39.883  18.018  25.598  1.00  0.00     0.163 HD
ATOM     30  O   UNL A   1      42.282  18.179  25.954  1.00  0.00    -0.269 OA
BRANCH  28  31
ATOM     31  C   UNL A   1      41.995  20.464  26.401  1.00  0.00     0.039 A 
ATOM     32  C   UNL A   1      42.339  21.351  25.378  1.00  0.00     0.014 A 
ATOM     33  C   UNL A   1      42.079  20.861  27.738  1.00  0.00     0.014 A 
ATOM     34  C   UNL A   1      42.705  22.660  25.696  1.00  0.00     0.010 A 
ATOM     35  C   UNL A   1      42.353  22.187  28.047  1.00  0.00     0.010 A 
ATOM     36  C   UNL A   1      42.683  23.097  27.031  1.00  0.00    -0.014 A 
BRANCH  36  37
ATOM     37  C   UNL A   1      43.044  24.490  27.392  1.00  0.00     0.031 A 
ATOM     38  C   UNL A   1      44.483  24.927  27.333  1.00  0.00     0.074 A 
ATOM     39  C   UNL A   1      42.095  25.342  27.826  1.00  0.00     0.049 A 
ATOM     40  N   UNL A   1      45.014  26.076  27.664  1.00  0.00    -0.248 NA
ATOM     41  C   UNL A   1      45.460  23.926  26.874  1.00  0.00     0.031 C 
ATOM     42  C   UNL A   1      40.674  25.024  27.982  1.00  0.00     0.029 A 
ATOM     43  N   UNL A   1      42.186  26.653  28.222  1.00  0.00    -0.354 N 
ATOM     44  C   UNL A   1      46.381  25.926  27.473  1.00  0.00     0.074 A 
ATOM     45  C   UNL A   1      46.606  24.559  27.060  1.00  0.00     0.031 C 
ATOM     46  C   UNL A   1      40.024  26.118  28.413  1.00  0.00     0.029 A 
ATOM     47  C   UNL A   1      40.984  27.203  28.592  1.00  0.00     0.049 A 
ATOM     48  H   UNL A   1      43.035  27.152  28.240  1.00  0.00     0.167 HD
ATOM     49  C   UNL A   1      47.361  26.853  27.599  1.00  0.00     0.037 A 
ATOM     50  C   UNL A   1      40.690  28.444  29.024  1.00  0.00     0.037 A 
ATOM     51  C   UNL A   1      47.131  28.223  27.973  1.00  0.00     0.049 A 
ATOM     52  C   UNL A   1      41.792  29.463  29.134  1.00  0.00     0.074 A 
ATOM     53  C   UNL A   1      48.047  29.254  28.075  1.00  0.00     0.029 A 
ATOM     54  N   UNL A   1      45.892  28.751  28.301  1.00  0.00    -0.354 N 
ATOM     55  N   UNL A   1      43.072  29.326  28.885  1.00  0.00    -0.248 NA
ATOM     56  C   UNL A   1      41.405  30.811  29.571  1.00  0.00     0.031 C 
ATOM     57  C   UNL A   1      47.367  30.400  28.500  1.00  0.00     0.029 A 
ATOM     58  C   UNL A   1      46.020  30.094  28.615  1.00  0.00     0.049 A 
ATOM     59  H   UNL A   1      45.047  28.246  28.310  1.00  0.00     0.167 HD
ATOM     60  C   UNL A   1      43.636  30.577  29.099  1.00  0.00     0.074 A 
ATOM     61  C   UNL A   1      42.557  31.461  29.489  1.00  0.00     0.031 C 
ATOM     62  C   UNL A   1      44.931  30.961  28.981  1.00  0.00     0.037 A 
BRANCH  49  63
ATOM     63  C   UNL A   1      48.768  26.410  27.315  1.00  0.00     0.057 A 
ATOM     64  C   UNL A   1      49.613  25.940  28.330  1.00  0.00     0.134 A 
ATOM     65  C   UNL A   1      49.279  26.440  26.012  1.00  0.00     0.134 A 
ATOM     66  F   UNL A   1      49.190  25.901  29.603  1.00  0.00    -0.206 F 
ATOM     67  C   UNL A   1      50.925  25.547  28.065  1.00  0.00     0.040 A 
ATOM     68  C   UNL A   1      50.581  26.020  25.730  1.00  0.00     0.040 A 
ATOM     69  F   UNL A   1      48.524  26.874  24.992  1.00  0.00    -0.206 F 
ATOM     70  C   UNL A   1      51.410  25.580  26.760  1.00  0.00     0.006 A 
ENDBRANCH  49  63
BRANCH  50  71
ATOM     71  C   UNL A   1      39.287  28.810  29.344  1.00  0.00     0.057 A 
ATOM     72  C   UNL A   1      38.458  29.397  28.379  1.00  0.00     0.134 A 
ATOM     73  C   UNL A   1      38.744  28.599  30.616  1.00  0.00     0.134 A 
ATOM     74  F   UNL A   1      38.926  29.641  27.146  1.00  0.00    -0.206 F 
ATOM     75  C   UNL A   1      37.149  29.780  28.674  1.00  0.00     0.040 A 
ATOM     76  C   UNL A   1      37.429  28.956  30.919  1.00  0.00     0.040 A 
ATOM     77  F   UNL A   1      39.484  28.033  31.582  1.00  0.00    -0.206 F 
ATOM     78  C   UNL A   1      36.629  29.557  29.947  1.00  0.00     0.006 A 
ENDBRANCH  50  71
BRANCH  62  79
ATOM     79  C   UNL A   1      45.242  32.409  29.221  1.00  0.00     0.057 A 
ATOM     80  C   UNL A   1      45.134  33.371  28.209  1.00  0.00     0.134 A 
ATOM     81  C   UNL A   1      45.618  32.850  30.497  1.00  0.00     0.134 A 
ATOM     82  F   UNL A   1      44.789  33.012  26.964  1.00  0.00    -0.206 F 
ATOM     83  C   UNL A   1      45.415  34.717  28.451  1.00  0.00     0.040 A 
ATOM     84  C   UNL A   1      45.875  34.196  30.757  1.00  0.00     0.040 A 
ATOM     85  F   UNL A   1      45.731  31.981  31.512  1.00  0.00    -0.206 F 
ATOM     86  C   UNL A   1      45.781  35.133  29.730  1.00  0.00     0.006 A 
ENDBRANCH  62  79
ENDBRANCH  36  37
ENDBRANCH  28  31
ENDBRANCH  26  27
ENDBRANCH  25  26
ENDBRANCH   1  25
TORSDOF 15
ENDMDL
MODEL 3
REMARK VINA RESULT:     -10.8      0.973      6.467
REMARK SMILES NC(=O)C[C@H](NC(=O)[C@@H]1CCC[NH2+]1)C(=O)NCCCCNC(=O)c1ccc(-c2c3nc(c(-c4c(F)cccc4F)c4ccc([nH]4)c(-c4c(F)cccc4F)c4nc(c(-c5c(F)cccc5F)c5ccc2[nH]5)C=C4)C=C3)cc1
REMARK SMILES IDX 18 1 17 2 16 3 14 4 15 5 5 7 4 8 2 9 1 10 3 13 6 14 7 15
REMARK SMILES IDX 8 17 9 18 10 19 13 20 11 21 12 22 19 25 20 26 21 27 22 28
REMARK SMILES IDX 23 30 24 31 25 32 77 33 26 34 76 35 27 36 28 37 29 38 70 39
REMARK SMILES IDX 30 40 75 41 69 42 71 43 31 44 74 45 68 46 67 47 32 49 58 50
REMARK SMILES IDX 41 51 57 52 42 53 45 54 56 55 72 56 43 57 44 58 55 60 73 61
REMARK SMILES IDX 46 62 33 63 34 64 39 65 35 66 36 67 38 68 40 69 37 70 59 71
REMARK SMILES IDX 60 72 65 73 61 74 62 75 64 76 66 77 63 78 47 79 48 80 53 81
REMARK SMILES IDX 49 82 50 83 52 84 54 85 51 86
REMARK H PARENT 16 6 1 11 1 12 6 16 13 23 13 24 21 29 71 48 45 59
REMARK Flexibility Score: inf
ROOT
ATOM      1  C   UNL A   1      31.780  30.810  26.216  1.00  0.00     0.023 C 
ENDROOT
BRANCH   1   2
ATOM      2  C   UNL A   1      32.956  30.094  26.862  1.00  0.00     0.116 C 
BRANCH   2   3
ATOM      3  N   UNL A   1      33.725  29.290  25.938  1.00  0.00    -0.354 N 
ATOM      4  C   UNL A   1      33.325  28.337  25.051  1.00  0.00     0.243 C 
ATOM      5  O   UNL A   1      34.123  28.027  24.161  1.00  0.00    -0.273 OA
ATOM      6  H   UNL A   1      34.695  29.460  25.951  1.00  0.00     0.163 HD
BRANCH   4   7
ATOM      7  C   UNL A   1      31.917  27.700  25.072  1.00  0.00     0.180 C 
BRANCH   7   8
ATOM      8  C   UNL A   1      31.670  26.774  26.263  1.00  0.00     0.134 C 
BRANCH   8   9
ATOM      9  C   UNL A   1      32.046  25.332  26.060  1.00  0.00     0.220 C 
ATOM     10  N   UNL A   1      31.547  24.450  26.969  1.00  0.00    -0.370 N 
ATOM     11  H   UNL A   1      31.756  23.491  26.892  1.00  0.00     0.159 HD
ATOM     12  H   UNL A   1      30.975  24.772  27.703  1.00  0.00     0.159 HD
ATOM     13  O   UNL A   1      32.737  24.946  25.124  1.00  0.00    -0.275 OA
ENDBRANCH   8   9
ENDBRANCH   7   8
BRANCH   7  14
ATOM     14  N   UNL A   1      31.512  27.156  23.770  1.00  0.00    -0.339 N 
ATOM     15  C   UNL A   1      30.917  27.752  22.696  1.00  0.00     0.278 C 
ATOM     16  H   UNL A   1      31.702  26.198  23.652  1.00  0.00     0.164 HD
ATOM     17  O   UNL A   1      30.985  27.142  21.624  1.00  0.00    -0.268 OA
BRANCH  15  18
ATOM     18  C   UNL A   1      30.159  29.085  22.803  1.00  0.00     0.272 C 
ATOM     19  C   UNL A   1      28.659  28.965  22.994  1.00  0.00     0.081 C 
ATOM     20  N   UNL A   1      30.383  29.916  21.600  1.00  0.00    -0.336 N 
ATOM     21  C   UNL A   1      28.069  30.142  22.237  1.00  0.00     0.068 C 
ATOM     22  C   UNL A   1      29.211  30.775  21.458  1.00  0.00     0.261 C 
ATOM     23  H   UNL A   1      30.486  29.322  20.776  1.00  0.00     0.346 HD
ATOM     24  H   UNL A   1      31.235  30.469  21.690  1.00  0.00     0.346 HD
ENDBRANCH  15  18
ENDBRANCH   7  14
ENDBRANCH   4   7
ENDBRANCH   2   3
ENDBRANCH   1   2
BRANCH   1  25
ATOM     25  C   UNL A   1      31.464  32.183  26.800  1.00  0.00     0.023 C 
BRANCH  25  26
ATOM     26  C   UNL A   1      32.662  32.960  27.333  1.00  0.00     0.116 C 
BRANCH  26  27
ATOM     27  N   UNL A   1      32.358  34.341  27.680  1.00  0.00    -0.352 N 
ATOM     28  C   UNL A   1      32.969  35.152  28.609  1.00  0.00     0.251 C 
ATOM     29  H   UNL A   1      31.615  34.751  27.181  1.00  0.00     0.163 HD
ATOM     30  O   UNL A   1      32.530  36.270  28.843  1.00  0.00    -0.269 OA
BRANCH  28  31
ATOM     31  C   UNL A   1      34.138  34.640  29.352  1.00  0.00     0.039 A 
ATOM     32  C   UNL A   1      33.944  34.082  30.617  1.00  0.00     0.014 A 
ATOM     33  C   UNL A   1      35.414  34.675  28.783  1.00  0.00     0.014 A 
ATOM     34  C   UNL A   1      35.023  33.499  31.285  1.00  0.00     0.010 A 
ATOM     35  C   UNL A   1      36.464  34.015  29.406  1.00  0.00     0.010 A 
ATOM     36  C   UNL A   1      36.284  33.432  30.670  1.00  0.00    -0.014 A 
BRANCH  36  37
ATOM     37  C   UNL A   1      37.440  32.796  31.349  1.00  0.00     0.031 A 
ATOM     38  C   UNL A   1      38.116  31.610  30.716  1.00  0.00     0.074 A 
ATOM     39  C   UNL A   1      37.843  33.242  32.555  1.00  0.00     0.049 A 
ATOM     40  N   UNL A   1      39.098  30.875  31.172  1.00  0.00    -0.248 NA
ATOM     41  C   UNL A   1      37.596  31.171  29.411  1.00  0.00     0.031 C 
ATOM     42  C   UNL A   1      37.235  34.345  33.301  1.00  0.00     0.029 A 
ATOM     43  N   UNL A   1      38.861  32.812  33.370  1.00  0.00    -0.354 N 
ATOM     44  C   UNL A   1      39.295  29.881  30.223  1.00  0.00     0.074 A 
ATOM     45  C   UNL A   1      38.291  30.066  29.199  1.00  0.00     0.031 C 
ATOM     46  C   UNL A   1      37.910  34.524  34.448  1.00  0.00     0.029 A 
ATOM     47  C   UNL A   1      38.976  33.532  34.534  1.00  0.00     0.049 A 
ATOM     48  H   UNL A   1      39.453  32.059  33.141  1.00  0.00     0.167 HD
ATOM     49  C   UNL A   1      40.246  28.918  30.189  1.00  0.00     0.037 A 
ATOM     50  C   UNL A   1      39.847  33.405  35.553  1.00  0.00     0.037 A 
ATOM     51  C   UNL A   1      41.267  28.758  31.189  1.00  0.00     0.049 A 
ATOM     52  C   UNL A   1      40.909  32.342  35.482  1.00  0.00     0.074 A 
ATOM     53  C   UNL A   1      42.310  27.850  31.221  1.00  0.00     0.029 A 
ATOM     54  N   UNL A   1      41.374  29.533  32.334  1.00  0.00    -0.354 N 
ATOM     55  N   UNL A   1      41.126  31.450  34.546  1.00  0.00    -0.248 NA
ATOM     56  C   UNL A   1      41.857  32.277  36.604  1.00  0.00     0.031 C 
ATOM     57  C   UNL A   1      43.029  28.053  32.403  1.00  0.00     0.029 A 
ATOM     58  C   UNL A   1      42.461  29.118  33.084  1.00  0.00     0.049 A 
ATOM     59  H   UNL A   1      40.766  30.268  32.577  1.00  0.00     0.167 HD
ATOM     60  C   UNL A   1      42.254  30.744  34.945  1.00  0.00     0.074 A 
ATOM     61  C   UNL A   1      42.681  31.319  36.205  1.00  0.00     0.031 C 
ATOM     62  C   UNL A   1      42.882  29.716  34.325  1.00  0.00     0.037 A 
BRANCH  49  63
ATOM     63  C   UNL A   1      40.228  27.972  29.022  1.00  0.00     0.057 A 
ATOM     64  C   UNL A   1      39.506  26.771  29.056  1.00  0.00     0.134 A 
ATOM     65  C   UNL A   1      40.926  28.272  27.846  1.00  0.00     0.134 A 
ATOM     66  F   UNL A   1      38.828  26.416  30.158  1.00  0.00    -0.206 F 
ATOM     67  C   UNL A   1      39.507  25.887  27.976  1.00  0.00     0.040 A 
ATOM     68  C   UNL A   1      40.910  27.410  26.748  1.00  0.00     0.040 A 
ATOM     69  F   UNL A   1      41.634  29.407  27.743  1.00  0.00    -0.206 F 
ATOM     70  C   UNL A   1      40.205  26.209  26.815  1.00  0.00     0.006 A 
ENDBRANCH  49  63
BRANCH  50  71
ATOM     71  C   UNL A   1      39.783  34.334  36.709  1.00  0.00     0.057 A 
ATOM     72  C   UNL A   1      39.087  33.987  37.875  1.00  0.00     0.134 A 
ATOM     73  C   UNL A   1      40.399  35.590  36.678  1.00  0.00     0.134 A 
ATOM     74  F   UNL A   1      38.461  32.803  37.959  1.00  0.00    -0.206 F 
ATOM     75  C   UNL A   1      38.986  34.863  38.956  1.00  0.00     0.040 A 
ATOM     76  C   UNL A   1      40.327  36.467  37.761  1.00  0.00     0.040 A 
ATOM     77  F   UNL A   1      41.088  35.979  35.594  1.00  0.00    -0.206 F 
ATOM     78  C   UNL A   1      39.611  36.107  38.902  1.00  0.00     0.006 A 
ENDBRANCH  50  71
BRANCH  62  79
ATOM     79  C   UNL A   1      44.127  29.182  34.970  1.00  0.00     0.057 A 
ATOM     80  C   UNL A   1      45.397  29.687  34.664  1.00  0.00     0.134 A 
ATOM     81  C   UNL A   1      44.046  28.175  35.940  1.00  0.00     0.134 A 
ATOM     82  F   UNL A   1      45.543  30.645  33.737  1.00  0.00    -0.206 F 
ATOM     83  C   UNL A   1      46.546  29.189  35.282  1.00  0.00     0.040 A 
ATOM     84  C   UNL A   1      45.185  27.689  36.583  1.00  0.00     0.040 A 
ATOM     85  F   UNL A   1      42.859  27.656  36.285  1.00  0.00    -0.206 F 
ATOM     86  C   UNL A   1      46.440  28.192  36.249  1.00  0.00     0.006 A 
ENDBRANCH  62  79
ENDBRANCH  36  37
ENDBRANCH  28  31
ENDBRANCH  26  27
ENDBRANCH  25  26
ENDBRANCH   1  25
TORSDOF 15
ENDMDL
