MODEL 1
REMARK VINA RESULT:     -11.6      0.000      0.000
REMARK SMILES C[C@@H](Nc1cccc(C(=O)NCCCCNC(=O)c2ccc(-c3c4nc(c(-c5c(F)cccc5F)c5ccc([nH]5)c(-c5c(F)cccc5F)c5nc(c(-c6c(F)cccc6F)c6ccc3[nH]6)C=C5)C=C4)cc2)c1)C1CC[NH+](C)CC1
REMARK SMILES IDX 13 1 12 2 11 3 9 4 10 5 8 7 4 8 5 9 73 10 6 11 7 12 3 13
REMARK SMILES IDX 2 15 1 16 74 17 75 18 80 19 76 20 79 21 77 22 78 23 14 25
REMARK SMILES IDX 15 26 16 27 17 28 18 30 19 31 20 32 72 33 21 34 71 35 22 36
REMARK SMILES IDX 23 37 24 38 65 39 25 40 70 41 64 42 66 43 26 44 69 45 63 46
REMARK SMILES IDX 62 47 27 49 53 50 36 51 52 52 37 53 40 54 51 55 67 56 38 57
REMARK SMILES IDX 39 58 50 60 68 61 41 62 28 63 29 64 34 65 30 66 31 67 33 68
REMARK SMILES IDX 35 69 32 70 54 71 55 72 60 73 56 74 57 75 59 76 61 77 58 78
REMARK SMILES IDX 42 79 43 80 48 81 44 82 45 83 47 84 49 85 46 86
REMARK H PARENT 11 6 3 14 77 24 16 29 66 48 40 59
REMARK Flexibility Score: inf
ROOT
ATOM      1  C   UNL A   1      36.521  20.784  25.269  1.00  0.00     0.023 C 
ENDROOT
BRANCH   1   2
ATOM      2  C   UNL A   1      36.688  22.293  25.084  1.00  0.00     0.116 C 
BRANCH   2   3
ATOM      3  N   UNL A   1      36.056  22.727  23.858  1.00  0.00    -0.352 N 
ATOM      4  C   UNL A   1      34.756  23.027  23.540  1.00  0.00     0.251 C 
ATOM      5  O   UNL A   1      34.544  23.380  22.377  1.00  0.00    -0.269 OA
ATOM      6  H   UNL A   1      36.681  22.824  23.104  1.00  0.00     0.163 HD
BRANCH   4   7
ATOM      7  C   UNL A   1      33.617  23.017  24.511  1.00  0.00     0.041 A 
ATOM      8  C   UNL A   1      32.077  24.030  26.122  1.00  0.00     0.035 A 
ATOM      9  C   UNL A   1      31.354  22.831  26.145  1.00  0.00     0.026 A 
ATOM     10  C   UNL A   1      33.253  24.071  25.359  1.00  0.00     0.039 A 
ATOM     11  C   UNL A   1      31.740  21.738  25.376  1.00  0.00     0.003 A 
ATOM     12  C   UNL A   1      32.849  21.842  24.543  1.00  0.00     0.014 A 
BRANCH   8  13
ATOM     13  N   UNL A   1      31.513  25.131  26.737  1.00  0.00    -0.382 N 
ATOM     14  H   UNL A   1      31.407  25.068  27.713  1.00  0.00     0.160 HD
BRANCH  13  15
ATOM     15  C   UNL A   1      31.050  26.383  26.123  1.00  0.00     0.079 C 
ATOM     16  C   UNL A   1      30.104  25.980  24.985  1.00  0.00     0.031 C 
BRANCH  15  17
ATOM     17  C   UNL A   1      32.235  27.306  25.681  1.00  0.00     0.022 C 
ATOM     18  C   UNL A   1      32.872  28.041  26.873  1.00  0.00     0.067 C 
ATOM     19  C   UNL A   1      31.981  28.295  24.533  1.00  0.00     0.067 C 
ATOM     20  C   UNL A   1      32.157  29.329  27.252  1.00  0.00     0.262 C 
ATOM     21  C   UNL A   1      31.380  29.634  24.964  1.00  0.00     0.262 C 
ATOM     22  N   UNL A   1      32.081  30.234  26.105  1.00  0.00    -0.337 N 
ATOM     23  C   UNL A   1      31.435  31.487  26.500  1.00  0.00     0.332 C 
ATOM     24  H   UNL A   1      33.037  30.422  25.800  1.00  0.00     0.347 HD
ENDBRANCH  15  17
ENDBRANCH  13  15
ENDBRANCH   8  13
ENDBRANCH   4   7
ENDBRANCH   2   3
ENDBRANCH   1   2
BRANCH   1  25
ATOM     25  C   UNL A   1      37.761  19.975  24.882  1.00  0.00     0.023 C 
BRANCH  25  26
ATOM     26  C   UNL A   1      39.011  20.292  25.700  1.00  0.00     0.116 C 
BRANCH  26  27
ATOM     27  N   UNL A   1      39.960  19.189  25.763  1.00  0.00    -0.352 N 
ATOM     28  C   UNL A   1      41.304  19.235  26.050  1.00  0.00     0.251 C 
ATOM     29  H   UNL A   1      39.592  18.296  25.578  1.00  0.00     0.163 HD
ATOM     30  O   UNL A   1      41.990  18.220  25.970  1.00  0.00    -0.269 OA
BRANCH  28  31
ATOM     31  C   UNL A   1      41.924  20.528  26.404  1.00  0.00     0.039 A 
ATOM     32  C   UNL A   1      42.302  21.396  25.376  1.00  0.00     0.014 A 
ATOM     33  C   UNL A   1      42.088  20.902  27.741  1.00  0.00     0.014 A 
ATOM     34  C   UNL A   1      42.769  22.673  25.692  1.00  0.00     0.010 A 
ATOM     35  C   UNL A   1      42.488  22.198  28.051  1.00  0.00     0.010 A 
ATOM     36  C   UNL A   1      42.825  23.099  27.029  1.00  0.00    -0.014 A 
BRANCH  36  37
ATOM     37  C   UNL A   1      43.206  24.493  27.371  1.00  0.00     0.031 A 
ATOM     38  C   UNL A   1      44.644  24.923  27.327  1.00  0.00     0.074 A 
ATOM     39  C   UNL A   1      42.257  25.355  27.785  1.00  0.00     0.049 A 
ATOM     40  N   UNL A   1      45.168  26.085  27.626  1.00  0.00    -0.248 NA
ATOM     41  C   UNL A   1      45.628  23.907  26.922  1.00  0.00     0.031 C 
ATOM     42  C   UNL A   1      40.834  25.041  27.934  1.00  0.00     0.029 A 
ATOM     43  N   UNL A   1      42.348  26.670  28.167  1.00  0.00    -0.354 N 
ATOM     44  C   UNL A   1      46.538  25.937  27.456  1.00  0.00     0.074 A 
ATOM     45  C   UNL A   1      46.771  24.559  27.079  1.00  0.00     0.031 C 
ATOM     46  C   UNL A   1      40.183  26.139  28.347  1.00  0.00     0.029 A 
ATOM     47  C   UNL A   1      41.142  27.224  28.524  1.00  0.00     0.049 A 
ATOM     48  H   UNL A   1      43.196  27.169  28.182  1.00  0.00     0.167 HD
ATOM     49  C   UNL A   1      47.513  26.869  27.579  1.00  0.00     0.037 A 
ATOM     50  C   UNL A   1      40.845  28.468  28.945  1.00  0.00     0.037 A 
ATOM     51  C   UNL A   1      47.278  28.245  27.931  1.00  0.00     0.049 A 
ATOM     52  C   UNL A   1      41.942  29.488  29.060  1.00  0.00     0.074 A 
ATOM     53  C   UNL A   1      48.191  29.283  28.010  1.00  0.00     0.029 A 
ATOM     54  N   UNL A   1      46.041  28.775  28.263  1.00  0.00    -0.354 N 
ATOM     55  N   UNL A   1      43.223  29.356  28.815  1.00  0.00    -0.248 NA
ATOM     56  C   UNL A   1      41.550  30.833  29.501  1.00  0.00     0.031 C 
ATOM     57  C   UNL A   1      47.513  30.432  28.431  1.00  0.00     0.029 A 
ATOM     58  C   UNL A   1      46.170  30.120  28.571  1.00  0.00     0.049 A 
ATOM     59  H   UNL A   1      45.196  28.271  28.279  1.00  0.00     0.167 HD
ATOM     60  C   UNL A   1      43.786  30.602  29.052  1.00  0.00     0.074 A 
ATOM     61  C   UNL A   1      42.704  31.484  29.440  1.00  0.00     0.031 C 
ATOM     62  C   UNL A   1      45.083  30.983  28.957  1.00  0.00     0.037 A 
BRANCH  49  63
ATOM     63  C   UNL A   1      48.925  26.430  27.322  1.00  0.00     0.057 A 
ATOM     64  C   UNL A   1      49.493  26.487  26.043  1.00  0.00     0.134 A 
ATOM     65  C   UNL A   1      49.734  25.973  28.369  1.00  0.00     0.134 A 
ATOM     66  F   UNL A   1      48.766  26.904  24.994  1.00  0.00    -0.206 F 
ATOM     67  C   UNL A   1      50.808  26.081  25.808  1.00  0.00     0.040 A 
ATOM     68  C   UNL A   1      51.059  25.589  28.151  1.00  0.00     0.040 A 
ATOM     69  F   UNL A   1      49.255  25.898  29.619  1.00  0.00    -0.206 F 
ATOM     70  C   UNL A   1      51.596  25.636  26.866  1.00  0.00     0.006 A 
ENDBRANCH  49  63
BRANCH  50  71
ATOM     71  C   UNL A   1      39.440  28.828  29.261  1.00  0.00     0.057 A 
ATOM     72  C   UNL A   1      38.921  28.638  30.547  1.00  0.00     0.134 A 
ATOM     73  C   UNL A   1      38.584  29.361  28.292  1.00  0.00     0.134 A 
ATOM     74  F   UNL A   1      39.688  28.113  31.514  1.00  0.00    -0.206 F 
ATOM     75  C   UNL A   1      37.595  28.948  30.854  1.00  0.00     0.040 A 
ATOM     76  C   UNL A   1      37.262  29.697  28.589  1.00  0.00     0.040 A 
ATOM     77  F   UNL A   1      39.024  29.574  27.043  1.00  0.00    -0.206 F 
ATOM     78  C   UNL A   1      36.763  29.483  29.873  1.00  0.00     0.006 A 
ENDBRANCH  50  71
BRANCH  62  79
ATOM     79  C   UNL A   1      45.396  32.419  29.259  1.00  0.00     0.057 A 
ATOM     80  C   UNL A   1      45.313  33.414  28.277  1.00  0.00     0.134 A 
ATOM     81  C   UNL A   1      45.763  32.814  30.552  1.00  0.00     0.134 A 
ATOM     82  F   UNL A   1      44.982  33.099  27.016  1.00  0.00    -0.206 F 
ATOM     83  C   UNL A   1      45.607  34.748  28.565  1.00  0.00     0.040 A 
ATOM     84  C   UNL A   1      46.034  34.148  30.857  1.00  0.00     0.040 A 
ATOM     85  F   UNL A   1      45.854  31.911  31.540  1.00  0.00    -0.206 F 
ATOM     86  C   UNL A   1      45.964  35.118  29.859  1.00  0.00     0.006 A 
ENDBRANCH  62  79
ENDBRANCH  36  37
ENDBRANCH  28  31
ENDBRANCH  26  27
ENDBRANCH  25  26
ENDBRANCH   1  25
TORSDOF 14
ENDMDL
MODEL 2
REMARK VINA RESULT:     -11.5      1.110      1.985
REMARK SMILES C[C@@H](Nc1cccc(C(=O)NCCCCNC(=O)c2ccc(-c3c4nc(c(-c5c(F)cccc5F)c5ccc([nH]5)c(-c5c(F)cccc5F)c5nc(c(-c6c(F)cccc6F)c6ccc3[nH]6)C=C5)C=C4)cc2)c1)C1CC[NH+](C)CC1
REMARK SMILES IDX 13 1 12 2 11 3 9 4 10 5 8 7 4 8 5 9 73 10 6 11 7 12 3 13
REMARK SMILES IDX 2 15 1 16 74 17 75 18 80 19 76 20 79 21 77 22 78 23 14 25
REMARK SMILES IDX 15 26 16 27 17 28 18 30 19 31 20 32 72 33 21 34 71 35 22 36
REMARK SMILES IDX 23 37 24 38 65 39 25 40 70 41 64 42 66 43 26 44 69 45 63 46
REMARK SMILES IDX 62 47 27 49 53 50 36 51 52 52 37 53 40 54 51 55 67 56 38 57
REMARK SMILES IDX 39 58 50 60 68 61 41 62 28 63 29 64 34 65 30 66 31 67 33 68
REMARK SMILES IDX 35 69 32 70 54 71 55 72 60 73 56 74 57 75 59 76 61 77 58 78
REMARK SMILES IDX 42 79 43 80 48 81 44 82 45 83 47 84 49 85 46 86
REMARK H PARENT 11 6 3 14 77 24 16 29 66 48 40 59
REMARK Flexibility Score: inf
ROOT
ATOM      1  C   UNL A   1      37.122  21.159  24.753  1.00  0.00     0.023 C 
ENDROOT
BRANCH   1   2
ATOM      2  C   UNL A   1      35.926  21.119  25.706  1.00  0.00     0.116 C 
BRANCH   2   3
ATOM      3  N   UNL A   1      35.029  20.044  25.349  1.00  0.00    -0.352 N 
ATOM      4  C   UNL A   1      33.747  20.027  24.864  1.00  0.00     0.251 C 
ATOM      5  O   UNL A   1      33.254  18.916  24.654  1.00  0.00    -0.269 OA
ATOM      6  H   UNL A   1      35.413  19.147  25.483  1.00  0.00     0.163 HD
BRANCH   4   7
ATOM      7  C   UNL A   1      32.951  21.247  24.517  1.00  0.00     0.041 A 
ATOM      8  C   UNL A   1      32.057  23.490  24.919  1.00  0.00     0.035 A 
ATOM      9  C   UNL A   1      31.562  23.499  23.609  1.00  0.00     0.026 A 
ATOM     10  C   UNL A   1      32.678  22.319  25.378  1.00  0.00     0.039 A 
ATOM     11  C   UNL A   1      31.746  22.414  22.759  1.00  0.00     0.003 A 
ATOM     12  C   UNL A   1      32.461  21.307  23.203  1.00  0.00     0.014 A 
BRANCH   8  13
ATOM     13  N   UNL A   1      32.027  24.678  25.624  1.00  0.00    -0.382 N 
ATOM     14  H   UNL A   1      31.809  24.602  26.581  1.00  0.00     0.160 HD
BRANCH  13  15
ATOM     15  C   UNL A   1      32.278  26.040  25.131  1.00  0.00     0.079 C 
ATOM     16  C   UNL A   1      33.616  26.478  25.741  1.00  0.00     0.031 C 
BRANCH  15  17
ATOM     17  C   UNL A   1      31.086  27.011  25.425  1.00  0.00     0.022 C 
ATOM     18  C   UNL A   1      29.899  26.773  24.477  1.00  0.00     0.067 C 
ATOM     19  C   UNL A   1      31.393  28.514  25.509  1.00  0.00     0.067 C 
ATOM     20  C   UNL A   1      30.019  27.501  23.147  1.00  0.00     0.262 C 
ATOM     21  C   UNL A   1      31.380  29.246  24.165  1.00  0.00     0.262 C 
ATOM     22  N   UNL A   1      30.192  28.938  23.360  1.00  0.00    -0.337 N 
ATOM     23  C   UNL A   1      30.257  29.630  22.071  1.00  0.00     0.332 C 
ATOM     24  H   UNL A   1      29.383  29.269  23.886  1.00  0.00     0.347 HD
ENDBRANCH  15  17
ENDBRANCH  13  15
ENDBRANCH   8  13
ENDBRANCH   4   7
ENDBRANCH   2   3
ENDBRANCH   1   2
BRANCH   1  25
ATOM     25  C   UNL A   1      38.069  19.967  24.903  1.00  0.00     0.023 C 
BRANCH  25  26
ATOM     26  C   UNL A   1      39.249  20.203  25.845  1.00  0.00     0.116 C 
BRANCH  26  27
ATOM     27  N   UNL A   1      40.232  19.128  25.825  1.00  0.00    -0.352 N 
ATOM     28  C   UNL A   1      41.587  19.208  26.042  1.00  0.00     0.251 C 
ATOM     29  H   UNL A   1      39.881  18.230  25.633  1.00  0.00     0.163 HD
ATOM     30  O   UNL A   1      42.298  18.219  25.896  1.00  0.00    -0.269 OA
BRANCH  28  31
ATOM     31  C   UNL A   1      42.187  20.510  26.402  1.00  0.00     0.039 A 
ATOM     32  C   UNL A   1      42.599  21.366  25.378  1.00  0.00     0.014 A 
ATOM     33  C   UNL A   1      42.296  20.903  27.739  1.00  0.00     0.014 A 
ATOM     34  C   UNL A   1      43.047  22.650  25.694  1.00  0.00     0.010 A 
ATOM     35  C   UNL A   1      42.678  22.205  28.046  1.00  0.00     0.010 A 
ATOM     36  C   UNL A   1      43.049  23.095  27.025  1.00  0.00    -0.014 A 
BRANCH  36  37
ATOM     37  C   UNL A   1      43.409  24.495  27.363  1.00  0.00     0.031 A 
ATOM     38  C   UNL A   1      44.840  24.948  27.310  1.00  0.00     0.074 A 
ATOM     39  C   UNL A   1      42.448  25.342  27.781  1.00  0.00     0.049 A 
ATOM     40  N   UNL A   1      45.346  26.119  27.604  1.00  0.00    -0.248 NA
ATOM     41  C   UNL A   1      45.837  23.948  26.900  1.00  0.00     0.031 C 
ATOM     42  C   UNL A   1      41.032  25.005  27.939  1.00  0.00     0.029 A 
ATOM     43  N   UNL A   1      42.520  26.659  28.160  1.00  0.00    -0.354 N 
ATOM     44  C   UNL A   1      46.718  25.993  27.426  1.00  0.00     0.074 A 
ATOM     45  C   UNL A   1      46.971  24.619  27.050  1.00  0.00     0.031 C 
ATOM     46  C   UNL A   1      40.365  26.093  28.354  1.00  0.00     0.029 A 
ATOM     47  C   UNL A   1      41.308  27.194  28.523  1.00  0.00     0.049 A 
ATOM     48  H   UNL A   1      43.360  27.172  28.169  1.00  0.00     0.167 HD
ATOM     49  C   UNL A   1      47.678  26.942  27.541  1.00  0.00     0.037 A 
ATOM     50  C   UNL A   1      40.992  28.434  28.943  1.00  0.00     0.037 A 
ATOM     51  C   UNL A   1      47.422  28.315  27.891  1.00  0.00     0.049 A 
ATOM     52  C   UNL A   1      42.073  29.472  29.050  1.00  0.00     0.074 A 
ATOM     53  C   UNL A   1      48.319  29.367  27.963  1.00  0.00     0.029 A 
ATOM     54  N   UNL A   1      46.178  28.825  28.230  1.00  0.00    -0.354 N 
ATOM     55  N   UNL A   1      43.355  29.360  28.798  1.00  0.00    -0.248 NA
ATOM     56  C   UNL A   1      41.661  30.812  29.491  1.00  0.00     0.031 C 
ATOM     57  C   UNL A   1      47.624  30.506  28.386  1.00  0.00     0.029 A 
ATOM     58  C   UNL A   1      46.287  30.172  28.535  1.00  0.00     0.049 A 
ATOM     59  H   UNL A   1      45.342  28.306  28.252  1.00  0.00     0.167 HD
ATOM     60  C   UNL A   1      43.899  30.616  29.029  1.00  0.00     0.074 A 
ATOM     61  C   UNL A   1      42.804  31.480  29.422  1.00  0.00     0.031 C 
ATOM     62  C   UNL A   1      45.188  31.018  28.926  1.00  0.00     0.037 A 
BRANCH  49  63
ATOM     63  C   UNL A   1      49.095  26.525  27.277  1.00  0.00     0.057 A 
ATOM     64  C   UNL A   1      49.942  26.099  28.308  1.00  0.00     0.134 A 
ATOM     65  C   UNL A   1      49.610  26.523  25.975  1.00  0.00     0.134 A 
ATOM     66  F   UNL A   1      49.513  26.090  29.580  1.00  0.00    -0.206 F 
ATOM     67  C   UNL A   1      51.259  25.709  28.058  1.00  0.00     0.040 A 
ATOM     68  C   UNL A   1      50.917  26.111  25.709  1.00  0.00     0.040 A 
ATOM     69  F   UNL A   1      48.852  26.915  24.941  1.00  0.00    -0.206 F 
ATOM     70  C   UNL A   1      51.747  25.709  26.754  1.00  0.00     0.006 A 
ENDBRANCH  49  63
BRANCH  50  71
ATOM     71  C   UNL A   1      39.584  28.771  29.267  1.00  0.00     0.057 A 
ATOM     72  C   UNL A   1      38.716  29.259  28.283  1.00  0.00     0.134 A 
ATOM     73  C   UNL A   1      39.073  28.622  30.562  1.00  0.00     0.134 A 
ATOM     74  F   UNL A   1      39.153  29.440  27.028  1.00  0.00    -0.206 F 
ATOM     75  C   UNL A   1      37.396  29.604  28.578  1.00  0.00     0.040 A 
ATOM     76  C   UNL A   1      37.749  28.942  30.866  1.00  0.00     0.040 A 
ATOM     77  F   UNL A   1      39.853  28.153  31.547  1.00  0.00    -0.206 F 
ATOM     78  C   UNL A   1      36.909  29.443  29.873  1.00  0.00     0.006 A 
ENDBRANCH  50  71
BRANCH  62  79
ATOM     79  C   UNL A   1      45.480  32.460  29.223  1.00  0.00     0.057 A 
ATOM     80  C   UNL A   1      45.396  33.448  28.234  1.00  0.00     0.134 A 
ATOM     81  C   UNL A   1      45.825  32.867  30.518  1.00  0.00     0.134 A 
ATOM     82  F   UNL A   1      45.084  33.122  26.971  1.00  0.00    -0.206 F 
ATOM     83  C   UNL A   1      45.670  34.787  28.518  1.00  0.00     0.040 A 
ATOM     84  C   UNL A   1      46.076  34.206  30.819  1.00  0.00     0.040 A 
ATOM     85  F   UNL A   1      45.915  31.970  31.512  1.00  0.00    -0.206 F 
ATOM     86  C   UNL A   1      46.006  35.169  29.815  1.00  0.00     0.006 A 
ENDBRANCH  62  79
ENDBRANCH  36  37
ENDBRANCH  28  31
ENDBRANCH  26  27
ENDBRANCH  25  26
ENDBRANCH   1  25
TORSDOF 14
ENDMDL
MODEL 3
REMARK VINA RESULT:     -11.5      4.750     10.124
REMARK SMILES C[C@@H](Nc1cccc(C(=O)NCCCCNC(=O)c2ccc(-c3c4nc(c(-c5c(F)cccc5F)c5ccc([nH]5)c(-c5c(F)cccc5F)c5nc(c(-c6c(F)cccc6F)c6ccc3[nH]6)C=C5)C=C4)cc2)c1)C1CC[NH+](C)CC1
REMARK SMILES IDX 13 1 12 2 11 3 9 4 10 5 8 7 4 8 5 9 73 10 6 11 7 12 3 13
REMARK SMILES IDX 2 15 1 16 74 17 75 18 80 19 76 20 79 21 77 22 78 23 14 25
REMARK SMILES IDX 15 26 16 27 17 28 18 30 19 31 20 32 72 33 21 34 71 35 22 36
REMARK SMILES IDX 23 37 24 38 65 39 25 40 70 41 64 42 66 43 26 44 69 45 63 46
REMARK SMILES IDX 62 47 27 49 53 50 36 51 52 52 37 53 40 54 51 55 67 56 38 57
REMARK SMILES IDX 39 58 50 60 68 61 41 62 28 63 29 64 34 65 30 66 31 67 33 68
REMARK SMILES IDX 35 69 32 70 54 71 55 72 60 73 56 74 57 75 59 76 61 77 58 78
REMARK SMILES IDX 42 79 43 80 48 81 44 82 45 83 47 84 49 85 46 86
REMARK H PARENT 11 6 3 14 77 24 16 29 66 48 40 59
REMARK Flexibility Score: inf
ROOT
ATOM      1  C   UNL A   1      31.830  30.449  26.011  1.00  0.00     0.023 C 
ENDROOT
BRANCH   1   2
ATOM      2  C   UNL A   1      32.493  29.386  26.888  1.00  0.00     0.116 C 
BRANCH   2   3
ATOM      3  N   UNL A   1      31.600  28.268  27.092  1.00  0.00    -0.352 N 
ATOM      4  C   UNL A   1      31.447  27.070  26.441  1.00  0.00     0.251 C 
ATOM      5  O   UNL A   1      30.575  26.316  26.879  1.00  0.00    -0.269 OA
ATOM      6  H   UNL A   1      30.978  28.391  27.846  1.00  0.00     0.163 HD
BRANCH   4   7
ATOM      7  C   UNL A   1      32.299  26.606  25.301  1.00  0.00     0.041 A 
ATOM      8  C   UNL A   1      33.860  25.087  24.184  1.00  0.00     0.035 A 
ATOM      9  C   UNL A   1      33.680  25.813  23.001  1.00  0.00     0.026 A 
ATOM     10  C   UNL A   1      33.221  25.552  25.343  1.00  0.00     0.039 A 
ATOM     11  C   UNL A   1      32.833  26.916  22.951  1.00  0.00     0.003 A 
ATOM     12  C   UNL A   1      32.127  27.292  24.089  1.00  0.00     0.014 A 
BRANCH   8  13
ATOM     13  N   UNL A   1      34.538  23.886  24.102  1.00  0.00    -0.382 N 
ATOM     14  H   UNL A   1      34.052  23.150  23.666  1.00  0.00     0.160 HD
BRANCH  13  15
ATOM     15  C   UNL A   1      35.890  23.565  24.580  1.00  0.00     0.079 C 
ATOM     16  C   UNL A   1      36.646  22.986  23.377  1.00  0.00     0.031 C 
BRANCH  15  17
ATOM     17  C   UNL A   1      35.875  22.636  25.840  1.00  0.00     0.022 C 
ATOM     18  C   UNL A   1      36.257  21.186  25.494  1.00  0.00     0.067 C 
ATOM     19  C   UNL A   1      34.618  22.649  26.722  1.00  0.00     0.067 C 
ATOM     20  C   UNL A   1      35.089  20.346  24.999  1.00  0.00     0.262 C 
ATOM     21  C   UNL A   1      33.509  21.696  26.270  1.00  0.00     0.262 C 
ATOM     22  N   UNL A   1      34.003  20.345  25.979  1.00  0.00    -0.337 N 
ATOM     23  C   UNL A   1      32.908  19.493  25.508  1.00  0.00     0.332 C 
ATOM     24  H   UNL A   1      34.378  19.971  26.850  1.00  0.00     0.347 HD
ENDBRANCH  15  17
ENDBRANCH  13  15
ENDBRANCH   8  13
ENDBRANCH   4   7
ENDBRANCH   2   3
ENDBRANCH   1   2
BRANCH   1  25
ATOM     25  C   UNL A   1      31.488  31.739  26.760  1.00  0.00     0.023 C 
BRANCH  25  26
ATOM     26  C   UNL A   1      32.697  32.562  27.201  1.00  0.00     0.116 C 
BRANCH  26  27
ATOM     27  N   UNL A   1      32.366  33.931  27.569  1.00  0.00    -0.352 N 
ATOM     28  C   UNL A   1      32.990  34.742  28.487  1.00  0.00     0.251 C 
ATOM     29  H   UNL A   1      31.597  34.327  27.101  1.00  0.00     0.163 HD
ATOM     30  O   UNL A   1      32.528  35.847  28.754  1.00  0.00    -0.269 OA
BRANCH  28  31
ATOM     31  C   UNL A   1      34.193  34.249  29.189  1.00  0.00     0.039 A 
ATOM     32  C   UNL A   1      34.029  33.463  30.332  1.00  0.00     0.014 A 
ATOM     33  C   UNL A   1      35.472  34.519  28.695  1.00  0.00     0.014 A 
ATOM     34  C   UNL A   1      35.147  32.881  30.933  1.00  0.00     0.010 A 
ATOM     35  C   UNL A   1      36.576  33.884  29.254  1.00  0.00     0.010 A 
ATOM     36  C   UNL A   1      36.423  33.051  30.374  1.00  0.00    -0.014 A 
BRANCH  36  37
ATOM     37  C   UNL A   1      37.603  32.343  30.931  1.00  0.00     0.031 A 
ATOM     38  C   UNL A   1      38.257  32.827  32.194  1.00  0.00     0.074 A 
ATOM     39  C   UNL A   1      38.124  31.296  30.261  1.00  0.00     0.049 A 
ATOM     40  N   UNL A   1      39.314  32.358  32.808  1.00  0.00    -0.248 NA
ATOM     41  C   UNL A   1      37.664  34.011  32.835  1.00  0.00     0.031 C 
ATOM     42  C   UNL A   1      37.621  30.770  28.990  1.00  0.00     0.029 A 
ATOM     43  N   UNL A   1      39.199  30.494  30.550  1.00  0.00    -0.354 N 
ATOM     44  C   UNL A   1      39.518  33.193  33.899  1.00  0.00     0.074 A 
ATOM     45  C   UNL A   1      38.509  34.229  33.833  1.00  0.00     0.031 C 
ATOM     46  C   UNL A   1      38.368  29.717  28.624  1.00  0.00     0.029 A 
ATOM     47  C   UNL A   1      39.420  29.513  29.614  1.00  0.00     0.049 A 
ATOM     48  H   UNL A   1      39.757  30.610  31.352  1.00  0.00     0.167 HD
ATOM     49  C   UNL A   1      40.446  33.094  34.880  1.00  0.00     0.037 A 
ATOM     50  C   UNL A   1      40.366  28.555  29.562  1.00  0.00     0.037 A 
ATOM     51  C   UNL A   1      41.434  32.050  34.957  1.00  0.00     0.049 A 
ATOM     52  C   UNL A   1      41.376  28.457  30.669  1.00  0.00     0.074 A 
ATOM     53  C   UNL A   1      42.372  31.822  35.951  1.00  0.00     0.029 A 
ATOM     54  N   UNL A   1      41.614  31.060  34.004  1.00  0.00    -0.354 N 
ATOM     55  N   UNL A   1      41.506  29.205  31.739  1.00  0.00    -0.248 NA
ATOM     56  C   UNL A   1      42.367  27.377  30.567  1.00  0.00     0.031 C 
ATOM     57  C   UNL A   1      43.146  30.718  35.577  1.00  0.00     0.029 A 
ATOM     58  C   UNL A   1      42.662  30.232  34.373  1.00  0.00     0.049 A 
ATOM     59  H   UNL A   1      41.077  30.961  33.185  1.00  0.00     0.167 HD
ATOM     60  C   UNL A   1      42.577  28.674  32.446  1.00  0.00     0.074 A 
ATOM     61  C   UNL A   1      43.048  27.529  31.694  1.00  0.00     0.031 C 
ATOM     62  C   UNL A   1      43.120  29.097  33.612  1.00  0.00     0.037 A 
BRANCH  49  63
ATOM     63  C   UNL A   1      40.430  34.141  35.955  1.00  0.00     0.057 A 
ATOM     64  C   UNL A   1      39.666  33.988  37.120  1.00  0.00     0.134 A 
ATOM     65  C   UNL A   1      41.206  35.300  35.838  1.00  0.00     0.134 A 
ATOM     66  F   UNL A   1      38.891  32.906  37.288  1.00  0.00    -0.206 F 
ATOM     67  C   UNL A   1      39.657  34.964  38.120  1.00  0.00     0.040 A 
ATOM     68  C   UNL A   1      41.225  36.269  36.842  1.00  0.00     0.040 A 
ATOM     69  F   UNL A   1      41.964  35.507  34.751  1.00  0.00    -0.206 F 
ATOM     70  C   UNL A   1      40.442  36.105  37.984  1.00  0.00     0.006 A 
ENDBRANCH  49  63
BRANCH  50  71
ATOM     71  C   UNL A   1      40.384  27.592  28.433  1.00  0.00     0.057 A 
ATOM     72  C   UNL A   1      39.652  26.400  28.493  1.00  0.00     0.134 A 
ATOM     73  C   UNL A   1      41.133  27.832  27.276  1.00  0.00     0.134 A 
ATOM     74  F   UNL A   1      38.930  26.106  29.584  1.00  0.00    -0.206 F 
ATOM     75  C   UNL A   1      39.680  25.472  27.451  1.00  0.00     0.040 A 
ATOM     76  C   UNL A   1      41.152  26.924  26.216  1.00  0.00     0.040 A 
ATOM     77  F   UNL A   1      41.850  28.960  27.156  1.00  0.00    -0.206 F 
ATOM     78  C   UNL A   1      40.429  25.736  26.306  1.00  0.00     0.006 A 
ENDBRANCH  50  71
BRANCH  62  79
ATOM     79  C   UNL A   1      44.273  28.304  34.155  1.00  0.00     0.057 A 
ATOM     80  C   UNL A   1      44.077  27.186  34.975  1.00  0.00     0.134 A 
ATOM     81  C   UNL A   1      45.592  28.650  33.836  1.00  0.00     0.134 A 
ATOM     82  F   UNL A   1      42.839  26.811  35.330  1.00  0.00    -0.206 F 
ATOM     83  C   UNL A   1      45.154  26.454  35.478  1.00  0.00     0.040 A 
ATOM     84  C   UNL A   1      46.675  27.911  34.312  1.00  0.00     0.040 A 
ATOM     85  F   UNL A   1      45.847  29.707  33.050  1.00  0.00    -0.206 F 
ATOM     86  C   UNL A   1      46.457  26.813  35.141  1.00  0.00     0.006 A 
ENDBRANCH  62  79
ENDBRANCH  36  37
ENDBRANCH  28  31
ENDBRANCH  26  27
ENDBRANCH  25  26
ENDBRANCH   1  25
TORSDOF 14
ENDMDL
