MODEL 1
REMARK VINA RESULT:     -13.4      0.000      0.000
REMARK SMILES Cc1[nH]c2ccccc2c1[C@H](C(=O)NCCCCNC(=O)c1ccc(-c2c3nc(c(-c4c(F)cccc4F)c4ccc([nH]4)c(-c4c(F)cccc4F)c4nc(c(-c5c(F)cccc5F)c5ccc2[nH]5)C=C4)C=C3)cc1)[NH+]1CCN(C(=O)c2ccco2)CC1
REMARK SMILES IDX 16 1 15 2 14 3 12 4 13 5 11 7 10 8 1 9 2 10 3 11 4 12 9 14
REMARK SMILES IDX 5 15 8 16 6 17 7 18 76 19 77 20 88 21 78 23 87 24 79 25
REMARK SMILES IDX 80 26 81 27 82 28 83 29 86 30 84 31 85 32 17 33 18 34 19 35
REMARK SMILES IDX 20 36 21 38 22 39 23 40 75 41 24 42 74 43 25 44 26 45 27 46
REMARK SMILES IDX 68 47 28 48 73 49 67 50 69 51 29 52 72 53 66 54 65 55 30 57
REMARK SMILES IDX 56 58 39 59 55 60 40 61 43 62 54 63 70 64 41 65 42 66 53 68
REMARK SMILES IDX 71 69 44 70 31 71 32 72 37 73 33 74 34 75 36 76 38 77 35 78
REMARK SMILES IDX 57 79 58 80 63 81 59 82 60 83 62 84 64 85 61 86 45 87 46 88
REMARK SMILES IDX 51 89 47 90 48 91 50 92 52 93 49 94
REMARK H PARENT 14 6 3 13 76 22 19 37 69 56 43 67
REMARK Flexibility Score: inf
ROOT
ATOM      1  C   UNL A   1      31.828  29.536  27.252  1.00  0.00     0.023 C 
ENDROOT
BRANCH   1   2
ATOM      2  C   UNL A   1      32.392  28.209  26.762  1.00  0.00     0.116 C 
BRANCH   2   3
ATOM      3  N   UNL A   1      31.424  27.135  26.846  1.00  0.00    -0.351 N 
ATOM      4  C   UNL A   1      31.043  26.228  25.891  1.00  0.00     0.283 C 
ATOM      5  O   UNL A   1      30.200  25.388  26.230  1.00  0.00    -0.268 OA
ATOM      6  H   UNL A   1      30.973  27.042  27.716  1.00  0.00     0.163 HD
BRANCH   4   7
ATOM      7  C   UNL A   1      31.644  26.219  24.456  1.00  0.00     0.308 C 
BRANCH   7   8
ATOM      8  C   UNL A   1      31.412  27.546  23.728  1.00  0.00     0.047 A 
ATOM      9  C   UNL A   1      33.923  28.257  23.366  1.00  0.00     0.065 C 
ATOM     10  C   UNL A   1      32.441  28.360  23.238  1.00  0.00     0.022 A 
ATOM     11  N   UNL A   1      31.877  29.328  22.450  1.00  0.00    -0.358 N 
ATOM     12  C   UNL A   1      30.510  29.229  22.466  1.00  0.00     0.046 A 
ATOM     13  H   UNL A   1      32.384  30.002  21.942  1.00  0.00     0.166 HD
ATOM     14  C   UNL A   1      30.180  28.193  23.342  1.00  0.00     0.009 A 
ATOM     15  C   UNL A   1      29.557  29.980  21.768  1.00  0.00     0.027 A 
ATOM     16  C   UNL A   1      28.809  27.963  23.587  1.00  0.00     0.011 A 
ATOM     17  C   UNL A   1      28.211  29.704  22.009  1.00  0.00     0.002 A 
ATOM     18  C   UNL A   1      27.839  28.726  22.924  1.00  0.00     0.001 A 
ENDBRANCH   7   8
BRANCH   7  19
ATOM     19  N   UNL A   1      33.037  25.691  24.372  1.00  0.00    -0.318 N 
ATOM     20  C   UNL A   1      33.785  25.442  25.616  1.00  0.00     0.285 C 
ATOM     21  C   UNL A   1      33.153  24.491  23.524  1.00  0.00     0.285 C 
ATOM     22  H   UNL A   1      33.485  26.506  23.951  1.00  0.00     0.349 HD
ATOM     23  C   UNL A   1      33.471  24.135  26.370  1.00  0.00     0.181 C 
ATOM     24  C   UNL A   1      32.763  23.157  24.190  1.00  0.00     0.181 C 
ATOM     25  N   UNL A   1      33.362  22.957  25.516  1.00  0.00    -0.325 N 
ATOM     26  C   UNL A   1      33.317  21.716  26.180  1.00  0.00     0.289 C 
ATOM     27  O   UNL A   1      33.314  21.670  27.412  1.00  0.00    -0.265 OA
BRANCH  26  28
ATOM     28  C   UNL A   1      33.313  20.511  25.373  1.00  0.00     0.191 A 
ATOM     29  C   UNL A   1      34.333  19.775  24.795  1.00  0.00     0.056 A 
ATOM     30  O   UNL A   1      32.120  19.874  25.153  1.00  0.00    -0.459 OA
ATOM     31  C   UNL A   1      33.730  18.658  24.170  1.00  0.00     0.043 A 
ATOM     32  C   UNL A   1      32.383  18.765  24.416  1.00  0.00     0.196 A 
ENDBRANCH  26  28
ENDBRANCH   7  19
ENDBRANCH   4   7
ENDBRANCH   2   3
ENDBRANCH   1   2
BRANCH   1  33
ATOM     33  C   UNL A   1      32.415  30.739  26.535  1.00  0.00     0.023 C 
BRANCH  33  34
ATOM     34  C   UNL A   1      33.231  31.655  27.435  1.00  0.00     0.116 C 
BRANCH  34  35
ATOM     35  N   UNL A   1      32.665  32.996  27.568  1.00  0.00    -0.352 N 
ATOM     36  C   UNL A   1      33.166  34.040  28.314  1.00  0.00     0.251 C 
ATOM     37  H   UNL A   1      31.835  33.172  27.069  1.00  0.00     0.163 HD
ATOM     38  O   UNL A   1      32.576  35.100  28.438  1.00  0.00    -0.269 OA
BRANCH  36  39
ATOM     39  C   UNL A   1      34.450  33.795  28.988  1.00  0.00     0.039 A 
ATOM     40  C   UNL A   1      34.452  33.110  30.203  1.00  0.00     0.014 A 
ATOM     41  C   UNL A   1      35.622  34.003  28.257  1.00  0.00     0.014 A 
ATOM     42  C   UNL A   1      35.645  32.548  30.654  1.00  0.00     0.010 A 
ATOM     43  C   UNL A   1      36.780  33.359  28.661  1.00  0.00     0.010 A 
ATOM     44  C   UNL A   1      36.800  32.621  29.859  1.00  0.00    -0.014 A 
BRANCH  44  45
ATOM     45  C   UNL A   1      38.060  31.944  30.248  1.00  0.00     0.031 A 
ATOM     46  C   UNL A   1      38.997  32.642  31.192  1.00  0.00     0.074 A 
ATOM     47  C   UNL A   1      38.408  30.774  29.677  1.00  0.00     0.049 A 
ATOM     48  N   UNL A   1      40.214  32.321  31.539  1.00  0.00    -0.248 NA
ATOM     49  C   UNL A   1      38.515  33.904  31.781  1.00  0.00     0.031 C 
ATOM     50  C   UNL A   1      37.617  30.033  28.693  1.00  0.00     0.029 A 
ATOM     51  N   UNL A   1      39.538  30.009  29.832  1.00  0.00    -0.354 N 
ATOM     52  C   UNL A   1      40.658  33.361  32.344  1.00  0.00     0.074 A 
ATOM     53  C   UNL A   1      39.602  34.348  32.389  1.00  0.00     0.031 C 
ATOM     54  C   UNL A   1      38.273  28.911  28.352  1.00  0.00     0.029 A 
ATOM     55  C   UNL A   1      39.546  28.870  29.063  1.00  0.00     0.049 A 
ATOM     56  H   UNL A   1      40.275  30.255  30.438  1.00  0.00     0.167 HD
ATOM     57  C   UNL A   1      41.828  33.470  33.013  1.00  0.00     0.037 A 
ATOM     58  C   UNL A   1      40.481  27.909  28.945  1.00  0.00     0.037 A 
ATOM     59  C   UNL A   1      42.839  32.451  33.024  1.00  0.00     0.049 A 
ATOM     60  C   UNL A   1      41.751  28.025  29.741  1.00  0.00     0.074 A 
ATOM     61  C   UNL A   1      44.012  32.409  33.754  1.00  0.00     0.029 A 
ATOM     62  N   UNL A   1      42.786  31.286  32.274  1.00  0.00    -0.354 N 
ATOM     63  N   UNL A   1      42.127  28.977  30.560  1.00  0.00    -0.248 NA
ATOM     64  C   UNL A   1      42.729  26.938  29.594  1.00  0.00     0.031 C 
ATOM     65  C   UNL A   1      44.683  31.226  33.427  1.00  0.00     0.029 A 
ATOM     66  C   UNL A   1      43.913  30.522  32.514  1.00  0.00     0.049 A 
ATOM     67  H   UNL A   1      42.055  31.040  31.663  1.00  0.00     0.167 HD
ATOM     68  C   UNL A   1      43.374  28.598  31.039  1.00  0.00     0.074 A 
ATOM     69  C   UNL A   1      43.683  27.319  30.431  1.00  0.00     0.031 C 
ATOM     70  C   UNL A   1      44.192  29.249  31.900  1.00  0.00     0.037 A 
BRANCH  57  71
ATOM     71  C   UNL A   1      42.055  34.726  33.798  1.00  0.00     0.057 A 
ATOM     72  C   UNL A   1      41.667  34.837  35.141  1.00  0.00     0.134 A 
ATOM     73  C   UNL A   1      42.671  35.836  33.208  1.00  0.00     0.134 A 
ATOM     74  F   UNL A   1      41.055  33.815  35.758  1.00  0.00    -0.206 F 
ATOM     75  C   UNL A   1      41.853  36.020  35.858  1.00  0.00     0.040 A 
ATOM     76  C   UNL A   1      42.887  37.015  33.924  1.00  0.00     0.040 A 
ATOM     77  F   UNL A   1      43.068  35.794  31.928  1.00  0.00    -0.206 F 
ATOM     78  C   UNL A   1      42.470  37.111  35.250  1.00  0.00     0.006 A 
ENDBRANCH  57  71
BRANCH  58  79
ATOM     79  C   UNL A   1      40.244  26.739  28.061  1.00  0.00     0.057 A 
ATOM     80  C   UNL A   1      39.450  25.668  28.487  1.00  0.00     0.134 A 
ATOM     81  C   UNL A   1      40.807  26.656  26.783  1.00  0.00     0.134 A 
ATOM     82  F   UNL A   1      38.898  25.681  29.709  1.00  0.00    -0.206 F 
ATOM     83  C   UNL A   1      39.238  24.548  27.681  1.00  0.00     0.040 A 
ATOM     84  C   UNL A   1      40.588  25.552  25.958  1.00  0.00     0.040 A 
ATOM     85  F   UNL A   1      41.572  27.653  26.314  1.00  0.00    -0.206 F 
ATOM     86  C   UNL A   1      39.805  24.490  26.409  1.00  0.00     0.006 A 
ENDBRANCH  58  79
BRANCH  70  87
ATOM     87  C   UNL A   1      45.490  28.586  32.246  1.00  0.00     0.057 A 
ATOM     88  C   UNL A   1      46.666  28.875  31.546  1.00  0.00     0.134 A 
ATOM     89  C   UNL A   1      45.573  27.703  33.329  1.00  0.00     0.134 A 
ATOM     90  F   UNL A   1      46.645  29.704  30.491  1.00  0.00    -0.206 F 
ATOM     91  C   UNL A   1      47.885  28.299  31.906  1.00  0.00     0.040 A 
ATOM     92  C   UNL A   1      46.790  27.137  33.711  1.00  0.00     0.040 A 
ATOM     93  F   UNL A   1      44.481  27.394  34.042  1.00  0.00    -0.206 F 
ATOM     94  C   UNL A   1      47.949  27.434  32.998  1.00  0.00     0.006 A 
ENDBRANCH  70  87
ENDBRANCH  44  45
ENDBRANCH  36  39
ENDBRANCH  34  35
ENDBRANCH  33  34
ENDBRANCH   1  33
TORSDOF 14
ENDMDL
MODEL 2
REMARK VINA RESULT:     -13.4      2.941      8.815
REMARK SMILES Cc1[nH]c2ccccc2c1[C@H](C(=O)NCCCCNC(=O)c1ccc(-c2c3nc(c(-c4c(F)cccc4F)c4ccc([nH]4)c(-c4c(F)cccc4F)c4nc(c(-c5c(F)cccc5F)c5ccc2[nH]5)C=C4)C=C3)cc1)[NH+]1CCN(C(=O)c2ccco2)CC1
REMARK SMILES IDX 16 1 15 2 14 3 12 4 13 5 11 7 10 8 1 9 2 10 3 11 4 12 9 14
REMARK SMILES IDX 5 15 8 16 6 17 7 18 76 19 77 20 88 21 78 23 87 24 79 25
REMARK SMILES IDX 80 26 81 27 82 28 83 29 86 30 84 31 85 32 17 33 18 34 19 35
REMARK SMILES IDX 20 36 21 38 22 39 23 40 75 41 24 42 74 43 25 44 26 45 27 46
REMARK SMILES IDX 68 47 28 48 73 49 67 50 69 51 29 52 72 53 66 54 65 55 30 57
REMARK SMILES IDX 56 58 39 59 55 60 40 61 43 62 54 63 70 64 41 65 42 66 53 68
REMARK SMILES IDX 71 69 44 70 31 71 32 72 37 73 33 74 34 75 36 76 38 77 35 78
REMARK SMILES IDX 57 79 58 80 63 81 59 82 60 83 62 84 64 85 61 86 45 87 46 88
REMARK SMILES IDX 51 89 47 90 48 91 50 92 52 93 49 94
REMARK H PARENT 14 6 3 13 76 22 19 37 69 56 43 67
REMARK Flexibility Score: inf
ROOT
ATOM      1  C   UNL A   1      37.074  21.846  24.151  1.00  0.00     0.023 C 
ENDROOT
BRANCH   1   2
ATOM      2  C   UNL A   1      36.201  23.072  24.381  1.00  0.00     0.116 C 
BRANCH   2   3
ATOM      3  N   UNL A   1      35.385  23.392  23.228  1.00  0.00    -0.351 N 
ATOM      4  C   UNL A   1      34.026  23.539  23.135  1.00  0.00     0.283 C 
ATOM      5  O   UNL A   1      33.575  23.839  22.023  1.00  0.00    -0.268 OA
ATOM      6  H   UNL A   1      35.880  23.523  22.387  1.00  0.00     0.163 HD
BRANCH   4   7
ATOM      7  C   UNL A   1      33.079  23.368  24.358  1.00  0.00     0.308 C 
BRANCH   7   8
ATOM      8  C   UNL A   1      33.254  22.006  25.035  1.00  0.00     0.047 A 
ATOM      9  C   UNL A   1      34.101  22.825  27.390  1.00  0.00     0.065 C 
ATOM     10  C   UNL A   1      33.654  21.839  26.366  1.00  0.00     0.022 A 
ATOM     11  N   UNL A   1      33.478  20.522  26.699  1.00  0.00    -0.358 N 
ATOM     12  C   UNL A   1      33.051  19.801  25.615  1.00  0.00     0.046 A 
ATOM     13  H   UNL A   1      33.636  20.145  27.595  1.00  0.00     0.166 HD
ATOM     14  C   UNL A   1      33.006  20.676  24.528  1.00  0.00     0.009 A 
ATOM     15  C   UNL A   1      32.707  18.447  25.528  1.00  0.00     0.027 A 
ATOM     16  C   UNL A   1      32.674  20.130  23.269  1.00  0.00     0.011 A 
ATOM     17  C   UNL A   1      32.351  17.947  24.275  1.00  0.00     0.002 A 
ATOM     18  C   UNL A   1      32.357  18.770  23.154  1.00  0.00     0.001 A 
ENDBRANCH   7   8
BRANCH   7  19
ATOM     19  N   UNL A   1      33.055  24.534  25.289  1.00  0.00    -0.318 N 
ATOM     20  C   UNL A   1      34.067  25.592  25.139  1.00  0.00     0.285 C 
ATOM     21  C   UNL A   1      31.733  25.180  25.378  1.00  0.00     0.285 C 
ATOM     22  H   UNL A   1      33.306  24.047  26.151  1.00  0.00     0.349 HD
ATOM     23  C   UNL A   1      33.827  26.636  24.029  1.00  0.00     0.181 C 
ATOM     24  C   UNL A   1      31.389  26.167  24.247  1.00  0.00     0.181 C 
ATOM     25  N   UNL A   1      32.457  27.132  23.955  1.00  0.00    -0.325 N 
ATOM     26  C   UNL A   1      32.251  28.251  23.126  1.00  0.00     0.289 C 
ATOM     27  O   UNL A   1      33.185  28.721  22.472  1.00  0.00    -0.265 OA
BRANCH  26  28
ATOM     28  C   UNL A   1      30.929  28.846  23.098  1.00  0.00     0.191 A 
ATOM     29  C   UNL A   1      30.303  29.762  23.925  1.00  0.00     0.056 A 
ATOM     30  O   UNL A   1      30.101  28.552  22.047  1.00  0.00    -0.459 OA
ATOM     31  C   UNL A   1      29.027  30.014  23.369  1.00  0.00     0.043 A 
ATOM     32  C   UNL A   1      28.952  29.253  22.227  1.00  0.00     0.196 A 
ENDBRANCH  26  28
ENDBRANCH   7  19
ENDBRANCH   4   7
ENDBRANCH   2   3
ENDBRANCH   1   2
BRANCH   1  33
ATOM     33  C   UNL A   1      37.493  21.156  25.438  1.00  0.00     0.023 C 
BRANCH  33  34
ATOM     34  C   UNL A   1      38.975  21.290  25.755  1.00  0.00     0.116 C 
BRANCH  34  35
ATOM     35  N   UNL A   1      39.697  20.021  25.710  1.00  0.00    -0.352 N 
ATOM     36  C   UNL A   1      41.017  19.802  26.037  1.00  0.00     0.251 C 
ATOM     37  H   UNL A   1      39.184  19.235  25.413  1.00  0.00     0.163 HD
ATOM     38  O   UNL A   1      41.562  18.723  25.882  1.00  0.00    -0.269 OA
BRANCH  36  39
ATOM     39  C   UNL A   1      41.754  20.964  26.559  1.00  0.00     0.039 A 
ATOM     40  C   UNL A   1      42.281  21.888  25.656  1.00  0.00     0.014 A 
ATOM     41  C   UNL A   1      41.653  21.243  27.924  1.00  0.00     0.014 A 
ATOM     42  C   UNL A   1      42.636  23.152  26.122  1.00  0.00     0.010 A 
ATOM     43  C   UNL A   1      41.915  22.531  28.360  1.00  0.00     0.010 A 
ATOM     44  C   UNL A   1      42.403  23.498  27.463  1.00  0.00    -0.014 A 
BRANCH  44  45
ATOM     45  C   UNL A   1      42.664  24.865  27.973  1.00  0.00     0.031 A 
ATOM     46  C   UNL A   1      44.058  25.224  28.403  1.00  0.00     0.074 A 
ATOM     47  C   UNL A   1      41.646  25.730  28.153  1.00  0.00     0.049 A 
ATOM     48  N   UNL A   1      44.482  26.290  29.027  1.00  0.00    -0.248 NA
ATOM     49  C   UNL A   1      45.104  24.220  28.143  1.00  0.00     0.031 C 
ATOM     50  C   UNL A   1      40.239  25.472  27.842  1.00  0.00     0.029 A 
ATOM     51  N   UNL A   1      41.642  27.004  28.664  1.00  0.00    -0.354 N 
ATOM     52  C   UNL A   1      45.830  26.063  29.275  1.00  0.00     0.074 A 
ATOM     53  C   UNL A   1      46.138  24.738  28.785  1.00  0.00     0.031 C 
ATOM     54  C   UNL A   1      39.513  26.561  28.144  1.00  0.00     0.029 A 
ATOM     55  C   UNL A   1      40.394  27.580  28.705  1.00  0.00     0.049 A 
ATOM     56  H   UNL A   1      42.456  27.463  28.974  1.00  0.00     0.167 HD
ATOM     57  C   UNL A   1      46.737  26.896  29.832  1.00  0.00     0.037 A 
ATOM     58  C   UNL A   1      40.010  28.790  29.152  1.00  0.00     0.037 A 
ATOM     59  C   UNL A   1      46.440  28.239  30.245  1.00  0.00     0.049 A 
ATOM     60  C   UNL A   1      41.048  29.721  29.718  1.00  0.00     0.074 A 
ATOM     61  C   UNL A   1      47.306  29.207  30.719  1.00  0.00     0.029 A 
ATOM     62  N   UNL A   1      45.174  28.805  30.221  1.00  0.00    -0.354 N 
ATOM     63  N   UNL A   1      42.333  29.524  29.876  1.00  0.00    -0.248 NA
ATOM     64  C   UNL A   1      40.581  31.039  30.170  1.00  0.00     0.031 C 
ATOM     65  C   UNL A   1      46.558  30.353  31.005  1.00  0.00     0.029 A 
ATOM     66  C   UNL A   1      45.233  30.107  30.683  1.00  0.00     0.049 A 
ATOM     67  H   UNL A   1      44.356  28.348  29.919  1.00  0.00     0.167 HD
ATOM     68  C   UNL A   1      42.833  30.695  30.430  1.00  0.00     0.074 A 
ATOM     69  C   UNL A   1      41.713  31.605  30.564  1.00  0.00     0.031 C 
ATOM     70  C   UNL A   1      44.102  30.992  30.799  1.00  0.00     0.037 A 
BRANCH  57  71
ATOM     71  C   UNL A   1      48.132  26.378  30.001  1.00  0.00     0.057 A 
ATOM     72  C   UNL A   1      48.554  25.766  31.190  1.00  0.00     0.134 A 
ATOM     73  C   UNL A   1      49.066  26.489  28.964  1.00  0.00     0.134 A 
ATOM     74  F   UNL A   1      47.713  25.647  32.228  1.00  0.00    -0.206 F 
ATOM     75  C   UNL A   1      49.864  25.314  31.353  1.00  0.00     0.040 A 
ATOM     76  C   UNL A   1      50.371  26.015  29.106  1.00  0.00     0.040 A 
ATOM     77  F   UNL A   1      48.726  27.062  27.800  1.00  0.00    -0.206 F 
ATOM     78  C   UNL A   1      50.775  25.433  30.306  1.00  0.00     0.006 A 
ENDBRANCH  57  71
BRANCH  58  79
ATOM     79  C   UNL A   1      38.588  29.206  29.060  1.00  0.00     0.057 A 
ATOM     80  C   UNL A   1      38.054  29.672  27.854  1.00  0.00     0.134 A 
ATOM     81  C   UNL A   1      37.734  29.158  30.168  1.00  0.00     0.134 A 
ATOM     82  F   UNL A   1      38.828  29.759  26.762  1.00  0.00    -0.206 F 
ATOM     83  C   UNL A   1      36.726  30.093  27.754  1.00  0.00     0.040 A 
ATOM     84  C   UNL A   1      36.398  29.556  30.079  1.00  0.00     0.040 A 
ATOM     85  F   UNL A   1      38.183  28.714  31.351  1.00  0.00    -0.206 F 
ATOM     86  C   UNL A   1      35.893  30.030  28.869  1.00  0.00     0.006 A 
ENDBRANCH  58  79
BRANCH  70  87
ATOM     87  C   UNL A   1      44.350  32.355  31.367  1.00  0.00     0.057 A 
ATOM     88  C   UNL A   1      44.629  33.450  30.542  1.00  0.00     0.134 A 
ATOM     89  C   UNL A   1      44.246  32.584  32.744  1.00  0.00     0.134 A 
ATOM     90  F   UNL A   1      44.753  33.288  29.216  1.00  0.00    -0.206 F 
ATOM     91  C   UNL A   1      44.804  34.730  31.069  1.00  0.00     0.040 A 
ATOM     92  C   UNL A   1      44.399  33.863  33.280  1.00  0.00     0.040 A 
ATOM     93  F   UNL A   1      43.973  31.575  33.585  1.00  0.00    -0.206 F 
ATOM     94  C   UNL A   1      44.680  34.939  32.442  1.00  0.00     0.006 A 
ENDBRANCH  70  87
ENDBRANCH  44  45
ENDBRANCH  36  39
ENDBRANCH  34  35
ENDBRANCH  33  34
ENDBRANCH   1  33
TORSDOF 14
ENDMDL
MODEL 3
REMARK VINA RESULT:     -13.4      1.892      6.036
REMARK SMILES Cc1[nH]c2ccccc2c1[C@H](C(=O)NCCCCNC(=O)c1ccc(-c2c3nc(c(-c4c(F)cccc4F)c4ccc([nH]4)c(-c4c(F)cccc4F)c4nc(c(-c5c(F)cccc5F)c5ccc2[nH]5)C=C4)C=C3)cc1)[NH+]1CCN(C(=O)c2ccco2)CC1
REMARK SMILES IDX 16 1 15 2 14 3 12 4 13 5 11 7 10 8 1 9 2 10 3 11 4 12 9 14
REMARK SMILES IDX 5 15 8 16 6 17 7 18 76 19 77 20 88 21 78 23 87 24 79 25
REMARK SMILES IDX 80 26 81 27 82 28 83 29 86 30 84 31 85 32 17 33 18 34 19 35
REMARK SMILES IDX 20 36 21 38 22 39 23 40 75 41 24 42 74 43 25 44 26 45 27 46
REMARK SMILES IDX 68 47 28 48 73 49 67 50 69 51 29 52 72 53 66 54 65 55 30 57
REMARK SMILES IDX 56 58 39 59 55 60 40 61 43 62 54 63 70 64 41 65 42 66 53 68
REMARK SMILES IDX 71 69 44 70 31 71 32 72 37 73 33 74 34 75 36 76 38 77 35 78
REMARK SMILES IDX 57 79 58 80 63 81 59 82 60 83 62 84 64 85 61 86 45 87 46 88
REMARK SMILES IDX 51 89 47 90 48 91 50 92 52 93 49 94
REMARK H PARENT 14 6 3 13 76 22 19 37 69 56 43 67
REMARK Flexibility Score: inf
ROOT
ATOM      1  C   UNL A   1      31.405  30.369  25.832  1.00  0.00     0.023 C 
ENDROOT
BRANCH   1   2
ATOM      2  C   UNL A   1      32.227  29.147  26.220  1.00  0.00     0.116 C 
BRANCH   2   3
ATOM      3  N   UNL A   1      31.398  27.996  26.513  1.00  0.00    -0.351 N 
ATOM      4  C   UNL A   1      31.065  26.935  25.712  1.00  0.00     0.283 C 
ATOM      5  O   UNL A   1      30.349  26.062  26.218  1.00  0.00    -0.268 OA
ATOM      6  H   UNL A   1      31.017  27.972  27.420  1.00  0.00     0.163 HD
BRANCH   4   7
ATOM      7  C   UNL A   1      31.570  26.799  24.246  1.00  0.00     0.308 C 
BRANCH   7   8
ATOM      8  C   UNL A   1      31.277  28.054  23.419  1.00  0.00     0.047 A 
ATOM      9  C   UNL A   1      33.747  28.701  22.769  1.00  0.00     0.065 C 
ATOM     10  C   UNL A   1      32.259  28.807  22.765  1.00  0.00     0.022 A 
ATOM     11  N   UNL A   1      31.629  29.702  21.942  1.00  0.00    -0.358 N 
ATOM     12  C   UNL A   1      30.270  29.620  22.089  1.00  0.00     0.046 A 
ATOM     13  H   UNL A   1      32.090  30.321  21.329  1.00  0.00     0.166 HD
ATOM     14  C   UNL A   1      30.017  28.676  23.086  1.00  0.00     0.009 A 
ATOM     15  C   UNL A   1      29.259  30.313  21.411  1.00  0.00     0.027 A 
ATOM     16  C   UNL A   1      28.673  28.485  23.473  1.00  0.00     0.011 A 
ATOM     17  C   UNL A   1      27.939  30.076  21.796  1.00  0.00     0.002 A 
ATOM     18  C   UNL A   1      27.649  29.192  22.829  1.00  0.00     0.001 A 
ENDBRANCH   7   8
BRANCH   7  19
ATOM     19  N   UNL A   1      32.960  26.272  24.118  1.00  0.00    -0.318 N 
ATOM     20  C   UNL A   1      33.776  26.099  25.331  1.00  0.00     0.285 C 
ATOM     21  C   UNL A   1      33.038  25.025  23.336  1.00  0.00     0.285 C 
ATOM     22  H   UNL A   1      33.380  27.063  23.626  1.00  0.00     0.349 HD
ATOM     23  C   UNL A   1      33.512  24.837  26.176  1.00  0.00     0.181 C 
ATOM     24  C   UNL A   1      32.694  23.731  24.098  1.00  0.00     0.181 C 
ATOM     25  N   UNL A   1      33.365  23.611  25.399  1.00  0.00    -0.325 N 
ATOM     26  C   UNL A   1      33.364  22.411  26.135  1.00  0.00     0.289 C 
ATOM     27  O   UNL A   1      33.428  22.437  27.367  1.00  0.00    -0.265 OA
BRANCH  26  28
ATOM     28  C   UNL A   1      33.325  21.161  25.402  1.00  0.00     0.191 A 
ATOM     29  C   UNL A   1      34.304  20.437  24.743  1.00  0.00     0.056 A 
ATOM     30  O   UNL A   1      32.148  20.460  25.365  1.00  0.00    -0.459 OA
ATOM     31  C   UNL A   1      33.688  19.259  24.258  1.00  0.00     0.043 A 
ATOM     32  C   UNL A   1      32.376  19.322  24.662  1.00  0.00     0.196 A 
ENDBRANCH  26  28
ENDBRANCH   7  19
ENDBRANCH   4   7
ENDBRANCH   2   3
ENDBRANCH   1   2
BRANCH   1  33
ATOM     33  C   UNL A   1      31.448  31.476  26.870  1.00  0.00     0.023 C 
BRANCH  33  34
ATOM     34  C   UNL A   1      32.376  32.626  26.507  1.00  0.00     0.116 C 
BRANCH  34  35
ATOM     35  N   UNL A   1      32.153  33.828  27.308  1.00  0.00    -0.352 N 
ATOM     36  C   UNL A   1      32.947  34.309  28.327  1.00  0.00     0.251 C 
ATOM     37  H   UNL A   1      31.348  34.353  27.096  1.00  0.00     0.163 HD
ATOM     38  O   UNL A   1      32.635  35.274  29.003  1.00  0.00    -0.269 OA
BRANCH  36  39
ATOM     39  C   UNL A   1      34.191  33.566  28.581  1.00  0.00     0.039 A 
ATOM     40  C   UNL A   1      35.409  34.236  28.474  1.00  0.00     0.014 A 
ATOM     41  C   UNL A   1      34.091  32.311  29.187  1.00  0.00     0.014 A 
ATOM     42  C   UNL A   1      36.538  33.673  29.065  1.00  0.00     0.010 A 
ATOM     43  C   UNL A   1      35.194  31.807  29.855  1.00  0.00     0.010 A 
ATOM     44  C   UNL A   1      36.425  32.485  29.805  1.00  0.00    -0.014 A 
BRANCH  44  45
ATOM     45  C   UNL A   1      37.577  31.911  30.541  1.00  0.00     0.031 A 
ATOM     46  C   UNL A   1      38.417  30.864  29.867  1.00  0.00     0.074 A 
ATOM     47  C   UNL A   1      37.795  32.241  31.829  1.00  0.00     0.049 A 
ATOM     48  N   UNL A   1      39.360  30.112  30.368  1.00  0.00    -0.248 NA
ATOM     49  C   UNL A   1      38.115  30.590  28.452  1.00  0.00     0.031 C 
ATOM     50  C   UNL A   1      37.004  33.191  32.614  1.00  0.00     0.029 A 
ATOM     51  N   UNL A   1      38.745  31.794  32.713  1.00  0.00    -0.354 N 
ATOM     52  C   UNL A   1      39.727  29.247  29.345  1.00  0.00     0.074 A 
ATOM     53  C   UNL A   1      38.869  29.530  28.216  1.00  0.00     0.031 C 
ATOM     54  C   UNL A   1      37.516  33.273  33.854  1.00  0.00     0.029 A 
ATOM     55  C   UNL A   1      38.646  32.356  33.963  1.00  0.00     0.049 A 
ATOM     56  H   UNL A   1      39.432  31.130  32.475  1.00  0.00     0.167 HD
ATOM     57  C   UNL A   1      40.713  28.321  29.336  1.00  0.00     0.037 A 
ATOM     58  C   UNL A   1      39.383  32.148  35.071  1.00  0.00     0.037 A 
ATOM     59  C   UNL A   1      41.610  28.101  30.435  1.00  0.00     0.049 A 
ATOM     60  C   UNL A   1      40.509  31.152  35.020  1.00  0.00     0.074 A 
ATOM     61  C   UNL A   1      42.712  27.268  30.493  1.00  0.00     0.029 A 
ATOM     62  N   UNL A   1      41.511  28.729  31.667  1.00  0.00    -0.354 N 
ATOM     63  N   UNL A   1      40.897  30.396  34.022  1.00  0.00    -0.248 NA
ATOM     64  C   UNL A   1      41.298  30.979  36.248  1.00  0.00     0.031 C 
ATOM     65  C   UNL A   1      43.268  27.375  31.772  1.00  0.00     0.029 A 
ATOM     66  C   UNL A   1      42.527  28.294  32.499  1.00  0.00     0.049 A 
ATOM     67  H   UNL A   1      40.822  29.388  31.912  1.00  0.00     0.167 HD
ATOM     68  C   UNL A   1      41.982  29.669  34.494  1.00  0.00     0.074 A 
ATOM     69  C   UNL A   1      42.202  30.089  35.863  1.00  0.00     0.031 C 
ATOM     70  C   UNL A   1      42.726  28.735  33.856  1.00  0.00     0.037 A 
BRANCH  57  71
ATOM     71  C   UNL A   1      40.875  27.504  28.092  1.00  0.00     0.057 A 
ATOM     72  C   UNL A   1      41.676  27.934  27.024  1.00  0.00     0.134 A 
ATOM     73  C   UNL A   1      40.227  26.270  27.957  1.00  0.00     0.134 A 
ATOM     74  F   UNL A   1      42.309  29.116  27.083  1.00  0.00    -0.206 F 
ATOM     75  C   UNL A   1      41.799  27.183  25.855  1.00  0.00     0.040 A 
ATOM     76  C   UNL A   1      40.364  25.497  26.803  1.00  0.00     0.040 A 
ATOM     77  F   UNL A   1      39.448  25.800  28.942  1.00  0.00    -0.206 F 
ATOM     78  C   UNL A   1      41.146  25.957  25.745  1.00  0.00     0.006 A 
ENDBRANCH  57  71
BRANCH  58  79
ATOM     79  C   UNL A   1      39.101  32.911  36.312  1.00  0.00     0.057 A 
ATOM     80  C   UNL A   1      38.293  32.370  37.319  1.00  0.00     0.134 A 
ATOM     81  C   UNL A   1      39.620  34.194  36.522  1.00  0.00     0.134 A 
ATOM     82  F   UNL A   1      37.751  31.153  37.168  1.00  0.00    -0.206 F 
ATOM     83  C   UNL A   1      37.995  33.083  38.482  1.00  0.00     0.040 A 
ATOM     84  C   UNL A   1      39.348  34.911  37.689  1.00  0.00     0.040 A 
ATOM     85  F   UNL A   1      40.407  34.765  35.599  1.00  0.00    -0.206 F 
ATOM     86  C   UNL A   1      38.528  34.357  38.671  1.00  0.00     0.006 A 
ENDBRANCH  58  79
BRANCH  70  87
ATOM     87  C   UNL A   1      43.854  28.116  34.622  1.00  0.00     0.057 A 
ATOM     88  C   UNL A   1      43.694  26.907  35.307  1.00  0.00     0.134 A 
ATOM     89  C   UNL A   1      45.125  28.703  34.620  1.00  0.00     0.134 A 
ATOM     90  F   UNL A   1      42.496  26.305  35.354  1.00  0.00    -0.206 F 
ATOM     91  C   UNL A   1      44.762  26.303  35.974  1.00  0.00     0.040 A 
ATOM     92  C   UNL A   1      46.204  28.099  35.266  1.00  0.00     0.040 A 
ATOM     93  F   UNL A   1      45.341  29.858  33.974  1.00  0.00    -0.206 F 
ATOM     94  C   UNL A   1      46.022  26.897  35.946  1.00  0.00     0.006 A 
ENDBRANCH  70  87
ENDBRANCH  44  45
ENDBRANCH  36  39
ENDBRANCH  34  35
ENDBRANCH  33  34
ENDBRANCH   1  33
TORSDOF 14
ENDMDL
