MODEL 1
REMARK VINA RESULT:      -9.4      0.000      0.000
REMARK SMILES O=C(NCCCCNC(=O)[C@@H]1C[C@H]1c1cccc(F)c1F)c1ccc(-c2c3nc(c(-c4c(F)cccc4F)c4ccc([nH]4)c(-c4c(F)cccc4F)c4nc(c(-c5c(F)cccc5F)c5ccc2[nH]5)C=C4)C=C3)cc1
REMARK SMILES IDX 5 1 4 2 3 3 1 4 2 5 22 7 23 8 75 9 24 10 74 11 25 12 26 13
REMARK SMILES IDX 27 14 68 15 28 16 73 17 67 18 69 19 29 20 72 21 66 22 65 23
REMARK SMILES IDX 30 25 56 26 39 27 55 28 40 29 43 30 54 31 70 32 41 33 42 34
REMARK SMILES IDX 53 36 71 37 44 38 31 39 32 40 37 41 33 42 34 43 36 44 38 45
REMARK SMILES IDX 35 46 57 47 58 48 63 49 59 50 60 51 62 52 64 53 61 54 45 55
REMARK SMILES IDX 46 56 51 57 47 58 48 59 50 60 52 61 49 62 6 63 7 64 8 65
REMARK SMILES IDX 9 66 10 68 11 69 12 70 13 71 14 72 15 73 20 74 16 75 18 76
REMARK SMILES IDX 21 77 17 78 19 79
REMARK H PARENT 3 6 69 24 43 35 8 67
REMARK Flexibility Score: inf
ROOT
ATOM      1  C   UNL A   1      44.765  20.601  24.235  1.00  0.00     0.023 C 
ENDROOT
BRANCH   1   2
ATOM      2  C   UNL A   1      44.385  19.675  25.383  1.00  0.00     0.116 C 
BRANCH   2   3
ATOM      3  N   UNL A   1      43.015  19.187  25.302  1.00  0.00    -0.352 N 
ATOM      4  O   UNL A   1      40.803  19.106  25.746  1.00  0.00    -0.269 OA
ATOM      5  C   UNL A   1      41.858  19.730  25.812  1.00  0.00     0.251 C 
ATOM      6  H   UNL A   1      42.900  18.342  24.810  1.00  0.00     0.163 HD
BRANCH   5   7
ATOM      7  C   UNL A   1      41.893  21.052  26.478  1.00  0.00     0.039 A 
ATOM      8  C   UNL A   1      41.949  22.224  25.727  1.00  0.00     0.014 A 
ATOM      9  C   UNL A   1      41.910  21.114  27.875  1.00  0.00     0.014 A 
ATOM     10  C   UNL A   1      42.235  23.429  26.356  1.00  0.00     0.010 A 
ATOM     11  C   UNL A   1      42.080  22.348  28.512  1.00  0.00     0.010 A 
ATOM     12  C   UNL A   1      42.302  23.510  27.756  1.00  0.00    -0.014 A 
BRANCH  12  13
ATOM     13  C   UNL A   1      42.589  24.825  28.392  1.00  0.00     0.031 A 
ATOM     14  C   UNL A   1      43.987  25.203  28.812  1.00  0.00     0.074 A 
ATOM     15  C   UNL A   1      41.582  25.707  28.543  1.00  0.00     0.049 A 
ATOM     16  N   UNL A   1      44.415  26.329  29.328  1.00  0.00    -0.248 NA
ATOM     17  C   UNL A   1      45.038  24.190  28.639  1.00  0.00     0.031 C 
ATOM     18  C   UNL A   1      40.184  25.457  28.185  1.00  0.00     0.029 A 
ATOM     19  N   UNL A   1      41.579  26.996  29.011  1.00  0.00    -0.354 N 
ATOM     20  C   UNL A   1      45.774  26.152  29.563  1.00  0.00     0.074 A 
ATOM     21  C   UNL A   1      46.093  24.799  29.161  1.00  0.00     0.031 C 
ATOM     22  C   UNL A   1      39.471  26.574  28.387  1.00  0.00     0.029 A 
ATOM     23  C   UNL A   1      40.343  27.595  28.956  1.00  0.00     0.049 A 
ATOM     24  H   UNL A   1      42.383  27.449  29.353  1.00  0.00     0.167 HD
ATOM     25  C   UNL A   1      46.673  27.038  30.058  1.00  0.00     0.037 A 
ATOM     26  C   UNL A   1      39.948  28.825  29.332  1.00  0.00     0.037 A 
ATOM     27  C   UNL A   1      46.353  28.390  30.443  1.00  0.00     0.049 A 
ATOM     28  C   UNL A   1      40.960  29.773  29.904  1.00  0.00     0.074 A 
ATOM     29  C   UNL A   1      47.203  29.376  30.917  1.00  0.00     0.029 A 
ATOM     30  N   UNL A   1      45.082  28.946  30.407  1.00  0.00    -0.354 N 
ATOM     31  N   UNL A   1      42.249  29.604  30.078  1.00  0.00    -0.248 NA
ATOM     32  C   UNL A   1      40.462  31.088  30.329  1.00  0.00     0.031 C 
ATOM     33  C   UNL A   1      46.439  30.505  31.225  1.00  0.00     0.029 A 
ATOM     34  C   UNL A   1      45.122  30.250  30.877  1.00  0.00     0.049 A 
ATOM     35  H   UNL A   1      44.272  28.482  30.094  1.00  0.00     0.167 HD
ATOM     36  C   UNL A   1      42.721  30.801  30.601  1.00  0.00     0.074 A 
ATOM     37  C   UNL A   1      41.583  31.690  30.700  1.00  0.00     0.031 C 
ATOM     38  C   UNL A   1      43.985  31.133  30.963  1.00  0.00     0.037 A 
BRANCH  25  39
ATOM     39  C   UNL A   1      48.090  26.567  30.241  1.00  0.00     0.057 A 
ATOM     40  C   UNL A   1      49.093  26.830  29.298  1.00  0.00     0.134 A 
ATOM     41  C   UNL A   1      48.466  25.877  31.402  1.00  0.00     0.134 A 
ATOM     42  F   UNL A   1      48.805  27.479  28.161  1.00  0.00    -0.206 F 
ATOM     43  C   UNL A   1      50.409  26.399  29.490  1.00  0.00     0.040 A 
ATOM     44  C   UNL A   1      49.783  25.468  31.619  1.00  0.00     0.040 A 
ATOM     45  F   UNL A   1      47.560  25.600  32.353  1.00  0.00    -0.206 F 
ATOM     46  C   UNL A   1      50.758  25.723  30.657  1.00  0.00     0.006 A 
ENDBRANCH  25  39
BRANCH  26  47
ATOM     47  C   UNL A   1      38.528  29.228  29.176  1.00  0.00     0.057 A 
ATOM     48  C   UNL A   1      38.031  29.671  27.945  1.00  0.00     0.134 A 
ATOM     49  C   UNL A   1      37.635  29.188  30.253  1.00  0.00     0.134 A 
ATOM     50  F   UNL A   1      38.840  29.747  26.878  1.00  0.00    -0.206 F 
ATOM     51  C   UNL A   1      36.707  30.083  27.797  1.00  0.00     0.040 A 
ATOM     52  C   UNL A   1      36.299  29.565  30.112  1.00  0.00     0.040 A 
ATOM     53  F   UNL A   1      38.045  28.763  31.458  1.00  0.00    -0.206 F 
ATOM     54  C   UNL A   1      35.834  30.025  28.882  1.00  0.00     0.006 A 
ENDBRANCH  26  47
BRANCH  38  55
ATOM     55  C   UNL A   1      44.212  32.536  31.446  1.00  0.00     0.057 A 
ATOM     56  C   UNL A   1      44.141  32.883  32.802  1.00  0.00     0.134 A 
ATOM     57  C   UNL A   1      44.516  33.557  30.534  1.00  0.00     0.134 A 
ATOM     58  F   UNL A   1      43.841  31.958  33.726  1.00  0.00    -0.206 F 
ATOM     59  C   UNL A   1      44.329  34.199  33.230  1.00  0.00     0.040 A 
ATOM     60  C   UNL A   1      44.739  34.870  30.954  1.00  0.00     0.040 A 
ATOM     61  F   UNL A   1      44.608  33.295  29.223  1.00  0.00    -0.206 F 
ATOM     62  C   UNL A   1      44.635  35.195  32.304  1.00  0.00     0.006 A 
ENDBRANCH  38  55
ENDBRANCH  12  13
ENDBRANCH   5   7
ENDBRANCH   2   3
ENDBRANCH   1   2
BRANCH   1  63
ATOM     63  C   UNL A   1      45.992  21.476  24.481  1.00  0.00     0.023 C 
BRANCH  63  64
ATOM     64  C   UNL A   1      45.702  22.833  25.117  1.00  0.00     0.116 C 
BRANCH  64  65
ATOM     65  N   UNL A   1      46.878  23.418  25.733  1.00  0.00    -0.356 N 
ATOM     66  C   UNL A   1      47.214  24.740  25.825  1.00  0.00     0.223 C 
ATOM     67  H   UNL A   1      47.515  22.784  26.134  1.00  0.00     0.163 HD
ATOM     68  O   UNL A   1      48.245  25.084  26.394  1.00  0.00    -0.275 OA
BRANCH  66  69
ATOM     69  C   UNL A   1      46.298  25.735  25.222  1.00  0.00     0.086 C 
ATOM     70  C   UNL A   1      46.840  27.051  24.732  1.00  0.00     0.023 C 
ATOM     71  C   UNL A   1      45.965  27.023  25.960  1.00  0.00     0.035 C 
BRANCH  71  72
ATOM     72  C   UNL A   1      44.536  27.516  25.920  1.00  0.00    -0.005 A 
ATOM     73  C   UNL A   1      43.540  26.767  25.262  1.00  0.00     0.007 A 
ATOM     74  C   UNL A   1      44.132  28.708  26.540  1.00  0.00     0.162 A 
ATOM     75  C   UNL A   1      42.209  27.195  25.215  1.00  0.00     0.004 A 
ATOM     76  C   UNL A   1      42.808  29.136  26.495  1.00  0.00     0.159 A 
ATOM     77  F   UNL A   1      45.038  29.458  27.186  1.00  0.00    -0.203 F 
ATOM     78  C   UNL A   1      41.842  28.386  25.835  1.00  0.00     0.042 A 
ATOM     79  F   UNL A   1      42.452  30.282  27.091  1.00  0.00    -0.204 F 
ENDBRANCH  71  72
ENDBRANCH  66  69
ENDBRANCH  64  65
ENDBRANCH  63  64
ENDBRANCH   1  63
TORSDOF 12
ENDMDL
MODEL 2
REMARK VINA RESULT:      -9.2      0.414      6.561
REMARK SMILES O=C(NCCCCNC(=O)[C@@H]1C[C@H]1c1cccc(F)c1F)c1ccc(-c2c3nc(c(-c4c(F)cccc4F)c4ccc([nH]4)c(-c4c(F)cccc4F)c4nc(c(-c5c(F)cccc5F)c5ccc2[nH]5)C=C4)C=C3)cc1
REMARK SMILES IDX 5 1 4 2 3 3 1 4 2 5 22 7 23 8 75 9 24 10 74 11 25 12 26 13
REMARK SMILES IDX 27 14 68 15 28 16 73 17 67 18 69 19 29 20 72 21 66 22 65 23
REMARK SMILES IDX 30 25 56 26 39 27 55 28 40 29 43 30 54 31 70 32 41 33 42 34
REMARK SMILES IDX 53 36 71 37 44 38 31 39 32 40 37 41 33 42 34 43 36 44 38 45
REMARK SMILES IDX 35 46 57 47 58 48 63 49 59 50 60 51 62 52 64 53 61 54 45 55
REMARK SMILES IDX 46 56 51 57 47 58 48 59 50 60 52 61 49 62 6 63 7 64 8 65
REMARK SMILES IDX 9 66 10 68 11 69 12 70 13 71 14 72 15 73 20 74 16 75 18 76
REMARK SMILES IDX 21 77 17 78 19 79
REMARK H PARENT 3 6 69 24 43 35 8 67
REMARK Flexibility Score: inf
ROOT
ATOM      1  C   UNL A   1      44.752  20.603  24.233  1.00  0.00     0.023 C 
ENDROOT
BRANCH   1   2
ATOM      2  C   UNL A   1      44.393  19.665  25.378  1.00  0.00     0.116 C 
BRANCH   2   3
ATOM      3  N   UNL A   1      43.022  19.178  25.317  1.00  0.00    -0.352 N 
ATOM      4  O   UNL A   1      40.812  19.110  25.776  1.00  0.00    -0.269 OA
ATOM      5  C   UNL A   1      41.868  19.733  25.821  1.00  0.00     0.251 C 
ATOM      6  H   UNL A   1      42.903  18.323  24.843  1.00  0.00     0.163 HD
BRANCH   5   7
ATOM      7  C   UNL A   1      41.910  21.069  26.459  1.00  0.00     0.039 A 
ATOM      8  C   UNL A   1      41.958  22.225  25.682  1.00  0.00     0.014 A 
ATOM      9  C   UNL A   1      41.940  21.162  27.854  1.00  0.00     0.014 A 
ATOM     10  C   UNL A   1      42.250  23.444  26.283  1.00  0.00     0.010 A 
ATOM     11  C   UNL A   1      42.116  22.409  28.463  1.00  0.00     0.010 A 
ATOM     12  C   UNL A   1      42.331  23.555  27.680  1.00  0.00    -0.014 A 
BRANCH  12  13
ATOM     13  C   UNL A   1      42.623  24.882  28.286  1.00  0.00     0.031 A 
ATOM     14  C   UNL A   1      41.535  25.904  28.497  1.00  0.00     0.074 A 
ATOM     15  C   UNL A   1      43.879  25.146  28.698  1.00  0.00     0.049 A 
ATOM     16  N   UNL A   1      41.612  27.084  29.060  1.00  0.00    -0.248 NA
ATOM     17  C   UNL A   1      40.191  25.564  28.007  1.00  0.00     0.031 C 
ATOM     18  C   UNL A   1      45.022  24.244  28.543  1.00  0.00     0.029 A 
ATOM     19  N   UNL A   1      44.400  26.232  29.352  1.00  0.00    -0.354 N 
ATOM     20  C   UNL A   1      40.339  27.636  28.972  1.00  0.00     0.074 A 
ATOM     21  C   UNL A   1      39.515  26.673  28.273  1.00  0.00     0.031 C 
ATOM     22  C   UNL A   1      46.094  24.784  29.139  1.00  0.00     0.029 A 
ATOM     23  C   UNL A   1      45.735  26.100  29.655  1.00  0.00     0.049 A 
ATOM     24  H   UNL A   1      43.871  27.029  29.583  1.00  0.00     0.167 HD
ATOM     25  C   UNL A   1      39.895  28.829  29.439  1.00  0.00     0.037 A 
ATOM     26  C   UNL A   1      46.582  26.946  30.268  1.00  0.00     0.037 A 
ATOM     27  C   UNL A   1      40.716  29.779  30.148  1.00  0.00     0.049 A 
ATOM     28  C   UNL A   1      46.069  28.272  30.747  1.00  0.00     0.074 A 
ATOM     29  C   UNL A   1      40.349  30.997  30.696  1.00  0.00     0.029 A 
ATOM     30  N   UNL A   1      42.072  29.623  30.401  1.00  0.00    -0.354 N 
ATOM     31  N   UNL A   1      44.853  28.758  30.695  1.00  0.00    -0.248 NA
ATOM     32  C   UNL A   1      47.049  29.167  31.376  1.00  0.00     0.031 C 
ATOM     33  C   UNL A   1      41.491  31.604  31.225  1.00  0.00     0.029 A 
ATOM     34  C   UNL A   1      42.559  30.735  31.071  1.00  0.00     0.049 A 
ATOM     35  H   UNL A   1      42.608  28.839  30.142  1.00  0.00     0.167 HD
ATOM     36  C   UNL A   1      44.914  30.000  31.313  1.00  0.00     0.074 A 
ATOM     37  C   UNL A   1      46.284  30.184  31.745  1.00  0.00     0.031 C 
ATOM     38  C   UNL A   1      43.923  30.905  31.507  1.00  0.00     0.037 A 
BRANCH  25  39
ATOM     39  C   UNL A   1      38.460  29.193  29.174  1.00  0.00     0.057 A 
ATOM     40  C   UNL A   1      37.479  29.144  30.174  1.00  0.00     0.134 A 
ATOM     41  C   UNL A   1      38.063  29.645  27.908  1.00  0.00     0.134 A 
ATOM     42  F   UNL A   1      37.786  28.715  31.407  1.00  0.00    -0.206 F 
ATOM     43  C   UNL A   1      36.152  29.501  29.916  1.00  0.00     0.040 A 
ATOM     44  C   UNL A   1      36.747  30.033  27.646  1.00  0.00     0.040 A 
ATOM     45  F   UNL A   1      38.951  29.729  26.905  1.00  0.00    -0.206 F 
ATOM     46  C   UNL A   1      35.786  29.954  28.652  1.00  0.00     0.006 A 
ENDBRANCH  25  39
BRANCH  26  47
ATOM     47  C   UNL A   1      48.003  26.561  30.464  1.00  0.00     0.057 A 
ATOM     48  C   UNL A   1      48.419  25.890  31.619  1.00  0.00     0.134 A 
ATOM     49  C   UNL A   1      48.979  26.862  29.507  1.00  0.00     0.134 A 
ATOM     50  F   UNL A   1      47.534  25.586  32.580  1.00  0.00    -0.206 F 
ATOM     51  C   UNL A   1      49.756  25.553  31.826  1.00  0.00     0.040 A 
ATOM     52  C   UNL A   1      50.315  26.502  29.685  1.00  0.00     0.040 A 
ATOM     53  F   UNL A   1      48.644  27.495  28.372  1.00  0.00    -0.206 F 
ATOM     54  C   UNL A   1      50.709  25.855  30.854  1.00  0.00     0.006 A 
ENDBRANCH  26  47
BRANCH  38  55
ATOM     55  C   UNL A   1      44.274  32.150  32.270  1.00  0.00     0.057 A 
ATOM     56  C   UNL A   1      44.711  33.320  31.634  1.00  0.00     0.134 A 
ATOM     57  C   UNL A   1      44.162  32.179  33.667  1.00  0.00     0.134 A 
ATOM     58  F   UNL A   1      44.854  33.358  30.301  1.00  0.00    -0.206 F 
ATOM     59  C   UNL A   1      45.058  34.461  32.362  1.00  0.00     0.040 A 
ATOM     60  C   UNL A   1      44.473  33.324  34.402  1.00  0.00     0.040 A 
ATOM     61  F   UNL A   1      43.741  31.098  34.339  1.00  0.00    -0.206 F 
ATOM     62  C   UNL A   1      44.933  34.465  33.751  1.00  0.00     0.006 A 
ENDBRANCH  38  55
ENDBRANCH  12  13
ENDBRANCH   5   7
ENDBRANCH   2   3
ENDBRANCH   1   2
BRANCH   1  63
ATOM     63  C   UNL A   1      45.981  21.478  24.468  1.00  0.00     0.023 C 
BRANCH  63  64
ATOM     64  C   UNL A   1      45.696  22.840  25.096  1.00  0.00     0.116 C 
BRANCH  64  65
ATOM     65  N   UNL A   1      46.871  23.419  25.719  1.00  0.00    -0.356 N 
ATOM     66  C   UNL A   1      47.207  24.740  25.822  1.00  0.00     0.223 C 
ATOM     67  H   UNL A   1      47.506  22.781  26.118  1.00  0.00     0.163 HD
ATOM     68  O   UNL A   1      48.237  25.078  26.398  1.00  0.00    -0.275 OA
BRANCH  66  69
ATOM     69  C   UNL A   1      46.295  25.740  25.225  1.00  0.00     0.086 C 
ATOM     70  C   UNL A   1      46.843  27.051  24.728  1.00  0.00     0.023 C 
ATOM     71  C   UNL A   1      45.976  27.032  25.963  1.00  0.00     0.035 C 
BRANCH  71  72
ATOM     72  C   UNL A   1      44.550  27.535  25.931  1.00  0.00    -0.005 A 
ATOM     73  C   UNL A   1      43.568  26.854  25.185  1.00  0.00     0.007 A 
ATOM     74  C   UNL A   1      44.136  28.669  26.646  1.00  0.00     0.162 A 
ATOM     75  C   UNL A   1      42.240  27.292  25.144  1.00  0.00     0.004 A 
ATOM     76  C   UNL A   1      42.815  29.108  26.607  1.00  0.00     0.159 A 
ATOM     77  F   UNL A   1      45.028  29.353  27.378  1.00  0.00    -0.203 F 
ATOM     78  C   UNL A   1      41.862  28.426  25.859  1.00  0.00     0.042 A 
ATOM     79  F   UNL A   1      42.448  30.199  27.294  1.00  0.00    -0.204 F 
ENDBRANCH  71  72
ENDBRANCH  66  69
ENDBRANCH  64  65
ENDBRANCH  63  64
ENDBRANCH   1  63
TORSDOF 12
ENDMDL
MODEL 3
REMARK VINA RESULT:      -8.8      4.786     10.567
REMARK SMILES O=C(NCCCCNC(=O)[C@@H]1C[C@H]1c1cccc(F)c1F)c1ccc(-c2c3nc(c(-c4c(F)cccc4F)c4ccc([nH]4)c(-c4c(F)cccc4F)c4nc(c(-c5c(F)cccc5F)c5ccc2[nH]5)C=C4)C=C3)cc1
REMARK SMILES IDX 5 1 4 2 3 3 1 4 2 5 22 7 23 8 75 9 24 10 74 11 25 12 26 13
REMARK SMILES IDX 27 14 68 15 28 16 73 17 67 18 69 19 29 20 72 21 66 22 65 23
REMARK SMILES IDX 30 25 56 26 39 27 55 28 40 29 43 30 54 31 70 32 41 33 42 34
REMARK SMILES IDX 53 36 71 37 44 38 31 39 32 40 37 41 33 42 34 43 36 44 38 45
REMARK SMILES IDX 35 46 57 47 58 48 63 49 59 50 60 51 62 52 64 53 61 54 45 55
REMARK SMILES IDX 46 56 51 57 47 58 48 59 50 60 52 61 49 62 6 63 7 64 8 65
REMARK SMILES IDX 9 66 10 68 11 69 12 70 13 71 14 72 15 73 20 74 16 75 18 76
REMARK SMILES IDX 21 77 17 78 19 79
REMARK H PARENT 3 6 69 24 43 35 8 67
REMARK Flexibility Score: inf
ROOT
ATOM      1  C   UNL A   1      34.668  34.457  27.775  1.00  0.00     0.023 C 
ENDROOT
BRANCH   1   2
ATOM      2  C   UNL A   1      34.424  33.213  28.620  1.00  0.00     0.116 C 
BRANCH   2   3
ATOM      3  N   UNL A   1      33.949  32.073  27.845  1.00  0.00    -0.352 N 
ATOM      4  O   UNL A   1      34.043  30.055  26.837  1.00  0.00    -0.269 OA
ATOM      5  C   UNL A   1      34.544  30.852  27.625  1.00  0.00     0.251 C 
ATOM      6  H   UNL A   1      33.072  32.196  27.416  1.00  0.00     0.163 HD
BRANCH   5   7
ATOM      7  C   UNL A   1      35.813  30.515  28.308  1.00  0.00     0.039 A 
ATOM      8  C   UNL A   1      37.015  31.085  27.893  1.00  0.00     0.014 A 
ATOM      9  C   UNL A   1      35.804  29.586  29.353  1.00  0.00     0.014 A 
ATOM     10  C   UNL A   1      38.217  30.575  28.368  1.00  0.00     0.010 A 
ATOM     11  C   UNL A   1      37.013  29.160  29.913  1.00  0.00     0.010 A 
ATOM     12  C   UNL A   1      38.234  29.608  29.386  1.00  0.00    -0.014 A 
BRANCH  12  13
ATOM     13  C   UNL A   1      39.543  29.103  29.884  1.00  0.00     0.031 A 
ATOM     14  C   UNL A   1      40.175  29.663  31.132  1.00  0.00     0.074 A 
ATOM     15  C   UNL A   1      40.140  28.089  29.227  1.00  0.00     0.049 A 
ATOM     16  N   UNL A   1      41.283  29.297  31.729  1.00  0.00    -0.248 NA
ATOM     17  C   UNL A   1      39.485  30.782  31.791  1.00  0.00     0.031 C 
ATOM     18  C   UNL A   1      39.633  27.465  28.003  1.00  0.00     0.029 A 
ATOM     19  N   UNL A   1      41.283  27.387  29.508  1.00  0.00    -0.354 N 
ATOM     20  C   UNL A   1      41.433  30.151  32.816  1.00  0.00     0.074 A 
ATOM     21  C   UNL A   1      40.320  31.075  32.778  1.00  0.00     0.031 C 
ATOM     22  C   UNL A   1      40.426  26.437  27.671  1.00  0.00     0.029 A 
ATOM     23  C   UNL A   1      41.535  26.371  28.616  1.00  0.00     0.049 A 
ATOM     24  H   UNL A   1      41.868  27.589  30.273  1.00  0.00     0.167 HD
ATOM     25  C   UNL A   1      42.404  30.159  33.763  1.00  0.00     0.037 A 
ATOM     26  C   UNL A   1      42.551  25.491  28.555  1.00  0.00     0.037 A 
ATOM     27  C   UNL A   1      43.503  29.227  33.806  1.00  0.00     0.049 A 
ATOM     28  C   UNL A   1      43.626  25.543  29.599  1.00  0.00     0.074 A 
ATOM     29  C   UNL A   1      44.514  29.129  34.748  1.00  0.00     0.029 A 
ATOM     30  N   UNL A   1      43.742  28.238  32.863  1.00  0.00    -0.354 N 
ATOM     31  N   UNL A   1      43.729  26.328  30.644  1.00  0.00    -0.248 NA
ATOM     32  C   UNL A   1      44.726  24.581  29.458  1.00  0.00     0.031 C 
ATOM     33  C   UNL A   1      45.396  28.123  34.343  1.00  0.00     0.029 A 
ATOM     34  C   UNL A   1      44.899  27.545  33.186  1.00  0.00     0.049 A 
ATOM     35  H   UNL A   1      43.174  28.056  32.080  1.00  0.00     0.167 HD
ATOM     36  C   UNL A   1      44.886  25.934  31.302  1.00  0.00     0.074 A 
ATOM     37  C   UNL A   1      45.440  24.829  30.547  1.00  0.00     0.031 C 
ATOM     38  C   UNL A   1      45.438  26.440  32.433  1.00  0.00     0.037 A 
BRANCH  25  39
ATOM     39  C   UNL A   1      42.340  31.227  34.820  1.00  0.00     0.057 A 
ATOM     40  C   UNL A   1      42.919  32.491  34.642  1.00  0.00     0.134 A 
ATOM     41  C   UNL A   1      41.648  31.002  36.018  1.00  0.00     0.134 A 
ATOM     42  F   UNL A   1      43.603  32.775  33.524  1.00  0.00    -0.206 F 
ATOM     43  C   UNL A   1      42.838  33.479  35.628  1.00  0.00     0.040 A 
ATOM     44  C   UNL A   1      41.534  31.991  36.997  1.00  0.00     0.040 A 
ATOM     45  F   UNL A   1      41.059  29.820  36.252  1.00  0.00    -0.206 F 
ATOM     46  C   UNL A   1      42.137  33.233  36.806  1.00  0.00     0.006 A 
ENDBRANCH  25  39
BRANCH  26  47
ATOM     47  C   UNL A   1      42.595  24.485  27.463  1.00  0.00     0.057 A 
ATOM     48  C   UNL A   1      43.159  24.790  26.219  1.00  0.00     0.134 A 
ATOM     49  C   UNL A   1      42.069  23.199  27.634  1.00  0.00     0.134 A 
ATOM     50  F   UNL A   1      43.667  26.009  25.989  1.00  0.00    -0.206 F 
ATOM     51  C   UNL A   1      43.176  23.862  25.178  1.00  0.00     0.040 A 
ATOM     52  C   UNL A   1      42.108  22.250  26.612  1.00  0.00     0.040 A 
ATOM     53  F   UNL A   1      41.524  22.840  28.806  1.00  0.00    -0.206 F 
ATOM     54  C   UNL A   1      42.654  22.585  25.375  1.00  0.00     0.006 A 
ENDBRANCH  26  47
BRANCH  38  55
ATOM     55  C   UNL A   1      46.674  25.764  32.952  1.00  0.00     0.057 A 
ATOM     56  C   UNL A   1      46.621  24.710  33.874  1.00  0.00     0.134 A 
ATOM     57  C   UNL A   1      47.942  26.172  32.512  1.00  0.00     0.134 A 
ATOM     58  F   UNL A   1      45.442  24.278  34.346  1.00  0.00    -0.206 F 
ATOM     59  C   UNL A   1      47.782  24.110  34.366  1.00  0.00     0.040 A 
ATOM     60  C   UNL A   1      49.108  25.558  32.972  1.00  0.00     0.040 A 
ATOM     61  F   UNL A   1      48.066  27.168  31.624  1.00  0.00    -0.206 F 
ATOM     62  C   UNL A   1      49.030  24.531  33.910  1.00  0.00     0.006 A 
ENDBRANCH  38  55
ENDBRANCH  12  13
ENDBRANCH   5   7
ENDBRANCH   2   3
ENDBRANCH   1   2
BRANCH   1  63
ATOM     63  C   UNL A   1      34.311  35.781  28.447  1.00  0.00     0.023 C 
BRANCH  63  64
ATOM     64  C   UNL A   1      33.274  35.682  29.562  1.00  0.00     0.116 C 
BRANCH  64  65
ATOM     65  N   UNL A   1      33.111  36.933  30.279  1.00  0.00    -0.356 N 
ATOM     66  C   UNL A   1      33.233  37.158  31.622  1.00  0.00     0.223 C 
ATOM     67  H   UNL A   1      32.884  37.718  29.730  1.00  0.00     0.163 HD
ATOM     68  O   UNL A   1      33.078  38.286  32.081  1.00  0.00    -0.275 OA
BRANCH  66  69
ATOM     69  C   UNL A   1      33.557  36.008  32.495  1.00  0.00     0.086 C 
ATOM     70  C   UNL A   1      34.032  36.248  33.903  1.00  0.00     0.023 C 
ATOM     71  C   UNL A   1      35.000  35.712  32.877  1.00  0.00     0.035 C 
BRANCH  71  72
ATOM     72  C   UNL A   1      35.448  34.268  32.896  1.00  0.00    -0.005 A 
ATOM     73  C   UNL A   1      35.038  33.379  31.883  1.00  0.00     0.007 A 
ATOM     74  C   UNL A   1      36.295  33.756  33.891  1.00  0.00     0.162 A 
ATOM     75  C   UNL A   1      35.444  32.040  31.871  1.00  0.00     0.004 A 
ATOM     76  C   UNL A   1      36.700  32.423  33.881  1.00  0.00     0.159 A 
ATOM     77  F   UNL A   1      36.721  34.560  34.877  1.00  0.00    -0.203 F 
ATOM     78  C   UNL A   1      36.279  31.560  32.877  1.00  0.00     0.042 A 
ATOM     79  F   UNL A   1      37.504  31.958  34.848  1.00  0.00    -0.204 F 
ENDBRANCH  71  72
ENDBRANCH  66  69
ENDBRANCH  64  65
ENDBRANCH  63  64
ENDBRANCH   1  63
TORSDOF 12
ENDMDL
