MODEL 1
REMARK VINA RESULT:     -13.2      0.000      0.000
REMARK SMILES CCc1ccc(/C=C2\C(=O)N(c3ccc(Cl)c(C(=O)NCCCCNC(=O)c4ccc(-c5c6nc(c(-c7c(F)cccc7F)c7ccc([nH]7)c(-c7c(F)cccc7F)c7nc(c(-c8c(F)cccc8F)c8ccc5[nH]8)C=C7)C=C6)cc4)c3)N=C2C)cc1
REMARK SMILES IDX 22 1 21 2 20 3 18 4 19 5 17 7 12 8 13 9 82 10 14 11 15 12
REMARK SMILES IDX 16 13 11 14 7 15 8 16 9 17 84 18 10 19 83 20 85 21 6 22 3 23
REMARK SMILES IDX 4 24 87 25 5 26 86 27 2 28 1 29 23 30 24 31 25 32 26 33
REMARK SMILES IDX 27 35 28 36 29 37 81 38 30 39 80 40 31 41 32 42 33 43 74 44
REMARK SMILES IDX 34 45 79 46 73 47 75 48 35 49 78 50 72 51 71 52 36 54 62 55
REMARK SMILES IDX 45 56 61 57 46 58 49 59 60 60 76 61 47 62 48 63 59 65 77 66
REMARK SMILES IDX 50 67 37 68 38 69 43 70 39 71 40 72 42 73 44 74 41 75 63 76
REMARK SMILES IDX 64 77 69 78 65 79 66 80 68 81 70 82 67 83 51 84 52 85 57 86
REMARK SMILES IDX 53 87 54 88 56 89 58 90 55 91
REMARK H PARENT 20 6 25 34 75 53 49 64
REMARK Flexibility Score: inf
ROOT
ATOM      1  C   UNL A   1      37.079  20.650  24.651  1.00  0.00     0.023 C 
ENDROOT
BRANCH   1   2
ATOM      2  C   UNL A   1      36.992  21.818  25.626  1.00  0.00     0.116 C 
BRANCH   2   3
ATOM      3  N   UNL A   1      35.888  21.754  26.579  1.00  0.00    -0.352 N 
ATOM      4  C   UNL A   1      34.534  21.488  26.429  1.00  0.00     0.252 C 
ATOM      5  O   UNL A   1      33.863  21.376  27.451  1.00  0.00    -0.269 OA
ATOM      6  H   UNL A   1      36.156  21.936  27.509  1.00  0.00     0.163 HD
BRANCH   4   7
ATOM      7  C   UNL A   1      33.896  21.380  25.083  1.00  0.00     0.060 A 
ATOM      8  C   UNL A   1      33.139  22.631  23.139  1.00  0.00     0.070 A 
ATOM      9  C   UNL A   1      32.269  21.592  22.812  1.00  0.00     0.030 A 
ATOM     10  C   UNL A   1      34.051  22.433  24.180  1.00  0.00     0.044 A 
ATOM     11  C   UNL A   1      32.294  20.405  23.548  1.00  0.00     0.023 A 
ATOM     12  C   UNL A   1      33.069  20.311  24.713  1.00  0.00     0.053 A 
ATOM     13  Cl  UNL A   1      32.901  18.859  25.633  1.00  0.00    -0.083 Cl
BRANCH   8  14
ATOM     14  N   UNL A   1      33.025  23.902  22.533  1.00  0.00    -0.196 N 
ATOM     15  C   UNL A   1      32.265  27.338  22.059  1.00  0.00     0.024 C 
ATOM     16  C   UNL A   1      32.441  26.011  22.005  1.00  0.00     0.065 C 
ATOM     17  C   UNL A   1      32.534  25.064  23.142  1.00  0.00     0.280 C 
ATOM     18  C   UNL A   1      32.721  25.186  20.821  1.00  0.00     0.071 C 
ATOM     19  O   UNL A   1      32.203  25.270  24.292  1.00  0.00    -0.267 OA
ATOM     20  N   UNL A   1      33.122  23.982  21.142  1.00  0.00    -0.169 NA
ATOM     21  C   UNL A   1      32.570  25.673  19.418  1.00  0.00     0.069 C 
BRANCH  15  22
ATOM     22  C   UNL A   1      32.329  28.053  23.338  1.00  0.00    -0.025 A 
ATOM     23  C   UNL A   1      32.345  29.672  25.650  1.00  0.00    -0.048 A 
ATOM     24  C   UNL A   1      33.543  29.188  25.093  1.00  0.00     0.004 A 
ATOM     25  C   UNL A   1      31.138  29.301  25.053  1.00  0.00     0.004 A 
ATOM     26  C   UNL A   1      33.538  28.384  23.945  1.00  0.00     0.008 A 
ATOM     27  C   UNL A   1      31.129  28.484  23.923  1.00  0.00     0.008 A 
BRANCH  23  28
ATOM     28  C   UNL A   1      32.416  30.628  26.820  1.00  0.00     0.032 C 
ATOM     29  C   UNL A   1      33.792  30.833  27.446  1.00  0.00     0.009 C 
ENDBRANCH  23  28
ENDBRANCH  15  22
ENDBRANCH   8  14
ENDBRANCH   4   7
ENDBRANCH   2   3
ENDBRANCH   1   2
BRANCH   1  30
ATOM     30  C   UNL A   1      38.051  19.534  25.007  1.00  0.00     0.023 C 
BRANCH  30  31
ATOM     31  C   UNL A   1      39.300  19.957  25.771  1.00  0.00     0.116 C 
BRANCH  31  32
ATOM     32  N   UNL A   1      40.328  18.926  25.842  1.00  0.00    -0.352 N 
ATOM     33  C   UNL A   1      41.671  19.046  26.117  1.00  0.00     0.251 C 
ATOM     34  H   UNL A   1      40.014  18.009  25.669  1.00  0.00     0.163 HD
ATOM     35  O   UNL A   1      42.411  18.070  26.033  1.00  0.00    -0.269 OA
BRANCH  33  36
ATOM     36  C   UNL A   1      42.232  20.368  26.474  1.00  0.00     0.039 A 
ATOM     37  C   UNL A   1      42.730  21.192  25.463  1.00  0.00     0.014 A 
ATOM     38  C   UNL A   1      42.227  20.809  27.799  1.00  0.00     0.014 A 
ATOM     39  C   UNL A   1      43.136  22.494  25.768  1.00  0.00     0.010 A 
ATOM     40  C   UNL A   1      42.544  22.133  28.086  1.00  0.00     0.010 A 
ATOM     41  C   UNL A   1      42.998  22.993  27.073  1.00  0.00    -0.014 A 
BRANCH  41  42
ATOM     42  C   UNL A   1      43.314  24.408  27.401  1.00  0.00     0.031 A 
ATOM     43  C   UNL A   1      44.744  24.880  27.406  1.00  0.00     0.074 A 
ATOM     44  C   UNL A   1      42.325  25.250  27.763  1.00  0.00     0.049 A 
ATOM     45  N   UNL A   1      45.226  26.051  27.738  1.00  0.00    -0.248 NA
ATOM     46  C   UNL A   1      45.770  23.901  27.012  1.00  0.00     0.031 C 
ATOM     47  C   UNL A   1      40.903  24.906  27.844  1.00  0.00     0.029 A 
ATOM     48  N   UNL A   1      42.365  26.571  28.143  1.00  0.00    -0.354 N 
ATOM     49  C   UNL A   1      46.607  25.940  27.614  1.00  0.00     0.074 A 
ATOM     50  C   UNL A   1      46.889  24.577  27.223  1.00  0.00     0.031 C 
ATOM     51  C   UNL A   1      40.207  25.991  28.220  1.00  0.00     0.029 A 
ATOM     52  C   UNL A   1      41.133  27.095  28.453  1.00  0.00     0.049 A 
ATOM     53  H   UNL A   1      43.199  27.091  28.189  1.00  0.00     0.167 HD
ATOM     54  C   UNL A   1      47.550  26.895  27.786  1.00  0.00     0.037 A 
ATOM     55  C   UNL A   1      40.788  28.323  28.888  1.00  0.00     0.037 A 
ATOM     56  C   UNL A   1      47.265  28.259  28.143  1.00  0.00     0.049 A 
ATOM     57  C   UNL A   1      41.865  29.357  29.089  1.00  0.00     0.074 A 
ATOM     58  C   UNL A   1      48.149  29.317  28.269  1.00  0.00     0.029 A 
ATOM     59  N   UNL A   1      46.003  28.753  28.437  1.00  0.00    -0.354 N 
ATOM     60  N   UNL A   1      43.156  29.260  28.884  1.00  0.00    -0.248 NA
ATOM     61  C   UNL A   1      41.434  30.674  29.580  1.00  0.00     0.031 C 
ATOM     62  C   UNL A   1      47.430  30.436  28.698  1.00  0.00     0.029 A 
ATOM     63  C   UNL A   1      46.090  30.093  28.775  1.00  0.00     0.049 A 
ATOM     64  H   UNL A   1      45.170  28.229  28.409  1.00  0.00     0.167 HD
ATOM     65  C   UNL A   1      43.683  30.512  29.178  1.00  0.00     0.074 A 
ATOM     66  C   UNL A   1      42.571  31.354  29.564  1.00  0.00     0.031 C 
ATOM     67  C   UNL A   1      44.972  30.926  29.134  1.00  0.00     0.037 A 
BRANCH  54  68
ATOM     68  C   UNL A   1      48.987  26.505  27.590  1.00  0.00     0.057 A 
ATOM     69  C   UNL A   1      49.781  26.044  28.649  1.00  0.00     0.134 A 
ATOM     70  C   UNL A   1      49.563  26.526  26.313  1.00  0.00     0.134 A 
ATOM     71  F   UNL A   1      49.295  26.009  29.899  1.00  0.00    -0.206 F 
ATOM     72  C   UNL A   1      51.100  25.631  28.446  1.00  0.00     0.040 A 
ATOM     73  C   UNL A   1      50.870  26.089  26.094  1.00  0.00     0.040 A 
ATOM     74  F   UNL A   1      48.857  26.950  25.254  1.00  0.00    -0.206 F 
ATOM     75  C   UNL A   1      51.643  25.643  27.163  1.00  0.00     0.006 A 
ENDBRANCH  54  68
BRANCH  55  76
ATOM     76  C   UNL A   1      39.366  28.662  29.160  1.00  0.00     0.057 A 
ATOM     77  C   UNL A   1      38.555  29.229  28.169  1.00  0.00     0.134 A 
ATOM     78  C   UNL A   1      38.797  28.479  30.426  1.00  0.00     0.134 A 
ATOM     79  F   UNL A   1      39.047  29.448  26.940  1.00  0.00    -0.206 F 
ATOM     80  C   UNL A   1      37.247  29.637  28.435  1.00  0.00     0.040 A 
ATOM     81  C   UNL A   1      37.479  28.852  30.698  1.00  0.00     0.040 A 
ATOM     82  F   UNL A   1      39.513  27.934  31.420  1.00  0.00    -0.206 F 
ATOM     83  C   UNL A   1      36.704  29.447  29.704  1.00  0.00     0.006 A 
ENDBRANCH  55  76
BRANCH  67  84
ATOM     84  C   UNL A   1      45.248  32.367  29.455  1.00  0.00     0.057 A 
ATOM     85  C   UNL A   1      45.181  33.374  28.486  1.00  0.00     0.134 A 
ATOM     86  C   UNL A   1      45.543  32.755  30.770  1.00  0.00     0.134 A 
ATOM     87  F   UNL A   1      44.915  33.069  27.206  1.00  0.00    -0.206 F 
ATOM     88  C   UNL A   1      45.422  34.712  28.805  1.00  0.00     0.040 A 
ATOM     89  C   UNL A   1      45.754  34.092  31.107  1.00  0.00     0.040 A 
ATOM     90  F   UNL A   1      45.612  31.843  31.752  1.00  0.00    -0.206 F 
ATOM     91  C   UNL A   1      45.701  35.074  30.121  1.00  0.00     0.006 A 
ENDBRANCH  67  84
ENDBRANCH  41  42
ENDBRANCH  33  36
ENDBRANCH  31  32
ENDBRANCH  30  31
ENDBRANCH   1  30
TORSDOF 14
ENDMDL
MODEL 2
REMARK VINA RESULT:     -13.1      4.629      8.402
REMARK SMILES CCc1ccc(/C=C2\C(=O)N(c3ccc(Cl)c(C(=O)NCCCCNC(=O)c4ccc(-c5c6nc(c(-c7c(F)cccc7F)c7ccc([nH]7)c(-c7c(F)cccc7F)c7nc(c(-c8c(F)cccc8F)c8ccc5[nH]8)C=C7)C=C6)cc4)c3)N=C2C)cc1
REMARK SMILES IDX 22 1 21 2 20 3 18 4 19 5 17 7 12 8 13 9 82 10 14 11 15 12
REMARK SMILES IDX 16 13 11 14 7 15 8 16 9 17 84 18 10 19 83 20 85 21 6 22 3 23
REMARK SMILES IDX 4 24 87 25 5 26 86 27 2 28 1 29 23 30 24 31 25 32 26 33
REMARK SMILES IDX 27 35 28 36 29 37 81 38 30 39 80 40 31 41 32 42 33 43 74 44
REMARK SMILES IDX 34 45 79 46 73 47 75 48 35 49 78 50 72 51 71 52 36 54 62 55
REMARK SMILES IDX 45 56 61 57 46 58 49 59 60 60 76 61 47 62 48 63 59 65 77 66
REMARK SMILES IDX 50 67 37 68 38 69 43 70 39 71 40 72 42 73 44 74 41 75 63 76
REMARK SMILES IDX 64 77 69 78 65 79 66 80 68 81 70 82 67 83 51 84 52 85 57 86
REMARK SMILES IDX 53 87 54 88 56 89 58 90 55 91
REMARK H PARENT 20 6 25 34 75 53 49 64
REMARK Flexibility Score: inf
ROOT
ATOM      1  C   UNL A   1      37.639  22.154  24.685  1.00  0.00     0.023 C 
ENDROOT
BRANCH   1   2
ATOM      2  C   UNL A   1      37.016  20.943  25.367  1.00  0.00     0.116 C 
BRANCH   2   3
ATOM      3  N   UNL A   1      35.961  21.243  26.331  1.00  0.00    -0.352 N 
ATOM      4  C   UNL A   1      34.580  21.311  26.217  1.00  0.00     0.252 C 
ATOM      5  O   UNL A   1      33.935  21.463  27.250  1.00  0.00    -0.269 OA
ATOM      6  H   UNL A   1      36.295  21.435  27.237  1.00  0.00     0.163 HD
BRANCH   4   7
ATOM      7  C   UNL A   1      33.893  21.245  24.892  1.00  0.00     0.060 A 
ATOM      8  C   UNL A   1      33.108  22.552  22.996  1.00  0.00     0.070 A 
ATOM      9  C   UNL A   1      32.197  21.545  22.683  1.00  0.00     0.030 A 
ATOM     10  C   UNL A   1      34.049  22.309  24.002  1.00  0.00     0.044 A 
ATOM     11  C   UNL A   1      32.211  20.345  23.399  1.00  0.00     0.023 A 
ATOM     12  C   UNL A   1      33.022  20.208  24.534  1.00  0.00     0.053 A 
ATOM     13  Cl  UNL A   1      32.842  18.746  25.435  1.00  0.00    -0.083 Cl
BRANCH   8  14
ATOM     14  N   UNL A   1      33.012  23.836  22.416  1.00  0.00    -0.196 N 
ATOM     15  C   UNL A   1      32.330  27.299  22.020  1.00  0.00     0.024 C 
ATOM     16  C   UNL A   1      32.469  25.968  21.940  1.00  0.00     0.065 C 
ATOM     17  C   UNL A   1      32.568  24.999  23.057  1.00  0.00     0.280 C 
ATOM     18  C   UNL A   1      32.697  25.158  20.734  1.00  0.00     0.071 C 
ATOM     19  O   UNL A   1      32.272  25.193  24.219  1.00  0.00    -0.267 OA
ATOM     20  N   UNL A   1      33.075  23.938  21.024  1.00  0.00    -0.169 NA
ATOM     21  C   UNL A   1      32.523  25.673  19.345  1.00  0.00     0.069 C 
BRANCH  15  22
ATOM     22  C   UNL A   1      32.446  27.989  23.309  1.00  0.00    -0.025 A 
ATOM     23  C   UNL A   1      32.764  29.053  25.904  1.00  0.00    -0.048 A 
ATOM     24  C   UNL A   1      31.492  28.942  25.315  1.00  0.00     0.004 A 
ATOM     25  C   UNL A   1      33.877  28.658  25.158  1.00  0.00     0.004 A 
ATOM     26  C   UNL A   1      31.331  28.415  24.026  1.00  0.00     0.008 A 
ATOM     27  C   UNL A   1      33.722  28.152  23.869  1.00  0.00     0.008 A 
BRANCH  23  28
ATOM     28  C   UNL A   1      32.869  29.523  27.338  1.00  0.00     0.032 C 
ATOM     29  C   UNL A   1      33.684  30.790  27.578  1.00  0.00     0.009 C 
ENDBRANCH  23  28
ENDBRANCH  15  22
ENDBRANCH   8  14
ENDBRANCH   4   7
ENDBRANCH   2   3
ENDBRANCH   1   2
BRANCH   1  30
ATOM     30  C   UNL A   1      37.418  23.503  25.355  1.00  0.00     0.023 C 
BRANCH  30  31
ATOM     31  C   UNL A   1      38.359  23.838  26.506  1.00  0.00     0.116 C 
BRANCH  31  32
ATOM     32  N   UNL A   1      39.769  23.845  26.134  1.00  0.00    -0.352 N 
ATOM     33  C   UNL A   1      40.765  24.725  26.495  1.00  0.00     0.251 C 
ATOM     34  H   UNL A   1      40.049  23.114  25.539  1.00  0.00     0.163 HD
ATOM     35  O   UNL A   1      41.884  24.631  26.000  1.00  0.00    -0.269 OA
BRANCH  33  36
ATOM     36  C   UNL A   1      40.471  25.812  27.454  1.00  0.00     0.039 A 
ATOM     37  C   UNL A   1      39.528  25.595  28.461  1.00  0.00     0.014 A 
ATOM     38  C   UNL A   1      41.154  27.028  27.384  1.00  0.00     0.014 A 
ATOM     39  C   UNL A   1      39.340  26.561  29.453  1.00  0.00     0.010 A 
ATOM     40  C   UNL A   1      41.033  27.948  28.422  1.00  0.00     0.010 A 
ATOM     41  C   UNL A   1      40.128  27.723  29.470  1.00  0.00    -0.014 A 
BRANCH  41  42
ATOM     42  C   UNL A   1      40.029  28.712  30.576  1.00  0.00     0.031 A 
ATOM     43  C   UNL A   1      39.025  29.832  30.500  1.00  0.00     0.074 A 
ATOM     44  C   UNL A   1      40.887  28.648  31.614  1.00  0.00     0.049 A 
ATOM     45  N   UNL A   1      38.838  30.832  31.323  1.00  0.00    -0.248 NA
ATOM     46  C   UNL A   1      38.130  29.844  29.331  1.00  0.00     0.031 C 
ATOM     47  C   UNL A   1      41.939  27.640  31.785  1.00  0.00     0.029 A 
ATOM     48  N   UNL A   1      41.022  29.453  32.719  1.00  0.00    -0.354 N 
ATOM     49  C   UNL A   1      37.824  31.600  30.762  1.00  0.00     0.074 A 
ATOM     50  C   UNL A   1      37.468  30.978  29.506  1.00  0.00     0.031 C 
ATOM     51  C   UNL A   1      42.588  27.872  32.937  1.00  0.00     0.029 A 
ATOM     52  C   UNL A   1      42.036  29.068  33.565  1.00  0.00     0.049 A 
ATOM     53  H   UNL A   1      40.446  30.233  32.889  1.00  0.00     0.167 HD
ATOM     54  C   UNL A   1      37.228  32.708  31.260  1.00  0.00     0.037 A 
ATOM     55  C   UNL A   1      42.478  29.623  34.710  1.00  0.00     0.037 A 
ATOM     56  C   UNL A   1      37.562  33.306  32.525  1.00  0.00     0.049 A 
ATOM     57  C   UNL A   1      41.806  30.868  35.227  1.00  0.00     0.074 A 
ATOM     58  C   UNL A   1      36.963  34.387  33.149  1.00  0.00     0.029 A 
ATOM     59  N   UNL A   1      38.585  32.879  33.357  1.00  0.00    -0.354 N 
ATOM     60  N   UNL A   1      40.792  31.531  34.728  1.00  0.00    -0.248 NA
ATOM     61  C   UNL A   1      42.339  31.439  36.473  1.00  0.00     0.031 C 
ATOM     62  C   UNL A   1      37.663  34.653  34.329  1.00  0.00     0.029 A 
ATOM     63  C   UNL A   1      38.655  33.696  34.473  1.00  0.00     0.049 A 
ATOM     64  H   UNL A   1      39.174  32.110  33.180  1.00  0.00     0.167 HD
ATOM     65  C   UNL A   1      40.540  32.569  35.618  1.00  0.00     0.074 A 
ATOM     66  C   UNL A   1      41.500  32.440  36.693  1.00  0.00     0.031 C 
ATOM     67  C   UNL A   1      39.600  33.542  35.549  1.00  0.00     0.037 A 
BRANCH  54  68
ATOM     68  C   UNL A   1      36.148  33.354  30.440  1.00  0.00     0.057 A 
ATOM     69  C   UNL A   1      36.440  34.155  29.328  1.00  0.00     0.134 A 
ATOM     70  C   UNL A   1      34.797  33.113  30.725  1.00  0.00     0.134 A 
ATOM     71  F   UNL A   1      37.713  34.434  29.006  1.00  0.00    -0.206 F 
ATOM     72  C   UNL A   1      35.428  34.705  28.539  1.00  0.00     0.040 A 
ATOM     73  C   UNL A   1      33.779  33.634  29.927  1.00  0.00     0.040 A 
ATOM     74  F   UNL A   1      34.448  32.350  31.772  1.00  0.00    -0.206 F 
ATOM     75  C   UNL A   1      34.093  34.436  28.832  1.00  0.00     0.006 A 
ENDBRANCH  54  68
BRANCH  55  76
ATOM     76  C   UNL A   1      43.608  29.016  35.462  1.00  0.00     0.057 A 
ATOM     77  C   UNL A   1      43.383  28.048  36.449  1.00  0.00     0.134 A 
ATOM     78  C   UNL A   1      44.931  29.423  35.254  1.00  0.00     0.134 A 
ATOM     79  F   UNL A   1      42.135  27.630  36.710  1.00  0.00    -0.206 F 
ATOM     80  C   UNL A   1      44.423  27.536  37.227  1.00  0.00     0.040 A 
ATOM     81  C   UNL A   1      45.987  28.895  36.001  1.00  0.00     0.040 A 
ATOM     82  F   UNL A   1      45.220  30.340  34.319  1.00  0.00    -0.206 F 
ATOM     83  C   UNL A   1      45.732  27.959  37.002  1.00  0.00     0.006 A 
ENDBRANCH  55  76
BRANCH  67  84
ATOM     84  C   UNL A   1      39.521  34.511  36.694  1.00  0.00     0.057 A 
ATOM     85  C   UNL A   1      38.842  34.212  37.879  1.00  0.00     0.134 A 
ATOM     86  C   UNL A   1      40.176  35.749  36.619  1.00  0.00     0.134 A 
ATOM     87  F   UNL A   1      38.183  33.050  38.011  1.00  0.00    -0.206 F 
ATOM     88  C   UNL A   1      38.793  35.117  38.942  1.00  0.00     0.040 A 
ATOM     89  C   UNL A   1      40.163  36.647  37.686  1.00  0.00     0.040 A 
ATOM     90  F   UNL A   1      40.857  36.096  35.517  1.00  0.00    -0.206 F 
ATOM     91  C   UNL A   1      39.463  36.335  38.849  1.00  0.00     0.006 A 
ENDBRANCH  67  84
ENDBRANCH  41  42
ENDBRANCH  33  36
ENDBRANCH  31  32
ENDBRANCH  30  31
ENDBRANCH   1  30
TORSDOF 14
ENDMDL
MODEL 3
REMARK VINA RESULT:     -13.0      0.357      5.959
REMARK SMILES CCc1ccc(/C=C2\C(=O)N(c3ccc(Cl)c(C(=O)NCCCCNC(=O)c4ccc(-c5c6nc(c(-c7c(F)cccc7F)c7ccc([nH]7)c(-c7c(F)cccc7F)c7nc(c(-c8c(F)cccc8F)c8ccc5[nH]8)C=C7)C=C6)cc4)c3)N=C2C)cc1
REMARK SMILES IDX 22 1 21 2 20 3 18 4 19 5 17 7 12 8 13 9 82 10 14 11 15 12
REMARK SMILES IDX 16 13 11 14 7 15 8 16 9 17 84 18 10 19 83 20 85 21 6 22 3 23
REMARK SMILES IDX 4 24 87 25 5 26 86 27 2 28 1 29 23 30 24 31 25 32 26 33
REMARK SMILES IDX 27 35 28 36 29 37 81 38 30 39 80 40 31 41 32 42 33 43 74 44
REMARK SMILES IDX 34 45 79 46 73 47 75 48 35 49 78 50 72 51 71 52 36 54 62 55
REMARK SMILES IDX 45 56 61 57 46 58 49 59 60 60 76 61 47 62 48 63 59 65 77 66
REMARK SMILES IDX 50 67 37 68 38 69 43 70 39 71 40 72 42 73 44 74 41 75 63 76
REMARK SMILES IDX 64 77 69 78 65 79 66 80 68 81 70 82 67 83 51 84 52 85 57 86
REMARK SMILES IDX 53 87 54 88 56 89 58 90 55 91
REMARK H PARENT 20 6 25 34 75 53 49 64
REMARK Flexibility Score: inf
ROOT
ATOM      1  C   UNL A   1      37.171  21.126  24.553  1.00  0.00     0.023 C 
ENDROOT
BRANCH   1   2
ATOM      2  C   UNL A   1      36.927  22.210  25.595  1.00  0.00     0.116 C 
BRANCH   2   3
ATOM      3  N   UNL A   1      35.871  21.921  26.561  1.00  0.00    -0.352 N 
ATOM      4  C   UNL A   1      34.564  21.479  26.416  1.00  0.00     0.252 C 
ATOM      5  O   UNL A   1      33.946  21.198  27.439  1.00  0.00    -0.269 OA
ATOM      6  H   UNL A   1      36.139  22.068  27.497  1.00  0.00     0.163 HD
BRANCH   4   7
ATOM      7  C   UNL A   1      33.906  21.385  25.078  1.00  0.00     0.060 A 
ATOM      8  C   UNL A   1      33.136  22.653  23.151  1.00  0.00     0.070 A 
ATOM      9  C   UNL A   1      32.251  21.625  22.832  1.00  0.00     0.030 A 
ATOM     10  C   UNL A   1      34.060  22.441  24.179  1.00  0.00     0.044 A 
ATOM     11  C   UNL A   1      32.274  20.434  23.561  1.00  0.00     0.023 A 
ATOM     12  C   UNL A   1      33.063  20.327  24.715  1.00  0.00     0.053 A 
ATOM     13  Cl  UNL A   1      32.892  18.872  25.630  1.00  0.00    -0.083 Cl
BRANCH   8  14
ATOM     14  N   UNL A   1      33.027  23.928  22.553  1.00  0.00    -0.196 N 
ATOM     15  C   UNL A   1      32.301  27.376  22.107  1.00  0.00     0.024 C 
ATOM     16  C   UNL A   1      32.459  26.046  22.045  1.00  0.00     0.065 C 
ATOM     17  C   UNL A   1      32.561  25.094  23.176  1.00  0.00     0.280 C 
ATOM     18  C   UNL A   1      32.709  25.224  20.852  1.00  0.00     0.071 C 
ATOM     19  O   UNL A   1      32.252  25.298  24.332  1.00  0.00    -0.267 OA
ATOM     20  N   UNL A   1      33.101  24.013  21.161  1.00  0.00    -0.169 NA
ATOM     21  C   UNL A   1      32.540  25.719  19.454  1.00  0.00     0.069 C 
BRANCH  15  22
ATOM     22  C   UNL A   1      32.395  28.084  23.388  1.00  0.00    -0.025 A 
ATOM     23  C   UNL A   1      32.483  29.695  25.705  1.00  0.00    -0.048 A 
ATOM     24  C   UNL A   1      33.657  29.157  25.147  1.00  0.00     0.004 A 
ATOM     25  C   UNL A   1      31.261  29.380  25.105  1.00  0.00     0.004 A 
ATOM     26  C   UNL A   1      33.617  28.357  23.998  1.00  0.00     0.008 A 
ATOM     27  C   UNL A   1      31.216  28.568  23.973  1.00  0.00     0.008 A 
BRANCH  23  28
ATOM     28  C   UNL A   1      32.595  30.643  26.877  1.00  0.00     0.032 C 
ATOM     29  C   UNL A   1      33.994  30.847  27.452  1.00  0.00     0.009 C 
ENDBRANCH  23  28
ENDBRANCH  15  22
ENDBRANCH   8  14
ENDBRANCH   4   7
ENDBRANCH   2   3
ENDBRANCH   1   2
BRANCH   1  30
ATOM     30  C   UNL A   1      37.989  19.922  24.999  1.00  0.00     0.023 C 
BRANCH  30  31
ATOM     31  C   UNL A   1      39.251  20.232  25.795  1.00  0.00     0.116 C 
BRANCH  31  32
ATOM     32  N   UNL A   1      40.191  19.121  25.869  1.00  0.00    -0.352 N 
ATOM     33  C   UNL A   1      41.534  19.129  26.173  1.00  0.00     0.251 C 
ATOM     34  H   UNL A   1      39.810  18.235  25.675  1.00  0.00     0.163 HD
ATOM     35  O   UNL A   1      42.195  18.098  26.088  1.00  0.00    -0.269 OA
BRANCH  33  36
ATOM     36  C   UNL A   1      42.190  20.396  26.564  1.00  0.00     0.039 A 
ATOM     37  C   UNL A   1      42.804  21.175  25.581  1.00  0.00     0.014 A 
ATOM     38  C   UNL A   1      42.163  20.833  27.890  1.00  0.00     0.014 A 
ATOM     39  C   UNL A   1      43.308  22.436  25.912  1.00  0.00     0.010 A 
ATOM     40  C   UNL A   1      42.581  22.124  28.199  1.00  0.00     0.010 A 
ATOM     41  C   UNL A   1      43.154  22.942  27.213  1.00  0.00    -0.014 A 
BRANCH  41  42
ATOM     42  C   UNL A   1      43.577  24.324  27.564  1.00  0.00     0.031 A 
ATOM     43  C   UNL A   1      42.546  25.359  27.927  1.00  0.00     0.074 A 
ATOM     44  C   UNL A   1      44.878  24.668  27.485  1.00  0.00     0.049 A 
ATOM     45  N   UNL A   1      42.708  26.632  28.187  1.00  0.00    -0.248 NA
ATOM     46  C   UNL A   1      41.144  24.913  27.980  1.00  0.00     0.031 C 
ATOM     47  C   UNL A   1      45.972  23.772  27.100  1.00  0.00     0.029 A 
ATOM     48  N   UNL A   1      45.505  25.869  27.715  1.00  0.00    -0.354 N 
ATOM     49  C   UNL A   1      41.433  27.138  28.412  1.00  0.00     0.074 A 
ATOM     50  C   UNL A   1      40.504  26.049  28.210  1.00  0.00     0.031 C 
ATOM     51  C   UNL A   1      47.132  24.446  27.147  1.00  0.00     0.029 A 
ATOM     52  C   UNL A   1      46.865  25.832  27.519  1.00  0.00     0.049 A 
ATOM     53  H   UNL A   1      45.023  26.682  27.994  1.00  0.00     0.167 HD
ATOM     54  C   UNL A   1      41.073  28.391  28.777  1.00  0.00     0.037 A 
ATOM     55  C   UNL A   1      47.790  26.806  27.615  1.00  0.00     0.037 A 
ATOM     56  C   UNL A   1      42.003  29.464  29.008  1.00  0.00     0.049 A 
ATOM     57  C   UNL A   1      47.354  28.194  28.003  1.00  0.00     0.074 A 
ATOM     58  C   UNL A   1      41.738  30.749  29.451  1.00  0.00     0.029 A 
ATOM     59  N   UNL A   1      43.372  29.382  28.810  1.00  0.00    -0.354 N 
ATOM     60  N   UNL A   1      46.155  28.635  28.296  1.00  0.00    -0.248 NA
ATOM     61  C   UNL A   1      48.403  29.221  28.079  1.00  0.00     0.031 C 
ATOM     62  C   UNL A   1      42.940  31.462  29.463  1.00  0.00     0.029 A 
ATOM     63  C   UNL A   1      43.962  30.603  29.092  1.00  0.00     0.049 A 
ATOM     64  H   UNL A   1      43.853  28.576  28.514  1.00  0.00     0.167 HD
ATOM     65  C   UNL A   1      46.312  29.974  28.630  1.00  0.00     0.074 A 
ATOM     66  C   UNL A   1      47.724  30.271  28.516  1.00  0.00     0.031 C 
ATOM     67  C   UNL A   1      45.372  30.879  28.997  1.00  0.00     0.037 A 
BRANCH  54  68
ATOM     68  C   UNL A   1      39.610  28.678  28.952  1.00  0.00     0.057 A 
ATOM     69  C   UNL A   1      38.964  28.513  30.184  1.00  0.00     0.134 A 
ATOM     70  C   UNL A   1      38.853  29.194  27.891  1.00  0.00     0.134 A 
ATOM     71  F   UNL A   1      39.627  28.013  31.239  1.00  0.00    -0.206 F 
ATOM     72  C   UNL A   1      37.615  28.834  30.351  1.00  0.00     0.040 A 
ATOM     73  C   UNL A   1      37.513  29.546  28.053  1.00  0.00     0.040 A 
ATOM     74  F   UNL A   1      39.411  29.383  26.685  1.00  0.00    -0.206 F 
ATOM     75  C   UNL A   1      36.889  29.363  29.285  1.00  0.00     0.006 A 
ENDBRANCH  54  68
BRANCH  55  76
ATOM     76  C   UNL A   1      49.225  26.520  27.352  1.00  0.00     0.057 A 
ATOM     77  C   UNL A   1      50.080  26.101  28.380  1.00  0.00     0.134 A 
ATOM     78  C   UNL A   1      49.791  26.707  26.085  1.00  0.00     0.134 A 
ATOM     79  F   UNL A   1      49.604  25.923  29.621  1.00  0.00    -0.206 F 
ATOM     80  C   UNL A   1      51.448  25.917  28.168  1.00  0.00     0.040 A 
ATOM     81  C   UNL A   1      51.151  26.494  25.850  1.00  0.00     0.040 A 
ATOM     82  F   UNL A   1      49.029  27.098  25.053  1.00  0.00    -0.206 F 
ATOM     83  C   UNL A   1      51.987  26.113  26.899  1.00  0.00     0.006 A 
ENDBRANCH  55  76
BRANCH  67  84
ATOM     84  C   UNL A   1      45.842  32.258  29.359  1.00  0.00     0.057 A 
ATOM     85  C   UNL A   1      45.912  33.293  28.420  1.00  0.00     0.134 A 
ATOM     86  C   UNL A   1      46.186  32.563  30.684  1.00  0.00     0.134 A 
ATOM     87  F   UNL A   1      45.609  33.065  27.133  1.00  0.00    -0.206 F 
ATOM     88  C   UNL A   1      46.334  34.576  28.777  1.00  0.00     0.040 A 
ATOM     89  C   UNL A   1      46.577  33.848  31.059  1.00  0.00     0.040 A 
ATOM     90  F   UNL A   1      46.130  31.622  31.638  1.00  0.00    -0.206 F 
ATOM     91  C   UNL A   1      46.658  34.857  30.103  1.00  0.00     0.006 A 
ENDBRANCH  67  84
ENDBRANCH  41  42
ENDBRANCH  33  36
ENDBRANCH  31  32
ENDBRANCH  30  31
ENDBRANCH   1  30
TORSDOF 14
ENDMDL
