MODEL 1
REMARK VINA RESULT:     -11.6      0.000      0.000
REMARK SMILES O=C(NCCCCNC(=O)[C@@H]1CSCN1C(=O)c1cccc(Cl)c1)c1ccc(-c2c3nc(c(-c4c(F)cccc4F)c4ccc([nH]4)c(-c4c(F)cccc4F)c4nc(c(-c5c(F)cccc5F)c5ccc2[nH]5)C=C4)C=C3)cc1
REMARK SMILES IDX 5 1 4 2 3 3 1 4 2 5 25 7 26 8 78 9 27 10 77 11 28 12 29 13
REMARK SMILES IDX 30 14 71 15 31 16 76 17 70 18 72 19 32 20 75 21 69 22 68 23
REMARK SMILES IDX 33 25 59 26 42 27 58 28 43 29 46 30 57 31 73 32 44 33 45 34
REMARK SMILES IDX 56 36 74 37 47 38 34 39 35 40 40 41 36 42 37 43 39 44 41 45
REMARK SMILES IDX 38 46 60 47 61 48 66 49 62 50 63 51 65 52 67 53 64 54 48 55
REMARK SMILES IDX 49 56 54 57 50 58 51 59 53 60 55 61 52 62 6 63 7 64 8 65
REMARK SMILES IDX 9 66 10 68 11 69 12 70 15 71 13 72 14 73 16 74 17 75 18 76
REMARK SMILES IDX 19 77 24 78 20 79 22 80 21 81 23 82
REMARK H PARENT 3 6 72 24 46 35 8 67
REMARK Flexibility Score: inf
ROOT
ATOM      1  C   UNL A   1      31.402  32.124  26.627  1.00  0.00     0.023 C 
ENDROOT
BRANCH   1   2
ATOM      2  C   UNL A   1      32.617  32.835  27.209  1.00  0.00     0.116 C 
BRANCH   2   3
ATOM      3  N   UNL A   1      32.338  34.200  27.629  1.00  0.00    -0.352 N 
ATOM      4  O   UNL A   1      32.528  36.059  28.896  1.00  0.00    -0.269 OA
ATOM      5  C   UNL A   1      32.974  34.959  28.584  1.00  0.00     0.251 C 
ATOM      6  H   UNL A   1      31.591  34.641  27.166  1.00  0.00     0.163 HD
BRANCH   5   7
ATOM      7  C   UNL A   1      34.180  34.433  29.260  1.00  0.00     0.039 A 
ATOM      8  C   UNL A   1      35.448  34.634  28.710  1.00  0.00     0.014 A 
ATOM      9  C   UNL A   1      34.040  33.717  30.453  1.00  0.00     0.014 A 
ATOM     10  C   UNL A   1      36.547  33.990  29.263  1.00  0.00     0.010 A 
ATOM     11  C   UNL A   1      35.162  33.143  31.058  1.00  0.00     0.010 A 
ATOM     12  C   UNL A   1      36.420  33.243  30.447  1.00  0.00    -0.014 A 
BRANCH  12  13
ATOM     13  C   UNL A   1      37.637  32.628  31.038  1.00  0.00     0.031 A 
ATOM     14  C   UNL A   1      38.201  33.106  32.347  1.00  0.00     0.074 A 
ATOM     15  C   UNL A   1      38.197  31.580  30.404  1.00  0.00     0.049 A 
ATOM     16  N   UNL A   1      39.211  32.628  33.030  1.00  0.00    -0.248 NA
ATOM     17  C   UNL A   1      37.556  34.272  32.970  1.00  0.00     0.031 C 
ATOM     18  C   UNL A   1      37.751  31.041  29.117  1.00  0.00     0.029 A 
ATOM     19  N   UNL A   1      39.235  30.761  30.766  1.00  0.00    -0.354 N 
ATOM     20  C   UNL A   1      39.329  33.434  34.155  1.00  0.00     0.074 A 
ATOM     21  C   UNL A   1      38.306  34.453  34.050  1.00  0.00     0.031 C 
ATOM     22  C   UNL A   1      38.472  29.949  28.825  1.00  0.00     0.029 A 
ATOM     23  C   UNL A   1      39.463  29.742  29.874  1.00  0.00     0.049 A 
ATOM     24  H   UNL A   1      39.765  30.891  31.585  1.00  0.00     0.167 HD
ATOM     25  C   UNL A   1      40.203  33.327  35.185  1.00  0.00     0.037 A 
ATOM     26  C   UNL A   1      40.371  28.751  29.894  1.00  0.00     0.037 A 
ATOM     27  C   UNL A   1      41.215  32.306  35.292  1.00  0.00     0.049 A 
ATOM     28  C   UNL A   1      41.321  28.653  31.051  1.00  0.00     0.074 A 
ATOM     29  C   UNL A   1      42.146  32.115  36.299  1.00  0.00     0.029 A 
ATOM     30  N   UNL A   1      41.427  31.302  34.359  1.00  0.00    -0.354 N 
ATOM     31  N   UNL A   1      41.408  29.416  32.113  1.00  0.00    -0.248 NA
ATOM     32  C   UNL A   1      42.298  27.558  31.011  1.00  0.00     0.031 C 
ATOM     33  C   UNL A   1      42.938  31.010  35.963  1.00  0.00     0.029 A 
ATOM     34  C   UNL A   1      42.477  30.493  34.764  1.00  0.00     0.049 A 
ATOM     35  H   UNL A   1      40.907  31.182  33.532  1.00  0.00     0.167 HD
ATOM     36  C   UNL A   1      42.446  28.893  32.870  1.00  0.00     0.074 A 
ATOM     37  C   UNL A   1      42.937  27.729  32.161  1.00  0.00     0.031 C 
ATOM     38  C   UNL A   1      42.955  29.343  34.041  1.00  0.00     0.037 A 
BRANCH  25  39
ATOM     39  C   UNL A   1      40.110  34.343  36.284  1.00  0.00     0.057 A 
ATOM     40  C   UNL A   1      39.329  34.121  37.427  1.00  0.00     0.134 A 
ATOM     41  C   UNL A   1      40.852  35.530  36.231  1.00  0.00     0.134 A 
ATOM     42  F   UNL A   1      38.585  33.011  37.535  1.00  0.00    -0.206 F 
ATOM     43  C   UNL A   1      39.280  35.049  38.469  1.00  0.00     0.040 A 
ATOM     44  C   UNL A   1      40.827  36.455  37.276  1.00  0.00     0.040 A 
ATOM     45  F   UNL A   1      41.626  35.801  35.170  1.00  0.00    -0.206 F 
ATOM     46  C   UNL A   1      40.037  36.217  38.399  1.00  0.00     0.006 A 
ENDBRANCH  25  39
BRANCH  26  47
ATOM     47  C   UNL A   1      40.421  27.776  28.777  1.00  0.00     0.057 A 
ATOM     48  C   UNL A   1      41.221  28.002  27.651  1.00  0.00     0.134 A 
ATOM     49  C   UNL A   1      39.680  26.590  28.819  1.00  0.00     0.134 A 
ATOM     50  F   UNL A   1      41.940  29.128  27.549  1.00  0.00    -0.206 F 
ATOM     51  C   UNL A   1      41.270  27.087  26.598  1.00  0.00     0.040 A 
ATOM     52  C   UNL A   1      39.740  25.654  27.786  1.00  0.00     0.040 A 
ATOM     53  F   UNL A   1      38.903  26.313  29.876  1.00  0.00    -0.206 F 
ATOM     54  C   UNL A   1      40.533  25.906  26.667  1.00  0.00     0.006 A 
ENDBRANCH  26  47
BRANCH  38  55
ATOM     55  C   UNL A   1      44.094  28.562  34.624  1.00  0.00     0.057 A 
ATOM     56  C   UNL A   1      43.877  27.479  35.485  1.00  0.00     0.134 A 
ATOM     57  C   UNL A   1      45.419  28.892  34.317  1.00  0.00     0.134 A 
ATOM     58  F   UNL A   1      42.629  27.123  35.829  1.00  0.00    -0.206 F 
ATOM     59  C   UNL A   1      44.940  26.769  36.043  1.00  0.00     0.040 A 
ATOM     60  C   UNL A   1      46.490  28.176  34.852  1.00  0.00     0.040 A 
ATOM     61  F   UNL A   1      45.694  29.916  33.494  1.00  0.00    -0.206 F 
ATOM     62  C   UNL A   1      46.252  27.114  35.723  1.00  0.00     0.006 A 
ENDBRANCH  38  55
ENDBRANCH  12  13
ENDBRANCH   5   7
ENDBRANCH   2   3
ENDBRANCH   1   2
BRANCH   1  63
ATOM     63  C   UNL A   1      31.662  30.721  26.081  1.00  0.00     0.023 C 
BRANCH  63  64
ATOM     64  C   UNL A   1      32.060  29.682  27.126  1.00  0.00     0.116 C 
BRANCH  64  65
ATOM     65  N   UNL A   1      33.085  28.779  26.638  1.00  0.00    -0.354 N 
ATOM     66  C   UNL A   1      32.966  27.682  25.832  1.00  0.00     0.243 C 
ATOM     67  H   UNL A   1      34.002  28.987  26.929  1.00  0.00     0.163 HD
ATOM     68  O   UNL A   1      33.999  27.098  25.493  1.00  0.00    -0.273 OA
BRANCH  66  69
ATOM     69  C   UNL A   1      31.569  27.153  25.462  1.00  0.00     0.185 C 
ATOM     70  C   UNL A   1      31.379  25.789  26.129  1.00  0.00     0.106 C 
ATOM     71  N   UNL A   1      31.435  27.033  24.010  1.00  0.00    -0.317 N 
ATOM     72  S   UNL A   1      31.025  24.601  24.807  1.00  0.00    -0.138 SA
ATOM     73  C   UNL A   1      31.622  25.694  23.504  1.00  0.00     0.190 C 
BRANCH  71  74
ATOM     74  C   UNL A   1      31.281  28.191  23.271  1.00  0.00     0.255 C 
ATOM     75  O   UNL A   1      32.214  28.752  22.701  1.00  0.00    -0.269 OA
BRANCH  74  76
ATOM     76  C   UNL A   1      29.946  28.803  23.170  1.00  0.00     0.041 A 
ATOM     77  C   UNL A   1      28.806  27.992  23.170  1.00  0.00     0.014 A 
ATOM     78  C   UNL A   1      29.835  30.196  23.171  1.00  0.00     0.034 A 
ATOM     79  C   UNL A   1      27.542  28.578  23.126  1.00  0.00     0.002 A 
ATOM     80  C   UNL A   1      28.568  30.770  23.131  1.00  0.00     0.041 A 
ATOM     81  C   UNL A   1      27.424  29.969  23.103  1.00  0.00     0.020 A 
ATOM     82  Cl  UNL A   1      28.405  32.482  23.126  1.00  0.00    -0.084 Cl
ENDBRANCH  74  76
ENDBRANCH  71  74
ENDBRANCH  66  69
ENDBRANCH  64  65
ENDBRANCH  63  64
ENDBRANCH   1  63
TORSDOF 13
ENDMDL
MODEL 2
REMARK VINA RESULT:     -11.5      6.089     10.827
REMARK SMILES O=C(NCCCCNC(=O)[C@@H]1CSCN1C(=O)c1cccc(Cl)c1)c1ccc(-c2c3nc(c(-c4c(F)cccc4F)c4ccc([nH]4)c(-c4c(F)cccc4F)c4nc(c(-c5c(F)cccc5F)c5ccc2[nH]5)C=C4)C=C3)cc1
REMARK SMILES IDX 5 1 4 2 3 3 1 4 2 5 25 7 26 8 78 9 27 10 77 11 28 12 29 13
REMARK SMILES IDX 30 14 71 15 31 16 76 17 70 18 72 19 32 20 75 21 69 22 68 23
REMARK SMILES IDX 33 25 59 26 42 27 58 28 43 29 46 30 57 31 73 32 44 33 45 34
REMARK SMILES IDX 56 36 74 37 47 38 34 39 35 40 40 41 36 42 37 43 39 44 41 45
REMARK SMILES IDX 38 46 60 47 61 48 66 49 62 50 63 51 65 52 67 53 64 54 48 55
REMARK SMILES IDX 49 56 54 57 50 58 51 59 53 60 55 61 52 62 6 63 7 64 8 65
REMARK SMILES IDX 9 66 10 68 11 69 12 70 15 71 13 72 14 73 16 74 17 75 18 76
REMARK SMILES IDX 19 77 24 78 20 79 22 80 21 81 23 82
REMARK H PARENT 3 6 72 24 46 35 8 67
REMARK Flexibility Score: inf
ROOT
ATOM      1  C   UNL A   1      38.039  19.587  24.956  1.00  0.00     0.023 C 
ENDROOT
BRANCH   1   2
ATOM      2  C   UNL A   1      39.251  20.003  25.779  1.00  0.00     0.116 C 
BRANCH   2   3
ATOM      3  N   UNL A   1      40.299  18.994  25.808  1.00  0.00    -0.352 N 
ATOM      4  O   UNL A   1      42.409  18.199  25.932  1.00  0.00    -0.269 OA
ATOM      5  C   UNL A   1      41.642  19.147  26.068  1.00  0.00     0.251 C 
ATOM      6  H   UNL A   1      40.008  18.074  25.616  1.00  0.00     0.163 HD
BRANCH   5   7
ATOM      7  C   UNL A   1      42.166  20.467  26.479  1.00  0.00     0.039 A 
ATOM      8  C   UNL A   1      42.188  20.835  27.826  1.00  0.00     0.014 A 
ATOM      9  C   UNL A   1      42.630  21.355  25.503  1.00  0.00     0.014 A 
ATOM     10  C   UNL A   1      42.522  22.137  28.178  1.00  0.00     0.010 A 
ATOM     11  C   UNL A   1      43.050  22.637  25.870  1.00  0.00     0.010 A 
ATOM     12  C   UNL A   1      42.964  23.051  27.207  1.00  0.00    -0.014 A 
BRANCH  12  13
ATOM     13  C   UNL A   1      43.374  24.412  27.640  1.00  0.00     0.031 A 
ATOM     14  C   UNL A   1      44.809  24.857  27.576  1.00  0.00     0.074 A 
ATOM     15  C   UNL A   1      42.417  25.273  28.037  1.00  0.00     0.049 A 
ATOM     16  N   UNL A   1      45.317  26.033  27.848  1.00  0.00    -0.248 NA
ATOM     17  C   UNL A   1      45.804  23.857  27.159  1.00  0.00     0.031 C 
ATOM     18  C   UNL A   1      40.994  24.948  28.161  1.00  0.00     0.029 A 
ATOM     19  N   UNL A   1      42.487  26.599  28.377  1.00  0.00    -0.354 N 
ATOM     20  C   UNL A   1      46.687  25.915  27.645  1.00  0.00     0.074 A 
ATOM     21  C   UNL A   1      46.936  24.543  27.255  1.00  0.00     0.031 C 
ATOM     22  C   UNL A   1      40.318  26.058  28.494  1.00  0.00     0.029 A 
ATOM     23  C   UNL A   1      41.263  27.156  28.657  1.00  0.00     0.049 A 
ATOM     24  H   UNL A   1      43.331  27.103  28.417  1.00  0.00     0.167 HD
ATOM     25  C   UNL A   1      47.644  26.866  27.763  1.00  0.00     0.037 A 
ATOM     26  C   UNL A   1      40.935  28.411  29.012  1.00  0.00     0.037 A 
ATOM     27  C   UNL A   1      47.393  28.233  28.143  1.00  0.00     0.049 A 
ATOM     28  C   UNL A   1      42.016  29.444  29.127  1.00  0.00     0.074 A 
ATOM     29  C   UNL A   1      48.299  29.271  28.286  1.00  0.00     0.029 A 
ATOM     30  N   UNL A   1      46.141  28.755  28.436  1.00  0.00    -0.354 N 
ATOM     31  N   UNL A   1      43.303  29.317  28.915  1.00  0.00    -0.248 NA
ATOM     32  C   UNL A   1      41.599  30.793  29.529  1.00  0.00     0.031 C 
ATOM     33  C   UNL A   1      47.599  30.413  28.693  1.00  0.00     0.029 A 
ATOM     34  C   UNL A   1      46.253  30.096  28.767  1.00  0.00     0.049 A 
ATOM     35  H   UNL A   1      45.299  28.247  28.412  1.00  0.00     0.167 HD
ATOM     36  C   UNL A   1      43.850  30.569  29.157  1.00  0.00     0.074 A 
ATOM     37  C   UNL A   1      42.751  31.449  29.498  1.00  0.00     0.031 C 
ATOM     38  C   UNL A   1      45.148  30.953  29.110  1.00  0.00     0.037 A 
BRANCH  25  39
ATOM     39  C   UNL A   1      49.062  26.464  27.480  1.00  0.00     0.057 A 
ATOM     40  C   UNL A   1      49.911  26.002  28.495  1.00  0.00     0.134 A 
ATOM     41  C   UNL A   1      49.567  26.482  26.175  1.00  0.00     0.134 A 
ATOM     42  F   UNL A   1      49.492  25.972  29.769  1.00  0.00    -0.206 F 
ATOM     43  C   UNL A   1      51.215  25.585  28.222  1.00  0.00     0.040 A 
ATOM     44  C   UNL A   1      50.863  26.048  25.886  1.00  0.00     0.040 A 
ATOM     45  F   UNL A   1      48.805  26.905  25.155  1.00  0.00    -0.206 F 
ATOM     46  C   UNL A   1      51.692  25.600  26.912  1.00  0.00     0.006 A 
ENDBRANCH  25  39
BRANCH  26  47
ATOM     47  C   UNL A   1      39.517  28.751  29.283  1.00  0.00     0.057 A 
ATOM     48  C   UNL A   1      38.678  29.231  28.271  1.00  0.00     0.134 A 
ATOM     49  C   UNL A   1      38.966  28.591  30.560  1.00  0.00     0.134 A 
ATOM     50  F   UNL A   1      39.154  29.420  27.032  1.00  0.00    -0.206 F 
ATOM     51  C   UNL A   1      37.344  29.553  28.523  1.00  0.00     0.040 A 
ATOM     52  C   UNL A   1      37.627  28.883  30.820  1.00  0.00     0.040 A 
ATOM     53  F   UNL A   1      39.718  28.125  31.569  1.00  0.00    -0.206 F 
ATOM     54  C   UNL A   1      36.813  29.372  29.800  1.00  0.00     0.006 A 
ENDBRANCH  26  47
BRANCH  38  55
ATOM     55  C   UNL A   1      45.437  32.389  29.430  1.00  0.00     0.057 A 
ATOM     56  C   UNL A   1      45.424  33.378  28.438  1.00  0.00     0.134 A 
ATOM     57  C   UNL A   1      45.724  32.787  30.741  1.00  0.00     0.134 A 
ATOM     58  F   UNL A   1      45.170  33.056  27.160  1.00  0.00    -0.206 F 
ATOM     59  C   UNL A   1      45.715  34.710  28.734  1.00  0.00     0.040 A 
ATOM     60  C   UNL A   1      45.995  34.119  31.053  1.00  0.00     0.040 A 
ATOM     61  F   UNL A   1      45.746  31.888  31.736  1.00  0.00    -0.206 F 
ATOM     62  C   UNL A   1      45.997  35.084  30.047  1.00  0.00     0.006 A 
ENDBRANCH  38  55
ENDBRANCH  12  13
ENDBRANCH   5   7
ENDBRANCH   2   3
ENDBRANCH   1   2
BRANCH   1  63
ATOM     63  C   UNL A   1      36.845  20.539  25.020  1.00  0.00     0.023 C 
BRANCH  63  64
ATOM     64  C   UNL A   1      37.013  21.842  24.241  1.00  0.00     0.116 C 
BRANCH  64  65
ATOM     65  N   UNL A   1      36.403  22.969  24.921  1.00  0.00    -0.354 N 
ATOM     66  C   UNL A   1      35.109  23.404  24.896  1.00  0.00     0.243 C 
ATOM     67  H   UNL A   1      37.013  23.500  25.484  1.00  0.00     0.163 HD
ATOM     68  O   UNL A   1      34.805  24.360  25.614  1.00  0.00    -0.273 OA
BRANCH  66  69
ATOM     69  C   UNL A   1      34.107  22.768  23.915  1.00  0.00     0.185 C 
ATOM     70  C   UNL A   1      33.598  23.860  22.973  1.00  0.00     0.106 C 
ATOM     71  N   UNL A   1      32.992  22.162  24.642  1.00  0.00    -0.317 N 
ATOM     72  S   UNL A   1      31.795  23.903  23.141  1.00  0.00    -0.138 SA
ATOM     73  C   UNL A   1      31.800  22.974  24.686  1.00  0.00     0.190 C 
BRANCH  71  74
ATOM     74  C   UNL A   1      33.218  20.973  25.310  1.00  0.00     0.255 C 
ATOM     75  O   UNL A   1      33.499  20.917  26.505  1.00  0.00    -0.269 OA
BRANCH  74  76
ATOM     76  C   UNL A   1      33.139  19.707  24.562  1.00  0.00     0.041 A 
ATOM     77  C   UNL A   1      32.411  19.647  23.368  1.00  0.00     0.014 A 
ATOM     78  C   UNL A   1      33.875  18.607  25.009  1.00  0.00     0.034 A 
ATOM     79  C   UNL A   1      32.382  18.460  22.638  1.00  0.00     0.002 A 
ATOM     80  C   UNL A   1      33.842  17.429  24.268  1.00  0.00     0.041 A 
ATOM     81  C   UNL A   1      33.096  17.349  23.090  1.00  0.00     0.020 A 
ATOM     82  Cl  UNL A   1      34.735  16.059  24.802  1.00  0.00    -0.084 Cl
ENDBRANCH  74  76
ENDBRANCH  71  74
ENDBRANCH  66  69
ENDBRANCH  64  65
ENDBRANCH  63  64
ENDBRANCH   1  63
TORSDOF 13
ENDMDL
MODEL 3
REMARK VINA RESULT:     -11.5      5.389     10.126
REMARK SMILES O=C(NCCCCNC(=O)[C@@H]1CSCN1C(=O)c1cccc(Cl)c1)c1ccc(-c2c3nc(c(-c4c(F)cccc4F)c4ccc([nH]4)c(-c4c(F)cccc4F)c4nc(c(-c5c(F)cccc5F)c5ccc2[nH]5)C=C4)C=C3)cc1
REMARK SMILES IDX 5 1 4 2 3 3 1 4 2 5 25 7 26 8 78 9 27 10 77 11 28 12 29 13
REMARK SMILES IDX 30 14 71 15 31 16 76 17 70 18 72 19 32 20 75 21 69 22 68 23
REMARK SMILES IDX 33 25 59 26 42 27 58 28 43 29 46 30 57 31 73 32 44 33 45 34
REMARK SMILES IDX 56 36 74 37 47 38 34 39 35 40 40 41 36 42 37 43 39 44 41 45
REMARK SMILES IDX 38 46 60 47 61 48 66 49 62 50 63 51 65 52 67 53 64 54 48 55
REMARK SMILES IDX 49 56 54 57 50 58 51 59 53 60 55 61 52 62 6 63 7 64 8 65
REMARK SMILES IDX 9 66 10 68 11 69 12 70 15 71 13 72 14 73 16 74 17 75 18 76
REMARK SMILES IDX 19 77 24 78 20 79 22 80 21 81 23 82
REMARK H PARENT 3 6 72 24 46 35 8 67
REMARK Flexibility Score: inf
ROOT
ATOM      1  C   UNL A   1      37.865  20.168  24.791  1.00  0.00     0.023 C 
ENDROOT
BRANCH   1   2
ATOM      2  C   UNL A   1      38.907  20.312  25.892  1.00  0.00     0.116 C 
BRANCH   2   3
ATOM      3  N   UNL A   1      40.027  19.394  25.746  1.00  0.00    -0.352 N 
ATOM      4  O   UNL A   1      42.193  18.758  25.690  1.00  0.00    -0.269 OA
ATOM      5  C   UNL A   1      41.365  19.615  25.982  1.00  0.00     0.251 C 
ATOM      6  H   UNL A   1      39.796  18.490  25.435  1.00  0.00     0.163 HD
BRANCH   5   7
ATOM      7  C   UNL A   1      41.807  20.904  26.558  1.00  0.00     0.039 A 
ATOM      8  C   UNL A   1      41.810  21.100  27.941  1.00  0.00     0.014 A 
ATOM      9  C   UNL A   1      42.211  21.934  25.703  1.00  0.00     0.014 A 
ATOM     10  C   UNL A   1      42.064  22.366  28.455  1.00  0.00     0.010 A 
ATOM     11  C   UNL A   1      42.552  23.183  26.230  1.00  0.00     0.010 A 
ATOM     12  C   UNL A   1      42.445  23.421  27.608  1.00  0.00    -0.014 A 
BRANCH  12  13
ATOM     13  C   UNL A   1      42.771  24.739  28.210  1.00  0.00     0.031 A 
ATOM     14  C   UNL A   1      44.188  25.127  28.530  1.00  0.00     0.074 A 
ATOM     15  C   UNL A   1      41.769  25.617  28.410  1.00  0.00     0.049 A 
ATOM     16  N   UNL A   1      44.644  26.265  28.990  1.00  0.00    -0.248 NA
ATOM     17  C   UNL A   1      45.228  24.110  28.312  1.00  0.00     0.031 C 
ATOM     18  C   UNL A   1      40.351  25.345  28.159  1.00  0.00     0.029 A 
ATOM     19  N   UNL A   1      41.788  26.920  28.836  1.00  0.00    -0.354 N 
ATOM     20  C   UNL A   1      46.017  26.102  29.124  1.00  0.00     0.074 A 
ATOM     21  C   UNL A   1      46.318  24.743  28.726  1.00  0.00     0.031 C 
ATOM     22  C   UNL A   1      39.644  26.463  28.380  1.00  0.00     0.029 A 
ATOM     23  C   UNL A   1      40.548  27.512  28.838  1.00  0.00     0.049 A 
ATOM     24  H   UNL A   1      42.609  27.386  29.113  1.00  0.00     0.167 HD
ATOM     25  C   UNL A   1      46.941  27.005  29.532  1.00  0.00     0.037 A 
ATOM     26  C   UNL A   1      40.176  28.759  29.175  1.00  0.00     0.037 A 
ATOM     27  C   UNL A   1      46.640  28.360  29.920  1.00  0.00     0.049 A 
ATOM     28  C   UNL A   1      41.222  29.739  29.616  1.00  0.00     0.074 A 
ATOM     29  C   UNL A   1      47.509  29.351  30.345  1.00  0.00     0.029 A 
ATOM     30  N   UNL A   1      45.369  28.917  29.926  1.00  0.00    -0.354 N 
ATOM     31  N   UNL A   1      42.517  29.571  29.722  1.00  0.00    -0.248 NA
ATOM     32  C   UNL A   1      40.755  31.082  29.983  1.00  0.00     0.031 C 
ATOM     33  C   UNL A   1      46.762  30.498  30.634  1.00  0.00     0.029 A 
ATOM     34  C   UNL A   1      45.431  30.234  30.354  1.00  0.00     0.049 A 
ATOM     35  H   UNL A   1      44.546  28.446  29.664  1.00  0.00     0.167 HD
ATOM     36  C   UNL A   1      43.021  30.784  30.166  1.00  0.00     0.074 A 
ATOM     37  C   UNL A   1      41.896  31.690  30.277  1.00  0.00     0.031 C 
ATOM     38  C   UNL A   1      44.300  31.116  30.465  1.00  0.00     0.037 A 
BRANCH  25  39
ATOM     39  C   UNL A   1      48.373  26.560  29.585  1.00  0.00     0.057 A 
ATOM     40  C   UNL A   1      49.254  26.791  28.521  1.00  0.00     0.134 A 
ATOM     41  C   UNL A   1      48.892  25.946  30.731  1.00  0.00     0.134 A 
ATOM     42  F   UNL A   1      48.817  27.364  27.389  1.00  0.00    -0.206 F 
ATOM     43  C   UNL A   1      50.597  26.416  28.591  1.00  0.00     0.040 A 
ATOM     44  C   UNL A   1      50.238  25.586  30.821  1.00  0.00     0.040 A 
ATOM     45  F   UNL A   1      48.105  25.703  31.789  1.00  0.00    -0.206 F 
ATOM     46  C   UNL A   1      51.095  25.818  29.747  1.00  0.00     0.006 A 
ENDBRANCH  25  39
BRANCH  26  47
ATOM     47  C   UNL A   1      38.745  29.143  29.108  1.00  0.00     0.057 A 
ATOM     48  C   UNL A   1      38.159  29.556  27.906  1.00  0.00     0.134 A 
ATOM     49  C   UNL A   1      37.928  29.091  30.243  1.00  0.00     0.134 A 
ATOM     50  F   UNL A   1      38.896  29.641  26.790  1.00  0.00    -0.206 F 
ATOM     51  C   UNL A   1      36.814  29.919  27.840  1.00  0.00     0.040 A 
ATOM     52  C   UNL A   1      36.575  29.425  30.185  1.00  0.00     0.040 A 
ATOM     53  F   UNL A   1      38.430  28.693  31.422  1.00  0.00    -0.206 F 
ATOM     54  C   UNL A   1      36.016  29.847  28.981  1.00  0.00     0.006 A 
ENDBRANCH  26  47
BRANCH  38  55
ATOM     55  C   UNL A   1      44.538  32.521  30.932  1.00  0.00     0.057 A 
ATOM     56  C   UNL A   1      44.805  33.558  30.030  1.00  0.00     0.134 A 
ATOM     57  C   UNL A   1      44.495  32.840  32.294  1.00  0.00     0.134 A 
ATOM     58  F   UNL A   1      44.875  33.313  28.712  1.00  0.00    -0.206 F 
ATOM     59  C   UNL A   1      45.049  34.860  30.468  1.00  0.00     0.040 A 
ATOM     60  C   UNL A   1      44.715  34.142  32.743  1.00  0.00     0.040 A 
ATOM     61  F   UNL A   1      44.239  31.892  33.208  1.00  0.00    -0.206 F 
ATOM     62  C   UNL A   1      45.000  35.155  31.830  1.00  0.00     0.006 A 
ENDBRANCH  38  55
ENDBRANCH  12  13
ENDBRANCH   5   7
ENDBRANCH   2   3
ENDBRANCH   1   2
BRANCH   1  63
ATOM     63  C   UNL A   1      36.575  20.960  25.001  1.00  0.00     0.023 C 
BRANCH  63  64
ATOM     64  C   UNL A   1      36.369  22.130  24.042  1.00  0.00     0.116 C 
BRANCH  64  65
ATOM     65  N   UNL A   1      35.783  23.283  24.701  1.00  0.00    -0.354 N 
ATOM     66  C   UNL A   1      34.477  23.681  24.758  1.00  0.00     0.243 C 
ATOM     67  H   UNL A   1      36.419  23.863  25.177  1.00  0.00     0.163 HD
ATOM     68  O   UNL A   1      34.204  24.673  25.440  1.00  0.00    -0.273 OA
BRANCH  66  69
ATOM     69  C   UNL A   1      33.419  22.959  23.905  1.00  0.00     0.185 C 
ATOM     70  C   UNL A   1      32.665  24.008  23.086  1.00  0.00     0.106 C 
ATOM     71  N   UNL A   1      32.492  22.217  24.759  1.00  0.00    -0.317 N 
ATOM     72  S   UNL A   1      30.910  23.845  23.509  1.00  0.00    -0.138 SA
ATOM     73  C   UNL A   1      31.238  22.889  25.002  1.00  0.00     0.190 C 
BRANCH  71  74
ATOM     74  C   UNL A   1      32.938  21.046  25.343  1.00  0.00     0.255 C 
ATOM     75  O   UNL A   1      33.339  20.984  26.503  1.00  0.00    -0.269 OA
BRANCH  74  76
ATOM     76  C   UNL A   1      32.957  19.809  24.543  1.00  0.00     0.041 A 
ATOM     77  C   UNL A   1      32.270  19.757  23.325  1.00  0.00     0.014 A 
ATOM     78  C   UNL A   1      33.742  18.736  24.970  1.00  0.00     0.034 A 
ATOM     79  C   UNL A   1      32.333  18.603  22.547  1.00  0.00     0.002 A 
ATOM     80  C   UNL A   1      33.801  17.590  24.182  1.00  0.00     0.041 A 
ATOM     81  C   UNL A   1      33.097  17.517  22.978  1.00  0.00     0.020 A 
ATOM     82  Cl  UNL A   1      34.756  16.253  24.689  1.00  0.00    -0.084 Cl
ENDBRANCH  74  76
ENDBRANCH  71  74
ENDBRANCH  66  69
ENDBRANCH  64  65
ENDBRANCH  63  64
ENDBRANCH   1  63
TORSDOF 13
ENDMDL
