MODEL 1
REMARK VINA RESULT:     -11.2      0.000      0.000
REMARK SMILES COCCCN1C(=O)CC[C@@H](C(=O)NCCCCNC(=O)c2ccc(-c3c4nc(c(-c5c(F)cccc5F)c5ccc([nH]5)c(-c5c(F)cccc5F)c5nc(c(-c6c(F)cccc6F)c6ccc3[nH]6)C=C5)C=C4)cc2)[C@@H]1c1ccc(F)cc1
REMARK SMILES IDX 15 1 14 2 12 3 13 4 11 6 6 7 7 8 76 9 8 10 9 11 10 12 5 13
REMARK SMILES IDX 4 14 3 15 2 16 1 17 77 18 78 19 83 20 79 21 82 22 80 23
REMARK SMILES IDX 81 24 16 25 17 26 18 27 19 28 20 29 21 31 22 32 23 33 75 34
REMARK SMILES IDX 24 35 74 36 25 37 26 38 27 39 68 40 28 41 73 42 67 43 69 44
REMARK SMILES IDX 29 45 72 46 66 47 65 48 30 50 56 51 39 52 55 53 40 54 43 55
REMARK SMILES IDX 54 56 70 57 41 58 42 59 53 61 71 62 44 63 31 64 32 65 37 66
REMARK SMILES IDX 33 67 34 68 36 69 38 70 35 71 57 72 58 73 63 74 59 75 60 76
REMARK SMILES IDX 62 77 64 78 61 79 45 80 46 81 51 82 47 83 48 84 50 85 52 86
REMARK SMILES IDX 49 87
REMARK H PARENT 14 5 19 30 69 49 43 60
REMARK Flexibility Score: inf
ROOT
ATOM      1  C   UNL A   1      36.337  22.553  24.809  1.00  0.00     0.116 C 
ENDROOT
BRANCH   1   2
ATOM      2  N   UNL A   1      35.570  22.979  23.657  1.00  0.00    -0.356 N 
ATOM      3  C   UNL A   1      34.578  23.911  23.566  1.00  0.00     0.225 C 
ATOM      4  O   UNL A   1      33.965  23.986  22.502  1.00  0.00    -0.275 OA
ATOM      5  H   UNL A   1      35.797  22.528  22.812  1.00  0.00     0.163 HD
BRANCH   3   6
ATOM      6  C   UNL A   1      34.277  24.814  24.758  1.00  0.00     0.106 C 
ATOM      7  N   UNL A   1      31.770  24.843  24.503  1.00  0.00    -0.335 N 
ATOM      8  C   UNL A   1      31.694  23.618  25.151  1.00  0.00     0.223 C 
ATOM      9  C   UNL A   1      33.010  25.646  24.497  1.00  0.00     0.128 C 
ATOM     10  O   UNL A   1      30.726  22.864  25.040  1.00  0.00    -0.275 OA
ATOM     11  C   UNL A   1      32.823  23.203  26.075  1.00  0.00     0.101 C 
ATOM     12  C   UNL A   1      34.099  24.025  26.049  1.00  0.00     0.026 C 
BRANCH   7  13
ATOM     13  C   UNL A   1      30.734  25.251  23.534  1.00  0.00     0.122 C 
BRANCH  13  14
ATOM     14  C   UNL A   1      29.537  26.094  24.002  1.00  0.00     0.050 C 
BRANCH  14  15
ATOM     15  C   UNL A   1      29.401  27.467  23.347  1.00  0.00     0.161 C 
BRANCH  15  16
ATOM     16  O   UNL A   1      30.421  27.754  22.388  1.00  0.00    -0.385 OA
ATOM     17  C   UNL A   1      31.198  28.902  22.676  1.00  0.00     0.194 C 
ENDBRANCH  15  16
ENDBRANCH  14  15
ENDBRANCH  13  14
ENDBRANCH   7  13
BRANCH   9  18
ATOM     18  C   UNL A   1      32.952  26.888  25.392  1.00  0.00    -0.024 A 
ATOM     19  C   UNL A   1      32.052  27.014  26.461  1.00  0.00     0.009 A 
ATOM     20  C   UNL A   1      33.836  27.960  25.146  1.00  0.00     0.009 A 
ATOM     21  C   UNL A   1      31.992  28.192  27.213  1.00  0.00     0.039 A 
ATOM     22  C   UNL A   1      33.795  29.125  25.914  1.00  0.00     0.039 A 
ATOM     23  C   UNL A   1      32.861  29.238  26.930  1.00  0.00     0.123 A 
ATOM     24  F   UNL A   1      32.794  30.369  27.644  1.00  0.00    -0.207 F 
ENDBRANCH   9  18
ENDBRANCH   3   6
ENDBRANCH   1   2
BRANCH   1  25
ATOM     25  C   UNL A   1      36.236  21.051  25.040  1.00  0.00     0.023 C 
BRANCH  25  26
ATOM     26  C   UNL A   1      37.525  20.281  24.757  1.00  0.00     0.023 C 
BRANCH  26  27
ATOM     27  C   UNL A   1      38.678  20.585  25.707  1.00  0.00     0.116 C 
BRANCH  27  28
ATOM     28  N   UNL A   1      39.693  19.543  25.715  1.00  0.00    -0.352 N 
ATOM     29  C   UNL A   1      41.026  19.640  26.032  1.00  0.00     0.251 C 
ATOM     30  H   UNL A   1      39.382  18.646  25.457  1.00  0.00     0.163 HD
ATOM     31  O   UNL A   1      41.776  18.687  25.840  1.00  0.00    -0.269 OA
BRANCH  29  32
ATOM     32  C   UNL A   1      41.559  20.905  26.578  1.00  0.00     0.039 A 
ATOM     33  C   UNL A   1      42.061  21.865  25.694  1.00  0.00     0.014 A 
ATOM     34  C   UNL A   1      41.546  21.153  27.953  1.00  0.00     0.014 A 
ATOM     35  C   UNL A   1      42.491  23.098  26.187  1.00  0.00     0.010 A 
ATOM     36  C   UNL A   1      41.894  22.412  28.431  1.00  0.00     0.010 A 
ATOM     37  C   UNL A   1      42.379  23.395  27.555  1.00  0.00    -0.014 A 
BRANCH  37  38
ATOM     38  C   UNL A   1      42.775  24.723  28.092  1.00  0.00     0.031 A 
ATOM     39  C   UNL A   1      41.732  25.781  28.329  1.00  0.00     0.074 A 
ATOM     40  C   UNL A   1      44.076  24.998  28.309  1.00  0.00     0.049 A 
ATOM     41  N   UNL A   1      41.884  27.019  28.725  1.00  0.00    -0.248 NA
ATOM     42  C   UNL A   1      40.335  25.406  28.057  1.00  0.00     0.031 C 
ATOM     43  C   UNL A   1      45.188  24.074  28.078  1.00  0.00     0.029 A 
ATOM     44  N   UNL A   1      44.684  26.142  28.765  1.00  0.00    -0.354 N 
ATOM     45  C   UNL A   1      40.609  27.571  28.736  1.00  0.00     0.074 A 
ATOM     46  C   UNL A   1      39.704  26.554  28.249  1.00  0.00     0.031 C 
ATOM     47  C   UNL A   1      46.339  24.679  28.416  1.00  0.00     0.029 A 
ATOM     48  C   UNL A   1      46.052  26.044  28.847  1.00  0.00     0.049 A 
ATOM     49  H   UNL A   1      44.186  26.955  29.010  1.00  0.00     0.167 HD
ATOM     50  C   UNL A   1      40.223  28.805  29.139  1.00  0.00     0.037 A 
ATOM     51  C   UNL A   1      46.972  26.954  29.218  1.00  0.00     0.037 A 
ATOM     52  C   UNL A   1      41.123  29.810  29.639  1.00  0.00     0.049 A 
ATOM     53  C   UNL A   1      46.519  28.325  29.645  1.00  0.00     0.074 A 
ATOM     54  C   UNL A   1      40.824  31.072  30.121  1.00  0.00     0.029 A 
ATOM     55  N   UNL A   1      42.501  29.667  29.722  1.00  0.00    -0.354 N 
ATOM     56  N   UNL A   1      45.303  28.811  29.714  1.00  0.00    -0.248 NA
ATOM     57  C   UNL A   1      47.568  29.270  30.055  1.00  0.00     0.031 C 
ATOM     58  C   UNL A   1      42.024  31.713  30.445  1.00  0.00     0.029 A 
ATOM     59  C   UNL A   1      43.067  30.827  30.225  1.00  0.00     0.049 A 
ATOM     60  H   UNL A   1      43.002  28.860  29.460  1.00  0.00     0.167 HD
ATOM     61  C   UNL A   1      45.437  30.102  30.208  1.00  0.00     0.074 A 
ATOM     62  C   UNL A   1      46.851  30.319  30.433  1.00  0.00     0.031 C 
ATOM     63  C   UNL A   1      44.475  31.025  30.456  1.00  0.00     0.037 A 
BRANCH  50  64
ATOM     64  C   UNL A   1      38.760  29.135  29.051  1.00  0.00     0.057 A 
ATOM     65  C   UNL A   1      37.912  29.045  30.164  1.00  0.00     0.134 A 
ATOM     66  C   UNL A   1      38.197  29.581  27.848  1.00  0.00     0.134 A 
ATOM     67  F   UNL A   1      38.383  28.613  31.345  1.00  0.00    -0.206 F 
ATOM     68  C   UNL A   1      36.554  29.354  30.076  1.00  0.00     0.040 A 
ATOM     69  C   UNL A   1      36.847  29.923  27.756  1.00  0.00     0.040 A 
ATOM     70  F   UNL A   1      38.951  29.698  26.745  1.00  0.00    -0.206 F 
ATOM     71  C   UNL A   1      36.019  29.801  28.870  1.00  0.00     0.006 A 
ENDBRANCH  50  64
BRANCH  51  72
ATOM     72  C   UNL A   1      48.414  26.598  29.225  1.00  0.00     0.057 A 
ATOM     73  C   UNL A   1      49.233  26.878  28.124  1.00  0.00     0.134 A 
ATOM     74  C   UNL A   1      49.005  25.955  30.319  1.00  0.00     0.134 A 
ATOM     75  F   UNL A   1      48.721  27.476  27.038  1.00  0.00    -0.206 F 
ATOM     76  C   UNL A   1      50.580  26.511  28.100  1.00  0.00     0.040 A 
ATOM     77  C   UNL A   1      50.358  25.608  30.321  1.00  0.00     0.040 A 
ATOM     78  F   UNL A   1      48.279  25.667  31.409  1.00  0.00    -0.206 F 
ATOM     79  C   UNL A   1      51.146  25.876  29.203  1.00  0.00     0.006 A 
ENDBRANCH  51  72
BRANCH  63  80
ATOM     80  C   UNL A   1      44.910  32.334  31.050  1.00  0.00     0.057 A 
ATOM     81  C   UNL A   1      45.237  33.441  30.257  1.00  0.00     0.134 A 
ATOM     82  C   UNL A   1      44.965  32.497  32.441  1.00  0.00     0.134 A 
ATOM     83  F   UNL A   1      45.217  33.349  28.918  1.00  0.00    -0.206 F 
ATOM     84  C   UNL A   1      45.629  34.655  30.825  1.00  0.00     0.040 A 
ATOM     85  C   UNL A   1      45.325  33.715  33.020  1.00  0.00     0.040 A 
ATOM     86  F   UNL A   1      44.654  31.481  33.259  1.00  0.00    -0.206 F 
ATOM     87  C   UNL A   1      45.666  34.796  32.210  1.00  0.00     0.006 A 
ENDBRANCH  63  80
ENDBRANCH  37  38
ENDBRANCH  29  32
ENDBRANCH  27  28
ENDBRANCH  26  27
ENDBRANCH  25  26
ENDBRANCH   1  25
TORSDOF 16
ENDMDL
MODEL 2
REMARK VINA RESULT:     -11.1      0.503      6.200
REMARK SMILES COCCCN1C(=O)CC[C@@H](C(=O)NCCCCNC(=O)c2ccc(-c3c4nc(c(-c5c(F)cccc5F)c5ccc([nH]5)c(-c5c(F)cccc5F)c5nc(c(-c6c(F)cccc6F)c6ccc3[nH]6)C=C5)C=C4)cc2)[C@@H]1c1ccc(F)cc1
REMARK SMILES IDX 15 1 14 2 12 3 13 4 11 6 6 7 7 8 76 9 8 10 9 11 10 12 5 13
REMARK SMILES IDX 4 14 3 15 2 16 1 17 77 18 78 19 83 20 79 21 82 22 80 23
REMARK SMILES IDX 81 24 16 25 17 26 18 27 19 28 20 29 21 31 22 32 23 33 75 34
REMARK SMILES IDX 24 35 74 36 25 37 26 38 27 39 68 40 28 41 73 42 67 43 69 44
REMARK SMILES IDX 29 45 72 46 66 47 65 48 30 50 56 51 39 52 55 53 40 54 43 55
REMARK SMILES IDX 54 56 70 57 41 58 42 59 53 61 71 62 44 63 31 64 32 65 37 66
REMARK SMILES IDX 33 67 34 68 36 69 38 70 35 71 57 72 58 73 63 74 59 75 60 76
REMARK SMILES IDX 62 77 64 78 61 79 45 80 46 81 51 82 47 83 48 84 50 85 52 86
REMARK SMILES IDX 49 87
REMARK H PARENT 14 5 19 30 69 49 43 60
REMARK Flexibility Score: inf
ROOT
ATOM      1  C   UNL A   1      36.413  22.196  24.935  1.00  0.00     0.116 C 
ENDROOT
BRANCH   1   2
ATOM      2  N   UNL A   1      35.749  22.648  23.730  1.00  0.00    -0.356 N 
ATOM      3  C   UNL A   1      34.811  23.624  23.566  1.00  0.00     0.225 C 
ATOM      4  O   UNL A   1      34.278  23.719  22.461  1.00  0.00    -0.275 OA
ATOM      5  H   UNL A   1      36.015  22.181  22.906  1.00  0.00     0.163 HD
BRANCH   3   6
ATOM      6  C   UNL A   1      34.470  24.550  24.730  1.00  0.00     0.106 C 
ATOM      7  N   UNL A   1      31.982  24.639  24.338  1.00  0.00    -0.335 N 
ATOM      8  C   UNL A   1      31.839  23.424  24.994  1.00  0.00     0.223 C 
ATOM      9  C   UNL A   1      33.240  25.409  24.391  1.00  0.00     0.128 C 
ATOM     10  O   UNL A   1      30.859  22.693  24.838  1.00  0.00    -0.275 OA
ATOM     11  C   UNL A   1      32.905  22.992  25.983  1.00  0.00     0.101 C 
ATOM     12  C   UNL A   1      34.202  23.781  26.018  1.00  0.00     0.026 C 
BRANCH   7  13
ATOM     13  C   UNL A   1      31.011  25.062  23.310  1.00  0.00     0.122 C 
BRANCH  13  14
ATOM     14  C   UNL A   1      31.410  26.119  22.268  1.00  0.00     0.050 C 
BRANCH  14  15
ATOM     15  C   UNL A   1      30.659  27.445  22.354  1.00  0.00     0.161 C 
BRANCH  15  16
ATOM     16  O   UNL A   1      30.382  27.868  23.690  1.00  0.00    -0.385 OA
ATOM     17  C   UNL A   1      30.697  29.222  23.960  1.00  0.00     0.194 C 
ENDBRANCH  15  16
ENDBRANCH  14  15
ENDBRANCH  13  14
ENDBRANCH   7  13
BRANCH   9  18
ATOM     18  C   UNL A   1      33.166  26.664  25.268  1.00  0.00    -0.024 A 
ATOM     19  C   UNL A   1      33.994  27.779  25.071  1.00  0.00     0.009 A 
ATOM     20  C   UNL A   1      32.229  26.718  26.321  1.00  0.00     0.009 A 
ATOM     21  C   UNL A   1      33.935  28.878  25.935  1.00  0.00     0.039 A 
ATOM     22  C   UNL A   1      32.151  27.826  27.166  1.00  0.00     0.039 A 
ATOM     23  C   UNL A   1      33.017  28.890  26.976  1.00  0.00     0.123 A 
ATOM     24  F   UNL A   1      32.969  29.938  27.809  1.00  0.00    -0.207 F 
ENDBRANCH   9  18
ENDBRANCH   3   6
ENDBRANCH   1   2
BRANCH   1  25
ATOM     25  C   UNL A   1      36.369  20.680  25.078  1.00  0.00     0.023 C 
BRANCH  25  26
ATOM     26  C   UNL A   1      37.703  19.983  24.818  1.00  0.00     0.023 C 
BRANCH  26  27
ATOM     27  C   UNL A   1      38.821  20.347  25.788  1.00  0.00     0.116 C 
BRANCH  27  28
ATOM     28  N   UNL A   1      39.908  19.380  25.786  1.00  0.00    -0.352 N 
ATOM     29  C   UNL A   1      41.236  19.576  26.077  1.00  0.00     0.251 C 
ATOM     30  H   UNL A   1      39.658  18.461  25.543  1.00  0.00     0.163 HD
ATOM     31  O   UNL A   1      42.049  18.677  25.880  1.00  0.00    -0.269 OA
BRANCH  29  32
ATOM     32  C   UNL A   1      41.687  20.882  26.601  1.00  0.00     0.039 A 
ATOM     33  C   UNL A   1      42.144  21.850  25.702  1.00  0.00     0.014 A 
ATOM     34  C   UNL A   1      41.640  21.159  27.969  1.00  0.00     0.014 A 
ATOM     35  C   UNL A   1      42.494  23.117  26.172  1.00  0.00     0.010 A 
ATOM     36  C   UNL A   1      41.908  22.446  28.423  1.00  0.00     0.010 A 
ATOM     37  C   UNL A   1      42.346  23.437  27.531  1.00  0.00    -0.014 A 
BRANCH  37  38
ATOM     38  C   UNL A   1      42.657  24.797  28.044  1.00  0.00     0.031 A 
ATOM     39  C   UNL A   1      44.068  25.152  28.427  1.00  0.00     0.074 A 
ATOM     40  C   UNL A   1      41.664  25.690  28.221  1.00  0.00     0.049 A 
ATOM     41  N   UNL A   1      44.528  26.257  28.956  1.00  0.00    -0.248 NA
ATOM     42  C   UNL A   1      45.093  24.118  28.213  1.00  0.00     0.031 C 
ATOM     43  C   UNL A   1      40.249  25.455  27.930  1.00  0.00     0.029 A 
ATOM     44  N   UNL A   1      41.695  26.977  28.701  1.00  0.00    -0.354 N 
ATOM     45  C   UNL A   1      45.887  26.045  29.151  1.00  0.00     0.074 A 
ATOM     46  C   UNL A   1      46.166  24.686  28.740  1.00  0.00     0.031 C 
ATOM     47  C   UNL A   1      39.551  26.567  28.213  1.00  0.00     0.029 A 
ATOM     48  C   UNL A   1      40.460  27.578  28.745  1.00  0.00     0.049 A 
ATOM     49  H   UNL A   1      42.523  27.425  28.986  1.00  0.00     0.167 HD
ATOM     50  C   UNL A   1      46.824  26.911  29.606  1.00  0.00     0.037 A 
ATOM     51  C   UNL A   1      40.100  28.803  29.174  1.00  0.00     0.037 A 
ATOM     52  C   UNL A   1      46.548  28.267  29.997  1.00  0.00     0.049 A 
ATOM     53  C   UNL A   1      41.157  29.740  29.692  1.00  0.00     0.074 A 
ATOM     54  C   UNL A   1      47.435  29.240  30.423  1.00  0.00     0.029 A 
ATOM     55  N   UNL A   1      45.286  28.844  30.013  1.00  0.00    -0.354 N 
ATOM     56  N   UNL A   1      42.449  29.549  29.807  1.00  0.00    -0.248 NA
ATOM     57  C   UNL A   1      40.705  31.069  30.130  1.00  0.00     0.031 C 
ATOM     58  C   UNL A   1      46.706  30.388  30.747  1.00  0.00     0.029 A 
ATOM     59  C   UNL A   1      45.370  30.152  30.463  1.00  0.00     0.049 A 
ATOM     60  H   UNL A   1      44.454  28.391  29.745  1.00  0.00     0.167 HD
ATOM     61  C   UNL A   1      42.968  30.741  30.296  1.00  0.00     0.074 A 
ATOM     62  C   UNL A   1      41.853  31.653  30.443  1.00  0.00     0.031 C 
ATOM     63  C   UNL A   1      44.254  31.054  30.593  1.00  0.00     0.037 A 
BRANCH  50  64
ATOM     64  C   UNL A   1      48.237  26.411  29.706  1.00  0.00     0.057 A 
ATOM     65  C   UNL A   1      49.154  26.567  28.657  1.00  0.00     0.134 A 
ATOM     66  C   UNL A   1      48.698  25.797  30.877  1.00  0.00     0.134 A 
ATOM     67  F   UNL A   1      48.775  27.136  27.501  1.00  0.00    -0.206 F 
ATOM     68  C   UNL A   1      50.466  26.101  28.756  1.00  0.00     0.040 A 
ATOM     69  C   UNL A   1      50.017  25.355  31.000  1.00  0.00     0.040 A 
ATOM     70  F   UNL A   1      47.878  25.621  31.924  1.00  0.00    -0.206 F 
ATOM     71  C   UNL A   1      50.903  25.499  29.934  1.00  0.00     0.006 A 
ENDBRANCH  50  64
BRANCH  51  72
ATOM     72  C   UNL A   1      38.677  29.225  29.115  1.00  0.00     0.057 A 
ATOM     73  C   UNL A   1      37.856  29.163  30.248  1.00  0.00     0.134 A 
ATOM     74  C   UNL A   1      38.097  29.683  27.926  1.00  0.00     0.134 A 
ATOM     75  F   UNL A   1      38.349  28.715  31.412  1.00  0.00    -0.206 F 
ATOM     76  C   UNL A   1      36.507  29.517  30.197  1.00  0.00     0.040 A 
ATOM     77  C   UNL A   1      36.756  30.068  27.866  1.00  0.00     0.040 A 
ATOM     78  F   UNL A   1      38.829  29.776  26.807  1.00  0.00    -0.206 F 
ATOM     79  C   UNL A   1      35.955  29.975  29.003  1.00  0.00     0.006 A 
ENDBRANCH  51  72
BRANCH  63  80
ATOM     80  C   UNL A   1      44.535  32.455  31.055  1.00  0.00     0.057 A 
ATOM     81  C   UNL A   1      44.808  33.495  30.158  1.00  0.00     0.134 A 
ATOM     82  C   UNL A   1      44.493  32.773  32.419  1.00  0.00     0.134 A 
ATOM     83  F   UNL A   1      44.875  33.257  28.839  1.00  0.00    -0.206 F 
ATOM     84  C   UNL A   1      45.055  34.796  30.603  1.00  0.00     0.040 A 
ATOM     85  C   UNL A   1      44.707  34.074  32.873  1.00  0.00     0.040 A 
ATOM     86  F   UNL A   1      44.227  31.826  33.331  1.00  0.00    -0.206 F 
ATOM     87  C   UNL A   1      44.997  35.090  31.963  1.00  0.00     0.006 A 
ENDBRANCH  63  80
ENDBRANCH  37  38
ENDBRANCH  29  32
ENDBRANCH  27  28
ENDBRANCH  26  27
ENDBRANCH  25  26
ENDBRANCH   1  25
TORSDOF 16
ENDMDL
MODEL 3
REMARK VINA RESULT:     -10.9      2.309      6.865
REMARK SMILES COCCCN1C(=O)CC[C@@H](C(=O)NCCCCNC(=O)c2ccc(-c3c4nc(c(-c5c(F)cccc5F)c5ccc([nH]5)c(-c5c(F)cccc5F)c5nc(c(-c6c(F)cccc6F)c6ccc3[nH]6)C=C5)C=C4)cc2)[C@@H]1c1ccc(F)cc1
REMARK SMILES IDX 15 1 14 2 12 3 13 4 11 6 6 7 7 8 76 9 8 10 9 11 10 12 5 13
REMARK SMILES IDX 4 14 3 15 2 16 1 17 77 18 78 19 83 20 79 21 82 22 80 23
REMARK SMILES IDX 81 24 16 25 17 26 18 27 19 28 20 29 21 31 22 32 23 33 75 34
REMARK SMILES IDX 24 35 74 36 25 37 26 38 27 39 68 40 28 41 73 42 67 43 69 44
REMARK SMILES IDX 29 45 72 46 66 47 65 48 30 50 56 51 39 52 55 53 40 54 43 55
REMARK SMILES IDX 54 56 70 57 41 58 42 59 53 61 71 62 44 63 31 64 32 65 37 66
REMARK SMILES IDX 33 67 34 68 36 69 38 70 35 71 57 72 58 73 63 74 59 75 60 76
REMARK SMILES IDX 62 77 64 78 61 79 45 80 46 81 51 82 47 83 48 84 50 85 52 86
REMARK SMILES IDX 49 87
REMARK H PARENT 14 5 19 30 69 49 43 60
REMARK Flexibility Score: inf
ROOT
ATOM      1  C   UNL A   1      33.094  22.575  25.715  1.00  0.00     0.116 C 
ENDROOT
BRANCH   1   2
ATOM      2  N   UNL A   1      32.960  23.207  24.419  1.00  0.00    -0.356 N 
ATOM      3  C   UNL A   1      32.613  24.487  24.105  1.00  0.00     0.225 C 
ATOM      4  O   UNL A   1      32.413  24.748  22.919  1.00  0.00    -0.275 OA
ATOM      5  H   UNL A   1      33.146  22.624  23.648  1.00  0.00     0.163 HD
BRANCH   3   6
ATOM      6  C   UNL A   1      32.497  25.532  25.211  1.00  0.00     0.106 C 
ATOM      7  N   UNL A   1      30.904  27.076  24.016  1.00  0.00    -0.335 N 
ATOM      8  C   UNL A   1      29.842  26.265  24.390  1.00  0.00     0.223 C 
ATOM      9  C   UNL A   1      32.247  26.926  24.610  1.00  0.00     0.128 C 
ATOM     10  O   UNL A   1      28.760  26.268  23.801  1.00  0.00    -0.275 OA
ATOM     11  C   UNL A   1      29.995  25.368  25.605  1.00  0.00     0.101 C 
ATOM     12  C   UNL A   1      31.383  25.207  26.198  1.00  0.00     0.026 C 
BRANCH   7  13
ATOM     13  C   UNL A   1      30.829  27.904  22.796  1.00  0.00     0.122 C 
BRANCH  13  14
ATOM     14  C   UNL A   1      30.291  29.342  22.878  1.00  0.00     0.050 C 
BRANCH  14  15
ATOM     15  C   UNL A   1      28.789  29.497  22.652  1.00  0.00     0.161 C 
BRANCH  15  16
ATOM     16  O   UNL A   1      28.438  29.838  21.310  1.00  0.00    -0.385 OA
ATOM     17  C   UNL A   1      28.149  31.209  21.103  1.00  0.00     0.194 C 
ENDBRANCH  15  16
ENDBRANCH  14  15
ENDBRANCH  13  14
ENDBRANCH   7  13
BRANCH   9  18
ATOM     18  C   UNL A   1      32.623  28.042  25.591  1.00  0.00    -0.024 A 
ATOM     19  C   UNL A   1      31.693  28.973  26.076  1.00  0.00     0.009 A 
ATOM     20  C   UNL A   1      33.957  28.151  26.037  1.00  0.00     0.009 A 
ATOM     21  C   UNL A   1      32.093  30.013  26.921  1.00  0.00     0.039 A 
ATOM     22  C   UNL A   1      34.351  29.173  26.902  1.00  0.00     0.039 A 
ATOM     23  C   UNL A   1      33.419  30.106  27.323  1.00  0.00     0.123 A 
ATOM     24  F   UNL A   1      33.802  31.109  28.124  1.00  0.00    -0.207 F 
ENDBRANCH   9  18
ENDBRANCH   3   6
ENDBRANCH   1   2
BRANCH   1  25
ATOM     25  C   UNL A   1      34.503  22.046  25.950  1.00  0.00     0.023 C 
BRANCH  25  26
ATOM     26  C   UNL A   1      35.492  23.089  26.468  1.00  0.00     0.023 C 
BRANCH  26  27
ATOM     27  C   UNL A   1      36.718  23.307  25.590  1.00  0.00     0.116 C 
BRANCH  27  28
ATOM     28  N   UNL A   1      37.802  22.385  25.895  1.00  0.00    -0.352 N 
ATOM     29  C   UNL A   1      39.046  22.657  26.407  1.00  0.00     0.251 C 
ATOM     30  H   UNL A   1      37.617  21.437  25.708  1.00  0.00     0.163 HD
ATOM     31  O   UNL A   1      39.896  21.772  26.463  1.00  0.00    -0.269 OA
BRANCH  29  32
ATOM     32  C   UNL A   1      39.368  24.025  26.865  1.00  0.00     0.039 A 
ATOM     33  C   UNL A   1      39.056  24.390  28.177  1.00  0.00     0.014 A 
ATOM     34  C   UNL A   1      39.992  24.937  26.010  1.00  0.00     0.014 A 
ATOM     35  C   UNL A   1      39.428  25.650  28.650  1.00  0.00     0.010 A 
ATOM     36  C   UNL A   1      40.437  26.157  26.508  1.00  0.00     0.010 A 
ATOM     37  C   UNL A   1      40.153  26.530  27.830  1.00  0.00    -0.014 A 
BRANCH  37  38
ATOM     38  C   UNL A   1      40.611  27.852  28.332  1.00  0.00     0.031 A 
ATOM     39  C   UNL A   1      42.080  28.118  28.518  1.00  0.00     0.074 A 
ATOM     40  C   UNL A   1      39.707  28.789  28.676  1.00  0.00     0.049 A 
ATOM     41  N   UNL A   1      42.674  29.177  29.008  1.00  0.00    -0.248 NA
ATOM     42  C   UNL A   1      43.003  27.040  28.130  1.00  0.00     0.031 C 
ATOM     43  C   UNL A   1      38.253  28.640  28.585  1.00  0.00     0.029 A 
ATOM     44  N   UNL A   1      39.879  30.054  29.184  1.00  0.00    -0.354 N 
ATOM     45  C   UNL A   1      44.032  28.886  28.998  1.00  0.00     0.074 A 
ATOM     46  C   UNL A   1      44.171  27.531  28.512  1.00  0.00     0.031 C 
ATOM     47  C   UNL A   1      37.668  29.777  28.997  1.00  0.00     0.029 A 
ATOM     48  C   UNL A   1      38.700  30.718  29.422  1.00  0.00     0.049 A 
ATOM     49  H   UNL A   1      40.764  30.447  29.359  1.00  0.00     0.167 HD
ATOM     50  C   UNL A   1      45.072  29.684  29.339  1.00  0.00     0.037 A 
ATOM     51  C   UNL A   1      38.475  31.943  29.934  1.00  0.00     0.037 A 
ATOM     52  C   UNL A   1      44.933  31.038  29.805  1.00  0.00     0.049 A 
ATOM     53  C   UNL A   1      39.647  32.803  30.321  1.00  0.00     0.074 A 
ATOM     54  C   UNL A   1      45.927  31.946  30.127  1.00  0.00     0.029 A 
ATOM     55  N   UNL A   1      43.722  31.680  30.019  1.00  0.00    -0.354 N 
ATOM     56  N   UNL A   1      40.929  32.540  30.244  1.00  0.00    -0.248 NA
ATOM     57  C   UNL A   1      39.340  34.137  30.859  1.00  0.00     0.031 C 
ATOM     58  C   UNL A   1      45.318  33.118  30.585  1.00  0.00     0.029 A 
ATOM     59  C   UNL A   1      43.944  32.964  30.490  1.00  0.00     0.049 A 
ATOM     60  H   UNL A   1      42.835  31.281  29.860  1.00  0.00     0.167 HD
ATOM     61  C   UNL A   1      41.580  33.684  30.687  1.00  0.00     0.074 A 
ATOM     62  C   UNL A   1      40.552  34.648  31.020  1.00  0.00     0.031 C 
ATOM     63  C   UNL A   1      42.911  33.917  30.805  1.00  0.00     0.037 A 
BRANCH  50  64
ATOM     64  C   UNL A   1      46.454  29.107  29.220  1.00  0.00     0.057 A 
ATOM     65  C   UNL A   1      47.071  28.435  30.285  1.00  0.00     0.134 A 
ATOM     66  C   UNL A   1      47.166  29.195  28.016  1.00  0.00     0.134 A 
ATOM     67  F   UNL A   1      46.451  28.326  31.470  1.00  0.00    -0.206 F 
ATOM     68  C   UNL A   1      48.356  27.902  30.168  1.00  0.00     0.040 A 
ATOM     69  C   UNL A   1      48.438  28.637  27.878  1.00  0.00     0.040 A 
ATOM     70  F   UNL A   1      46.634  29.818  26.954  1.00  0.00    -0.206 F 
ATOM     71  C   UNL A   1      49.040  27.996  28.958  1.00  0.00     0.006 A 
ENDBRANCH  50  64
BRANCH  51  72
ATOM     72  C   UNL A   1      37.085  32.442  30.092  1.00  0.00     0.057 A 
ATOM     73  C   UNL A   1      36.493  33.255  29.117  1.00  0.00     0.134 A 
ATOM     74  C   UNL A   1      36.320  32.135  31.224  1.00  0.00     0.134 A 
ATOM     75  F   UNL A   1      37.181  33.599  28.019  1.00  0.00    -0.206 F 
ATOM     76  C   UNL A   1      35.203  33.766  29.274  1.00  0.00     0.040 A 
ATOM     77  C   UNL A   1      35.018  32.615  31.380  1.00  0.00     0.040 A 
ATOM     78  F   UNL A   1      36.824  31.354  32.191  1.00  0.00    -0.206 F 
ATOM     79  C   UNL A   1      34.461  33.442  30.407  1.00  0.00     0.006 A 
ENDBRANCH  51  72
BRANCH  63  80
ATOM     80  C   UNL A   1      43.335  35.284  31.263  1.00  0.00     0.057 A 
ATOM     81  C   UNL A   1      43.632  36.313  30.361  1.00  0.00     0.134 A 
ATOM     82  C   UNL A   1      43.409  35.582  32.630  1.00  0.00     0.134 A 
ATOM     83  F   UNL A   1      43.592  36.092  29.038  1.00  0.00    -0.206 F 
ATOM     84  C   UNL A   1      44.012  37.582  30.802  1.00  0.00     0.040 A 
ATOM     85  C   UNL A   1      43.758  36.855  33.082  1.00  0.00     0.040 A 
ATOM     86  F   UNL A   1      43.127  34.645  33.548  1.00  0.00    -0.206 F 
ATOM     87  C   UNL A   1      44.068  37.858  32.167  1.00  0.00     0.006 A 
ENDBRANCH  63  80
ENDBRANCH  37  38
ENDBRANCH  29  32
ENDBRANCH  27  28
ENDBRANCH  26  27
ENDBRANCH  25  26
ENDBRANCH   1  25
TORSDOF 16
ENDMDL
