MODEL 1
REMARK VINA RESULT:     -11.6      0.000      0.000
REMARK SMILES O=C(CC[NH+]1CC[NH+]([C@@H]2CCO[C@@]3(CCOC3)C2)CC1)NCCCCNC(=O)c1ccc(-c2c3nc(c(-c4c(F)cccc4F)c4ccc([nH]4)c(-c4c(F)cccc4F)c4nc(c(-c5c(F)cccc5F)c5ccc2[nH]5)C=C4)C=C3)cc1
REMARK SMILES IDX 23 1 22 2 21 3 1 4 2 5 3 7 4 8 5 9 6 10 20 11 7 13 19 14
REMARK SMILES IDX 8 15 9 17 10 18 18 19 11 20 13 21 12 22 14 23 17 24 15 25
REMARK SMILES IDX 16 26 24 27 25 28 26 29 27 30 28 32 29 33 30 34 82 35 31 36
REMARK SMILES IDX 81 37 32 38 33 39 34 40 75 41 35 42 80 43 74 44 76 45 36 46
REMARK SMILES IDX 79 47 73 48 72 49 37 51 63 52 46 53 62 54 47 55 50 56 61 57
REMARK SMILES IDX 77 58 48 59 49 60 60 62 78 63 51 64 38 65 39 66 44 67 40 68
REMARK SMILES IDX 41 69 43 70 45 71 42 72 64 73 65 74 70 75 66 76 67 77 69 78
REMARK SMILES IDX 71 79 68 80 52 81 53 82 58 83 54 84 55 85 57 86 59 87 56 88
REMARK H PARENT 21 6 5 12 8 16 26 31 76 50 50 61
REMARK Flexibility Score: inf
ROOT
ATOM      1  C   UNL A   1      40.134  20.782  26.576  1.00  0.00     0.023 C 
ENDROOT
BRANCH   1   2
ATOM      2  C   UNL A   1      39.261  21.818  25.838  1.00  0.00     0.116 C 
BRANCH   2   3
ATOM      3  N   UNL A   1      37.870  22.017  26.270  1.00  0.00    -0.356 N 
ATOM      4  O   UNL A   1      36.965  21.377  24.251  1.00  0.00    -0.275 OA
ATOM      5  C   UNL A   1      36.803  21.672  25.433  1.00  0.00     0.225 C 
ATOM      6  H   UNL A   1      37.688  22.400  27.158  1.00  0.00     0.163 HD
BRANCH   5   7
ATOM      7  C   UNL A   1      35.397  21.623  26.073  1.00  0.00     0.161 C 
BRANCH   7   8
ATOM      8  C   UNL A   1      34.239  22.311  25.255  1.00  0.00     0.272 C 
BRANCH   8   9
ATOM      9  N   UNL A   1      34.655  23.054  24.032  1.00  0.00    -0.325 N 
ATOM     10  C   UNL A   1      33.599  23.232  22.988  1.00  0.00     0.324 C 
ATOM     11  C   UNL A   1      35.068  24.402  24.365  1.00  0.00     0.324 C 
ATOM     12  H   UNL A   1      35.401  22.468  23.657  1.00  0.00     0.348 HD
ATOM     13  C   UNL A   1      32.583  24.465  23.071  1.00  0.00     0.324 C 
ATOM     14  C   UNL A   1      33.860  25.158  24.929  1.00  0.00     0.324 C 
ATOM     15  N   UNL A   1      32.897  25.624  23.946  1.00  0.00    -0.323 N 
ATOM     16  H   UNL A   1      32.048  25.919  24.428  1.00  0.00     0.348 HD
BRANCH  15  17
ATOM     17  C   UNL A   1      33.122  26.937  23.312  1.00  0.00     0.189 C 
ATOM     18  C   UNL A   1      33.692  28.018  24.210  1.00  0.00     0.093 C 
ATOM     19  C   UNL A   1      31.871  27.611  22.656  1.00  0.00     0.103 C 
ATOM     20  C   UNL A   1      32.637  28.627  25.118  1.00  0.00     0.167 C 
ATOM     21  C   UNL A   1      30.739  27.894  23.647  1.00  0.00     0.099 C 
ATOM     22  O   UNL A   1      31.273  28.220  24.949  1.00  0.00    -0.372 OA
ATOM     23  C   UNL A   1      29.769  29.039  23.337  1.00  0.00     0.066 C 
ATOM     24  C   UNL A   1      29.751  26.675  23.630  1.00  0.00     0.195 C 
ATOM     25  C   UNL A   1      28.450  28.414  22.950  1.00  0.00     0.163 C 
ATOM     26  O   UNL A   1      28.409  27.181  23.655  1.00  0.00    -0.378 OA
ENDBRANCH  15  17
ENDBRANCH   8   9
ENDBRANCH   7   8
ENDBRANCH   5   7
ENDBRANCH   2   3
ENDBRANCH   1   2
BRANCH   1  27
ATOM     27  C   UNL A   1      41.036  21.222  27.746  1.00  0.00     0.023 C 
BRANCH  27  28
ATOM     28  C   UNL A   1      42.472  21.770  27.532  1.00  0.00     0.116 C 
BRANCH  28  29
ATOM     29  N   UNL A   1      42.909  22.159  26.201  1.00  0.00    -0.352 N 
ATOM     30  C   UNL A   1      42.971  23.435  25.658  1.00  0.00     0.251 C 
ATOM     31  H   UNL A   1      43.197  21.426  25.611  1.00  0.00     0.163 HD
ATOM     32  O   UNL A   1      43.430  23.609  24.529  1.00  0.00    -0.269 OA
BRANCH  30  33
ATOM     33  C   UNL A   1      42.464  24.619  26.404  1.00  0.00     0.039 A 
ATOM     34  C   UNL A   1      41.196  24.585  26.980  1.00  0.00     0.014 A 
ATOM     35  C   UNL A   1      43.209  25.789  26.513  1.00  0.00     0.014 A 
ATOM     36  C   UNL A   1      40.767  25.646  27.793  1.00  0.00     0.010 A 
ATOM     37  C   UNL A   1      42.830  26.813  27.393  1.00  0.00     0.010 A 
ATOM     38  C   UNL A   1      41.618  26.730  28.085  1.00  0.00    -0.014 A 
BRANCH  38  39
ATOM     39  C   UNL A   1      41.288  27.664  29.205  1.00  0.00     0.031 A 
ATOM     40  C   UNL A   1      40.154  28.652  29.138  1.00  0.00     0.074 A 
ATOM     41  C   UNL A   1      42.071  27.639  30.306  1.00  0.00     0.049 A 
ATOM     42  N   UNL A   1      39.711  29.461  30.071  1.00  0.00    -0.248 NA
ATOM     43  C   UNL A   1      39.437  28.766  27.861  1.00  0.00     0.031 C 
ATOM     44  C   UNL A   1      43.259  26.797  30.471  1.00  0.00     0.029 A 
ATOM     45  N   UNL A   1      41.987  28.323  31.495  1.00  0.00    -0.354 N 
ATOM     46  C   UNL A   1      38.660  30.170  29.501  1.00  0.00     0.074 A 
ATOM     47  C   UNL A   1      38.570  29.737  28.122  1.00  0.00     0.031 C 
ATOM     48  C   UNL A   1      43.755  26.968  31.705  1.00  0.00     0.029 A 
ATOM     49  C   UNL A   1      42.950  27.960  32.410  1.00  0.00     0.049 A 
ATOM     50  H   UNL A   1      41.303  29.007  31.676  1.00  0.00     0.167 HD
ATOM     51  C   UNL A   1      37.834  31.079  30.078  1.00  0.00     0.037 A 
ATOM     52  C   UNL A   1      43.161  28.366  33.676  1.00  0.00     0.037 A 
ATOM     53  C   UNL A   1      37.923  31.509  31.453  1.00  0.00     0.049 A 
ATOM     54  C   UNL A   1      42.230  29.373  34.291  1.00  0.00     0.074 A 
ATOM     55  C   UNL A   1      37.088  32.373  32.143  1.00  0.00     0.029 A 
ATOM     56  N   UNL A   1      38.912  31.120  32.343  1.00  0.00    -0.354 N 
ATOM     57  N   UNL A   1      41.175  29.948  33.769  1.00  0.00    -0.248 NA
ATOM     58  C   UNL A   1      42.514  29.779  35.674  1.00  0.00     0.031 C 
ATOM     59  C   UNL A   1      37.603  32.549  33.432  1.00  0.00     0.029 A 
ATOM     60  C   UNL A   1      38.726  31.751  33.565  1.00  0.00     0.049 A 
ATOM     61  H   UNL A   1      39.640  30.489  32.139  1.00  0.00     0.167 HD
ATOM     62  C   UNL A   1      40.653  30.761  34.766  1.00  0.00     0.074 A 
ATOM     63  C   UNL A   1      41.498  30.591  35.930  1.00  0.00     0.031 C 
ATOM     64  C   UNL A   1      39.570  31.575  34.721  1.00  0.00     0.037 A 
BRANCH  51  65
ATOM     65  C   UNL A   1      36.746  31.674  29.226  1.00  0.00     0.057 A 
ATOM     66  C   UNL A   1      35.579  30.962  28.918  1.00  0.00     0.134 A 
ATOM     67  C   UNL A   1      36.836  32.992  28.757  1.00  0.00     0.134 A 
ATOM     68  F   UNL A   1      35.424  29.696  29.334  1.00  0.00    -0.206 F 
ATOM     69  C   UNL A   1      34.557  31.527  28.151  1.00  0.00     0.040 A 
ATOM     70  C   UNL A   1      35.809  33.577  28.014  1.00  0.00     0.040 A 
ATOM     71  F   UNL A   1      37.919  33.738  29.028  1.00  0.00    -0.206 F 
ATOM     72  C   UNL A   1      34.669  32.842  27.702  1.00  0.00     0.006 A 
ENDBRANCH  51  65
BRANCH  52  73
ATOM     73  C   UNL A   1      44.285  27.797  34.463  1.00  0.00     0.057 A 
ATOM     74  C   UNL A   1      45.528  28.440  34.522  1.00  0.00     0.134 A 
ATOM     75  C   UNL A   1      44.150  26.595  35.168  1.00  0.00     0.134 A 
ATOM     76  F   UNL A   1      45.726  29.587  33.855  1.00  0.00    -0.206 F 
ATOM     77  C   UNL A   1      46.601  27.898  35.232  1.00  0.00     0.040 A 
ATOM     78  C   UNL A   1      45.206  26.055  35.904  1.00  0.00     0.040 A 
ATOM     79  F   UNL A   1      42.983  25.933  35.162  1.00  0.00    -0.206 F 
ATOM     80  C   UNL A   1      46.439  26.703  35.930  1.00  0.00     0.006 A 
ENDBRANCH  52  73
BRANCH  64  81
ATOM     81  C   UNL A   1      39.218  32.322  35.975  1.00  0.00     0.057 A 
ATOM     82  C   UNL A   1      39.739  33.592  36.253  1.00  0.00     0.134 A 
ATOM     83  C   UNL A   1      38.322  31.775  36.903  1.00  0.00     0.134 A 
ATOM     84  F   UNL A   1      40.613  34.168  35.415  1.00  0.00    -0.206 F 
ATOM     85  C   UNL A   1      39.400  34.281  37.420  1.00  0.00     0.040 A 
ATOM     86  C   UNL A   1      37.954  32.466  38.058  1.00  0.00     0.040 A 
ATOM     87  F   UNL A   1      37.781  30.565  36.695  1.00  0.00    -0.206 F 
ATOM     88  C   UNL A   1      38.499  33.720  38.322  1.00  0.00     0.006 A 
ENDBRANCH  64  81
ENDBRANCH  38  39
ENDBRANCH  30  33
ENDBRANCH  28  29
ENDBRANCH  27  28
ENDBRANCH   1  27
TORSDOF 14
ENDMDL
MODEL 2
REMARK VINA RESULT:     -11.6      4.354      9.833
REMARK SMILES O=C(CC[NH+]1CC[NH+]([C@@H]2CCO[C@@]3(CCOC3)C2)CC1)NCCCCNC(=O)c1ccc(-c2c3nc(c(-c4c(F)cccc4F)c4ccc([nH]4)c(-c4c(F)cccc4F)c4nc(c(-c5c(F)cccc5F)c5ccc2[nH]5)C=C4)C=C3)cc1
REMARK SMILES IDX 23 1 22 2 21 3 1 4 2 5 3 7 4 8 5 9 6 10 20 11 7 13 19 14
REMARK SMILES IDX 8 15 9 17 10 18 18 19 11 20 13 21 12 22 14 23 17 24 15 25
REMARK SMILES IDX 16 26 24 27 25 28 26 29 27 30 28 32 29 33 30 34 82 35 31 36
REMARK SMILES IDX 81 37 32 38 33 39 34 40 75 41 35 42 80 43 74 44 76 45 36 46
REMARK SMILES IDX 79 47 73 48 72 49 37 51 63 52 46 53 62 54 47 55 50 56 61 57
REMARK SMILES IDX 77 58 48 59 49 60 60 62 78 63 51 64 38 65 39 66 44 67 40 68
REMARK SMILES IDX 41 69 43 70 45 71 42 72 64 73 65 74 70 75 66 76 67 77 69 78
REMARK SMILES IDX 71 79 68 80 52 81 53 82 58 83 54 84 55 85 57 86 59 87 56 88
REMARK H PARENT 21 6 5 12 8 16 26 31 76 50 50 61
REMARK Flexibility Score: inf
ROOT
ATOM      1  C   UNL A   1      34.552  34.093  29.532  1.00  0.00     0.023 C 
ENDROOT
BRANCH   1   2
ATOM      2  C   UNL A   1      34.971  32.868  28.693  1.00  0.00     0.116 C 
BRANCH   2   3
ATOM      3  N   UNL A   1      33.965  32.201  27.854  1.00  0.00    -0.356 N 
ATOM      4  O   UNL A   1      35.033  30.160  27.888  1.00  0.00    -0.275 OA
ATOM      5  C   UNL A   1      34.042  30.827  27.597  1.00  0.00     0.225 C 
ATOM      6  H   UNL A   1      33.230  32.728  27.466  1.00  0.00     0.163 HD
BRANCH   5   7
ATOM      7  C   UNL A   1      32.796  30.158  26.974  1.00  0.00     0.161 C 
BRANCH   7   8
ATOM      8  C   UNL A   1      32.933  28.627  26.627  1.00  0.00     0.272 C 
BRANCH   8   9
ATOM      9  N   UNL A   1      32.515  28.229  25.254  1.00  0.00    -0.325 N 
ATOM     10  C   UNL A   1      33.587  27.641  24.393  1.00  0.00     0.324 C 
ATOM     11  C   UNL A   1      31.489  27.208  25.304  1.00  0.00     0.324 C 
ATOM     12  H   UNL A   1      32.207  29.113  24.847  1.00  0.00     0.348 HD
ATOM     13  C   UNL A   1      33.909  26.075  24.463  1.00  0.00     0.324 C 
ATOM     14  C   UNL A   1      32.081  25.950  25.948  1.00  0.00     0.324 C 
ATOM     15  N   UNL A   1      32.932  25.147  25.087  1.00  0.00    -0.323 N 
ATOM     16  H   UNL A   1      33.434  24.466  25.658  1.00  0.00     0.348 HD
BRANCH  15  17
ATOM     17  C   UNL A   1      32.299  24.123  24.234  1.00  0.00     0.189 C 
ATOM     18  C   UNL A   1      31.019  23.511  24.770  1.00  0.00     0.093 C 
ATOM     19  C   UNL A   1      33.184  22.886  23.867  1.00  0.00     0.103 C 
ATOM     20  C   UNL A   1      31.286  22.468  25.842  1.00  0.00     0.167 C 
ATOM     21  C   UNL A   1      33.649  22.083  25.085  1.00  0.00     0.099 C 
ATOM     22  O   UNL A   1      32.645  22.109  26.124  1.00  0.00    -0.372 OA
ATOM     23  C   UNL A   1      33.964  20.595  24.900  1.00  0.00     0.066 C 
ATOM     24  C   UNL A   1      35.058  22.617  25.522  1.00  0.00     0.195 C 
ATOM     25  C   UNL A   1      35.463  20.441  24.994  1.00  0.00     0.163 C 
ATOM     26  O   UNL A   1      35.885  21.493  25.851  1.00  0.00    -0.378 OA
ENDBRANCH  15  17
ENDBRANCH   8   9
ENDBRANCH   7   8
ENDBRANCH   5   7
ENDBRANCH   2   3
ENDBRANCH   1   2
BRANCH   1  27
ATOM     27  C   UNL A   1      34.615  34.035  31.072  1.00  0.00     0.023 C 
BRANCH  27  28
ATOM     28  C   UNL A   1      34.763  32.702  31.852  1.00  0.00     0.116 C 
BRANCH  28  29
ATOM     29  N   UNL A   1      35.313  32.706  33.198  1.00  0.00    -0.352 N 
ATOM     30  C   UNL A   1      36.526  32.188  33.630  1.00  0.00     0.251 C 
ATOM     31  H   UNL A   1      34.755  33.129  33.890  1.00  0.00     0.163 HD
ATOM     32  O   UNL A   1      36.881  32.329  34.801  1.00  0.00    -0.269 OA
BRANCH  30  33
ATOM     33  C   UNL A   1      37.414  31.427  32.709  1.00  0.00     0.039 A 
ATOM     34  C   UNL A   1      37.319  31.625  31.333  1.00  0.00     0.014 A 
ATOM     35  C   UNL A   1      38.319  30.482  33.181  1.00  0.00     0.014 A 
ATOM     36  C   UNL A   1      38.240  31.009  30.472  1.00  0.00     0.010 A 
ATOM     37  C   UNL A   1      39.299  29.932  32.343  1.00  0.00     0.010 A 
ATOM     38  C   UNL A   1      39.300  30.229  30.976  1.00  0.00    -0.014 A 
BRANCH  38  39
ATOM     39  C   UNL A   1      40.454  29.869  30.096  1.00  0.00     0.031 A 
ATOM     40  C   UNL A   1      41.564  30.832  29.768  1.00  0.00     0.074 A 
ATOM     41  C   UNL A   1      40.472  28.636  29.544  1.00  0.00     0.049 A 
ATOM     42  N   UNL A   1      42.664  30.619  29.085  1.00  0.00    -0.248 NA
ATOM     43  C   UNL A   1      41.418  32.213  30.247  1.00  0.00     0.031 C 
ATOM     44  C   UNL A   1      39.417  27.631  29.701  1.00  0.00     0.029 A 
ATOM     45  N   UNL A   1      41.407  28.008  28.755  1.00  0.00    -0.354 N 
ATOM     46  C   UNL A   1      43.344  31.830  29.060  1.00  0.00     0.074 A 
ATOM     47  C   UNL A   1      42.505  32.790  29.748  1.00  0.00     0.031 C 
ATOM     48  C   UNL A   1      39.788  26.499  29.084  1.00  0.00     0.029 A 
ATOM     49  C   UNL A   1      41.086  26.704  28.452  1.00  0.00     0.049 A 
ATOM     50  H   UNL A   1      42.227  28.449  28.438  1.00  0.00     0.167 HD
ATOM     51  C   UNL A   1      44.564  32.111  28.534  1.00  0.00     0.037 A 
ATOM     52  C   UNL A   1      41.760  25.770  27.754  1.00  0.00     0.037 A 
ATOM     53  C   UNL A   1      45.400  31.155  27.851  1.00  0.00     0.049 A 
ATOM     54  C   UNL A   1      43.109  26.108  27.185  1.00  0.00     0.074 A 
ATOM     55  C   UNL A   1      46.678  31.331  27.346  1.00  0.00     0.029 A 
ATOM     56  N   UNL A   1      45.039  29.848  27.562  1.00  0.00    -0.354 N 
ATOM     57  N   UNL A   1      43.784  27.227  27.268  1.00  0.00    -0.248 NA
ATOM     58  C   UNL A   1      43.794  25.048  26.431  1.00  0.00     0.031 C 
ATOM     59  C   UNL A   1      47.067  30.150  26.706  1.00  0.00     0.029 A 
ATOM     60  C   UNL A   1      46.055  29.217  26.860  1.00  0.00     0.049 A 
ATOM     61  H   UNL A   1      44.186  29.427  27.819  1.00  0.00     0.167 HD
ATOM     62  C   UNL A   1      44.982  27.000  26.605  1.00  0.00     0.074 A 
ATOM     63  C   UNL A   1      44.949  25.629  26.139  1.00  0.00     0.031 C 
ATOM     64  C   UNL A   1      46.017  27.851  26.401  1.00  0.00     0.037 A 
BRANCH  51  65
ATOM     65  C   UNL A   1      45.080  33.517  28.681  1.00  0.00     0.057 A 
ATOM     66  C   UNL A   1      45.898  33.894  29.756  1.00  0.00     0.134 A 
ATOM     67  C   UNL A   1      44.809  34.490  27.710  1.00  0.00     0.134 A 
ATOM     68  F   UNL A   1      46.199  33.013  30.722  1.00  0.00    -0.206 F 
ATOM     69  C   UNL A   1      46.401  35.192  29.874  1.00  0.00     0.040 A 
ATOM     70  C   UNL A   1      45.329  35.783  27.803  1.00  0.00     0.040 A 
ATOM     71  F   UNL A   1      44.046  34.196  26.646  1.00  0.00    -0.206 F 
ATOM     72  C   UNL A   1      46.121  36.139  28.891  1.00  0.00     0.006 A 
ENDBRANCH  51  65
BRANCH  52  73
ATOM     73  C   UNL A   1      41.186  24.411  27.582  1.00  0.00     0.057 A 
ATOM     74  C   UNL A   1      41.663  23.323  28.325  1.00  0.00     0.134 A 
ATOM     75  C   UNL A   1      40.157  24.161  26.666  1.00  0.00     0.134 A 
ATOM     76  F   UNL A   1      42.659  23.493  29.206  1.00  0.00    -0.206 F 
ATOM     77  C   UNL A   1      41.154  22.035  28.148  1.00  0.00     0.040 A 
ATOM     78  C   UNL A   1      39.619  22.884  26.499  1.00  0.00     0.040 A 
ATOM     79  F   UNL A   1      39.647  25.161  25.931  1.00  0.00    -0.206 F 
ATOM     80  C   UNL A   1      40.125  21.814  27.235  1.00  0.00     0.006 A 
ENDBRANCH  52  73
BRANCH  64  81
ATOM     81  C   UNL A   1      47.213  27.316  25.667  1.00  0.00     0.057 A 
ATOM     82  C   UNL A   1      47.358  27.460  24.282  1.00  0.00     0.134 A 
ATOM     83  C   UNL A   1      48.247  26.674  26.361  1.00  0.00     0.134 A 
ATOM     84  F   UNL A   1      46.399  28.052  23.554  1.00  0.00    -0.206 F 
ATOM     85  C   UNL A   1      48.478  26.965  23.609  1.00  0.00     0.040 A 
ATOM     86  C   UNL A   1      49.384  26.201  25.704  1.00  0.00     0.040 A 
ATOM     87  F   UNL A   1      48.175  26.509  27.690  1.00  0.00    -0.206 F 
ATOM     88  C   UNL A   1      49.498  26.339  24.323  1.00  0.00     0.006 A 
ENDBRANCH  64  81
ENDBRANCH  38  39
ENDBRANCH  30  33
ENDBRANCH  28  29
ENDBRANCH  27  28
ENDBRANCH   1  27
TORSDOF 14
ENDMDL
MODEL 3
REMARK VINA RESULT:     -11.5      2.447      8.454
REMARK SMILES O=C(CC[NH+]1CC[NH+]([C@@H]2CCO[C@@]3(CCOC3)C2)CC1)NCCCCNC(=O)c1ccc(-c2c3nc(c(-c4c(F)cccc4F)c4ccc([nH]4)c(-c4c(F)cccc4F)c4nc(c(-c5c(F)cccc5F)c5ccc2[nH]5)C=C4)C=C3)cc1
REMARK SMILES IDX 23 1 22 2 21 3 1 4 2 5 3 7 4 8 5 9 6 10 20 11 7 13 19 14
REMARK SMILES IDX 8 15 9 17 10 18 18 19 11 20 13 21 12 22 14 23 17 24 15 25
REMARK SMILES IDX 16 26 24 27 25 28 26 29 27 30 28 32 29 33 30 34 82 35 31 36
REMARK SMILES IDX 81 37 32 38 33 39 34 40 75 41 35 42 80 43 74 44 76 45 36 46
REMARK SMILES IDX 79 47 73 48 72 49 37 51 63 52 46 53 62 54 47 55 50 56 61 57
REMARK SMILES IDX 77 58 48 59 49 60 60 62 78 63 51 64 38 65 39 66 44 67 40 68
REMARK SMILES IDX 41 69 43 70 45 71 42 72 64 73 65 74 70 75 66 76 67 77 69 78
REMARK SMILES IDX 71 79 68 80 52 81 53 82 58 83 54 84 55 85 57 86 59 87 56 88
REMARK H PARENT 21 6 5 12 8 16 26 31 76 50 50 61
REMARK Flexibility Score: inf
ROOT
ATOM      1  C   UNL A   1      34.729  30.446  27.663  1.00  0.00     0.023 C 
ENDROOT
BRANCH   1   2
ATOM      2  C   UNL A   1      34.364  29.176  26.867  1.00  0.00     0.116 C 
BRANCH   2   3
ATOM      3  N   UNL A   1      33.767  29.318  25.531  1.00  0.00    -0.356 N 
ATOM      4  O   UNL A   1      32.062  27.824  25.939  1.00  0.00    -0.275 OA
ATOM      5  C   UNL A   1      32.566  28.675  25.209  1.00  0.00     0.225 C 
ATOM      6  H   UNL A   1      34.219  29.872  24.854  1.00  0.00     0.163 HD
BRANCH   5   7
ATOM      7  C   UNL A   1      31.858  29.119  23.909  1.00  0.00     0.161 C 
BRANCH   7   8
ATOM      8  C   UNL A   1      31.095  27.991  23.116  1.00  0.00     0.272 C 
BRANCH   8   9
ATOM      9  N   UNL A   1      31.854  27.343  22.010  1.00  0.00    -0.325 N 
ATOM     10  C   UNL A   1      33.331  27.230  22.213  1.00  0.00     0.324 C 
ATOM     11  C   UNL A   1      31.409  25.979  21.811  1.00  0.00     0.324 C 
ATOM     12  H   UNL A   1      31.672  27.963  21.220  1.00  0.00     0.348 HD
ATOM     13  C   UNL A   1      33.942  25.983  23.007  1.00  0.00     0.324 C 
ATOM     14  C   UNL A   1      31.728  25.171  23.074  1.00  0.00     0.324 C 
ATOM     15  N   UNL A   1      33.115  24.767  23.225  1.00  0.00    -0.323 N 
ATOM     16  H   UNL A   1      33.261  24.429  24.176  1.00  0.00     0.348 HD
BRANCH  15  17
ATOM     17  C   UNL A   1      33.551  23.506  22.595  1.00  0.00     0.189 C 
ATOM     18  C   UNL A   1      32.612  22.326  22.756  1.00  0.00     0.093 C 
ATOM     19  C   UNL A   1      34.940  22.949  23.051  1.00  0.00     0.103 C 
ATOM     20  C   UNL A   1      32.722  21.689  24.132  1.00  0.00     0.167 C 
ATOM     21  C   UNL A   1      35.011  22.632  24.548  1.00  0.00     0.099 C 
ATOM     22  O   UNL A   1      33.730  22.170  25.030  1.00  0.00    -0.372 OA
ATOM     23  C   UNL A   1      36.002  21.564  25.020  1.00  0.00     0.066 C 
ATOM     24  C   UNL A   1      35.576  23.891  25.294  1.00  0.00     0.195 C 
ATOM     25  C   UNL A   1      37.118  22.279  25.743  1.00  0.00     0.163 C 
ATOM     26  O   UNL A   1      36.515  23.446  26.283  1.00  0.00    -0.378 OA
ENDBRANCH  15  17
ENDBRANCH   8   9
ENDBRANCH   7   8
ENDBRANCH   5   7
ENDBRANCH   2   3
ENDBRANCH   1   2
BRANCH   1  27
ATOM     27  C   UNL A   1      33.643  31.484  28.008  1.00  0.00     0.023 C 
BRANCH  27  28
ATOM     28  C   UNL A   1      33.245  32.629  27.039  1.00  0.00     0.116 C 
BRANCH  28  29
ATOM     29  N   UNL A   1      32.585  33.818  27.553  1.00  0.00    -0.352 N 
ATOM     30  C   UNL A   1      33.028  34.686  28.542  1.00  0.00     0.251 C 
ATOM     31  H   UNL A   1      31.714  34.035  27.150  1.00  0.00     0.163 HD
ATOM     32  O   UNL A   1      32.380  35.694  28.821  1.00  0.00    -0.269 OA
BRANCH  30  33
ATOM     33  C   UNL A   1      34.276  34.413  29.307  1.00  0.00     0.039 A 
ATOM     34  C   UNL A   1      34.199  34.021  30.642  1.00  0.00     0.014 A 
ATOM     35  C   UNL A   1      35.534  34.578  28.736  1.00  0.00     0.014 A 
ATOM     36  C   UNL A   1      35.363  33.638  31.326  1.00  0.00     0.010 A 
ATOM     37  C   UNL A   1      36.690  34.114  29.379  1.00  0.00     0.010 A 
ATOM     38  C   UNL A   1      36.611  33.589  30.673  1.00  0.00    -0.014 A 
BRANCH  38  39
ATOM     39  C   UNL A   1      37.759  32.865  31.298  1.00  0.00     0.031 A 
ATOM     40  C   UNL A   1      38.355  33.265  32.621  1.00  0.00     0.074 A 
ATOM     41  C   UNL A   1      38.303  31.830  30.621  1.00  0.00     0.049 A 
ATOM     42  N   UNL A   1      39.299  32.671  33.313  1.00  0.00    -0.248 NA
ATOM     43  C   UNL A   1      37.849  34.497  33.241  1.00  0.00     0.031 C 
ATOM     44  C   UNL A   1      37.886  31.388  29.288  1.00  0.00     0.029 A 
ATOM     45  N   UNL A   1      39.309  30.955  30.956  1.00  0.00    -0.354 N 
ATOM     46  C   UNL A   1      39.492  33.447  34.450  1.00  0.00     0.074 A 
ATOM     47  C   UNL A   1      38.606  34.586  34.328  1.00  0.00     0.031 C 
ATOM     48  C   UNL A   1      38.584  30.295  28.945  1.00  0.00     0.029 A 
ATOM     49  C   UNL A   1      39.526  29.977  30.011  1.00  0.00     0.049 A 
ATOM     50  H   UNL A   1      39.823  31.020  31.792  1.00  0.00     0.167 HD
ATOM     51  C   UNL A   1      40.311  33.218  35.508  1.00  0.00     0.037 A 
ATOM     52  C   UNL A   1      40.379  28.935  30.001  1.00  0.00     0.037 A 
ATOM     53  C   UNL A   1      41.191  32.082  35.631  1.00  0.00     0.049 A 
ATOM     54  C   UNL A   1      41.274  28.705  31.186  1.00  0.00     0.074 A 
ATOM     55  C   UNL A   1      42.006  31.732  36.695  1.00  0.00     0.029 A 
ATOM     56  N   UNL A   1      41.384  31.118  34.652  1.00  0.00    -0.354 N 
ATOM     57  N   UNL A   1      41.360  29.387  32.301  1.00  0.00    -0.248 NA
ATOM     58  C   UNL A   1      42.184  27.552  31.115  1.00  0.00     0.031 C 
ATOM     59  C   UNL A   1      42.731  30.589  36.340  1.00  0.00     0.029 A 
ATOM     60  C   UNL A   1      42.327  30.193  35.076  1.00  0.00     0.049 A 
ATOM     61  H   UNL A   1      40.920  31.093  33.784  1.00  0.00     0.167 HD
ATOM     62  C   UNL A   1      42.310  28.734  33.075  1.00  0.00     0.074 A 
ATOM     63  C   UNL A   1      42.759  27.590  32.308  1.00  0.00     0.031 C 
ATOM     64  C   UNL A   1      42.768  29.054  34.309  1.00  0.00     0.037 A 
BRANCH  51  65
ATOM     65  C   UNL A   1      40.294  34.217  36.633  1.00  0.00     0.057 A 
ATOM     66  C   UNL A   1      41.176  35.307  36.665  1.00  0.00     0.134 A 
ATOM     67  C   UNL A   1      39.351  34.126  37.665  1.00  0.00     0.134 A 
ATOM     68  F   UNL A   1      42.105  35.458  35.708  1.00  0.00    -0.206 F 
ATOM     69  C   UNL A   1      41.139  36.250  37.695  1.00  0.00     0.040 A 
ATOM     70  C   UNL A   1      39.286  35.077  38.685  1.00  0.00     0.040 A 
ATOM     71  F   UNL A   1      38.466  33.118  37.691  1.00  0.00    -0.206 F 
ATOM     72  C   UNL A   1      40.187  36.139  38.707  1.00  0.00     0.006 A 
ENDBRANCH  51  65
BRANCH  52  73
ATOM     73  C   UNL A   1      40.405  28.005  28.843  1.00  0.00     0.057 A 
ATOM     74  C   UNL A   1      39.655  26.822  28.846  1.00  0.00     0.134 A 
ATOM     75  C   UNL A   1      41.186  28.268  27.711  1.00  0.00     0.134 A 
ATOM     76  F   UNL A   1      38.901  26.504  29.908  1.00  0.00    -0.206 F 
ATOM     77  C   UNL A   1      39.698  25.925  27.777  1.00  0.00     0.040 A 
ATOM     78  C   UNL A   1      41.216  27.393  26.623  1.00  0.00     0.040 A 
ATOM     79  F   UNL A   1      41.919  29.389  27.639  1.00  0.00    -0.206 F 
ATOM     80  C   UNL A   1      40.477  26.212  26.659  1.00  0.00     0.006 A 
ENDBRANCH  52  73
BRANCH  64  81
ATOM     81  C   UNL A   1      43.787  28.138  34.924  1.00  0.00     0.057 A 
ATOM     82  C   UNL A   1      45.163  28.354  34.776  1.00  0.00     0.134 A 
ATOM     83  C   UNL A   1      43.385  27.042  35.699  1.00  0.00     0.134 A 
ATOM     84  F   UNL A   1      45.616  29.376  34.035  1.00  0.00    -0.206 F 
ATOM     85  C   UNL A   1      46.103  27.499  35.357  1.00  0.00     0.040 A 
ATOM     86  C   UNL A   1      44.315  26.198  36.308  1.00  0.00     0.040 A 
ATOM     87  F   UNL A   1      42.083  26.782  35.886  1.00  0.00    -0.206 F 
ATOM     88  C   UNL A   1      45.678  26.422  36.131  1.00  0.00     0.006 A 
ENDBRANCH  64  81
ENDBRANCH  38  39
ENDBRANCH  30  33
ENDBRANCH  28  29
ENDBRANCH  27  28
ENDBRANCH   1  27
TORSDOF 14
ENDMDL
