MODEL 1
REMARK VINA RESULT:     -11.4      0.000      0.000
REMARK SMILES COc1ccccc1C[C@@H](C(=O)NCCCCNC(=O)c1ccc(-c2c3nc(c(-c4c(F)cccc4F)c4ccc([nH]4)c(-c4c(F)cccc4F)c4nc(c(-c5c(F)cccc5F)c5ccc2[nH]5)C=C4)C=C3)cc1)[C@@H]1C[C@H](C)C[C@H](C)C1
REMARK SMILES IDX 15 1 14 2 13 3 11 4 12 5 10 7 9 8 8 9 3 10 4 11 5 12 7 13
REMARK SMILES IDX 6 14 2 15 1 16 75 17 82 18 76 19 80 20 77 21 81 22 79 23
REMARK SMILES IDX 78 24 16 25 17 26 18 27 19 28 20 30 21 31 22 32 74 33 23 34
REMARK SMILES IDX 73 35 24 36 25 37 26 38 67 39 27 40 72 41 66 42 68 43 28 44
REMARK SMILES IDX 71 45 65 46 64 47 29 49 55 50 38 51 54 52 39 53 42 54 53 55
REMARK SMILES IDX 69 56 40 57 41 58 52 60 70 61 43 62 30 63 31 64 36 65 32 66
REMARK SMILES IDX 33 67 35 68 37 69 34 70 56 71 57 72 62 73 58 74 59 75 61 76
REMARK SMILES IDX 63 77 60 78 44 79 45 80 50 81 46 82 47 83 49 84 51 85 48 86
REMARK H PARENT 13 6 18 29 68 48 42 59
REMARK Flexibility Score: inf
ROOT
ATOM      1  C   UNL A   1      37.116  21.907  24.573  1.00  0.00     0.023 C 
ENDROOT
BRANCH   1   2
ATOM      2  C   UNL A   1      36.912  22.946  25.661  1.00  0.00     0.116 C 
BRANCH   2   3
ATOM      3  N   UNL A   1      35.904  22.458  26.565  1.00  0.00    -0.356 N 
ATOM      4  C   UNL A   1      34.697  23.038  26.816  1.00  0.00     0.223 C 
ATOM      5  O   UNL A   1      34.263  22.871  27.960  1.00  0.00    -0.275 OA
ATOM      6  H   UNL A   1      36.106  21.625  27.049  1.00  0.00     0.163 HD
BRANCH   4   7
ATOM      7  C   UNL A   1      33.887  23.779  25.710  1.00  0.00     0.086 C 
BRANCH   7   8
ATOM      8  C   UNL A   1      33.366  25.182  26.130  1.00  0.00     0.053 C 
BRANCH   8   9
ATOM      9  C   UNL A   1      33.459  26.432  25.268  1.00  0.00    -0.005 A 
ATOM     10  C   UNL A   1      33.335  27.742  25.746  1.00  0.00     0.122 A 
ATOM     11  C   UNL A   1      33.304  28.847  24.882  1.00  0.00     0.047 A 
ATOM     12  C   UNL A   1      33.542  28.677  23.524  1.00  0.00     0.004 A 
ATOM     13  C   UNL A   1      33.807  26.302  23.907  1.00  0.00     0.007 A 
ATOM     14  C   UNL A   1      33.837  27.407  23.043  1.00  0.00     0.001 A 
BRANCH  10  15
ATOM     15  O   UNL A   1      33.364  28.004  27.091  1.00  0.00    -0.496 OA
ATOM     16  C   UNL A   1      32.586  29.195  27.314  1.00  0.00     0.278 C 
ENDBRANCH  10  15
ENDBRANCH   8   9
ENDBRANCH   7   8
BRANCH   7  17
ATOM     17  C   UNL A   1      32.688  22.774  25.405  1.00  0.00     0.002 C 
ATOM     18  C   UNL A   1      31.268  23.310  25.655  1.00  0.00     0.007 C 
ATOM     19  C   UNL A   1      32.730  21.975  24.101  1.00  0.00     0.007 C 
ATOM     20  C   UNL A   1      30.528  23.993  24.501  1.00  0.00    -0.014 C 
ATOM     21  C   UNL A   1      32.101  22.605  22.862  1.00  0.00    -0.014 C 
ATOM     22  C   UNL A   1      30.431  25.524  24.643  1.00  0.00     0.007 C 
ATOM     23  C   UNL A   1      30.940  23.591  23.078  1.00  0.00     0.006 C 
ATOM     24  C   UNL A   1      33.195  23.185  21.971  1.00  0.00     0.007 C 
ENDBRANCH   7  17
ENDBRANCH   4   7
ENDBRANCH   2   3
ENDBRANCH   1   2
BRANCH   1  25
ATOM     25  C   UNL A   1      37.798  20.609  24.941  1.00  0.00     0.023 C 
BRANCH  25  26
ATOM     26  C   UNL A   1      39.065  20.792  25.744  1.00  0.00     0.116 C 
BRANCH  26  27
ATOM     27  N   UNL A   1      39.988  19.662  25.685  1.00  0.00    -0.352 N 
ATOM     28  C   UNL A   1      41.313  19.606  26.050  1.00  0.00     0.251 C 
ATOM     29  H   UNL A   1      39.609  18.822  25.336  1.00  0.00     0.163 HD
ATOM     30  O   UNL A   1      41.969  18.582  25.884  1.00  0.00    -0.269 OA
BRANCH  28  31
ATOM     31  C   UNL A   1      41.948  20.827  26.582  1.00  0.00     0.039 A 
ATOM     32  C   UNL A   1      42.480  21.759  25.689  1.00  0.00     0.014 A 
ATOM     33  C   UNL A   1      41.885  21.107  27.946  1.00  0.00     0.014 A 
ATOM     34  C   UNL A   1      42.836  23.023  26.157  1.00  0.00     0.010 A 
ATOM     35  C   UNL A   1      42.098  22.405  28.379  1.00  0.00     0.010 A 
ATOM     36  C   UNL A   1      42.581  23.378  27.493  1.00  0.00    -0.014 A 
BRANCH  36  37
ATOM     37  C   UNL A   1      42.818  24.752  28.004  1.00  0.00     0.031 A 
ATOM     38  C   UNL A   1      44.212  25.166  28.393  1.00  0.00     0.074 A 
ATOM     39  C   UNL A   1      41.780  25.586  28.212  1.00  0.00     0.049 A 
ATOM     40  N   UNL A   1      44.614  26.252  29.000  1.00  0.00    -0.248 NA
ATOM     41  C   UNL A   1      45.292  24.204  28.111  1.00  0.00     0.031 C 
ATOM     42  C   UNL A   1      40.371  25.282  27.946  1.00  0.00     0.029 A 
ATOM     43  N   UNL A   1      41.752  26.867  28.703  1.00  0.00    -0.354 N 
ATOM     44  C   UNL A   1      45.976  26.080  29.211  1.00  0.00     0.074 A 
ATOM     45  C   UNL A   1      46.320  24.760  28.730  1.00  0.00     0.031 C 
ATOM     46  C   UNL A   1      39.626  26.364  28.226  1.00  0.00     0.029 A 
ATOM     47  C   UNL A   1      40.495  27.419  28.733  1.00  0.00     0.049 A 
ATOM     48  H   UNL A   1      42.557  27.345  29.005  1.00  0.00     0.167 HD
ATOM     49  C   UNL A   1      46.871  26.955  29.723  1.00  0.00     0.037 A 
ATOM     50  C   UNL A   1      40.092  28.644  29.123  1.00  0.00     0.037 A 
ATOM     51  C   UNL A   1      46.541  28.294  30.126  1.00  0.00     0.049 A 
ATOM     52  C   UNL A   1      41.113  29.622  29.632  1.00  0.00     0.074 A 
ATOM     53  C   UNL A   1      47.384  29.288  30.588  1.00  0.00     0.029 A 
ATOM     54  N   UNL A   1      45.264  28.832  30.090  1.00  0.00    -0.354 N 
ATOM     55  N   UNL A   1      42.405  29.460  29.787  1.00  0.00    -0.248 NA
ATOM     56  C   UNL A   1      40.622  30.951  30.019  1.00  0.00     0.031 C 
ATOM     57  C   UNL A   1      46.613  30.424  30.851  1.00  0.00     0.029 A 
ATOM     58  C   UNL A   1      45.297  30.146  30.520  1.00  0.00     0.049 A 
ATOM     59  H   UNL A   1      44.455  28.351  29.803  1.00  0.00     0.167 HD
ATOM     60  C   UNL A   1      42.884  30.674  30.262  1.00  0.00     0.074 A 
ATOM     61  C   UNL A   1      41.747  31.564  30.358  1.00  0.00     0.031 C 
ATOM     62  C   UNL A   1      44.153  31.019  30.591  1.00  0.00     0.037 A 
BRANCH  49  63
ATOM     63  C   UNL A   1      48.294  26.496  29.843  1.00  0.00     0.057 A 
ATOM     64  C   UNL A   1      49.232  26.731  28.828  1.00  0.00     0.134 A 
ATOM     65  C   UNL A   1      48.736  25.825  30.989  1.00  0.00     0.134 A 
ATOM     66  F   UNL A   1      48.867  27.351  27.695  1.00  0.00    -0.206 F 
ATOM     67  C   UNL A   1      50.550  26.289  28.935  1.00  0.00     0.040 A 
ATOM     68  C   UNL A   1      50.060  25.403  31.120  1.00  0.00     0.040 A 
ATOM     69  F   UNL A   1      47.891  25.569  31.999  1.00  0.00    -0.206 F 
ATOM     70  C   UNL A   1      50.970  25.628  30.088  1.00  0.00     0.006 A 
ENDBRANCH  49  63
BRANCH  50  71
ATOM     71  C   UNL A   1      38.666  29.036  28.993  1.00  0.00     0.057 A 
ATOM     72  C   UNL A   1      38.168  29.520  27.777  1.00  0.00     0.134 A 
ATOM     73  C   UNL A   1      37.772  28.942  30.065  1.00  0.00     0.134 A 
ATOM     74  F   UNL A   1      38.982  29.648  26.720  1.00  0.00    -0.206 F 
ATOM     75  C   UNL A   1      36.837  29.911  27.635  1.00  0.00     0.040 A 
ATOM     76  C   UNL A   1      36.431  29.310  29.931  1.00  0.00     0.040 A 
ATOM     77  F   UNL A   1      38.185  28.478  31.253  1.00  0.00    -0.206 F 
ATOM     78  C   UNL A   1      35.963  29.803  28.715  1.00  0.00     0.006 A 
ENDBRANCH  50  71
BRANCH  62  79
ATOM     79  C   UNL A   1      44.385  32.428  31.044  1.00  0.00     0.057 A 
ATOM     80  C   UNL A   1      44.346  32.782  32.397  1.00  0.00     0.134 A 
ATOM     81  C   UNL A   1      44.703  33.428  30.117  1.00  0.00     0.134 A 
ATOM     82  F   UNL A   1      44.037  31.869  33.330  1.00  0.00    -0.206 F 
ATOM     83  C   UNL A   1      44.603  34.089  32.813  1.00  0.00     0.040 A 
ATOM     84  C   UNL A   1      44.983  34.733  30.522  1.00  0.00     0.040 A 
ATOM     85  F   UNL A   1      44.764  33.148  28.806  1.00  0.00    -0.206 F 
ATOM     86  C   UNL A   1      44.929  35.067  31.874  1.00  0.00     0.006 A 
ENDBRANCH  62  79
ENDBRANCH  36  37
ENDBRANCH  28  31
ENDBRANCH  26  27
ENDBRANCH  25  26
ENDBRANCH   1  25
TORSDOF 15
ENDMDL
MODEL 2
REMARK VINA RESULT:     -11.3      0.591      1.653
REMARK SMILES COc1ccccc1C[C@@H](C(=O)NCCCCNC(=O)c1ccc(-c2c3nc(c(-c4c(F)cccc4F)c4ccc([nH]4)c(-c4c(F)cccc4F)c4nc(c(-c5c(F)cccc5F)c5ccc2[nH]5)C=C4)C=C3)cc1)[C@@H]1C[C@H](C)C[C@H](C)C1
REMARK SMILES IDX 15 1 14 2 13 3 11 4 12 5 10 7 9 8 8 9 3 10 4 11 5 12 7 13
REMARK SMILES IDX 6 14 2 15 1 16 75 17 82 18 76 19 80 20 77 21 81 22 79 23
REMARK SMILES IDX 78 24 16 25 17 26 18 27 19 28 20 30 21 31 22 32 74 33 23 34
REMARK SMILES IDX 73 35 24 36 25 37 26 38 67 39 27 40 72 41 66 42 68 43 28 44
REMARK SMILES IDX 71 45 65 46 64 47 29 49 55 50 38 51 54 52 39 53 42 54 53 55
REMARK SMILES IDX 69 56 40 57 41 58 52 60 70 61 43 62 30 63 31 64 36 65 32 66
REMARK SMILES IDX 33 67 35 68 37 69 34 70 56 71 57 72 62 73 58 74 59 75 61 76
REMARK SMILES IDX 63 77 60 78 44 79 45 80 50 81 46 82 47 83 49 84 51 85 48 86
REMARK H PARENT 13 6 18 29 68 48 42 59
REMARK Flexibility Score: inf
ROOT
ATOM      1  C   UNL A   1      36.955  22.184  24.542  1.00  0.00     0.023 C 
ENDROOT
BRANCH   1   2
ATOM      2  C   UNL A   1      36.663  23.177  25.652  1.00  0.00     0.116 C 
BRANCH   2   3
ATOM      3  N   UNL A   1      35.727  22.571  26.562  1.00  0.00    -0.356 N 
ATOM      4  C   UNL A   1      34.514  23.076  26.925  1.00  0.00     0.223 C 
ATOM      5  O   UNL A   1      34.152  22.795  28.071  1.00  0.00    -0.275 OA
ATOM      6  H   UNL A   1      35.987  21.710  26.961  1.00  0.00     0.163 HD
BRANCH   4   7
ATOM      7  C   UNL A   1      33.616  23.873  25.932  1.00  0.00     0.086 C 
BRANCH   7   8
ATOM      8  C   UNL A   1      32.856  25.068  26.573  1.00  0.00     0.053 C 
BRANCH   8   9
ATOM      9  C   UNL A   1      33.066  26.527  26.199  1.00  0.00    -0.005 A 
ATOM     10  C   UNL A   1      33.622  26.970  24.993  1.00  0.00     0.122 A 
ATOM     11  C   UNL A   1      33.905  28.325  24.760  1.00  0.00     0.047 A 
ATOM     12  C   UNL A   1      33.503  29.289  25.676  1.00  0.00     0.004 A 
ATOM     13  C   UNL A   1      32.571  27.533  27.057  1.00  0.00     0.007 A 
ATOM     14  C   UNL A   1      32.796  28.894  26.807  1.00  0.00     0.001 A 
BRANCH  10  15
ATOM     15  O   UNL A   1      33.797  26.108  23.942  1.00  0.00    -0.496 OA
ATOM     16  C   UNL A   1      33.449  26.820  22.739  1.00  0.00     0.278 C 
ENDBRANCH  10  15
ENDBRANCH   8   9
ENDBRANCH   7   8
BRANCH   7  17
ATOM     17  C   UNL A   1      32.611  22.764  25.382  1.00  0.00     0.002 C 
ATOM     18  C   UNL A   1      31.131  23.172  25.286  1.00  0.00     0.007 C 
ATOM     19  C   UNL A   1      33.022  21.968  24.143  1.00  0.00     0.007 C 
ATOM     20  C   UNL A   1      30.623  23.783  23.977  1.00  0.00    -0.014 C 
ATOM     21  C   UNL A   1      32.646  22.535  22.777  1.00  0.00    -0.014 C 
ATOM     22  C   UNL A   1      30.364  25.300  24.057  1.00  0.00     0.007 C 
ATOM     23  C   UNL A   1      31.386  23.415  22.697  1.00  0.00     0.006 C 
ATOM     24  C   UNL A   1      33.862  23.207  22.149  1.00  0.00     0.007 C 
ENDBRANCH   7  17
ENDBRANCH   4   7
ENDBRANCH   2   3
ENDBRANCH   1   2
BRANCH   1  25
ATOM     25  C   UNL A   1      37.558  20.849  24.916  1.00  0.00     0.023 C 
BRANCH  25  26
ATOM     26  C   UNL A   1      38.792  20.959  25.781  1.00  0.00     0.116 C 
BRANCH  26  27
ATOM     27  N   UNL A   1      39.707  19.825  25.677  1.00  0.00    -0.352 N 
ATOM     28  C   UNL A   1      41.039  19.753  26.014  1.00  0.00     0.251 C 
ATOM     29  H   UNL A   1      39.317  18.996  25.316  1.00  0.00     0.163 HD
ATOM     30  O   UNL A   1      41.686  18.731  25.810  1.00  0.00    -0.269 OA
BRANCH  28  31
ATOM     31  C   UNL A   1      41.692  20.958  26.562  1.00  0.00     0.039 A 
ATOM     32  C   UNL A   1      42.196  21.916  25.681  1.00  0.00     0.014 A 
ATOM     33  C   UNL A   1      41.672  21.198  27.935  1.00  0.00     0.014 A 
ATOM     34  C   UNL A   1      42.568  23.166  26.175  1.00  0.00     0.010 A 
ATOM     35  C   UNL A   1      41.899  22.482  28.399  1.00  0.00     0.010 A 
ATOM     36  C   UNL A   1      42.356  23.481  27.527  1.00  0.00    -0.014 A 
BRANCH  36  37
ATOM     37  C   UNL A   1      42.610  24.838  28.072  1.00  0.00     0.031 A 
ATOM     38  C   UNL A   1      44.002  25.212  28.506  1.00  0.00     0.074 A 
ATOM     39  C   UNL A   1      41.586  25.693  28.269  1.00  0.00     0.049 A 
ATOM     40  N   UNL A   1      44.411  26.277  29.145  1.00  0.00    -0.248 NA
ATOM     41  C   UNL A   1      45.067  24.231  28.235  1.00  0.00     0.031 C 
ATOM     42  C   UNL A   1      40.178  25.427  27.959  1.00  0.00     0.029 A 
ATOM     43  N   UNL A   1      41.573  26.964  28.784  1.00  0.00    -0.354 N 
ATOM     44  C   UNL A   1      45.763  26.069  29.389  1.00  0.00     0.074 A 
ATOM     45  C   UNL A   1      46.090  24.752  28.892  1.00  0.00     0.031 C 
ATOM     46  C   UNL A   1      39.451  26.520  28.239  1.00  0.00     0.029 A 
ATOM     47  C   UNL A   1      40.329  27.545  28.791  1.00  0.00     0.049 A 
ATOM     48  H   UNL A   1      42.381  27.418  29.117  1.00  0.00     0.167 HD
ATOM     49  C   UNL A   1      46.663  26.914  29.943  1.00  0.00     0.037 A 
ATOM     50  C   UNL A   1      39.943  28.772  29.194  1.00  0.00     0.037 A 
ATOM     51  C   UNL A   1      46.353  28.252  30.362  1.00  0.00     0.049 A 
ATOM     52  C   UNL A   1      40.972  29.715  29.749  1.00  0.00     0.074 A 
ATOM     53  C   UNL A   1      47.206  29.217  30.866  1.00  0.00     0.029 A 
ATOM     54  N   UNL A   1      45.090  28.820  30.303  1.00  0.00    -0.354 N 
ATOM     55  N   UNL A   1      42.255  29.521  29.935  1.00  0.00    -0.248 NA
ATOM     56  C   UNL A   1      40.501  31.048  30.148  1.00  0.00     0.031 C 
ATOM     57  C   UNL A   1      46.454  30.365  31.131  1.00  0.00     0.029 A 
ATOM     58  C   UNL A   1      45.141  30.125  30.760  1.00  0.00     0.049 A 
ATOM     59  H   UNL A   1      44.279  28.364  29.984  1.00  0.00     0.167 HD
ATOM     60  C   UNL A   1      42.749  30.713  30.446  1.00  0.00     0.074 A 
ATOM     61  C   UNL A   1      41.630  31.628  30.529  1.00  0.00     0.031 C 
ATOM     62  C   UNL A   1      44.016  31.022  30.816  1.00  0.00     0.037 A 
BRANCH  49  63
ATOM     63  C   UNL A   1      48.071  26.419  30.091  1.00  0.00     0.057 A 
ATOM     64  C   UNL A   1      48.509  25.779  31.259  1.00  0.00     0.134 A 
ATOM     65  C   UNL A   1      48.997  26.570  29.051  1.00  0.00     0.134 A 
ATOM     66  F   UNL A   1      47.677  25.621  32.300  1.00  0.00    -0.206 F 
ATOM     67  C   UNL A   1      49.823  25.334  31.400  1.00  0.00     0.040 A 
ATOM     68  C   UNL A   1      50.307  26.102  29.169  1.00  0.00     0.040 A 
ATOM     69  F   UNL A   1      48.644  27.171  27.905  1.00  0.00    -0.206 F 
ATOM     70  C   UNL A   1      50.726  25.489  30.349  1.00  0.00     0.006 A 
ENDBRANCH  49  63
BRANCH  50  71
ATOM     71  C   UNL A   1      38.531  29.199  29.033  1.00  0.00     0.057 A 
ATOM     72  C   UNL A   1      38.057  29.642  27.792  1.00  0.00     0.134 A 
ATOM     73  C   UNL A   1      37.625  29.179  30.099  1.00  0.00     0.134 A 
ATOM     74  F   UNL A   1      38.884  29.699  26.738  1.00  0.00    -0.206 F 
ATOM     75  C   UNL A   1      36.740  30.066  27.620  1.00  0.00     0.040 A 
ATOM     76  C   UNL A   1      36.298  29.580  29.937  1.00  0.00     0.040 A 
ATOM     77  F   UNL A   1      38.015  28.756  31.310  1.00  0.00    -0.206 F 
ATOM     78  C   UNL A   1      35.854  30.032  28.695  1.00  0.00     0.006 A 
ENDBRANCH  50  71
BRANCH  62  79
ATOM     79  C   UNL A   1      44.267  32.417  31.303  1.00  0.00     0.057 A 
ATOM     80  C   UNL A   1      44.580  33.459  30.424  1.00  0.00     0.134 A 
ATOM     81  C   UNL A   1      44.139  32.728  32.662  1.00  0.00     0.134 A 
ATOM     82  F   UNL A   1      44.726  33.220  29.111  1.00  0.00    -0.206 F 
ATOM     83  C   UNL A   1      44.772  34.763  30.881  1.00  0.00     0.040 A 
ATOM     84  C   UNL A   1      44.307  34.031  33.130  1.00  0.00     0.040 A 
ATOM     85  F   UNL A   1      43.831  31.773  33.554  1.00  0.00    -0.206 F 
ATOM     86  C   UNL A   1      44.629  35.052  32.238  1.00  0.00     0.006 A 
ENDBRANCH  62  79
ENDBRANCH  36  37
ENDBRANCH  28  31
ENDBRANCH  26  27
ENDBRANCH  25  26
ENDBRANCH   1  25
TORSDOF 15
ENDMDL
MODEL 3
REMARK VINA RESULT:     -11.2      3.399      8.111
REMARK SMILES COc1ccccc1C[C@@H](C(=O)NCCCCNC(=O)c1ccc(-c2c3nc(c(-c4c(F)cccc4F)c4ccc([nH]4)c(-c4c(F)cccc4F)c4nc(c(-c5c(F)cccc5F)c5ccc2[nH]5)C=C4)C=C3)cc1)[C@@H]1C[C@H](C)C[C@H](C)C1
REMARK SMILES IDX 15 1 14 2 13 3 11 4 12 5 10 7 9 8 8 9 3 10 4 11 5 12 7 13
REMARK SMILES IDX 6 14 2 15 1 16 75 17 82 18 76 19 80 20 77 21 81 22 79 23
REMARK SMILES IDX 78 24 16 25 17 26 18 27 19 28 20 30 21 31 22 32 74 33 23 34
REMARK SMILES IDX 73 35 24 36 25 37 26 38 67 39 27 40 72 41 66 42 68 43 28 44
REMARK SMILES IDX 71 45 65 46 64 47 29 49 55 50 38 51 54 52 39 53 42 54 53 55
REMARK SMILES IDX 69 56 40 57 41 58 52 60 70 61 43 62 30 63 31 64 36 65 32 66
REMARK SMILES IDX 33 67 35 68 37 69 34 70 56 71 57 72 62 73 58 74 59 75 61 76
REMARK SMILES IDX 63 77 60 78 44 79 45 80 50 81 46 82 47 83 49 84 51 85 48 86
REMARK H PARENT 13 6 18 29 68 48 42 59
REMARK Flexibility Score: inf
ROOT
ATOM      1  C   UNL A   1      31.758  29.047  26.388  1.00  0.00     0.023 C 
ENDROOT
BRANCH   1   2
ATOM      2  C   UNL A   1      32.534  27.830  26.860  1.00  0.00     0.116 C 
BRANCH   2   3
ATOM      3  N   UNL A   1      31.592  26.777  27.139  1.00  0.00    -0.356 N 
ATOM      4  C   UNL A   1      31.097  25.880  26.241  1.00  0.00     0.223 C 
ATOM      5  O   UNL A   1      29.946  25.494  26.466  1.00  0.00    -0.275 OA
ATOM      6  H   UNL A   1      31.274  26.698  28.067  1.00  0.00     0.163 HD
BRANCH   4   7
ATOM      7  C   UNL A   1      31.957  25.317  25.069  1.00  0.00     0.086 C 
BRANCH   7   8
ATOM      8  C   UNL A   1      31.434  25.691  23.655  1.00  0.00     0.053 C 
BRANCH   8   9
ATOM      9  C   UNL A   1      30.865  27.049  23.273  1.00  0.00    -0.005 A 
ATOM     10  C   UNL A   1      31.602  28.090  22.697  1.00  0.00     0.122 A 
ATOM     11  C   UNL A   1      31.049  29.362  22.484  1.00  0.00     0.047 A 
ATOM     12  C   UNL A   1      29.696  29.581  22.712  1.00  0.00     0.004 A 
ATOM     13  C   UNL A   1      29.476  27.267  23.389  1.00  0.00     0.007 A 
ATOM     14  C   UNL A   1      28.900  28.518  23.125  1.00  0.00     0.001 A 
BRANCH  10  15
ATOM     15  O   UNL A   1      32.861  27.868  22.202  1.00  0.00    -0.496 OA
ATOM     16  C   UNL A   1      33.783  28.614  23.020  1.00  0.00     0.278 C 
ENDBRANCH  10  15
ENDBRANCH   8   9
ENDBRANCH   7   8
BRANCH   7  17
ATOM     17  C   UNL A   1      31.918  23.743  25.315  1.00  0.00     0.002 C 
ATOM     18  C   UNL A   1      31.737  22.862  24.066  1.00  0.00     0.007 C 
ATOM     19  C   UNL A   1      32.965  23.131  26.247  1.00  0.00     0.007 C 
ATOM     20  C   UNL A   1      32.986  22.366  23.331  1.00  0.00    -0.014 C 
ATOM     21  C   UNL A   1      34.289  22.685  25.631  1.00  0.00    -0.014 C 
ATOM     22  C   UNL A   1      33.246  23.082  21.993  1.00  0.00     0.007 C 
ATOM     23  C   UNL A   1      34.274  22.243  24.158  1.00  0.00     0.006 C 
ATOM     24  C   UNL A   1      35.362  23.732  25.911  1.00  0.00     0.007 C 
ENDBRANCH   7  17
ENDBRANCH   4   7
ENDBRANCH   2   3
ENDBRANCH   1   2
BRANCH   1  25
ATOM     25  C   UNL A   1      32.534  30.284  25.999  1.00  0.00     0.023 C 
BRANCH  25  26
ATOM     26  C   UNL A   1      33.082  31.055  27.177  1.00  0.00     0.116 C 
BRANCH  26  27
ATOM     27  N   UNL A   1      32.495  32.381  27.359  1.00  0.00    -0.352 N 
ATOM     28  C   UNL A   1      33.010  33.472  28.020  1.00  0.00     0.251 C 
ATOM     29  H   UNL A   1      31.609  32.512  26.950  1.00  0.00     0.163 HD
ATOM     30  O   UNL A   1      32.358  34.506  28.130  1.00  0.00    -0.269 OA
BRANCH  28  31
ATOM     31  C   UNL A   1      34.334  33.349  28.658  1.00  0.00     0.039 A 
ATOM     32  C   UNL A   1      34.441  32.675  29.876  1.00  0.00     0.014 A 
ATOM     33  C   UNL A   1      35.476  33.771  27.979  1.00  0.00     0.014 A 
ATOM     34  C   UNL A   1      35.704  32.321  30.349  1.00  0.00     0.010 A 
ATOM     35  C   UNL A   1      36.713  33.290  28.373  1.00  0.00     0.010 A 
ATOM     36  C   UNL A   1      36.845  32.564  29.566  1.00  0.00    -0.014 A 
BRANCH  36  37
ATOM     37  C   UNL A   1      38.193  32.088  29.964  1.00  0.00     0.031 A 
ATOM     38  C   UNL A   1      38.701  30.776  29.428  1.00  0.00     0.074 A 
ATOM     39  C   UNL A   1      38.913  32.773  30.875  1.00  0.00     0.049 A 
ATOM     40  N   UNL A   1      39.772  30.105  29.762  1.00  0.00    -0.248 NA
ATOM     41  C   UNL A   1      37.864  30.103  28.419  1.00  0.00     0.031 C 
ATOM     42  C   UNL A   1      38.503  34.019  31.527  1.00  0.00     0.029 A 
ATOM     43  N   UNL A   1      40.147  32.511  31.414  1.00  0.00    -0.354 N 
ATOM     44  C   UNL A   1      39.709  28.918  29.043  1.00  0.00     0.074 A 
ATOM     45  C   UNL A   1      38.465  28.930  28.307  1.00  0.00     0.031 C 
ATOM     46  C   UNL A   1      39.490  34.439  32.335  1.00  0.00     0.029 A 
ATOM     47  C   UNL A   1      40.580  33.471  32.295  1.00  0.00     0.049 A 
ATOM     48  H   UNL A   1      40.673  31.709  31.191  1.00  0.00     0.167 HD
ATOM     49  C   UNL A   1      40.622  27.922  28.969  1.00  0.00     0.037 A 
ATOM     50  C   UNL A   1      41.732  33.561  32.987  1.00  0.00     0.037 A 
ATOM     51  C   UNL A   1      41.892  27.950  29.638  1.00  0.00     0.049 A 
ATOM     52  C   UNL A   1      42.758  32.473  32.842  1.00  0.00     0.074 A 
ATOM     53  C   UNL A   1      42.922  27.030  29.572  1.00  0.00     0.029 A 
ATOM     54  N   UNL A   1      42.314  28.968  30.479  1.00  0.00    -0.354 N 
ATOM     55  N   UNL A   1      42.703  31.376  32.126  1.00  0.00    -0.248 NA
ATOM     56  C   UNL A   1      44.006  32.635  33.600  1.00  0.00     0.031 C 
ATOM     57  C   UNL A   1      43.962  27.481  30.390  1.00  0.00     0.029 A 
ATOM     58  C   UNL A   1      43.592  28.699  30.938  1.00  0.00     0.049 A 
ATOM     59  H   UNL A   1      41.785  29.763  30.716  1.00  0.00     0.167 HD
ATOM     60  C   UNL A   1      43.917  30.732  32.324  1.00  0.00     0.074 A 
ATOM     61  C   UNL A   1      44.692  31.567  33.219  1.00  0.00     0.031 C 
ATOM     62  C   UNL A   1      44.350  29.554  31.813  1.00  0.00     0.037 A 
BRANCH  49  63
ATOM     63  C   UNL A   1      40.285  26.741  28.109  1.00  0.00     0.057 A 
ATOM     64  C   UNL A   1      39.436  25.719  28.558  1.00  0.00     0.134 A 
ATOM     65  C   UNL A   1      40.801  26.629  26.813  1.00  0.00     0.134 A 
ATOM     66  F   UNL A   1      38.925  25.758  29.798  1.00  0.00    -0.206 F 
ATOM     67  C   UNL A   1      39.138  24.615  27.761  1.00  0.00     0.040 A 
ATOM     68  C   UNL A   1      40.486  25.542  25.995  1.00  0.00     0.040 A 
ATOM     69  F   UNL A   1      41.618  27.572  26.319  1.00  0.00    -0.206 F 
ATOM     70  C   UNL A   1      39.658  24.527  26.471  1.00  0.00     0.006 A 
ENDBRANCH  49  63
BRANCH  50  71
ATOM     71  C   UNL A   1      42.002  34.750  33.833  1.00  0.00     0.057 A 
ATOM     72  C   UNL A   1      42.614  35.887  33.291  1.00  0.00     0.134 A 
ATOM     73  C   UNL A   1      41.663  34.786  35.190  1.00  0.00     0.134 A 
ATOM     74  F   UNL A   1      42.977  35.904  32.000  1.00  0.00    -0.206 F 
ATOM     75  C   UNL A   1      42.895  37.010  34.070  1.00  0.00     0.040 A 
ATOM     76  C   UNL A   1      41.919  35.911  35.977  1.00  0.00     0.040 A 
ATOM     77  F   UNL A   1      41.067  33.732  35.767  1.00  0.00    -0.206 F 
ATOM     78  C   UNL A   1      42.543  37.024  35.418  1.00  0.00     0.006 A 
ENDBRANCH  50  71
BRANCH  62  79
ATOM     79  C   UNL A   1      45.738  29.119  32.174  1.00  0.00     0.057 A 
ATOM     80  C   UNL A   1      45.988  28.292  33.274  1.00  0.00     0.134 A 
ATOM     81  C   UNL A   1      46.828  29.490  31.377  1.00  0.00     0.134 A 
ATOM     82  F   UNL A   1      44.985  27.912  34.081  1.00  0.00    -0.206 F 
ATOM     83  C   UNL A   1      47.279  27.859  33.580  1.00  0.00     0.040 A 
ATOM     84  C   UNL A   1      48.119  29.047  31.659  1.00  0.00     0.040 A 
ATOM     85  F   UNL A   1      46.650  30.275  30.303  1.00  0.00    -0.206 F 
ATOM     86  C   UNL A   1      48.348  28.232  32.766  1.00  0.00     0.006 A 
ENDBRANCH  62  79
ENDBRANCH  36  37
ENDBRANCH  28  31
ENDBRANCH  26  27
ENDBRANCH  25  26
ENDBRANCH   1  25
TORSDOF 15
ENDMDL
