MODEL 1
REMARK VINA RESULT:     -11.7      0.000      0.000
REMARK SMILES O=C(NCCCCNC(=O)[C@H]1CCCN1C(=S)Nc1ccccc1)c1ccc(-c2c3nc(c(-c4c(F)cccc4F)c4ccc([nH]4)c(-c4c(F)cccc4F)c4nc(c(-c5c(F)cccc5F)c5ccc2[nH]5)C=C4)C=C3)cc1
REMARK SMILES IDX 6 1 5 2 4 3 3 4 1 5 2 6 25 8 26 9 78 10 27 11 77 12 28 13
REMARK SMILES IDX 29 14 30 15 71 16 31 17 76 18 70 19 72 20 32 21 75 22 69 23
REMARK SMILES IDX 68 24 33 26 59 27 42 28 58 29 43 30 46 31 57 32 73 33 44 34
REMARK SMILES IDX 45 35 56 37 74 38 47 39 34 40 35 41 40 42 36 43 37 44 39 45
REMARK SMILES IDX 41 46 38 47 60 48 61 49 66 50 62 51 63 52 65 53 67 54 64 55
REMARK SMILES IDX 48 56 49 57 54 58 50 59 51 60 53 61 55 62 52 63 7 64 8 65
REMARK SMILES IDX 9 66 10 68 11 69 12 70 15 71 13 72 14 73 16 74 17 75 18 76
REMARK SMILES IDX 19 78 20 79 24 80 21 81 23 82 22 83
REMARK H PARENT 3 7 72 25 46 36 8 67 18 77
REMARK Flexibility Score: inf
ROOT
ATOM      1  C   UNL A   1      31.810  30.689  26.172  1.00  0.00     0.023 C 
ENDROOT
BRANCH   1   2
ATOM      2  C   UNL A   1      31.469  32.099  26.646  1.00  0.00     0.023 C 
BRANCH   2   3
ATOM      3  C   UNL A   1      32.596  32.816  27.373  1.00  0.00     0.116 C 
BRANCH   3   4
ATOM      4  N   UNL A   1      32.290  34.207  27.675  1.00  0.00    -0.352 N 
ATOM      5  O   UNL A   1      32.493  36.160  28.798  1.00  0.00    -0.269 OA
ATOM      6  C   UNL A   1      32.926  35.043  28.562  1.00  0.00     0.251 C 
ATOM      7  H   UNL A   1      31.532  34.597  27.182  1.00  0.00     0.163 HD
BRANCH   6   8
ATOM      8  C   UNL A   1      34.128  34.541  29.253  1.00  0.00     0.039 A 
ATOM      9  C   UNL A   1      35.372  34.589  28.618  1.00  0.00     0.014 A 
ATOM     10  C   UNL A   1      33.990  33.966  30.517  1.00  0.00     0.014 A 
ATOM     11  C   UNL A   1      36.456  33.939  29.190  1.00  0.00     0.010 A 
ATOM     12  C   UNL A   1      35.099  33.380  31.125  1.00  0.00     0.010 A 
ATOM     13  C   UNL A   1      36.330  33.336  30.451  1.00  0.00    -0.014 A 
BRANCH  13  14
ATOM     14  C   UNL A   1      37.511  32.703  31.080  1.00  0.00     0.031 A 
ATOM     15  C   UNL A   1      38.190  31.529  30.439  1.00  0.00     0.074 A 
ATOM     16  C   UNL A   1      37.959  33.199  32.248  1.00  0.00     0.049 A 
ATOM     17  N   UNL A   1      39.189  30.811  30.885  1.00  0.00    -0.248 NA
ATOM     18  C   UNL A   1      37.677  31.099  29.129  1.00  0.00     0.031 C 
ATOM     19  C   UNL A   1      37.374  34.340  32.957  1.00  0.00     0.029 A 
ATOM     20  N   UNL A   1      39.006  32.813  33.042  1.00  0.00    -0.354 N 
ATOM     21  C   UNL A   1      39.407  29.828  29.929  1.00  0.00     0.074 A 
ATOM     22  C   UNL A   1      38.428  30.033  28.882  1.00  0.00     0.031 C 
ATOM     23  C   UNL A   1      38.085  34.575  34.069  1.00  0.00     0.029 A 
ATOM     24  C   UNL A   1      39.131  33.566  34.182  1.00  0.00     0.049 A 
ATOM     25  H   UNL A   1      39.609  32.067  32.817  1.00  0.00     0.167 HD
ATOM     26  C   UNL A   1      40.342  28.848  29.928  1.00  0.00     0.037 A 
ATOM     27  C   UNL A   1      39.974  33.440  35.221  1.00  0.00     0.037 A 
ATOM     28  C   UNL A   1      41.322  28.665  30.969  1.00  0.00     0.049 A 
ATOM     29  C   UNL A   1      40.983  32.333  35.207  1.00  0.00     0.074 A 
ATOM     30  C   UNL A   1      42.331  27.722  31.049  1.00  0.00     0.029 A 
ATOM     31  N   UNL A   1      41.410  29.443  32.115  1.00  0.00    -0.354 N 
ATOM     32  N   UNL A   1      41.188  31.417  34.291  1.00  0.00    -0.248 NA
ATOM     33  C   UNL A   1      41.874  32.236  36.370  1.00  0.00     0.031 C 
ATOM     34  C   UNL A   1      43.007  27.906  32.261  1.00  0.00     0.029 A 
ATOM     35  C   UNL A   1      42.446  28.990  32.916  1.00  0.00     0.049 A 
ATOM     36  H   UNL A   1      40.823  30.205  32.327  1.00  0.00     0.167 HD
ATOM     37  C   UNL A   1      42.243  30.644  34.758  1.00  0.00     0.074 A 
ATOM     38  C   UNL A   1      42.640  31.207  36.033  1.00  0.00     0.031 C 
ATOM     39  C   UNL A   1      42.826  29.566  34.181  1.00  0.00     0.037 A 
BRANCH  26  40
ATOM     40  C   UNL A   1      40.332  27.881  28.780  1.00  0.00     0.057 A 
ATOM     41  C   UNL A   1      41.067  28.109  27.610  1.00  0.00     0.134 A 
ATOM     42  C   UNL A   1      39.598  26.690  28.860  1.00  0.00     0.134 A 
ATOM     43  F   UNL A   1      41.781  29.236  27.464  1.00  0.00    -0.206 F 
ATOM     44  C   UNL A   1      41.054  27.198  26.551  1.00  0.00     0.040 A 
ATOM     45  C   UNL A   1      39.595  25.762  27.817  1.00  0.00     0.040 A 
ATOM     46  F   UNL A   1      38.875  26.408  29.954  1.00  0.00    -0.206 F 
ATOM     47  C   UNL A   1      40.320  26.018  26.656  1.00  0.00     0.006 A 
ENDBRANCH  26  40
BRANCH  27  48
ATOM     48  C   UNL A   1      39.878  34.390  36.353  1.00  0.00     0.057 A 
ATOM     49  C   UNL A   1      39.121  34.088  37.489  1.00  0.00     0.134 A 
ATOM     50  C   UNL A   1      40.583  35.602  36.346  1.00  0.00     0.134 A 
ATOM     51  F   UNL A   1      38.417  32.948  37.546  1.00  0.00    -0.206 F 
ATOM     52  C   UNL A   1      39.066  34.956  38.580  1.00  0.00     0.040 A 
ATOM     53  C   UNL A   1      40.555  36.467  37.439  1.00  0.00     0.040 A 
ATOM     54  F   UNL A   1      41.336  35.941  35.290  1.00  0.00    -0.206 F 
ATOM     55  C   UNL A   1      39.792  36.146  38.559  1.00  0.00     0.006 A 
ENDBRANCH  27  48
BRANCH  39  56
ATOM     56  C   UNL A   1      43.978  28.947  34.913  1.00  0.00     0.057 A 
ATOM     57  C   UNL A   1      43.793  27.912  35.837  1.00  0.00     0.134 A 
ATOM     58  C   UNL A   1      45.289  29.372  34.664  1.00  0.00     0.134 A 
ATOM     59  F   UNL A   1      42.560  27.473  36.129  1.00  0.00    -0.206 F 
ATOM     60  C   UNL A   1      44.874  27.331  36.502  1.00  0.00     0.040 A 
ATOM     61  C   UNL A   1      46.378  28.785  35.306  1.00  0.00     0.040 A 
ATOM     62  F   UNL A   1      45.531  30.357  33.786  1.00  0.00    -0.206 F 
ATOM     63  C   UNL A   1      46.172  27.763  36.232  1.00  0.00     0.006 A 
ENDBRANCH  39  56
ENDBRANCH  13  14
ENDBRANCH   6   8
ENDBRANCH   3   4
ENDBRANCH   2   3
ENDBRANCH   1   2
BRANCH   1  64
ATOM     64  C   UNL A   1      32.301  29.751  27.268  1.00  0.00     0.116 C 
BRANCH  64  65
ATOM     65  N   UNL A   1      31.534  28.528  27.294  1.00  0.00    -0.354 N 
ATOM     66  C   UNL A   1      31.578  27.415  26.520  1.00  0.00     0.242 C 
ATOM     67  H   UNL A   1      30.852  28.496  28.003  1.00  0.00     0.163 HD
ATOM     68  O   UNL A   1      30.650  26.612  26.693  1.00  0.00    -0.273 OA
BRANCH  66  69
ATOM     69  C   UNL A   1      32.605  27.154  25.391  1.00  0.00     0.173 C 
ATOM     70  C   UNL A   1      33.936  26.649  25.959  1.00  0.00     0.037 C 
ATOM     71  N   UNL A   1      32.322  26.254  24.258  1.00  0.00    -0.337 N 
ATOM     72  C   UNL A   1      33.942  25.168  25.651  1.00  0.00     0.024 C 
ATOM     73  C   UNL A   1      33.157  25.052  24.357  1.00  0.00     0.120 C 
BRANCH  71  74
ATOM     74  C   UNL A   1      31.424  26.451  23.224  1.00  0.00     0.174 C 
ATOM     75  S   UNL A   1      31.761  26.107  21.608  1.00  0.00    -0.041 S 
BRANCH  74  76
ATOM     76  N   UNL A   1      30.125  26.767  23.486  1.00  0.00    -0.333 N 
ATOM     77  H   UNL A   1      29.584  26.016  23.821  1.00  0.00     0.169 HD
BRANCH  76  78
ATOM     78  C   UNL A   1      29.425  27.976  23.362  1.00  0.00     0.040 A 
ATOM     79  C   UNL A   1      28.046  27.906  23.152  1.00  0.00     0.026 A 
ATOM     80  C   UNL A   1      30.054  29.222  23.400  1.00  0.00     0.026 A 
ATOM     81  C   UNL A   1      27.285  29.076  23.112  1.00  0.00     0.002 A 
ATOM     82  C   UNL A   1      29.293  30.391  23.366  1.00  0.00     0.002 A 
ATOM     83  C   UNL A   1      27.906  30.316  23.242  1.00  0.00     0.000 A 
ENDBRANCH  76  78
ENDBRANCH  74  76
ENDBRANCH  71  74
ENDBRANCH  66  69
ENDBRANCH  64  65
ENDBRANCH   1  64
TORSDOF 14
ENDMDL
MODEL 2
REMARK VINA RESULT:     -11.7      0.249      6.386
REMARK SMILES O=C(NCCCCNC(=O)[C@H]1CCCN1C(=S)Nc1ccccc1)c1ccc(-c2c3nc(c(-c4c(F)cccc4F)c4ccc([nH]4)c(-c4c(F)cccc4F)c4nc(c(-c5c(F)cccc5F)c5ccc2[nH]5)C=C4)C=C3)cc1
REMARK SMILES IDX 6 1 5 2 4 3 3 4 1 5 2 6 25 8 26 9 78 10 27 11 77 12 28 13
REMARK SMILES IDX 29 14 30 15 71 16 31 17 76 18 70 19 72 20 32 21 75 22 69 23
REMARK SMILES IDX 68 24 33 26 59 27 42 28 58 29 43 30 46 31 57 32 73 33 44 34
REMARK SMILES IDX 45 35 56 37 74 38 47 39 34 40 35 41 40 42 36 43 37 44 39 45
REMARK SMILES IDX 41 46 38 47 60 48 61 49 66 50 62 51 63 52 65 53 67 54 64 55
REMARK SMILES IDX 48 56 49 57 54 58 50 59 51 60 53 61 55 62 52 63 7 64 8 65
REMARK SMILES IDX 9 66 10 68 11 69 12 70 15 71 13 72 14 73 16 74 17 75 18 76
REMARK SMILES IDX 19 78 20 79 24 80 21 81 23 82 22 83
REMARK H PARENT 3 7 72 25 46 36 8 67 18 77
REMARK Flexibility Score: inf
ROOT
ATOM      1  C   UNL A   1      31.696  30.697  26.131  1.00  0.00     0.023 C 
ENDROOT
BRANCH   1   2
ATOM      2  C   UNL A   1      31.420  32.137  26.556  1.00  0.00     0.023 C 
BRANCH   2   3
ATOM      3  C   UNL A   1      32.559  32.808  27.308  1.00  0.00     0.116 C 
BRANCH   3   4
ATOM      4  N   UNL A   1      32.293  34.203  27.626  1.00  0.00    -0.352 N 
ATOM      5  O   UNL A   1      32.528  36.129  28.791  1.00  0.00    -0.269 OA
ATOM      6  C   UNL A   1      32.928  35.000  28.548  1.00  0.00     0.251 C 
ATOM      7  H   UNL A   1      31.565  34.629  27.117  1.00  0.00     0.163 HD
BRANCH   6   8
ATOM      8  C   UNL A   1      34.090  34.445  29.267  1.00  0.00     0.039 A 
ATOM      9  C   UNL A   1      35.369  34.543  28.714  1.00  0.00     0.014 A 
ATOM     10  C   UNL A   1      33.878  33.769  30.469  1.00  0.00     0.014 A 
ATOM     11  C   UNL A   1      36.420  33.849  29.296  1.00  0.00     0.010 A 
ATOM     12  C   UNL A   1      34.951  33.135  31.094  1.00  0.00     0.010 A 
ATOM     13  C   UNL A   1      36.221  33.146  30.494  1.00  0.00    -0.014 A 
BRANCH  13  14
ATOM     14  C   UNL A   1      37.365  32.463  31.140  1.00  0.00     0.031 A 
ATOM     15  C   UNL A   1      37.902  32.938  32.457  1.00  0.00     0.074 A 
ATOM     16  C   UNL A   1      37.919  31.409  30.515  1.00  0.00     0.049 A 
ATOM     17  N   UNL A   1      38.937  32.503  33.130  1.00  0.00    -0.248 NA
ATOM     18  C   UNL A   1      37.189  34.050  33.104  1.00  0.00     0.031 C 
ATOM     19  C   UNL A   1      37.473  30.862  29.231  1.00  0.00     0.029 A 
ATOM     20  N   UNL A   1      38.973  30.609  30.871  1.00  0.00    -0.354 N 
ATOM     21  C   UNL A   1      39.020  33.304  34.261  1.00  0.00     0.074 A 
ATOM     22  C   UNL A   1      37.936  34.261  34.180  1.00  0.00     0.031 C 
ATOM     23  C   UNL A   1      38.233  29.803  28.918  1.00  0.00     0.029 A 
ATOM     24  C   UNL A   1      39.255  29.637  29.944  1.00  0.00     0.049 A 
ATOM     25  H   UNL A   1      39.478  30.722  31.708  1.00  0.00     0.167 HD
ATOM     26  C   UNL A   1      39.918  33.241  35.273  1.00  0.00     0.037 A 
ATOM     27  C   UNL A   1      40.247  28.730  29.908  1.00  0.00     0.037 A 
ATOM     28  C   UNL A   1      40.983  32.273  35.349  1.00  0.00     0.049 A 
ATOM     29  C   UNL A   1      41.241  28.697  31.027  1.00  0.00     0.074 A 
ATOM     30  C   UNL A   1      41.927  32.104  36.346  1.00  0.00     0.029 A 
ATOM     31  N   UNL A   1      41.243  31.309  34.385  1.00  0.00    -0.354 N 
ATOM     32  N   UNL A   1      41.301  29.451  32.098  1.00  0.00    -0.248 NA
ATOM     33  C   UNL A   1      42.308  27.693  30.933  1.00  0.00     0.031 C 
ATOM     34  C   UNL A   1      42.783  31.063  35.967  1.00  0.00     0.029 A 
ATOM     35  C   UNL A   1      42.345  30.555  34.755  1.00  0.00     0.049 A 
ATOM     36  H   UNL A   1      40.721  31.180  33.560  1.00  0.00     0.167 HD
ATOM     37  C   UNL A   1      42.402  29.004  32.816  1.00  0.00     0.074 A 
ATOM     38  C   UNL A   1      42.972  27.904  32.062  1.00  0.00     0.031 C 
ATOM     39  C   UNL A   1      42.894  29.463  33.991  1.00  0.00     0.037 A 
BRANCH  26  40
ATOM     40  C   UNL A   1      39.806  34.265  36.364  1.00  0.00     0.057 A 
ATOM     41  C   UNL A   1      39.066  34.030  37.530  1.00  0.00     0.134 A 
ATOM     42  C   UNL A   1      40.472  35.493  36.259  1.00  0.00     0.134 A 
ATOM     43  F   UNL A   1      38.395  32.880  37.689  1.00  0.00    -0.206 F 
ATOM     44  C   UNL A   1      38.975  34.988  38.542  1.00  0.00     0.040 A 
ATOM     45  C   UNL A   1      40.406  36.450  37.273  1.00  0.00     0.040 A 
ATOM     46  F   UNL A   1      41.201  35.781  35.170  1.00  0.00    -0.206 F 
ATOM     47  C   UNL A   1      39.651  36.201  38.416  1.00  0.00     0.006 A 
ENDBRANCH  26  40
BRANCH  27  48
ATOM     48  C   UNL A   1      40.334  27.797  28.761  1.00  0.00     0.057 A 
ATOM     49  C   UNL A   1      39.632  26.589  28.758  1.00  0.00     0.134 A 
ATOM     50  C   UNL A   1      41.082  28.117  27.620  1.00  0.00     0.134 A 
ATOM     51  F   UNL A   1      38.909  26.226  29.827  1.00  0.00    -0.206 F 
ATOM     52  C   UNL A   1      39.669  25.727  27.661  1.00  0.00     0.040 A 
ATOM     53  C   UNL A   1      41.109  27.277  26.507  1.00  0.00     0.040 A 
ATOM     54  F   UNL A   1      41.767  29.268  27.559  1.00  0.00    -0.206 F 
ATOM     55  C   UNL A   1      40.403  26.076  26.527  1.00  0.00     0.006 A 
ENDBRANCH  27  48
BRANCH  39  56
ATOM     56  C   UNL A   1      44.091  28.754  34.547  1.00  0.00     0.057 A 
ATOM     57  C   UNL A   1      45.395  29.188  34.281  1.00  0.00     0.134 A 
ATOM     58  C   UNL A   1      43.933  27.643  35.385  1.00  0.00     0.134 A 
ATOM     59  F   UNL A   1      45.611  30.237  33.473  1.00  0.00    -0.206 F 
ATOM     60  C   UNL A   1      46.503  28.530  34.817  1.00  0.00     0.040 A 
ATOM     61  C   UNL A   1      45.031  26.991  35.943  1.00  0.00     0.040 A 
ATOM     62  F   UNL A   1      42.708  27.181  35.681  1.00  0.00    -0.206 F 
ATOM     63  C   UNL A   1      46.322  27.432  35.656  1.00  0.00     0.006 A 
ENDBRANCH  39  56
ENDBRANCH  13  14
ENDBRANCH   6   8
ENDBRANCH   3   4
ENDBRANCH   2   3
ENDBRANCH   1   2
BRANCH   1  64
ATOM     64  C   UNL A   1      32.211  29.793  27.244  1.00  0.00     0.116 C 
BRANCH  64  65
ATOM     65  N   UNL A   1      31.487  28.545  27.282  1.00  0.00    -0.354 N 
ATOM     66  C   UNL A   1      31.568  27.427  26.517  1.00  0.00     0.242 C 
ATOM     67  H   UNL A   1      30.809  28.495  27.994  1.00  0.00     0.163 HD
ATOM     68  O   UNL A   1      30.668  26.594  26.700  1.00  0.00    -0.273 OA
BRANCH  66  69
ATOM     69  C   UNL A   1      32.599  27.193  25.387  1.00  0.00     0.173 C 
ATOM     70  C   UNL A   1      33.954  26.757  25.956  1.00  0.00     0.037 C 
ATOM     71  N   UNL A   1      32.350  26.262  24.271  1.00  0.00    -0.337 N 
ATOM     72  C   UNL A   1      34.024  25.272  25.673  1.00  0.00     0.024 C 
ATOM     73  C   UNL A   1      33.239  25.099  24.386  1.00  0.00     0.120 C 
BRANCH  71  74
ATOM     74  C   UNL A   1      31.439  26.401  23.239  1.00  0.00     0.174 C 
ATOM     75  S   UNL A   1      31.786  26.054  21.626  1.00  0.00    -0.041 S 
BRANCH  74  76
ATOM     76  N   UNL A   1      30.128  26.655  23.503  1.00  0.00    -0.333 N 
ATOM     77  H   UNL A   1      29.625  25.881  23.843  1.00  0.00     0.169 HD
BRANCH  76  78
ATOM     78  C   UNL A   1      29.370  27.829  23.376  1.00  0.00     0.040 A 
ATOM     79  C   UNL A   1      30.060  29.041  23.319  1.00  0.00     0.026 A 
ATOM     80  C   UNL A   1      27.974  27.828  23.348  1.00  0.00     0.026 A 
ATOM     81  C   UNL A   1      29.364  30.232  23.102  1.00  0.00     0.002 A 
ATOM     82  C   UNL A   1      27.278  29.018  23.125  1.00  0.00     0.002 A 
ATOM     83  C   UNL A   1      27.976  30.216  22.983  1.00  0.00     0.000 A 
ENDBRANCH  76  78
ENDBRANCH  74  76
ENDBRANCH  71  74
ENDBRANCH  66  69
ENDBRANCH  64  65
ENDBRANCH   1  64
TORSDOF 14
ENDMDL
MODEL 3
REMARK VINA RESULT:     -11.6      5.731     10.702
REMARK SMILES O=C(NCCCCNC(=O)[C@H]1CCCN1C(=S)Nc1ccccc1)c1ccc(-c2c3nc(c(-c4c(F)cccc4F)c4ccc([nH]4)c(-c4c(F)cccc4F)c4nc(c(-c5c(F)cccc5F)c5ccc2[nH]5)C=C4)C=C3)cc1
REMARK SMILES IDX 6 1 5 2 4 3 3 4 1 5 2 6 25 8 26 9 78 10 27 11 77 12 28 13
REMARK SMILES IDX 29 14 30 15 71 16 31 17 76 18 70 19 72 20 32 21 75 22 69 23
REMARK SMILES IDX 68 24 33 26 59 27 42 28 58 29 43 30 46 31 57 32 73 33 44 34
REMARK SMILES IDX 45 35 56 37 74 38 47 39 34 40 35 41 40 42 36 43 37 44 39 45
REMARK SMILES IDX 41 46 38 47 60 48 61 49 66 50 62 51 63 52 65 53 67 54 64 55
REMARK SMILES IDX 48 56 49 57 54 58 50 59 51 60 53 61 55 62 52 63 7 64 8 65
REMARK SMILES IDX 9 66 10 68 11 69 12 70 15 71 13 72 14 73 16 74 17 75 18 76
REMARK SMILES IDX 19 78 20 79 24 80 21 81 23 82 22 83
REMARK H PARENT 3 7 72 25 46 36 8 67 18 77
REMARK Flexibility Score: inf
ROOT
ATOM      1  C   UNL A   1      36.663  20.969  25.065  1.00  0.00     0.023 C 
ENDROOT
BRANCH   1   2
ATOM      2  C   UNL A   1      37.785  19.942  24.942  1.00  0.00     0.023 C 
BRANCH   2   3
ATOM      3  C   UNL A   1      39.035  20.265  25.746  1.00  0.00     0.116 C 
BRANCH   3   4
ATOM      4  N   UNL A   1      40.005  19.180  25.759  1.00  0.00    -0.352 N 
ATOM      5  O   UNL A   1      42.074  18.271  25.869  1.00  0.00    -0.269 OA
ATOM      6  C   UNL A   1      41.356  19.251  25.998  1.00  0.00     0.251 C 
ATOM      7  H   UNL A   1      39.647  18.281  25.573  1.00  0.00     0.163 HD
BRANCH   6   8
ATOM      8  C   UNL A   1      41.929  20.556  26.380  1.00  0.00     0.039 A 
ATOM      9  C   UNL A   1      42.052  20.899  27.729  1.00  0.00     0.014 A 
ATOM     10  C   UNL A   1      42.282  21.458  25.376  1.00  0.00     0.014 A 
ATOM     11  C   UNL A   1      42.403  22.196  28.075  1.00  0.00     0.010 A 
ATOM     12  C   UNL A   1      42.708  22.738  25.727  1.00  0.00     0.010 A 
ATOM     13  C   UNL A   1      42.741  23.123  27.077  1.00  0.00    -0.014 A 
BRANCH  13  14
ATOM     14  C   UNL A   1      43.177  24.484  27.461  1.00  0.00     0.031 A 
ATOM     15  C   UNL A   1      42.184  25.513  27.913  1.00  0.00     0.074 A 
ATOM     16  C   UNL A   1      44.487  24.783  27.388  1.00  0.00     0.049 A 
ATOM     17  N   UNL A   1      42.382  26.770  28.220  1.00  0.00    -0.248 NA
ATOM     18  C   UNL A   1      40.784  25.078  28.033  1.00  0.00     0.031 C 
ATOM     19  C   UNL A   1      45.539  23.856  26.963  1.00  0.00     0.029 A 
ATOM     20  N   UNL A   1      45.158  25.944  27.668  1.00  0.00    -0.354 N 
ATOM     21  C   UNL A   1      41.133  27.285  28.538  1.00  0.00     0.074 A 
ATOM     22  C   UNL A   1      40.179  26.207  28.377  1.00  0.00     0.031 C 
ATOM     23  C   UNL A   1      46.725  24.477  27.033  1.00  0.00     0.029 A 
ATOM     24  C   UNL A   1      46.509  25.858  27.445  1.00  0.00     0.049 A 
ATOM     25  H   UNL A   1      44.714  26.758  27.997  1.00  0.00     0.167 HD
ATOM     26  C   UNL A   1      40.816  28.542  28.931  1.00  0.00     0.037 A 
ATOM     27  C   UNL A   1      47.467  26.798  27.530  1.00  0.00     0.037 A 
ATOM     28  C   UNL A   1      41.778  29.601  29.103  1.00  0.00     0.049 A 
ATOM     29  C   UNL A   1      47.087  28.187  27.944  1.00  0.00     0.074 A 
ATOM     30  C   UNL A   1      41.564  30.901  29.527  1.00  0.00     0.029 A 
ATOM     31  N   UNL A   1      43.138  29.479  28.857  1.00  0.00    -0.354 N 
ATOM     32  N   UNL A   1      45.904  28.658  28.256  1.00  0.00    -0.248 NA
ATOM     33  C   UNL A   1      48.170  29.175  28.014  1.00  0.00     0.031 C 
ATOM     34  C   UNL A   1      42.790  31.577  29.501  1.00  0.00     0.029 A 
ATOM     35  C   UNL A   1      43.773  30.686  29.102  1.00  0.00     0.049 A 
ATOM     36  H   UNL A   1      43.585  28.656  28.553  1.00  0.00     0.167 HD
ATOM     37  C   UNL A   1      46.100  29.994  28.575  1.00  0.00     0.074 A 
ATOM     38  C   UNL A   1      47.519  30.253  28.430  1.00  0.00     0.031 C 
ATOM     39  C   UNL A   1      45.187  30.921  28.953  1.00  0.00     0.037 A 
BRANCH  26  40
ATOM     40  C   UNL A   1      39.367  28.848  29.174  1.00  0.00     0.057 A 
ATOM     41  C   UNL A   1      38.770  28.671  30.429  1.00  0.00     0.134 A 
ATOM     42  C   UNL A   1      38.564  29.354  28.144  1.00  0.00     0.134 A 
ATOM     43  F   UNL A   1      39.480  28.178  31.456  1.00  0.00    -0.206 F 
ATOM     44  C   UNL A   1      37.422  28.966  30.645  1.00  0.00     0.040 A 
ATOM     45  C   UNL A   1      37.221  29.673  28.353  1.00  0.00     0.040 A 
ATOM     46  F   UNL A   1      39.073  29.552  26.918  1.00  0.00    -0.206 F 
ATOM     47  C   UNL A   1      36.645  29.474  29.605  1.00  0.00     0.006 A 
ENDBRANCH  26  40
BRANCH  27  48
ATOM     48  C   UNL A   1      48.866  26.438  27.207  1.00  0.00     0.057 A 
ATOM     49  C   UNL A   1      49.730  25.940  28.187  1.00  0.00     0.134 A 
ATOM     50  C   UNL A   1      49.357  26.536  25.897  1.00  0.00     0.134 A 
ATOM     51  F   UNL A   1      49.318  25.836  29.459  1.00  0.00    -0.206 F 
ATOM     52  C   UNL A   1      51.035  25.552  27.879  1.00  0.00     0.040 A 
ATOM     53  C   UNL A   1      50.650  26.129  25.572  1.00  0.00     0.040 A 
ATOM     54  F   UNL A   1      48.571  26.994  24.912  1.00  0.00    -0.206 F 
ATOM     55  C   UNL A   1      51.494  25.638  26.566  1.00  0.00     0.006 A 
ENDBRANCH  27  48
BRANCH  39  56
ATOM     56  C   UNL A   1      45.705  32.292  29.267  1.00  0.00     0.057 A 
ATOM     57  C   UNL A   1      45.763  33.298  28.295  1.00  0.00     0.134 A 
ATOM     58  C   UNL A   1      46.118  32.616  30.566  1.00  0.00     0.134 A 
ATOM     59  F   UNL A   1      45.396  33.044  27.031  1.00  0.00    -0.206 F 
ATOM     60  C   UNL A   1      46.231  34.577  28.601  1.00  0.00     0.040 A 
ATOM     61  C   UNL A   1      46.568  33.896  30.888  1.00  0.00     0.040 A 
ATOM     62  F   UNL A   1      46.082  31.696  31.542  1.00  0.00    -0.206 F 
ATOM     63  C   UNL A   1      46.629  34.880  29.903  1.00  0.00     0.006 A 
ENDBRANCH  39  56
ENDBRANCH  13  14
ENDBRANCH   6   8
ENDBRANCH   3   4
ENDBRANCH   2   3
ENDBRANCH   1   2
BRANCH   1  64
ATOM     64  C   UNL A   1      37.019  22.363  24.564  1.00  0.00     0.116 C 
BRANCH  64  65
ATOM     65  N   UNL A   1      36.192  22.744  23.444  1.00  0.00    -0.354 N 
ATOM     66  C   UNL A   1      34.952  23.290  23.378  1.00  0.00     0.242 C 
ATOM     67  H   UNL A   1      36.603  22.576  22.565  1.00  0.00     0.163 HD
ATOM     68  O   UNL A   1      34.449  23.326  22.246  1.00  0.00    -0.273 OA
BRANCH  66  69
ATOM     69  C   UNL A   1      34.109  23.739  24.596  1.00  0.00     0.173 C 
ATOM     70  C   UNL A   1      33.550  25.152  24.392  1.00  0.00     0.037 C 
ATOM     71  N   UNL A   1      32.963  22.957  25.094  1.00  0.00    -0.337 N 
ATOM     72  C   UNL A   1      32.088  24.938  24.066  1.00  0.00     0.024 C 
ATOM     73  C   UNL A   1      31.714  23.682  24.833  1.00  0.00     0.120 C 
BRANCH  71  74
ATOM     74  C   UNL A   1      32.987  21.725  25.724  1.00  0.00     0.174 C 
ATOM     75  S   UNL A   1      33.658  21.462  27.249  1.00  0.00    -0.041 S 
BRANCH  74  76
ATOM     76  N   UNL A   1      32.291  20.673  25.213  1.00  0.00    -0.333 N 
ATOM     77  H   UNL A   1      31.331  20.676  25.432  1.00  0.00     0.169 HD
BRANCH  76  78
ATOM     78  C   UNL A   1      32.702  19.585  24.428  1.00  0.00     0.040 A 
ATOM     79  C   UNL A   1      33.737  18.787  24.921  1.00  0.00     0.026 A 
ATOM     80  C   UNL A   1      32.152  19.304  23.176  1.00  0.00     0.026 A 
ATOM     81  C   UNL A   1      34.127  17.640  24.227  1.00  0.00     0.002 A 
ATOM     82  C   UNL A   1      32.537  18.154  22.485  1.00  0.00     0.002 A 
ATOM     83  C   UNL A   1      33.510  17.312  23.021  1.00  0.00     0.000 A 
ENDBRANCH  76  78
ENDBRANCH  74  76
ENDBRANCH  71  74
ENDBRANCH  66  69
ENDBRANCH  64  65
ENDBRANCH   1  64
TORSDOF 14
ENDMDL
