MODEL 1
REMARK VINA RESULT:     -12.5      0.000      0.000
REMARK SMILES CC1(C)[C@H](C(=O)N(Cc2ccccc2)Cc2ccccc2)CC[C@@]1(C)C(=O)NCCCCNC(=O)c1ccc(-c2c3nc(c(-c4c(F)cccc4F)c4ccc([nH]4)c(-c4c(F)cccc4F)c4nc(c(-c5c(F)cccc5F)c5ccc2[nH]5)C=C4)C=C3)cc1
REMARK SMILES IDX 30 1 29 2 28 3 26 4 27 5 24 7 1 8 2 9 3 10 4 11 22 12 23 13
REMARK SMILES IDX 25 14 5 15 6 16 7 17 8 18 9 19 10 20 14 21 11 22 13 23 12 24
REMARK SMILES IDX 15 25 16 26 17 27 21 28 18 29 20 30 19 31 31 32 32 33 33 34
REMARK SMILES IDX 34 35 35 37 36 38 37 39 89 40 38 41 88 42 39 43 40 44 41 45
REMARK SMILES IDX 82 46 42 47 87 48 81 49 83 50 43 51 86 52 80 53 79 54 44 56
REMARK SMILES IDX 70 57 53 58 69 59 54 60 57 61 68 62 84 63 55 64 56 65 67 67
REMARK SMILES IDX 85 68 58 69 45 70 46 71 51 72 47 73 48 74 50 75 52 76 49 77
REMARK SMILES IDX 71 78 72 79 77 80 73 81 74 82 76 83 78 84 75 85 59 86 60 87
REMARK SMILES IDX 65 88 61 89 62 90 64 91 66 92 63 93
REMARK H PARENT 28 6 33 36 83 55 57 66
REMARK Flexibility Score: inf
ROOT
ATOM      1  C   UNL A   1      32.751  29.427  25.233  1.00  0.00     0.023 C 
ENDROOT
BRANCH   1   2
ATOM      2  C   UNL A   1      32.810  29.339  23.709  1.00  0.00     0.116 C 
BRANCH   2   3
ATOM      3  N   UNL A   1      31.680  28.599  23.187  1.00  0.00    -0.356 N 
ATOM      4  C   UNL A   1      31.548  27.332  22.703  1.00  0.00     0.226 C 
ATOM      5  O   UNL A   1      30.410  27.056  22.320  1.00  0.00    -0.274 OA
ATOM      6  H   UNL A   1      30.839  29.112  23.181  1.00  0.00     0.163 HD
BRANCH   4   7
ATOM      7  C   UNL A   1      32.706  26.294  22.784  1.00  0.00     0.052 C 
ATOM      8  C   UNL A   1      31.839  25.860  25.302  1.00  0.00     0.013 C 
ATOM      9  C   UNL A   1      32.799  25.445  24.158  1.00  0.00    -0.010 C 
ATOM     10  C   UNL A   1      34.185  25.564  24.795  1.00  0.00     0.013 C 
ATOM     11  C   UNL A   1      32.396  24.003  23.723  1.00  0.00     0.085 C 
ATOM     12  C   UNL A   1      32.778  23.837  22.271  1.00  0.00     0.015 C 
ATOM     13  C   UNL A   1      32.550  25.209  21.679  1.00  0.00     0.018 C 
ATOM     14  C   UNL A   1      33.982  27.133  22.506  1.00  0.00     0.022 C 
BRANCH  11  15
ATOM     15  C   UNL A   1      32.591  22.732  24.576  1.00  0.00     0.226 C 
ATOM     16  O   UNL A   1      31.554  22.301  25.105  1.00  0.00    -0.275 OA
ATOM     17  N   UNL A   1      33.778  22.016  24.701  1.00  0.00    -0.334 N 
BRANCH  17  18
ATOM     18  C   UNL A   1      34.980  22.201  23.885  1.00  0.00     0.155 C 
BRANCH  18  19
ATOM     19  C   UNL A   1      36.315  22.350  24.587  1.00  0.00    -0.029 A 
ATOM     20  C   UNL A   1      36.558  23.533  25.308  1.00  0.00     0.005 A 
ATOM     21  C   UNL A   1      37.256  21.321  24.687  1.00  0.00     0.005 A 
ATOM     22  C   UNL A   1      37.706  23.673  26.093  1.00  0.00     0.000 A 
ATOM     23  C   UNL A   1      38.409  21.461  25.460  1.00  0.00     0.000 A 
ATOM     24  C   UNL A   1      38.632  22.636  26.166  1.00  0.00     0.000 A 
ENDBRANCH  18  19
ENDBRANCH  17  18
BRANCH  17  25
ATOM     25  C   UNL A   1      33.713  20.740  25.452  1.00  0.00     0.155 C 
BRANCH  25  26
ATOM     26  C   UNL A   1      33.691  19.490  24.596  1.00  0.00    -0.029 A 
ATOM     27  C   UNL A   1      34.727  18.550  24.666  1.00  0.00     0.005 A 
ATOM     28  C   UNL A   1      32.621  19.231  23.727  1.00  0.00     0.005 A 
ATOM     29  C   UNL A   1      34.643  17.340  23.972  1.00  0.00     0.000 A 
ATOM     30  C   UNL A   1      32.541  18.031  23.022  1.00  0.00     0.000 A 
ATOM     31  C   UNL A   1      33.542  17.075  23.162  1.00  0.00     0.000 A 
ENDBRANCH  25  26
ENDBRANCH  17  25
ENDBRANCH  11  15
ENDBRANCH   4   7
ENDBRANCH   2   3
ENDBRANCH   1   2
BRANCH   1  32
ATOM     32  C   UNL A   1      33.958  28.805  25.933  1.00  0.00     0.023 C 
BRANCH  32  33
ATOM     33  C   UNL A   1      33.875  28.815  27.453  1.00  0.00     0.116 C 
BRANCH  33  34
ATOM     34  N   UNL A   1      33.834  30.161  28.005  1.00  0.00    -0.352 N 
ATOM     35  C   UNL A   1      34.830  30.845  28.660  1.00  0.00     0.251 C 
ATOM     36  H   UNL A   1      32.983  30.644  27.895  1.00  0.00     0.163 HD
ATOM     37  O   UNL A   1      34.612  31.922  29.184  1.00  0.00    -0.269 OA
BRANCH  35  38
ATOM     38  C   UNL A   1      36.164  30.221  28.742  1.00  0.00     0.039 A 
ATOM     39  C   UNL A   1      37.006  30.287  27.632  1.00  0.00     0.014 A 
ATOM     40  C   UNL A   1      36.595  29.639  29.937  1.00  0.00     0.014 A 
ATOM     41  C   UNL A   1      38.314  29.817  27.740  1.00  0.00     0.010 A 
ATOM     42  C   UNL A   1      37.920  29.244  30.066  1.00  0.00     0.010 A 
ATOM     43  C   UNL A   1      38.789  29.326  28.968  1.00  0.00    -0.014 A 
BRANCH  43  44
ATOM     44  C   UNL A   1      40.194  28.882  29.122  1.00  0.00     0.031 A 
ATOM     45  C   UNL A   1      41.219  29.826  29.682  1.00  0.00     0.074 A 
ATOM     46  C   UNL A   1      40.556  27.657  28.696  1.00  0.00     0.049 A 
ATOM     47  N   UNL A   1      42.507  29.654  29.832  1.00  0.00    -0.248 NA
ATOM     48  C   UNL A   1      40.737  31.153  30.101  1.00  0.00     0.031 C 
ATOM     49  C   UNL A   1      39.660  26.672  28.084  1.00  0.00     0.029 A 
ATOM     50  N   UNL A   1      41.778  27.035  28.702  1.00  0.00    -0.354 N 
ATOM     51  C   UNL A   1      42.989  30.851  30.347  1.00  0.00     0.074 A 
ATOM     52  C   UNL A   1      41.867  31.760  30.430  1.00  0.00     0.031 C 
ATOM     53  C   UNL A   1      40.360  25.562  27.797  1.00  0.00     0.029 A 
ATOM     54  C   UNL A   1      41.755  25.769  28.170  1.00  0.00     0.049 A 
ATOM     55  H   UNL A   1      42.595  27.455  29.056  1.00  0.00     0.167 HD
ATOM     56  C   UNL A   1      44.248  31.156  30.739  1.00  0.00     0.037 A 
ATOM     57  C   UNL A   1      42.751  24.879  27.998  1.00  0.00     0.037 A 
ATOM     58  C   UNL A   1      45.353  30.237  30.680  1.00  0.00     0.049 A 
ATOM     59  C   UNL A   1      44.140  25.240  28.445  1.00  0.00     0.074 A 
ATOM     60  C   UNL A   1      46.655  30.425  31.111  1.00  0.00     0.029 A 
ATOM     61  N   UNL A   1      45.285  28.954  30.157  1.00  0.00    -0.354 N 
ATOM     62  N   UNL A   1      44.568  26.349  28.998  1.00  0.00    -0.248 NA
ATOM     63  C   UNL A   1      45.183  24.224  28.252  1.00  0.00     0.031 C 
ATOM     64  C   UNL A   1      47.384  29.271  30.812  1.00  0.00     0.029 A 
ATOM     65  C   UNL A   1      46.527  28.346  30.237  1.00  0.00     0.049 A 
ATOM     66  H   UNL A   1      44.475  28.538  29.785  1.00  0.00     0.167 HD
ATOM     67  C   UNL A   1      45.921  26.155  29.243  1.00  0.00     0.074 A 
ATOM     68  C   UNL A   1      46.239  24.816  28.793  1.00  0.00     0.031 C 
ATOM     69  C   UNL A   1      46.820  27.007  29.793  1.00  0.00     0.037 A 
BRANCH  56  70
ATOM     70  C   UNL A   1      44.491  32.536  31.272  1.00  0.00     0.057 A 
ATOM     71  C   UNL A   1      44.867  33.594  30.435  1.00  0.00     0.134 A 
ATOM     72  C   UNL A   1      44.317  32.819  32.632  1.00  0.00     0.134 A 
ATOM     73  F   UNL A   1      45.065  33.388  29.124  1.00  0.00    -0.206 F 
ATOM     74  C   UNL A   1      45.089  34.879  30.936  1.00  0.00     0.040 A 
ATOM     75  C   UNL A   1      44.508  34.105  33.140  1.00  0.00     0.040 A 
ATOM     76  F   UNL A   1      43.954  31.853  33.489  1.00  0.00    -0.206 F 
ATOM     77  C   UNL A   1      44.901  35.138  32.292  1.00  0.00     0.006 A 
ENDBRANCH  56  70
BRANCH  57  78
ATOM     78  C   UNL A   1      42.469  23.552  27.397  1.00  0.00     0.057 A 
ATOM     79  C   UNL A   1      42.094  22.464  28.195  1.00  0.00     0.134 A 
ATOM     80  C   UNL A   1      42.577  23.333  26.018  1.00  0.00     0.134 A 
ATOM     81  F   UNL A   1      41.991  22.607  29.525  1.00  0.00    -0.206 F 
ATOM     82  C   UNL A   1      41.859  21.201  27.647  1.00  0.00     0.040 A 
ATOM     83  C   UNL A   1      42.321  22.082  25.455  1.00  0.00     0.040 A 
ATOM     84  F   UNL A   1      42.923  24.336  25.199  1.00  0.00    -0.206 F 
ATOM     85  C   UNL A   1      41.969  21.009  26.272  1.00  0.00     0.006 A 
ENDBRANCH  57  78
BRANCH  69  86
ATOM     86  C   UNL A   1      48.221  26.504  29.970  1.00  0.00     0.057 A 
ATOM     87  C   UNL A   1      49.204  26.694  28.991  1.00  0.00     0.134 A 
ATOM     88  C   UNL A   1      48.601  25.859  31.155  1.00  0.00     0.134 A 
ATOM     89  F   UNL A   1      48.901  27.294  27.830  1.00  0.00    -0.206 F 
ATOM     90  C   UNL A   1      50.511  26.239  29.175  1.00  0.00     0.040 A 
ATOM     91  C   UNL A   1      49.910  25.424  31.360  1.00  0.00     0.040 A 
ATOM     92  F   UNL A   1      47.709  25.655  32.135  1.00  0.00    -0.206 F 
ATOM     93  C   UNL A   1      50.869  25.608  30.365  1.00  0.00     0.006 A 
ENDBRANCH  69  86
ENDBRANCH  43  44
ENDBRANCH  35  38
ENDBRANCH  33  34
ENDBRANCH  32  33
ENDBRANCH   1  32
TORSDOF 16
ENDMDL
MODEL 2
REMARK VINA RESULT:     -12.4      2.521      8.181
REMARK SMILES CC1(C)[C@H](C(=O)N(Cc2ccccc2)Cc2ccccc2)CC[C@@]1(C)C(=O)NCCCCNC(=O)c1ccc(-c2c3nc(c(-c4c(F)cccc4F)c4ccc([nH]4)c(-c4c(F)cccc4F)c4nc(c(-c5c(F)cccc5F)c5ccc2[nH]5)C=C4)C=C3)cc1
REMARK SMILES IDX 30 1 29 2 28 3 26 4 27 5 24 7 1 8 2 9 3 10 4 11 22 12 23 13
REMARK SMILES IDX 25 14 5 15 6 16 7 17 8 18 9 19 10 20 14 21 11 22 13 23 12 24
REMARK SMILES IDX 15 25 16 26 17 27 21 28 18 29 20 30 19 31 31 32 32 33 33 34
REMARK SMILES IDX 34 35 35 37 36 38 37 39 89 40 38 41 88 42 39 43 40 44 41 45
REMARK SMILES IDX 82 46 42 47 87 48 81 49 83 50 43 51 86 52 80 53 79 54 44 56
REMARK SMILES IDX 70 57 53 58 69 59 54 60 57 61 68 62 84 63 55 64 56 65 67 67
REMARK SMILES IDX 85 68 58 69 45 70 46 71 51 72 47 73 48 74 50 75 52 76 49 77
REMARK SMILES IDX 71 78 72 79 77 80 73 81 74 82 76 83 78 84 75 85 59 86 60 87
REMARK SMILES IDX 65 88 61 89 62 90 64 91 66 92 63 93
REMARK H PARENT 28 6 33 36 83 55 57 66
REMARK Flexibility Score: inf
ROOT
ATOM      1  C   UNL A   1      36.907  21.077  24.748  1.00  0.00     0.023 C 
ENDROOT
BRANCH   1   2
ATOM      2  C   UNL A   1      35.725  21.056  25.715  1.00  0.00     0.116 C 
BRANCH   2   3
ATOM      3  N   UNL A   1      34.512  20.636  25.043  1.00  0.00    -0.356 N 
ATOM      4  C   UNL A   1      33.268  21.184  24.953  1.00  0.00     0.226 C 
ATOM      5  O   UNL A   1      32.470  20.512  24.298  1.00  0.00    -0.274 OA
ATOM      6  H   UNL A   1      34.605  19.786  24.555  1.00  0.00     0.163 HD
BRANCH   4   7
ATOM      7  C   UNL A   1      32.951  22.606  25.501  1.00  0.00     0.052 C 
ATOM      8  C   UNL A   1      34.270  23.495  23.322  1.00  0.00     0.013 C 
ATOM      9  C   UNL A   1      33.420  23.843  24.570  1.00  0.00    -0.010 C 
ATOM     10  C   UNL A   1      34.308  24.820  25.344  1.00  0.00     0.013 C 
ATOM     11  C   UNL A   1      32.075  24.442  24.056  1.00  0.00     0.085 C 
ATOM     12  C   UNL A   1      31.017  24.154  25.095  1.00  0.00     0.015 C 
ATOM     13  C   UNL A   1      31.415  22.808  25.653  1.00  0.00     0.018 C 
ATOM     14  C   UNL A   1      33.613  22.623  26.905  1.00  0.00     0.022 C 
BRANCH  11  15
ATOM     15  C   UNL A   1      31.922  25.811  23.360  1.00  0.00     0.226 C 
ATOM     16  O   UNL A   1      31.837  25.754  22.123  1.00  0.00    -0.275 OA
ATOM     17  N   UNL A   1      31.779  27.034  24.005  1.00  0.00    -0.334 N 
BRANCH  17  18
ATOM     18  C   UNL A   1      31.524  27.224  25.436  1.00  0.00     0.155 C 
BRANCH  18  19
ATOM     19  C   UNL A   1      32.319  28.279  26.178  1.00  0.00    -0.029 A 
ATOM     20  C   UNL A   1      33.706  28.095  26.311  1.00  0.00     0.005 A 
ATOM     21  C   UNL A   1      31.779  29.495  26.606  1.00  0.00     0.005 A 
ATOM     22  C   UNL A   1      34.515  29.096  26.857  1.00  0.00     0.000 A 
ATOM     23  C   UNL A   1      32.581  30.493  27.163  1.00  0.00     0.000 A 
ATOM     24  C   UNL A   1      33.950  30.294  27.285  1.00  0.00     0.000 A 
ENDBRANCH  18  19
ENDBRANCH  17  18
BRANCH  17  25
ATOM     25  C   UNL A   1      31.497  28.212  23.152  1.00  0.00     0.155 C 
BRANCH  25  26
ATOM     26  C   UNL A   1      30.097  28.776  23.274  1.00  0.00    -0.029 A 
ATOM     27  C   UNL A   1      29.886  30.140  23.516  1.00  0.00     0.005 A 
ATOM     28  C   UNL A   1      28.972  27.950  23.127  1.00  0.00     0.005 A 
ATOM     29  C   UNL A   1      28.597  30.678  23.502  1.00  0.00     0.000 A 
ATOM     30  C   UNL A   1      27.683  28.482  23.127  1.00  0.00     0.000 A 
ATOM     31  C   UNL A   1      27.498  29.851  23.292  1.00  0.00     0.000 A 
ENDBRANCH  25  26
ENDBRANCH  17  25
ENDBRANCH  11  15
ENDBRANCH   4   7
ENDBRANCH   2   3
ENDBRANCH   1   2
BRANCH   1  32
ATOM     32  C   UNL A   1      37.892  19.928  24.952  1.00  0.00     0.023 C 
BRANCH  32  33
ATOM     33  C   UNL A   1      39.103  20.283  25.803  1.00  0.00     0.116 C 
BRANCH  33  34
ATOM     34  N   UNL A   1      40.070  19.199  25.886  1.00  0.00    -0.352 N 
ATOM     35  C   UNL A   1      41.424  19.278  26.112  1.00  0.00     0.251 C 
ATOM     36  H   UNL A   1      39.708  18.291  25.765  1.00  0.00     0.163 HD
ATOM     37  O   UNL A   1      42.133  18.293  26.026  1.00  0.00    -0.269 OA
BRANCH  35  38
ATOM     38  C   UNL A   1      42.000  20.600  26.426  1.00  0.00     0.039 A 
ATOM     39  C   UNL A   1      42.302  21.467  25.376  1.00  0.00     0.014 A 
ATOM     40  C   UNL A   1      42.172  20.993  27.755  1.00  0.00     0.014 A 
ATOM     41  C   UNL A   1      42.724  22.764  25.664  1.00  0.00     0.010 A 
ATOM     42  C   UNL A   1      42.516  22.308  28.040  1.00  0.00     0.010 A 
ATOM     43  C   UNL A   1      42.799  23.202  26.997  1.00  0.00    -0.014 A 
BRANCH  43  44
ATOM     44  C   UNL A   1      43.184  24.596  27.323  1.00  0.00     0.031 A 
ATOM     45  C   UNL A   1      44.622  25.016  27.225  1.00  0.00     0.074 A 
ATOM     46  C   UNL A   1      42.250  25.457  27.771  1.00  0.00     0.049 A 
ATOM     47  N   UNL A   1      45.171  26.164  27.530  1.00  0.00    -0.248 NA
ATOM     48  C   UNL A   1      45.577  24.002  26.747  1.00  0.00     0.031 C 
ATOM     49  C   UNL A   1      40.832  25.147  27.962  1.00  0.00     0.029 A 
ATOM     50  N   UNL A   1      42.359  26.768  28.159  1.00  0.00    -0.354 N 
ATOM     51  C   UNL A   1      46.531  26.004  27.297  1.00  0.00     0.074 A 
ATOM     52  C   UNL A   1      46.733  24.634  26.879  1.00  0.00     0.031 C 
ATOM     53  C   UNL A   1      40.199  26.245  28.407  1.00  0.00     0.029 A 
ATOM     54  C   UNL A   1      41.170  27.322  28.567  1.00  0.00     0.049 A 
ATOM     55  H   UNL A   1      43.208  27.266  28.145  1.00  0.00     0.167 HD
ATOM     56  C   UNL A   1      47.519  26.924  27.397  1.00  0.00     0.037 A 
ATOM     57  C   UNL A   1      40.899  28.559  29.024  1.00  0.00     0.037 A 
ATOM     58  C   UNL A   1      47.307  28.292  27.785  1.00  0.00     0.049 A 
ATOM     59  C   UNL A   1      42.013  29.564  29.122  1.00  0.00     0.074 A 
ATOM     60  C   UNL A   1      48.230  29.321  27.857  1.00  0.00     0.029 A 
ATOM     61  N   UNL A   1      46.084  28.824  28.167  1.00  0.00    -0.354 N 
ATOM     62  N   UNL A   1      43.282  29.421  28.828  1.00  0.00    -0.248 NA
ATOM     63  C   UNL A   1      41.655  30.903  29.607  1.00  0.00     0.031 C 
ATOM     64  C   UNL A   1      47.573  30.464  28.320  1.00  0.00     0.029 A 
ATOM     65  C   UNL A   1      46.232  30.161  28.494  1.00  0.00     0.049 A 
ATOM     66  H   UNL A   1      45.237  28.324  28.201  1.00  0.00     0.167 HD
ATOM     67  C   UNL A   1      43.869  30.657  29.067  1.00  0.00     0.074 A 
ATOM     68  C   UNL A   1      42.814  31.541  29.515  1.00  0.00     0.031 C 
ATOM     69  C   UNL A   1      45.166  31.027  28.927  1.00  0.00     0.037 A 
BRANCH  56  70
ATOM     70  C   UNL A   1      48.913  26.478  27.074  1.00  0.00     0.057 A 
ATOM     71  C   UNL A   1      49.440  26.582  25.780  1.00  0.00     0.134 A 
ATOM     72  C   UNL A   1      49.752  25.967  28.073  1.00  0.00     0.134 A 
ATOM     73  F   UNL A   1      48.685  27.049  24.774  1.00  0.00    -0.206 F 
ATOM     74  C   UNL A   1      50.740  26.169  25.485  1.00  0.00     0.040 A 
ATOM     75  C   UNL A   1      51.063  25.577  27.796  1.00  0.00     0.040 A 
ATOM     76  F   UNL A   1      49.313  25.844  29.334  1.00  0.00    -0.206 F 
ATOM     77  C   UNL A   1      51.559  25.672  26.497  1.00  0.00     0.006 A 
ENDBRANCH  56  70
BRANCH  57  78
ATOM     78  C   UNL A   1      39.511  28.927  29.399  1.00  0.00     0.057 A 
ATOM     79  C   UNL A   1      39.039  28.728  30.702  1.00  0.00     0.134 A 
ATOM     80  C   UNL A   1      38.619  29.472  28.467  1.00  0.00     0.134 A 
ATOM     81  F   UNL A   1      39.840  28.193  31.635  1.00  0.00    -0.206 F 
ATOM     82  C   UNL A   1      37.725  29.038  31.060  1.00  0.00     0.040 A 
ATOM     83  C   UNL A   1      37.312  29.809  28.818  1.00  0.00     0.040 A 
ATOM     84  F   UNL A   1      39.013  29.695  27.205  1.00  0.00    -0.206 F 
ATOM     85  C   UNL A   1      36.859  29.584  30.116  1.00  0.00     0.006 A 
ENDBRANCH  57  78
BRANCH  69  86
ATOM     86  C   UNL A   1      45.505  32.457  29.227  1.00  0.00     0.057 A 
ATOM     87  C   UNL A   1      45.949  32.862  30.492  1.00  0.00     0.134 A 
ATOM     88  C   UNL A   1      45.428  33.431  28.223  1.00  0.00     0.134 A 
ATOM     89  F   UNL A   1      46.033  31.979  31.498  1.00  0.00    -0.206 F 
ATOM     90  C   UNL A   1      46.281  34.192  30.754  1.00  0.00     0.040 A 
ATOM     91  C   UNL A   1      45.783  34.758  28.467  1.00  0.00     0.040 A 
ATOM     92  F   UNL A   1      45.020  33.107  26.988  1.00  0.00    -0.206 F 
ATOM     93  C   UNL A   1      46.207  35.143  29.738  1.00  0.00     0.006 A 
ENDBRANCH  69  86
ENDBRANCH  43  44
ENDBRANCH  35  38
ENDBRANCH  33  34
ENDBRANCH  32  33
ENDBRANCH   1  32
TORSDOF 16
ENDMDL
MODEL 3
REMARK VINA RESULT:     -12.3      2.544      7.966
REMARK SMILES CC1(C)[C@H](C(=O)N(Cc2ccccc2)Cc2ccccc2)CC[C@@]1(C)C(=O)NCCCCNC(=O)c1ccc(-c2c3nc(c(-c4c(F)cccc4F)c4ccc([nH]4)c(-c4c(F)cccc4F)c4nc(c(-c5c(F)cccc5F)c5ccc2[nH]5)C=C4)C=C3)cc1
REMARK SMILES IDX 30 1 29 2 28 3 26 4 27 5 24 7 1 8 2 9 3 10 4 11 22 12 23 13
REMARK SMILES IDX 25 14 5 15 6 16 7 17 8 18 9 19 10 20 14 21 11 22 13 23 12 24
REMARK SMILES IDX 15 25 16 26 17 27 21 28 18 29 20 30 19 31 31 32 32 33 33 34
REMARK SMILES IDX 34 35 35 37 36 38 37 39 89 40 38 41 88 42 39 43 40 44 41 45
REMARK SMILES IDX 82 46 42 47 87 48 81 49 83 50 43 51 86 52 80 53 79 54 44 56
REMARK SMILES IDX 70 57 53 58 69 59 54 60 57 61 68 62 84 63 55 64 56 65 67 67
REMARK SMILES IDX 85 68 58 69 45 70 46 71 51 72 47 73 48 74 50 75 52 76 49 77
REMARK SMILES IDX 71 78 72 79 77 80 73 81 74 82 76 83 78 84 75 85 59 86 60 87
REMARK SMILES IDX 65 88 61 89 62 90 64 91 66 92 63 93
REMARK H PARENT 28 6 33 36 83 55 57 66
REMARK Flexibility Score: inf
ROOT
ATOM      1  C   UNL A   1      36.952  21.262  24.799  1.00  0.00     0.023 C 
ENDROOT
BRANCH   1   2
ATOM      2  C   UNL A   1      35.753  21.132  25.735  1.00  0.00     0.116 C 
BRANCH   2   3
ATOM      3  N   UNL A   1      34.579  20.681  25.016  1.00  0.00    -0.356 N 
ATOM      4  C   UNL A   1      33.322  21.191  24.884  1.00  0.00     0.226 C 
ATOM      5  O   UNL A   1      32.570  20.501  24.195  1.00  0.00    -0.274 OA
ATOM      6  H   UNL A   1      34.716  19.838  24.525  1.00  0.00     0.163 HD
BRANCH   4   7
ATOM      7  C   UNL A   1      32.942  22.599  25.431  1.00  0.00     0.052 C 
ATOM      8  C   UNL A   1      34.342  23.546  23.327  1.00  0.00     0.013 C 
ATOM      9  C   UNL A   1      33.423  23.858  24.536  1.00  0.00    -0.010 C 
ATOM     10  C   UNL A   1      34.247  24.848  25.363  1.00  0.00     0.013 C 
ATOM     11  C   UNL A   1      32.090  24.428  23.964  1.00  0.00     0.085 C 
ATOM     12  C   UNL A   1      30.990  24.101  24.947  1.00  0.00     0.015 C 
ATOM     13  C   UNL A   1      31.396  22.759  25.510  1.00  0.00     0.018 C 
ATOM     14  C   UNL A   1      33.536  22.616  26.865  1.00  0.00     0.022 C 
BRANCH  11  15
ATOM     15  C   UNL A   1      31.935  25.800  23.275  1.00  0.00     0.226 C 
ATOM     16  O   UNL A   1      31.864  25.751  22.037  1.00  0.00    -0.275 OA
ATOM     17  N   UNL A   1      31.775  27.018  23.928  1.00  0.00    -0.334 N 
BRANCH  17  18
ATOM     18  C   UNL A   1      31.503  27.196  25.356  1.00  0.00     0.155 C 
BRANCH  18  19
ATOM     19  C   UNL A   1      32.304  28.230  26.121  1.00  0.00    -0.029 A 
ATOM     20  C   UNL A   1      33.697  28.061  26.208  1.00  0.00     0.005 A 
ATOM     21  C   UNL A   1      31.760  29.420  26.616  1.00  0.00     0.005 A 
ATOM     22  C   UNL A   1      34.507  29.050  26.774  1.00  0.00     0.000 A 
ATOM     23  C   UNL A   1      32.564  30.404  27.192  1.00  0.00     0.000 A 
ATOM     24  C   UNL A   1      33.938  30.220  27.269  1.00  0.00     0.000 A 
ENDBRANCH  18  19
ENDBRANCH  17  18
BRANCH  17  25
ATOM     25  C   UNL A   1      31.494  28.200  23.079  1.00  0.00     0.155 C 
BRANCH  25  26
ATOM     26  C   UNL A   1      30.098  28.772  23.212  1.00  0.00    -0.029 A 
ATOM     27  C   UNL A   1      29.897  30.134  23.466  1.00  0.00     0.005 A 
ATOM     28  C   UNL A   1      28.968  27.953  23.063  1.00  0.00     0.005 A 
ATOM     29  C   UNL A   1      28.612  30.681  23.461  1.00  0.00     0.000 A 
ATOM     30  C   UNL A   1      27.682  28.494  23.073  1.00  0.00     0.000 A 
ATOM     31  C   UNL A   1      27.506  29.862  23.250  1.00  0.00     0.000 A 
ENDBRANCH  25  26
ENDBRANCH  17  25
ENDBRANCH  11  15
ENDBRANCH   4   7
ENDBRANCH   2   3
ENDBRANCH   1   2
BRANCH   1  32
ATOM     32  C   UNL A   1      37.933  20.094  24.887  1.00  0.00     0.023 C 
BRANCH  32  33
ATOM     33  C   UNL A   1      39.163  20.371  25.740  1.00  0.00     0.116 C 
BRANCH  33  34
ATOM     34  N   UNL A   1      40.050  19.222  25.837  1.00  0.00    -0.352 N 
ATOM     35  C   UNL A   1      41.399  19.206  26.103  1.00  0.00     0.251 C 
ATOM     36  H   UNL A   1      39.632  18.343  25.694  1.00  0.00     0.163 HD
ATOM     37  O   UNL A   1      42.042  18.175  26.026  1.00  0.00    -0.269 OA
BRANCH  35  38
ATOM     38  C   UNL A   1      42.055  20.481  26.451  1.00  0.00     0.039 A 
ATOM     39  C   UNL A   1      42.477  21.322  25.421  1.00  0.00     0.014 A 
ATOM     40  C   UNL A   1      42.183  20.863  27.788  1.00  0.00     0.014 A 
ATOM     41  C   UNL A   1      42.979  22.584  25.734  1.00  0.00     0.010 A 
ATOM     42  C   UNL A   1      42.609  22.149  28.094  1.00  0.00     0.010 A 
ATOM     43  C   UNL A   1      43.014  23.018  27.070  1.00  0.00    -0.014 A 
BRANCH  43  44
ATOM     44  C   UNL A   1      43.483  24.380  27.420  1.00  0.00     0.031 A 
ATOM     45  C   UNL A   1      42.494  25.419  27.863  1.00  0.00     0.074 A 
ATOM     46  C   UNL A   1      44.784  24.694  27.272  1.00  0.00     0.049 A 
ATOM     47  N   UNL A   1      42.693  26.681  28.146  1.00  0.00    -0.248 NA
ATOM     48  C   UNL A   1      41.090  24.992  27.975  1.00  0.00     0.031 C 
ATOM     49  C   UNL A   1      45.829  23.784  26.796  1.00  0.00     0.029 A 
ATOM     50  N   UNL A   1      45.449  25.873  27.498  1.00  0.00    -0.354 N 
ATOM     51  C   UNL A   1      41.441  27.198  28.453  1.00  0.00     0.074 A 
ATOM     52  C   UNL A   1      40.482  26.131  28.267  1.00  0.00     0.031 C 
ATOM     53  C   UNL A   1      47.005  24.432  26.789  1.00  0.00     0.029 A 
ATOM     54  C   UNL A   1      46.793  25.808  27.224  1.00  0.00     0.049 A 
ATOM     55  H   UNL A   1      45.004  26.687  27.826  1.00  0.00     0.167 HD
ATOM     56  C   UNL A   1      41.122  28.444  28.876  1.00  0.00     0.037 A 
ATOM     57  C   UNL A   1      47.744  26.758  27.309  1.00  0.00     0.037 A 
ATOM     58  C   UNL A   1      42.084  29.492  29.087  1.00  0.00     0.049 A 
ATOM     59  C   UNL A   1      47.365  28.132  27.786  1.00  0.00     0.074 A 
ATOM     60  C   UNL A   1      41.874  30.770  29.575  1.00  0.00     0.029 A 
ATOM     61  N   UNL A   1      43.442  29.382  28.823  1.00  0.00    -0.354 N 
ATOM     62  N   UNL A   1      46.189  28.588  28.143  1.00  0.00    -0.248 NA
ATOM     63  C   UNL A   1      48.447  29.122  27.879  1.00  0.00     0.031 C 
ATOM     64  C   UNL A   1      43.097  31.446  29.567  1.00  0.00     0.029 A 
ATOM     65  C   UNL A   1      44.078  30.575  29.119  1.00  0.00     0.049 A 
ATOM     66  H   UNL A   1      43.885  28.575  28.475  1.00  0.00     0.167 HD
ATOM     67  C   UNL A   1      46.393  29.907  28.529  1.00  0.00     0.074 A 
ATOM     68  C   UNL A   1      47.808  30.172  28.376  1.00  0.00     0.031 C 
ATOM     69  C   UNL A   1      45.490  30.816  28.970  1.00  0.00     0.037 A 
BRANCH  56  70
ATOM     70  C   UNL A   1      39.676  28.733  29.146  1.00  0.00     0.057 A 
ATOM     71  C   UNL A   1      39.104  28.524  30.407  1.00  0.00     0.134 A 
ATOM     72  C   UNL A   1      38.851  29.256  28.142  1.00  0.00     0.134 A 
ATOM     73  F   UNL A   1      39.836  28.012  31.409  1.00  0.00    -0.206 F 
ATOM     74  C   UNL A   1      37.758  28.799  30.655  1.00  0.00     0.040 A 
ATOM     75  C   UNL A   1      37.510  29.561  28.385  1.00  0.00     0.040 A 
ATOM     76  F   UNL A   1      39.335  29.484  26.912  1.00  0.00    -0.206 F 
ATOM     77  C   UNL A   1      36.959  29.327  29.643  1.00  0.00     0.006 A 
ENDBRANCH  56  70
BRANCH  57  78
ATOM     78  C   UNL A   1      49.150  26.437  26.960  1.00  0.00     0.057 A 
ATOM     79  C   UNL A   1      49.647  26.676  25.673  1.00  0.00     0.134 A 
ATOM     80  C   UNL A   1      50.027  25.874  27.896  1.00  0.00     0.134 A 
ATOM     81  F   UNL A   1      48.850  27.197  24.729  1.00  0.00    -0.206 F 
ATOM     82  C   UNL A   1      50.958  26.347  25.322  1.00  0.00     0.040 A 
ATOM     83  C   UNL A   1      51.347  25.564  27.565  1.00  0.00     0.040 A 
ATOM     84  F   UNL A   1      49.615  25.629  29.148  1.00  0.00    -0.206 F 
ATOM     85  C   UNL A   1      51.813  25.792  26.272  1.00  0.00     0.006 A 
ENDBRANCH  57  78
BRANCH  69  86
ATOM     86  C   UNL A   1      46.012  32.169  29.353  1.00  0.00     0.057 A 
ATOM     87  C   UNL A   1      46.068  33.227  28.438  1.00  0.00     0.134 A 
ATOM     88  C   UNL A   1      46.425  32.426  30.668  1.00  0.00     0.134 A 
ATOM     89  F   UNL A   1      45.699  33.041  27.162  1.00  0.00    -0.206 F 
ATOM     90  C   UNL A   1      46.537  34.487  28.810  1.00  0.00     0.040 A 
ATOM     91  C   UNL A   1      46.870  33.688  31.058  1.00  0.00     0.040 A 
ATOM     92  F   UNL A   1      46.387  31.458  31.595  1.00  0.00    -0.206 F 
ATOM     93  C   UNL A   1      46.933  34.723  30.126  1.00  0.00     0.006 A 
ENDBRANCH  69  86
ENDBRANCH  43  44
ENDBRANCH  35  38
ENDBRANCH  33  34
ENDBRANCH  32  33
ENDBRANCH   1  32
TORSDOF 16
ENDMDL
