MODEL 1
REMARK VINA RESULT:     -13.0      0.000      0.000
REMARK SMILES O=C(C[C@@H]1C(=O)NCCN1C(=O)OCC1c2ccccc2-c2ccccc21)NCCCCNC(=O)c1ccc(-c2c3nc(c(-c4c(F)cccc4F)c4ccc([nH]4)c(-c4c(F)cccc4F)c4nc(c(-c5c(F)cccc5F)c5ccc2[nH]5)C=C4)C=C3)cc1
REMARK SMILES IDX 29 1 28 2 1 3 2 4 3 6 4 7 5 8 10 9 6 10 7 11 9 12 8 13 11 15
REMARK SMILES IDX 12 16 13 17 14 18 15 19 16 20 27 21 17 22 21 23 22 24 26 25
REMARK SMILES IDX 18 26 20 27 23 28 25 29 19 30 24 31 30 32 31 33 32 34 33 35
REMARK SMILES IDX 34 36 35 38 36 39 37 40 89 41 38 42 88 43 39 44 40 45 41 46
REMARK SMILES IDX 82 47 42 48 87 49 81 50 83 51 43 52 86 53 80 54 79 55 44 57
REMARK SMILES IDX 70 58 53 59 69 60 54 61 57 62 68 63 84 64 55 65 56 66 67 68
REMARK SMILES IDX 85 69 58 70 45 71 46 72 51 73 47 74 48 75 50 76 52 77 49 78
REMARK SMILES IDX 71 79 72 80 77 81 73 82 74 83 76 84 78 85 75 86 59 87 60 88
REMARK SMILES IDX 65 89 61 90 62 91 64 92 66 93 63 94
REMARK H PARENT 28 5 7 14 33 37 83 56 57 67
REMARK Flexibility Score: inf
ROOT
ATOM      1  C   UNL A   1      32.688  29.995  27.029  1.00  0.00     0.116 C 
ENDROOT
BRANCH   1   2
ATOM      2  N   UNL A   1      33.027  28.734  26.406  1.00  0.00    -0.356 N 
ATOM      3  O   UNL A   1      31.535  27.453  27.568  1.00  0.00    -0.275 OA
ATOM      4  C   UNL A   1      32.450  27.540  26.757  1.00  0.00     0.222 C 
ATOM      5  H   UNL A   1      33.707  28.733  25.694  1.00  0.00     0.163 HD
BRANCH   4   6
ATOM      6  C   UNL A   1      33.099  26.324  26.122  1.00  0.00     0.135 C 
BRANCH   6   7
ATOM      7  C   UNL A   1      32.425  25.738  24.865  1.00  0.00     0.187 C 
ATOM      8  C   UNL A   1      32.478  26.805  23.729  1.00  0.00     0.243 C 
ATOM      9  N   UNL A   1      31.119  25.039  25.002  1.00  0.00    -0.294 N 
ATOM     10  O   UNL A   1      33.529  27.368  23.411  1.00  0.00    -0.273 OA
ATOM     11  N   UNL A   1      31.314  27.162  23.104  1.00  0.00    -0.353 N 
ATOM     12  C   UNL A   1      30.201  25.135  23.870  1.00  0.00     0.145 C 
ATOM     13  C   UNL A   1      30.036  26.581  23.439  1.00  0.00     0.137 C 
ATOM     14  H   UNL A   1      31.351  27.846  22.397  1.00  0.00     0.163 HD
BRANCH   9  15
ATOM     15  C   UNL A   1      30.851  24.010  25.891  1.00  0.00     0.410 C 
ATOM     16  O   UNL A   1      30.477  24.199  27.047  1.00  0.00    -0.224 OA
BRANCH  15  17
ATOM     17  O   UNL A   1      31.119  22.780  25.390  1.00  0.00    -0.448 OA
BRANCH  17  18
ATOM     18  C   UNL A   1      32.369  22.209  25.815  1.00  0.00     0.248 C 
BRANCH  18  19
ATOM     19  C   UNL A   1      33.364  21.889  24.667  1.00  0.00     0.088 C 
ATOM     20  C   UNL A   1      34.824  22.263  24.895  1.00  0.00    -0.029 A 
ATOM     21  C   UNL A   1      33.477  20.377  24.477  1.00  0.00    -0.029 A 
ATOM     22  C   UNL A   1      35.381  23.526  24.982  1.00  0.00     0.005 A 
ATOM     23  C   UNL A   1      35.626  21.109  24.995  1.00  0.00    -0.014 A 
ATOM     24  C   UNL A   1      34.802  19.951  24.721  1.00  0.00    -0.014 A 
ATOM     25  C   UNL A   1      32.480  19.478  24.129  1.00  0.00     0.005 A 
ATOM     26  C   UNL A   1      36.743  23.640  25.262  1.00  0.00     0.000 A 
ATOM     27  C   UNL A   1      36.978  21.217  25.278  1.00  0.00     0.009 A 
ATOM     28  C   UNL A   1      35.136  18.612  24.635  1.00  0.00     0.009 A 
ATOM     29  C   UNL A   1      32.820  18.128  24.041  1.00  0.00     0.000 A 
ATOM     30  C   UNL A   1      37.533  22.492  25.428  1.00  0.00     0.001 A 
ATOM     31  C   UNL A   1      34.133  17.698  24.295  1.00  0.00     0.001 A 
ENDBRANCH  18  19
ENDBRANCH  17  18
ENDBRANCH  15  17
ENDBRANCH   9  15
ENDBRANCH   6   7
ENDBRANCH   4   6
ENDBRANCH   1   2
BRANCH   1  32
ATOM     32  C   UNL A   1      31.582  30.714  26.258  1.00  0.00     0.023 C 
BRANCH  32  33
ATOM     33  C   UNL A   1      31.414  32.197  26.603  1.00  0.00     0.023 C 
BRANCH  33  34
ATOM     34  C   UNL A   1      32.632  32.860  27.236  1.00  0.00     0.116 C 
BRANCH  34  35
ATOM     35  N   UNL A   1      32.379  34.241  27.614  1.00  0.00    -0.352 N 
ATOM     36  C   UNL A   1      32.980  35.010  28.580  1.00  0.00     0.251 C 
ATOM     37  H   UNL A   1      31.671  34.692  27.101  1.00  0.00     0.163 HD
ATOM     38  O   UNL A   1      32.513  36.110  28.866  1.00  0.00    -0.269 OA
BRANCH  36  39
ATOM     39  C   UNL A   1      34.174  34.513  29.299  1.00  0.00     0.039 A 
ATOM     40  C   UNL A   1      34.007  33.943  30.565  1.00  0.00     0.014 A 
ATOM     41  C   UNL A   1      35.452  34.617  28.743  1.00  0.00     0.014 A 
ATOM     42  C   UNL A   1      35.111  33.420  31.242  1.00  0.00     0.010 A 
ATOM     43  C   UNL A   1      36.539  34.030  29.387  1.00  0.00     0.010 A 
ATOM     44  C   UNL A   1      36.381  33.425  30.643  1.00  0.00    -0.014 A 
BRANCH  44  45
ATOM     45  C   UNL A   1      37.549  32.792  31.308  1.00  0.00     0.031 A 
ATOM     46  C   UNL A   1      38.211  31.586  30.700  1.00  0.00     0.074 A 
ATOM     47  C   UNL A   1      37.975  33.263  32.497  1.00  0.00     0.049 A 
ATOM     48  N   UNL A   1      39.195  30.858  31.166  1.00  0.00    -0.248 NA
ATOM     49  C   UNL A   1      37.681  31.121  29.408  1.00  0.00     0.031 C 
ATOM     50  C   UNL A   1      37.395  34.399  33.215  1.00  0.00     0.029 A 
ATOM     51  N   UNL A   1      38.992  32.837  33.316  1.00  0.00    -0.354 N 
ATOM     52  C   UNL A   1      39.390  29.845  30.236  1.00  0.00     0.074 A 
ATOM     53  C   UNL A   1      38.391  30.022  29.203  1.00  0.00     0.031 C 
ATOM     54  C   UNL A   1      38.078  34.594  34.354  1.00  0.00     0.029 A 
ATOM     55  C   UNL A   1      39.116  33.575  34.469  1.00  0.00     0.049 A 
ATOM     56  H   UNL A   1      39.577  32.076  33.099  1.00  0.00     0.167 HD
ATOM     57  C   UNL A   1      40.329  28.868  30.232  1.00  0.00     0.037 A 
ATOM     58  C   UNL A   1      39.964  33.441  35.505  1.00  0.00     0.037 A 
ATOM     59  C   UNL A   1      41.336  28.706  31.248  1.00  0.00     0.049 A 
ATOM     60  C   UNL A   1      40.987  32.339  35.484  1.00  0.00     0.074 A 
ATOM     61  C   UNL A   1      42.370  27.787  31.298  1.00  0.00     0.029 A 
ATOM     62  N   UNL A   1      41.434  29.479  32.395  1.00  0.00    -0.354 N 
ATOM     63  N   UNL A   1      41.205  31.431  34.564  1.00  0.00    -0.248 NA
ATOM     64  C   UNL A   1      41.884  32.245  36.643  1.00  0.00     0.031 C 
ATOM     65  C   UNL A   1      43.063  27.971  32.498  1.00  0.00     0.029 A 
ATOM     66  C   UNL A   1      42.493  29.040  33.172  1.00  0.00     0.049 A 
ATOM     67  H   UNL A   1      40.838  30.229  32.623  1.00  0.00     0.167 HD
ATOM     68  C   UNL A   1      42.281  30.680  35.017  1.00  0.00     0.074 A 
ATOM     69  C   UNL A   1      42.679  31.246  36.290  1.00  0.00     0.031 C 
ATOM     70  C   UNL A   1      42.886  29.617  34.432  1.00  0.00     0.037 A 
BRANCH  57  71
ATOM     71  C   UNL A   1      40.309  27.891  29.091  1.00  0.00     0.057 A 
ATOM     72  C   UNL A   1      39.518  26.735  29.120  1.00  0.00     0.134 A 
ATOM     73  C   UNL A   1      41.058  28.129  27.932  1.00  0.00     0.134 A 
ATOM     74  F   UNL A   1      38.782  26.440  30.204  1.00  0.00    -0.206 F 
ATOM     75  C   UNL A   1      39.494  25.838  28.051  1.00  0.00     0.040 A 
ATOM     76  C   UNL A   1      41.021  27.255  26.845  1.00  0.00     0.040 A 
ATOM     77  F   UNL A   1      41.832  29.221  27.834  1.00  0.00    -0.206 F 
ATOM     78  C   UNL A   1      40.243  26.101  26.905  1.00  0.00     0.006 A 
ENDBRANCH  57  71
BRANCH  58  79
ATOM     79  C   UNL A   1      39.901  34.389  36.647  1.00  0.00     0.057 A 
ATOM     80  C   UNL A   1      39.142  34.097  37.786  1.00  0.00     0.134 A 
ATOM     81  C   UNL A   1      40.584  35.611  36.623  1.00  0.00     0.134 A 
ATOM     82  F   UNL A   1      38.450  32.951  37.859  1.00  0.00    -0.206 F 
ATOM     83  C   UNL A   1      39.046  34.992  38.852  1.00  0.00     0.040 A 
ATOM     84  C   UNL A   1      40.519  36.505  37.694  1.00  0.00     0.040 A 
ATOM     85  F   UNL A   1      41.334  35.949  35.564  1.00  0.00    -0.206 F 
ATOM     86  C   UNL A   1      39.742  36.200  38.808  1.00  0.00     0.006 A 
ENDBRANCH  58  79
BRANCH  70  87
ATOM     87  C   UNL A   1      44.068  29.022  35.140  1.00  0.00     0.057 A 
ATOM     88  C   UNL A   1      45.376  29.469  34.906  1.00  0.00     0.134 A 
ATOM     89  C   UNL A   1      43.892  28.013  36.095  1.00  0.00     0.134 A 
ATOM     90  F   UNL A   1      45.615  30.422  33.994  1.00  0.00    -0.206 F 
ATOM     91  C   UNL A   1      46.466  28.916  35.581  1.00  0.00     0.040 A 
ATOM     92  C   UNL A   1      44.971  27.473  36.796  1.00  0.00     0.040 A 
ATOM     93  F   UNL A   1      42.666  27.545  36.374  1.00  0.00    -0.206 F 
ATOM     94  C   UNL A   1      46.264  27.921  36.535  1.00  0.00     0.006 A 
ENDBRANCH  70  87
ENDBRANCH  44  45
ENDBRANCH  36  39
ENDBRANCH  34  35
ENDBRANCH  33  34
ENDBRANCH  32  33
ENDBRANCH   1  32
TORSDOF 16
ENDMDL
MODEL 2
REMARK VINA RESULT:     -13.0      1.105      2.621
REMARK SMILES O=C(C[C@@H]1C(=O)NCCN1C(=O)OCC1c2ccccc2-c2ccccc21)NCCCCNC(=O)c1ccc(-c2c3nc(c(-c4c(F)cccc4F)c4ccc([nH]4)c(-c4c(F)cccc4F)c4nc(c(-c5c(F)cccc5F)c5ccc2[nH]5)C=C4)C=C3)cc1
REMARK SMILES IDX 29 1 28 2 1 3 2 4 3 6 4 7 5 8 10 9 6 10 7 11 9 12 8 13 11 15
REMARK SMILES IDX 12 16 13 17 14 18 15 19 16 20 27 21 17 22 21 23 22 24 26 25
REMARK SMILES IDX 18 26 20 27 23 28 25 29 19 30 24 31 30 32 31 33 32 34 33 35
REMARK SMILES IDX 34 36 35 38 36 39 37 40 89 41 38 42 88 43 39 44 40 45 41 46
REMARK SMILES IDX 82 47 42 48 87 49 81 50 83 51 43 52 86 53 80 54 79 55 44 57
REMARK SMILES IDX 70 58 53 59 69 60 54 61 57 62 68 63 84 64 55 65 56 66 67 68
REMARK SMILES IDX 85 69 58 70 45 71 46 72 51 73 47 74 48 75 50 76 52 77 49 78
REMARK SMILES IDX 71 79 72 80 77 81 73 82 74 83 76 84 78 85 75 86 59 87 60 88
REMARK SMILES IDX 65 89 61 90 62 91 64 92 66 93 63 94
REMARK H PARENT 28 5 7 14 33 37 83 56 57 67
REMARK Flexibility Score: inf
ROOT
ATOM      1  C   UNL A   1      33.032  30.064  25.820  1.00  0.00     0.116 C 
ENDROOT
BRANCH   1   2
ATOM      2  N   UNL A   1      33.110  28.622  25.895  1.00  0.00    -0.356 N 
ATOM      3  O   UNL A   1      34.173  28.309  23.898  1.00  0.00    -0.275 OA
ATOM      4  C   UNL A   1      33.639  27.842  24.899  1.00  0.00     0.222 C 
ATOM      5  H   UNL A   1      32.763  28.177  26.702  1.00  0.00     0.163 HD
BRANCH   4   6
ATOM      6  C   UNL A   1      33.432  26.352  25.096  1.00  0.00     0.135 C 
BRANCH   6   7
ATOM      7  C   UNL A   1      32.002  25.806  24.912  1.00  0.00     0.187 C 
ATOM      8  C   UNL A   1      31.342  25.656  26.317  1.00  0.00     0.243 C 
ATOM      9  N   UNL A   1      31.778  24.656  23.994  1.00  0.00    -0.294 N 
ATOM     10  O   UNL A   1      31.330  26.582  27.134  1.00  0.00    -0.273 OA
ATOM     11  N   UNL A   1      30.807  24.447  26.670  1.00  0.00    -0.353 N 
ATOM     12  C   UNL A   1      30.695  23.740  24.341  1.00  0.00     0.145 C 
ATOM     13  C   UNL A   1      30.811  23.303  25.790  1.00  0.00     0.137 C 
ATOM     14  H   UNL A   1      30.403  24.355  27.562  1.00  0.00     0.163 HD
BRANCH   9  15
ATOM     15  C   UNL A   1      32.207  24.588  22.678  1.00  0.00     0.410 C 
ATOM     16  O   UNL A   1      31.965  25.458  21.845  1.00  0.00    -0.224 OA
BRANCH  15  17
ATOM     17  O   UNL A   1      32.848  23.431  22.378  1.00  0.00    -0.448 OA
BRANCH  17  18
ATOM     18  C   UNL A   1      34.164  23.301  22.944  1.00  0.00     0.248 C 
BRANCH  18  19
ATOM     19  C   UNL A   1      34.212  22.603  24.330  1.00  0.00     0.088 C 
ATOM     20  C   UNL A   1      33.876  21.117  24.367  1.00  0.00    -0.029 A 
ATOM     21  C   UNL A   1      35.645  22.591  24.861  1.00  0.00    -0.029 A 
ATOM     22  C   UNL A   1      32.653  20.510  24.141  1.00  0.00     0.005 A 
ATOM     23  C   UNL A   1      35.012  20.355  24.704  1.00  0.00    -0.014 A 
ATOM     24  C   UNL A   1      36.094  21.261  25.024  1.00  0.00    -0.014 A 
ATOM     25  C   UNL A   1      36.462  23.671  25.156  1.00  0.00     0.005 A 
ATOM     26  C   UNL A   1      32.584  19.117  24.163  1.00  0.00     0.000 A 
ATOM     27  C   UNL A   1      34.949  18.971  24.721  1.00  0.00     0.009 A 
ATOM     28  C   UNL A   1      37.378  21.003  25.470  1.00  0.00     0.009 A 
ATOM     29  C   UNL A   1      37.755  23.409  25.607  1.00  0.00     0.000 A 
ATOM     30  C   UNL A   1      33.728  18.352  24.433  1.00  0.00     0.001 A 
ATOM     31  C   UNL A   1      38.211  22.089  25.759  1.00  0.00     0.001 A 
ENDBRANCH  18  19
ENDBRANCH  17  18
ENDBRANCH  15  17
ENDBRANCH   9  15
ENDBRANCH   6   7
ENDBRANCH   4   6
ENDBRANCH   1   2
BRANCH   1  32
ATOM     32  C   UNL A   1      31.586  30.548  25.917  1.00  0.00     0.023 C 
BRANCH  32  33
ATOM     33  C   UNL A   1      31.409  31.941  26.527  1.00  0.00     0.023 C 
BRANCH  33  34
ATOM     34  C   UNL A   1      32.654  32.524  27.187  1.00  0.00     0.116 C 
BRANCH  34  35
ATOM     35  N   UNL A   1      32.480  33.918  27.567  1.00  0.00    -0.352 N 
ATOM     36  C   UNL A   1      33.134  34.655  28.522  1.00  0.00     0.251 C 
ATOM     37  H   UNL A   1      31.789  34.405  27.062  1.00  0.00     0.163 HD
ATOM     38  O   UNL A   1      32.730  35.778  28.813  1.00  0.00    -0.269 OA
BRANCH  36  39
ATOM     39  C   UNL A   1      34.310  34.095  29.225  1.00  0.00     0.039 A 
ATOM     40  C   UNL A   1      34.101  33.189  30.269  1.00  0.00     0.014 A 
ATOM     41  C   UNL A   1      35.611  34.467  28.874  1.00  0.00     0.014 A 
ATOM     42  C   UNL A   1      35.195  32.607  30.914  1.00  0.00     0.010 A 
ATOM     43  C   UNL A   1      36.699  33.832  29.468  1.00  0.00     0.010 A 
ATOM     44  C   UNL A   1      36.504  32.895  30.495  1.00  0.00    -0.014 A 
BRANCH  44  45
ATOM     45  C   UNL A   1      37.675  32.218  31.108  1.00  0.00     0.031 A 
ATOM     46  C   UNL A   1      38.399  31.128  30.365  1.00  0.00     0.074 A 
ATOM     47  C   UNL A   1      38.049  32.537  32.362  1.00  0.00     0.049 A 
ATOM     48  N   UNL A   1      39.397  30.378  30.761  1.00  0.00    -0.248 NA
ATOM     49  C   UNL A   1      37.925  30.825  29.005  1.00  0.00     0.031 C 
ATOM     50  C   UNL A   1      37.406  33.545  33.206  1.00  0.00     0.029 A 
ATOM     51  N   UNL A   1      39.057  32.039  33.150  1.00  0.00    -0.354 N 
ATOM     52  C   UNL A   1      39.657  29.507  29.710  1.00  0.00     0.074 A 
ATOM     53  C   UNL A   1      38.682  29.788  28.679  1.00  0.00     0.031 C 
ATOM     54  C   UNL A   1      38.048  33.607  34.383  1.00  0.00     0.029 A 
ATOM     55  C   UNL A   1      39.121  32.618  34.395  1.00  0.00     0.049 A 
ATOM     56  H   UNL A   1      39.677  31.334  32.852  1.00  0.00     0.167 HD
ATOM     57  C   UNL A   1      40.632  28.572  29.607  1.00  0.00     0.037 A 
ATOM     58  C   UNL A   1      39.943  32.373  35.432  1.00  0.00     0.037 A 
ATOM     59  C   UNL A   1      41.615  28.308  30.625  1.00  0.00     0.049 A 
ATOM     60  C   UNL A   1      41.008  31.319  35.297  1.00  0.00     0.074 A 
ATOM     61  C   UNL A   1      42.682  27.426  30.585  1.00  0.00     0.029 A 
ATOM     62  N   UNL A   1      41.651  28.922  31.868  1.00  0.00    -0.354 N 
ATOM     63  N   UNL A   1      41.286  30.553  34.271  1.00  0.00    -0.248 NA
ATOM     64  C   UNL A   1      41.874  31.100  36.462  1.00  0.00     0.031 C 
ATOM     65  C   UNL A   1      43.332  27.470  31.822  1.00  0.00     0.029 A 
ATOM     66  C   UNL A   1      42.704  28.418  32.614  1.00  0.00     0.049 A 
ATOM     67  H   UNL A   1      41.020  29.613  32.175  1.00  0.00     0.167 HD
ATOM     68  C   UNL A   1      42.377  29.784  34.655  1.00  0.00     0.074 A 
ATOM     69  C   UNL A   1      42.717  30.185  36.004  1.00  0.00     0.031 C 
ATOM     70  C   UNL A   1      43.038  28.831  33.953  1.00  0.00     0.037 A 
BRANCH  57  71
ATOM     71  C   UNL A   1      40.681  27.759  28.345  1.00  0.00     0.057 A 
ATOM     72  C   UNL A   1      41.418  28.172  27.227  1.00  0.00     0.134 A 
ATOM     73  C   UNL A   1      40.019  26.528  28.260  1.00  0.00     0.134 A 
ATOM     74  F   UNL A   1      42.069  29.346  27.236  1.00  0.00    -0.206 F 
ATOM     75  C   UNL A   1      41.470  27.405  26.061  1.00  0.00     0.040 A 
ATOM     76  C   UNL A   1      40.086  25.739  27.111  1.00  0.00     0.040 A 
ATOM     77  F   UNL A   1      39.301  26.068  29.296  1.00  0.00    -0.206 F 
ATOM     78  C   UNL A   1      40.808  26.181  26.004  1.00  0.00     0.006 A 
ENDBRANCH  57  71
BRANCH  58  79
ATOM     79  C   UNL A   1      39.812  33.155  36.688  1.00  0.00     0.057 A 
ATOM     80  C   UNL A   1      38.906  32.773  37.683  1.00  0.00     0.134 A 
ATOM     81  C   UNL A   1      40.576  34.307  36.917  1.00  0.00     0.134 A 
ATOM     82  F   UNL A   1      38.133  31.691  37.512  1.00  0.00    -0.206 F 
ATOM     83  C   UNL A   1      38.747  33.517  38.854  1.00  0.00     0.040 A 
ATOM     84  C   UNL A   1      40.447  35.045  38.095  1.00  0.00     0.040 A 
ATOM     85  F   UNL A   1      41.466  34.724  36.006  1.00  0.00    -0.206 F 
ATOM     86  C   UNL A   1      39.525  34.655  39.063  1.00  0.00     0.006 A 
ENDBRANCH  58  79
BRANCH  70  87
ATOM     87  C   UNL A   1      44.221  28.186  34.613  1.00  0.00     0.057 A 
ATOM     88  C   UNL A   1      44.105  26.997  35.346  1.00  0.00     0.134 A 
ATOM     89  C   UNL A   1      45.501  28.741  34.482  1.00  0.00     0.134 A 
ATOM     90  F   UNL A   1      42.906  26.421  35.522  1.00  0.00    -0.206 F 
ATOM     91  C   UNL A   1      45.216  26.399  35.945  1.00  0.00     0.040 A 
ATOM     92  C   UNL A   1      46.622  28.137  35.052  1.00  0.00     0.040 A 
ATOM     93  F   UNL A   1      45.684  29.873  33.786  1.00  0.00    -0.206 F 
ATOM     94  C   UNL A   1      46.480  26.965  35.791  1.00  0.00     0.006 A 
ENDBRANCH  70  87
ENDBRANCH  44  45
ENDBRANCH  36  39
ENDBRANCH  34  35
ENDBRANCH  33  34
ENDBRANCH  32  33
ENDBRANCH   1  32
TORSDOF 16
ENDMDL
MODEL 3
REMARK VINA RESULT:     -12.9      4.130      9.562
REMARK SMILES O=C(C[C@@H]1C(=O)NCCN1C(=O)OCC1c2ccccc2-c2ccccc21)NCCCCNC(=O)c1ccc(-c2c3nc(c(-c4c(F)cccc4F)c4ccc([nH]4)c(-c4c(F)cccc4F)c4nc(c(-c5c(F)cccc5F)c5ccc2[nH]5)C=C4)C=C3)cc1
REMARK SMILES IDX 29 1 28 2 1 3 2 4 3 6 4 7 5 8 10 9 6 10 7 11 9 12 8 13 11 15
REMARK SMILES IDX 12 16 13 17 14 18 15 19 16 20 27 21 17 22 21 23 22 24 26 25
REMARK SMILES IDX 18 26 20 27 23 28 25 29 19 30 24 31 30 32 31 33 32 34 33 35
REMARK SMILES IDX 34 36 35 38 36 39 37 40 89 41 38 42 88 43 39 44 40 45 41 46
REMARK SMILES IDX 82 47 42 48 87 49 81 50 83 51 43 52 86 53 80 54 79 55 44 57
REMARK SMILES IDX 70 58 53 59 69 60 54 61 57 62 68 63 84 64 55 65 56 66 67 68
REMARK SMILES IDX 85 69 58 70 45 71 46 72 51 73 47 74 48 75 50 76 52 77 49 78
REMARK SMILES IDX 71 79 72 80 77 81 73 82 74 83 76 84 78 85 75 86 59 87 60 88
REMARK SMILES IDX 65 89 61 90 62 91 64 92 66 93 63 94
REMARK H PARENT 28 5 7 14 33 37 83 56 57 67
REMARK Flexibility Score: inf
ROOT
ATOM      1  C   UNL A   1      36.658  21.857  24.271  1.00  0.00     0.116 C 
ENDROOT
BRANCH   1   2
ATOM      2  N   UNL A   1      35.892  22.890  24.934  1.00  0.00    -0.356 N 
ATOM      3  O   UNL A   1      34.179  22.960  23.426  1.00  0.00    -0.275 OA
ATOM      4  C   UNL A   1      34.721  23.399  24.434  1.00  0.00     0.222 C 
ATOM      5  H   UNL A   1      36.230  23.246  25.788  1.00  0.00     0.163 HD
BRANCH   4   6
ATOM      6  C   UNL A   1      34.197  24.611  25.183  1.00  0.00     0.135 C 
BRANCH   6   7
ATOM      7  C   UNL A   1      32.780  25.103  24.829  1.00  0.00     0.187 C 
ATOM      8  C   UNL A   1      31.741  24.170  25.522  1.00  0.00     0.243 C 
ATOM      9  N   UNL A   1      32.463  25.444  23.415  1.00  0.00    -0.294 N 
ATOM     10  O   UNL A   1      31.800  23.910  26.728  1.00  0.00    -0.273 OA
ATOM     11  N   UNL A   1      30.768  23.583  24.760  1.00  0.00    -0.353 N 
ATOM     12  C   UNL A   1      31.091  25.208  22.974  1.00  0.00     0.145 C 
ATOM     13  C   UNL A   1      30.649  23.803  23.338  1.00  0.00     0.137 C 
ATOM     14  H   UNL A   1      30.123  22.984  25.200  1.00  0.00     0.163 HD
BRANCH   9  15
ATOM     15  C   UNL A   1      33.198  26.305  22.616  1.00  0.00     0.410 C 
ATOM     16  O   UNL A   1      33.607  26.002  21.497  1.00  0.00    -0.224 OA
BRANCH  15  17
ATOM     17  O   UNL A   1      33.493  27.483  23.219  1.00  0.00    -0.448 OA
BRANCH  17  18
ATOM     18  C   UNL A   1      32.539  28.536  22.997  1.00  0.00     0.248 C 
BRANCH  18  19
ATOM     19  C   UNL A   1      31.473  28.698  24.114  1.00  0.00     0.088 C 
ATOM     20  C   UNL A   1      31.801  29.665  25.245  1.00  0.00    -0.029 A 
ATOM     21  C   UNL A   1      30.208  29.337  23.543  1.00  0.00    -0.029 A 
ATOM     22  C   UNL A   1      32.765  29.537  26.229  1.00  0.00     0.005 A 
ATOM     23  C   UNL A   1      30.946  30.785  25.210  1.00  0.00    -0.014 A 
ATOM     24  C   UNL A   1      29.956  30.575  24.176  1.00  0.00    -0.014 A 
ATOM     25  C   UNL A   1      29.375  28.852  22.546  1.00  0.00     0.005 A 
ATOM     26  C   UNL A   1      32.939  30.582  27.136  1.00  0.00     0.000 A 
ATOM     27  C   UNL A   1      31.119  31.828  26.106  1.00  0.00     0.009 A 
ATOM     28  C   UNL A   1      28.873  31.349  23.799  1.00  0.00     0.009 A 
ATOM     29  C   UNL A   1      28.282  29.632  22.170  1.00  0.00     0.000 A 
ATOM     30  C   UNL A   1      32.134  31.728  27.064  1.00  0.00     0.001 A 
ATOM     31  C   UNL A   1      28.035  30.871  22.786  1.00  0.00     0.001 A 
ENDBRANCH  18  19
ENDBRANCH  17  18
ENDBRANCH  15  17
ENDBRANCH   9  15
ENDBRANCH   6   7
ENDBRANCH   4   6
ENDBRANCH   1   2
BRANCH   1  32
ATOM     32  C   UNL A   1      36.468  20.503  24.951  1.00  0.00     0.023 C 
BRANCH  32  33
ATOM     33  C   UNL A   1      37.710  19.608  24.971  1.00  0.00     0.023 C 
BRANCH  33  34
ATOM     34  C   UNL A   1      38.942  20.222  25.629  1.00  0.00     0.116 C 
BRANCH  34  35
ATOM     35  N   UNL A   1      40.048  19.281  25.722  1.00  0.00    -0.352 N 
ATOM     36  C   UNL A   1      41.357  19.499  26.075  1.00  0.00     0.251 C 
ATOM     37  H   UNL A   1      39.823  18.349  25.499  1.00  0.00     0.163 HD
ATOM     38  O   UNL A   1      42.186  18.604  25.933  1.00  0.00    -0.269 OA
BRANCH  36  39
ATOM     39  C   UNL A   1      41.782  20.814  26.602  1.00  0.00     0.039 A 
ATOM     40  C   UNL A   1      42.279  21.768  25.708  1.00  0.00     0.014 A 
ATOM     41  C   UNL A   1      41.709  21.109  27.966  1.00  0.00     0.014 A 
ATOM     42  C   UNL A   1      42.639  23.035  26.172  1.00  0.00     0.010 A 
ATOM     43  C   UNL A   1      41.999  22.395  28.416  1.00  0.00     0.010 A 
ATOM     44  C   UNL A   1      42.467  23.372  27.525  1.00  0.00    -0.014 A 
BRANCH  44  45
ATOM     45  C   UNL A   1      42.759  24.743  28.019  1.00  0.00     0.031 A 
ATOM     46  C   UNL A   1      44.160  25.132  28.401  1.00  0.00     0.074 A 
ATOM     47  C   UNL A   1      41.749  25.619  28.188  1.00  0.00     0.049 A 
ATOM     48  N   UNL A   1      44.597  26.255  28.914  1.00  0.00    -0.248 NA
ATOM     49  C   UNL A   1      45.207  24.117  28.202  1.00  0.00     0.031 C 
ATOM     50  C   UNL A   1      40.340  25.354  27.896  1.00  0.00     0.029 A 
ATOM     51  N   UNL A   1      41.754  26.910  28.656  1.00  0.00    -0.354 N 
ATOM     52  C   UNL A   1      45.960  26.075  29.113  1.00  0.00     0.074 A 
ATOM     53  C   UNL A   1      46.271  24.720  28.712  1.00  0.00     0.031 C 
ATOM     54  C   UNL A   1      39.620  26.453  28.169  1.00  0.00     0.029 A 
ATOM     55  C   UNL A   1      40.507  27.487  28.693  1.00  0.00     0.049 A 
ATOM     56  H   UNL A   1      42.572  27.379  28.938  1.00  0.00     0.167 HD
ATOM     57  C   UNL A   1      46.874  26.966  29.570  1.00  0.00     0.037 A 
ATOM     58  C   UNL A   1      40.120  28.707  29.111  1.00  0.00     0.037 A 
ATOM     59  C   UNL A   1      46.568  28.321  29.948  1.00  0.00     0.049 A 
ATOM     60  C   UNL A   1      41.152  29.671  29.628  1.00  0.00     0.074 A 
ATOM     61  C   UNL A   1      47.436  29.318  30.360  1.00  0.00     0.029 A 
ATOM     62  N   UNL A   1      45.295  28.870  29.963  1.00  0.00    -0.354 N 
ATOM     63  N   UNL A   1      42.448  29.511  29.744  1.00  0.00    -0.248 NA
ATOM     64  C   UNL A   1      40.667  30.986  30.068  1.00  0.00     0.031 C 
ATOM     65  C   UNL A   1      46.683  30.454  30.673  1.00  0.00     0.029 A 
ATOM     66  C   UNL A   1      45.351  30.182  30.404  1.00  0.00     0.049 A 
ATOM     67  H   UNL A   1      44.473  28.396  29.700  1.00  0.00     0.167 HD
ATOM     68  C   UNL A   1      42.936  30.713  30.240  1.00  0.00     0.074 A 
ATOM     69  C   UNL A   1      41.799  31.596  30.391  1.00  0.00     0.031 C 
ATOM     70  C   UNL A   1      44.213  31.055  30.542  1.00  0.00     0.037 A 
BRANCH  57  71
ATOM     71  C   UNL A   1      48.297  26.500  29.690  1.00  0.00     0.057 A 
ATOM     72  C   UNL A   1      49.229  26.696  28.663  1.00  0.00     0.134 A 
ATOM     73  C   UNL A   1      48.751  25.883  30.862  1.00  0.00     0.134 A 
ATOM     74  F   UNL A   1      48.859  27.272  27.508  1.00  0.00    -0.206 F 
ATOM     75  C   UNL A   1      50.553  26.271  28.786  1.00  0.00     0.040 A 
ATOM     76  C   UNL A   1      50.079  25.480  31.009  1.00  0.00     0.040 A 
ATOM     77  F   UNL A   1      47.914  25.671  31.889  1.00  0.00    -0.206 F 
ATOM     78  C   UNL A   1      50.983  25.667  29.966  1.00  0.00     0.006 A 
ENDBRANCH  57  71
BRANCH  58  79
ATOM     79  C   UNL A   1      38.690  29.100  29.039  1.00  0.00     0.057 A 
ATOM     80  C   UNL A   1      38.136  29.591  27.852  1.00  0.00     0.134 A 
ATOM     81  C   UNL A   1      37.848  29.009  30.154  1.00  0.00     0.134 A 
ATOM     82  F   UNL A   1      38.897  29.720  26.756  1.00  0.00    -0.206 F 
ATOM     83  C   UNL A   1      36.802  29.997  27.778  1.00  0.00     0.040 A 
ATOM     84  C   UNL A   1      36.505  29.385  30.087  1.00  0.00     0.040 A 
ATOM     85  F   UNL A   1      38.315  28.541  31.321  1.00  0.00    -0.206 F 
ATOM     86  C   UNL A   1      35.982  29.889  28.899  1.00  0.00     0.006 A 
ENDBRANCH  58  79
BRANCH  70  87
ATOM     87  C   UNL A   1      44.455  32.454  31.027  1.00  0.00     0.057 A 
ATOM     88  C   UNL A   1      44.677  33.518  30.142  1.00  0.00     0.134 A 
ATOM     89  C   UNL A   1      44.429  32.748  32.396  1.00  0.00     0.134 A 
ATOM     90  F   UNL A   1      44.729  33.303  28.819  1.00  0.00    -0.206 F 
ATOM     91  C   UNL A   1      44.888  34.819  30.604  1.00  0.00     0.040 A 
ATOM     92  C   UNL A   1      44.610  34.049  32.868  1.00  0.00     0.040 A 
ATOM     93  F   UNL A   1      44.212  31.778  33.297  1.00  0.00    -0.206 F 
ATOM     94  C   UNL A   1      44.847  35.088  31.971  1.00  0.00     0.006 A 
ENDBRANCH  70  87
ENDBRANCH  44  45
ENDBRANCH  36  39
ENDBRANCH  34  35
ENDBRANCH  33  34
ENDBRANCH  32  33
ENDBRANCH   1  32
TORSDOF 16
ENDMDL
