MODEL 1
REMARK VINA RESULT:     -13.1      0.000      0.000
REMARK SMILES CC[C@@H]1CCC[C@@](C[C@@H]2CSc3ccccc32)(C(=O)NCCCCNC(=O)c2ccc(-c3c4nc(c(-c5c(F)cccc5F)c5ccc([nH]5)c(-c5c(F)cccc5F)c5nc(c(-c6c(F)cccc6F)c6ccc3[nH]6)C=C5)C=C4)cc2)C1
REMARK SMILES IDX 22 1 21 2 20 3 18 4 19 5 7 7 3 8 4 9 82 10 5 11 6 12 2 13
REMARK SMILES IDX 1 14 8 15 9 16 10 17 17 18 11 19 12 20 16 21 13 22 15 23
REMARK SMILES IDX 14 24 23 25 24 26 25 27 26 28 27 30 28 31 29 32 81 33 30 34
REMARK SMILES IDX 80 35 31 36 32 37 33 38 74 39 34 40 79 41 73 42 75 43 35 44
REMARK SMILES IDX 78 45 72 46 71 47 36 49 62 50 45 51 61 52 46 53 49 54 60 55
REMARK SMILES IDX 76 56 47 57 48 58 59 60 77 61 50 62 37 63 38 64 43 65 39 66
REMARK SMILES IDX 40 67 42 68 44 69 41 70 63 71 64 72 69 73 65 74 66 75 68 76
REMARK SMILES IDX 70 77 67 78 51 79 52 80 57 81 53 82 54 83 56 84 58 85 55 86
REMARK H PARENT 20 6 25 29 75 48 49 59
REMARK Flexibility Score: inf
ROOT
ATOM      1  C   UNL A   1      34.707  31.319  27.964  1.00  0.00     0.023 C 
ENDROOT
BRANCH   1   2
ATOM      2  C   UNL A   1      34.634  29.569  27.928  1.00  0.00     0.116 C 
BRANCH   2   3
ATOM      3  N   UNL A   1      33.122  28.341  27.244  1.00  0.00    -0.356 N 
ATOM      4  C   UNL A   1      32.475  27.336  26.567  1.00  0.00     0.226 C 
ATOM      5  O   UNL A   1      31.599  26.759  27.214  1.00  0.00    -0.274 OA
ATOM      6  H   UNL A   1      32.357  28.742  27.715  1.00  0.00     0.163 HD
BRANCH   4   7
ATOM      7  C   UNL A   1      32.855  26.978  25.190  1.00  0.00     0.050 C 
ATOM      8  C   UNL A   1      30.517  27.733  24.275  1.00  0.00    -0.010 C 
ATOM      9  C   UNL A   1      31.067  29.158  24.049  1.00  0.00     0.003 C 
ATOM     10  C   UNL A   1      31.597  26.586  24.361  1.00  0.00     0.020 C 
ATOM     11  C   UNL A   1      32.383  29.436  24.734  1.00  0.00     0.001 C 
ATOM     12  C   UNL A   1      33.341  28.267  24.468  1.00  0.00     0.017 C 
BRANCH   8  13
ATOM     13  C   UNL A   1      29.436  27.483  23.216  1.00  0.00     0.000 C 
ATOM     14  C   UNL A   1      28.785  28.758  22.718  1.00  0.00     0.004 C 
ENDBRANCH   8  13
BRANCH   7  15
ATOM     15  C   UNL A   1      33.839  25.825  25.570  1.00  0.00     0.026 C 
BRANCH  15  16
ATOM     16  C   UNL A   1      33.213  24.366  25.281  1.00  0.00     0.032 C 
ATOM     17  C   UNL A   1      32.356  23.359  26.829  1.00  0.00     0.083 C 
ATOM     18  C   UNL A   1      34.845  23.456  24.715  1.00  0.00    -0.030 A 
ATOM     19  S   UNL A   1      33.853  21.530  27.428  1.00  0.00    -0.125 SA
ATOM     20  C   UNL A   1      35.410  22.164  25.784  1.00  0.00     0.011 A 
ATOM     21  C   UNL A   1      35.396  23.685  23.482  1.00  0.00     0.005 A 
ATOM     22  C   UNL A   1      36.542  21.471  25.478  1.00  0.00     0.015 A 
ATOM     23  C   UNL A   1      36.509  22.863  23.260  1.00  0.00     0.000 A 
ATOM     24  C   UNL A   1      37.057  21.855  24.202  1.00  0.00     0.001 A 
ENDBRANCH  15  16
ENDBRANCH   7  15
ENDBRANCH   4   7
ENDBRANCH   2   3
ENDBRANCH   1   2
BRANCH   1  25
ATOM     25  C   UNL A   1      33.699  32.126  27.125  1.00  0.00     0.023 C 
BRANCH  25  26
ATOM     26  C   UNL A   1      32.629  32.740  27.986  1.00  0.00     0.116 C 
BRANCH  26  27
ATOM     27  N   UNL A   1      32.640  34.179  27.751  1.00  0.00    -0.352 N 
ATOM     28  C   UNL A   1      33.116  35.101  28.658  1.00  0.00     0.251 C 
ATOM     29  H   UNL A   1      32.287  34.512  26.894  1.00  0.00     0.163 HD
ATOM     30  O   UNL A   1      32.651  36.227  28.743  1.00  0.00    -0.269 OA
BRANCH  28  31
ATOM     31  C   UNL A   1      34.209  34.631  29.527  1.00  0.00     0.039 A 
ATOM     32  C   UNL A   1      35.508  34.747  29.025  1.00  0.00     0.014 A 
ATOM     33  C   UNL A   1      33.949  33.932  30.703  1.00  0.00     0.014 A 
ATOM     34  C   UNL A   1      36.505  33.970  29.570  1.00  0.00     0.010 A 
ATOM     35  C   UNL A   1      35.012  33.310  31.361  1.00  0.00     0.010 A 
ATOM     36  C   UNL A   1      36.293  33.296  30.780  1.00  0.00    -0.014 A 
BRANCH  36  37
ATOM     37  C   UNL A   1      37.460  32.647  31.425  1.00  0.00     0.031 A 
ATOM     38  C   UNL A   1      38.184  31.504  30.774  1.00  0.00     0.074 A 
ATOM     39  C   UNL A   1      37.889  33.149  32.600  1.00  0.00     0.049 A 
ATOM     40  N   UNL A   1      39.184  30.798  31.237  1.00  0.00    -0.248 NA
ATOM     41  C   UNL A   1      37.724  31.090  29.440  1.00  0.00     0.031 C 
ATOM     42  C   UNL A   1      37.278  34.278  33.315  1.00  0.00     0.029 A 
ATOM     43  N   UNL A   1      38.955  32.807  33.389  1.00  0.00    -0.354 N 
ATOM     44  C   UNL A   1      39.454  29.839  30.269  1.00  0.00     0.074 A 
ATOM     45  C   UNL A   1      38.490  30.033  29.206  1.00  0.00     0.031 C 
ATOM     46  C   UNL A   1      38.020  34.582  34.385  1.00  0.00     0.029 A 
ATOM     47  C   UNL A   1      39.078  33.594  34.508  1.00  0.00     0.049 A 
ATOM     48  H   UNL A   1      39.570  32.070  33.175  1.00  0.00     0.167 HD
ATOM     49  C   UNL A   1      40.421  28.889  30.270  1.00  0.00     0.037 A 
ATOM     50  C   UNL A   1      39.917  33.502  35.551  1.00  0.00     0.037 A 
ATOM     51  C   UNL A   1      41.376  28.716  31.337  1.00  0.00     0.049 A 
ATOM     52  C   UNL A   1      40.912  32.384  35.565  1.00  0.00     0.074 A 
ATOM     53  C   UNL A   1      42.398  27.789  31.439  1.00  0.00     0.029 A 
ATOM     54  N   UNL A   1      41.421  29.485  32.492  1.00  0.00    -0.354 N 
ATOM     55  N   UNL A   1      41.149  31.474  34.651  1.00  0.00    -0.248 NA
ATOM     56  C   UNL A   1      41.748  32.269  36.765  1.00  0.00     0.031 C 
ATOM     57  C   UNL A   1      43.018  27.955  32.682  1.00  0.00     0.029 A 
ATOM     58  C   UNL A   1      42.432  29.033  33.325  1.00  0.00     0.049 A 
ATOM     59  H   UNL A   1      40.823  30.242  32.690  1.00  0.00     0.167 HD
ATOM     60  C   UNL A   1      42.178  30.693  35.153  1.00  0.00     0.074 A 
ATOM     61  C   UNL A   1      42.536  31.256  36.441  1.00  0.00     0.031 C 
ATOM     62  C   UNL A   1      42.771  29.605  34.604  1.00  0.00     0.037 A 
BRANCH  49  63
ATOM     63  C   UNL A   1      40.465  27.943  29.103  1.00  0.00     0.057 A 
ATOM     64  C   UNL A   1      39.688  26.776  29.102  1.00  0.00     0.134 A 
ATOM     65  C   UNL A   1      41.279  28.171  27.984  1.00  0.00     0.134 A 
ATOM     66  F   UNL A   1      38.893  26.486  30.143  1.00  0.00    -0.206 F 
ATOM     67  C   UNL A   1      39.714  25.877  28.035  1.00  0.00     0.040 A 
ATOM     68  C   UNL A   1      41.288  27.296  26.895  1.00  0.00     0.040 A 
ATOM     69  F   UNL A   1      42.043  29.272  27.912  1.00  0.00    -0.206 F 
ATOM     70  C   UNL A   1      40.508  26.143  26.921  1.00  0.00     0.006 A 
ENDBRANCH  49  63
BRANCH  50  71
ATOM     71  C   UNL A   1      39.814  34.457  36.683  1.00  0.00     0.057 A 
ATOM     72  C   UNL A   1      39.052  34.164  37.822  1.00  0.00     0.134 A 
ATOM     73  C   UNL A   1      40.494  35.679  36.661  1.00  0.00     0.134 A 
ATOM     74  F   UNL A   1      38.361  33.016  37.901  1.00  0.00    -0.206 F 
ATOM     75  C   UNL A   1      38.968  35.050  38.895  1.00  0.00     0.040 A 
ATOM     76  C   UNL A   1      40.451  36.558  37.743  1.00  0.00     0.040 A 
ATOM     77  F   UNL A   1      41.247  36.012  35.602  1.00  0.00    -0.206 F 
ATOM     78  C   UNL A   1      39.683  36.245  38.863  1.00  0.00     0.006 A 
ENDBRANCH  50  71
BRANCH  62  79
ATOM     79  C   UNL A   1      43.898  28.991  35.383  1.00  0.00     0.057 A 
ATOM     80  C   UNL A   1      43.642  28.000  36.339  1.00  0.00     0.134 A 
ATOM     81  C   UNL A   1      45.233  29.368  35.185  1.00  0.00     0.134 A 
ATOM     82  F   UNL A   1      42.386  27.596  36.585  1.00  0.00    -0.206 F 
ATOM     83  C   UNL A   1      44.672  27.404  37.066  1.00  0.00     0.040 A 
ATOM     84  C   UNL A   1      46.275  28.752  35.878  1.00  0.00     0.040 A 
ATOM     85  F   UNL A   1      45.550  30.298  34.270  1.00  0.00    -0.206 F 
ATOM     86  C   UNL A   1      45.994  27.770  36.826  1.00  0.00     0.006 A 
ENDBRANCH  62  79
ENDBRANCH  36  37
ENDBRANCH  28  31
ENDBRANCH  26  27
ENDBRANCH  25  26
ENDBRANCH   1  25
TORSDOF 14
ENDMDL
MODEL 2
REMARK VINA RESULT:     -13.0      0.343      6.153
REMARK SMILES CC[C@@H]1CCC[C@@](C[C@@H]2CSc3ccccc32)(C(=O)NCCCCNC(=O)c2ccc(-c3c4nc(c(-c5c(F)cccc5F)c5ccc([nH]5)c(-c5c(F)cccc5F)c5nc(c(-c6c(F)cccc6F)c6ccc3[nH]6)C=C5)C=C4)cc2)C1
REMARK SMILES IDX 22 1 21 2 20 3 18 4 19 5 7 7 3 8 4 9 82 10 5 11 6 12 2 13
REMARK SMILES IDX 1 14 8 15 9 16 10 17 17 18 11 19 12 20 16 21 13 22 15 23
REMARK SMILES IDX 14 24 23 25 24 26 25 27 26 28 27 30 28 31 29 32 81 33 30 34
REMARK SMILES IDX 80 35 31 36 32 37 33 38 74 39 34 40 79 41 73 42 75 43 35 44
REMARK SMILES IDX 78 45 72 46 71 47 36 49 62 50 45 51 61 52 46 53 49 54 60 55
REMARK SMILES IDX 76 56 47 57 48 58 59 60 77 61 50 62 37 63 38 64 43 65 39 66
REMARK SMILES IDX 40 67 42 68 44 69 41 70 63 71 64 72 69 73 65 74 66 75 68 76
REMARK SMILES IDX 70 77 67 78 51 79 52 80 57 81 53 82 54 83 56 84 58 85 55 86
REMARK H PARENT 20 6 25 29 75 48 49 59
REMARK Flexibility Score: inf
ROOT
ATOM      1  C   UNL A   1      34.703  31.225  28.125  1.00  0.00     0.023 C 
ENDROOT
BRANCH   1   2
ATOM      2  C   UNL A   1      34.741  29.535  27.664  1.00  0.00     0.116 C 
BRANCH   2   3
ATOM      3  N   UNL A   1      33.183  28.299  27.110  1.00  0.00    -0.356 N 
ATOM      4  C   UNL A   1      32.487  27.289  26.493  1.00  0.00     0.226 C 
ATOM      5  O   UNL A   1      31.668  26.713  27.212  1.00  0.00    -0.274 OA
ATOM      6  H   UNL A   1      32.457  28.701  27.639  1.00  0.00     0.163 HD
BRANCH   4   7
ATOM      7  C   UNL A   1      32.758  26.923  25.092  1.00  0.00     0.050 C 
ATOM      8  C   UNL A   1      30.329  27.602  24.375  1.00  0.00    -0.010 C 
ATOM      9  C   UNL A   1      30.817  29.038  24.087  1.00  0.00     0.003 C 
ATOM     10  C   UNL A   1      31.444  26.486  24.379  1.00  0.00     0.020 C 
ATOM     11  C   UNL A   1      32.179  29.361  24.653  1.00  0.00     0.001 C 
ATOM     12  C   UNL A   1      33.143  28.216  24.318  1.00  0.00     0.017 C 
BRANCH   8  13
ATOM     13  C   UNL A   1      29.168  27.309  23.416  1.00  0.00     0.000 C 
ATOM     14  C   UNL A   1      28.609  28.555  22.760  1.00  0.00     0.004 C 
ENDBRANCH   8  13
BRANCH   7  15
ATOM     15  C   UNL A   1      33.803  25.803  25.398  1.00  0.00     0.026 C 
BRANCH  15  16
ATOM     16  C   UNL A   1      33.198  24.324  25.172  1.00  0.00     0.032 C 
ATOM     17  C   UNL A   1      32.340  23.378  26.758  1.00  0.00     0.083 C 
ATOM     18  C   UNL A   1      34.846  23.410  24.662  1.00  0.00    -0.030 A 
ATOM     19  S   UNL A   1      33.856  21.599  27.453  1.00  0.00    -0.125 SA
ATOM     20  C   UNL A   1      35.419  22.177  25.795  1.00  0.00     0.011 A 
ATOM     21  C   UNL A   1      35.405  23.589  23.425  1.00  0.00     0.005 A 
ATOM     22  C   UNL A   1      36.562  21.485  25.530  1.00  0.00     0.015 A 
ATOM     23  C   UNL A   1      36.530  22.772  23.249  1.00  0.00     0.000 A 
ATOM     24  C   UNL A   1      37.083  21.817  24.242  1.00  0.00     0.001 A 
ENDBRANCH  15  16
ENDBRANCH   7  15
ENDBRANCH   4   7
ENDBRANCH   2   3
ENDBRANCH   1   2
BRANCH   1  25
ATOM     25  C   UNL A   1      33.926  32.221  27.246  1.00  0.00     0.023 C 
BRANCH  25  26
ATOM     26  C   UNL A   1      32.717  32.762  27.959  1.00  0.00     0.116 C 
BRANCH  26  27
ATOM     27  N   UNL A   1      32.698  34.208  27.769  1.00  0.00    -0.352 N 
ATOM     28  C   UNL A   1      33.145  35.111  28.708  1.00  0.00     0.251 C 
ATOM     29  H   UNL A   1      32.344  34.559  26.919  1.00  0.00     0.163 HD
ATOM     30  O   UNL A   1      32.654  36.224  28.823  1.00  0.00    -0.269 OA
BRANCH  28  31
ATOM     31  C   UNL A   1      34.241  34.639  29.572  1.00  0.00     0.039 A 
ATOM     32  C   UNL A   1      35.537  34.747  29.062  1.00  0.00     0.014 A 
ATOM     33  C   UNL A   1      33.984  33.946  30.752  1.00  0.00     0.014 A 
ATOM     34  C   UNL A   1      36.534  33.967  29.604  1.00  0.00     0.010 A 
ATOM     35  C   UNL A   1      35.048  33.322  31.407  1.00  0.00     0.010 A 
ATOM     36  C   UNL A   1      36.326  33.299  30.818  1.00  0.00    -0.014 A 
BRANCH  36  37
ATOM     37  C   UNL A   1      37.492  32.646  31.458  1.00  0.00     0.031 A 
ATOM     38  C   UNL A   1      38.010  33.094  32.794  1.00  0.00     0.074 A 
ATOM     39  C   UNL A   1      38.050  31.594  30.825  1.00  0.00     0.049 A 
ATOM     40  N   UNL A   1      39.053  32.660  33.456  1.00  0.00    -0.248 NA
ATOM     41  C   UNL A   1      37.276  34.173  33.472  1.00  0.00     0.031 C 
ATOM     42  C   UNL A   1      37.613  31.053  29.531  1.00  0.00     0.029 A 
ATOM     43  N   UNL A   1      39.080  30.769  31.189  1.00  0.00    -0.354 N 
ATOM     44  C   UNL A   1      39.119  33.430  34.610  1.00  0.00     0.074 A 
ATOM     45  C   UNL A   1      38.029  34.381  34.543  1.00  0.00     0.031 C 
ATOM     46  C   UNL A   1      38.311  29.946  29.252  1.00  0.00     0.029 A 
ATOM     47  C   UNL A   1      39.330  29.775  30.274  1.00  0.00     0.049 A 
ATOM     48  H   UNL A   1      39.591  30.877  32.023  1.00  0.00     0.167 HD
ATOM     49  C   UNL A   1      40.007  33.344  35.631  1.00  0.00     0.037 A 
ATOM     50  C   UNL A   1      40.307  28.856  30.229  1.00  0.00     0.037 A 
ATOM     51  C   UNL A   1      41.083  32.386  35.681  1.00  0.00     0.049 A 
ATOM     52  C   UNL A   1      41.326  28.849  31.325  1.00  0.00     0.074 A 
ATOM     53  C   UNL A   1      42.037  32.210  36.668  1.00  0.00     0.029 A 
ATOM     54  N   UNL A   1      41.351  31.444  34.697  1.00  0.00    -0.354 N 
ATOM     55  N   UNL A   1      41.386  29.591  32.404  1.00  0.00    -0.248 NA
ATOM     56  C   UNL A   1      42.424  27.886  31.188  1.00  0.00     0.031 C 
ATOM     57  C   UNL A   1      42.919  31.207  36.251  1.00  0.00     0.029 A 
ATOM     58  C   UNL A   1      42.474  30.706  35.038  1.00  0.00     0.049 A 
ATOM     59  H   UNL A   1      40.821  31.318  33.877  1.00  0.00     0.167 HD
ATOM     60  C   UNL A   1      42.515  29.169  33.089  1.00  0.00     0.074 A 
ATOM     61  C   UNL A   1      43.090  28.086  32.315  1.00  0.00     0.031 C 
ATOM     62  C   UNL A   1      43.033  29.635  34.252  1.00  0.00     0.037 A 
BRANCH  49  63
ATOM     63  C   UNL A   1      39.874  34.338  36.751  1.00  0.00     0.057 A 
ATOM     64  C   UNL A   1      39.154  34.014  37.909  1.00  0.00     0.134 A 
ATOM     65  C   UNL A   1      40.442  35.618  36.688  1.00  0.00     0.134 A 
ATOM     66  F   UNL A   1      38.574  32.811  38.036  1.00  0.00    -0.206 F 
ATOM     67  C   UNL A   1      39.009  34.919  38.961  1.00  0.00     0.040 A 
ATOM     68  C   UNL A   1      40.333  36.521  37.748  1.00  0.00     0.040 A 
ATOM     69  F   UNL A   1      41.152  35.995  35.613  1.00  0.00    -0.206 F 
ATOM     70  C   UNL A   1      39.610  36.174  38.887  1.00  0.00     0.006 A 
ENDBRANCH  49  63
BRANCH  50  71
ATOM     71  C   UNL A   1      40.395  27.911  29.088  1.00  0.00     0.057 A 
ATOM     72  C   UNL A   1      39.652  26.723  29.061  1.00  0.00     0.134 A 
ATOM     73  C   UNL A   1      41.211  28.184  27.985  1.00  0.00     0.134 A 
ATOM     74  F   UNL A   1      38.862  26.392  30.094  1.00  0.00    -0.206 F 
ATOM     75  C   UNL A   1      39.718  25.842  27.982  1.00  0.00     0.040 A 
ATOM     76  C   UNL A   1      41.258  27.331  26.882  1.00  0.00     0.040 A 
ATOM     77  F   UNL A   1      41.940  29.310  27.949  1.00  0.00    -0.206 F 
ATOM     78  C   UNL A   1      40.511  26.155  26.881  1.00  0.00     0.006 A 
ENDBRANCH  50  71
BRANCH  62  79
ATOM     79  C   UNL A   1      44.259  28.938  34.767  1.00  0.00     0.057 A 
ATOM     80  C   UNL A   1      45.535  29.400  34.425  1.00  0.00     0.134 A 
ATOM     81  C   UNL A   1      44.181  27.818  35.607  1.00  0.00     0.134 A 
ATOM     82  F   UNL A   1      45.683  30.463  33.620  1.00  0.00    -0.206 F 
ATOM     83  C   UNL A   1      46.689  28.779  34.902  1.00  0.00     0.040 A 
ATOM     84  C   UNL A   1      45.327  27.212  36.121  1.00  0.00     0.040 A 
ATOM     85  F   UNL A   1      42.988  27.335  35.989  1.00  0.00    -0.206 F 
ATOM     86  C   UNL A   1      46.586  27.690  35.764  1.00  0.00     0.006 A 
ENDBRANCH  62  79
ENDBRANCH  36  37
ENDBRANCH  28  31
ENDBRANCH  26  27
ENDBRANCH  25  26
ENDBRANCH   1  25
TORSDOF 14
ENDMDL
MODEL 3
REMARK VINA RESULT:     -12.9      1.917      3.105
REMARK SMILES CC[C@@H]1CCC[C@@](C[C@@H]2CSc3ccccc32)(C(=O)NCCCCNC(=O)c2ccc(-c3c4nc(c(-c5c(F)cccc5F)c5ccc([nH]5)c(-c5c(F)cccc5F)c5nc(c(-c6c(F)cccc6F)c6ccc3[nH]6)C=C5)C=C4)cc2)C1
REMARK SMILES IDX 22 1 21 2 20 3 18 4 19 5 7 7 3 8 4 9 82 10 5 11 6 12 2 13
REMARK SMILES IDX 1 14 8 15 9 16 10 17 17 18 11 19 12 20 16 21 13 22 15 23
REMARK SMILES IDX 14 24 23 25 24 26 25 27 26 28 27 30 28 31 29 32 81 33 30 34
REMARK SMILES IDX 80 35 31 36 32 37 33 38 74 39 34 40 79 41 73 42 75 43 35 44
REMARK SMILES IDX 78 45 72 46 71 47 36 49 62 50 45 51 61 52 46 53 49 54 60 55
REMARK SMILES IDX 76 56 47 57 48 58 59 60 77 61 50 62 37 63 38 64 43 65 39 66
REMARK SMILES IDX 40 67 42 68 44 69 41 70 63 71 64 72 69 73 65 74 66 75 68 76
REMARK SMILES IDX 70 77 67 78 51 79 52 80 57 81 53 82 54 83 56 84 58 85 55 86
REMARK H PARENT 20 6 25 29 75 48 49 59
REMARK Flexibility Score: inf
ROOT
ATOM      1  C   UNL A   1      33.303  29.278  25.087  1.00  0.00     0.023 C 
ENDROOT
BRANCH   1   2
ATOM      2  C   UNL A   1      33.496  28.747  23.429  1.00  0.00     0.116 C 
BRANCH   2   3
ATOM      3  N   UNL A   1      33.618  26.827  22.679  1.00  0.00    -0.356 N 
ATOM      4  C   UNL A   1      33.401  25.480  22.526  1.00  0.00     0.226 C 
ATOM      5  O   UNL A   1      33.305  25.102  21.357  1.00  0.00    -0.274 OA
ATOM      6  H   UNL A   1      34.253  26.977  21.943  1.00  0.00     0.163 HD
BRANCH   4   7
ATOM      7  C   UNL A   1      33.258  24.594  23.695  1.00  0.00     0.050 C 
ATOM      8  C   UNL A   1      31.402  26.136  24.721  1.00  0.00    -0.010 C 
ATOM      9  C   UNL A   1      30.318  25.323  23.980  1.00  0.00     0.003 C 
ATOM     10  C   UNL A   1      32.782  25.403  24.938  1.00  0.00     0.020 C 
ATOM     11  C   UNL A   1      30.849  24.418  22.895  1.00  0.00     0.001 C 
ATOM     12  C   UNL A   1      32.055  23.641  23.437  1.00  0.00     0.017 C 
BRANCH   8  13
ATOM     13  C   UNL A   1      30.775  26.664  26.019  1.00  0.00     0.000 C 
ATOM     14  C   UNL A   1      31.788  26.871  27.127  1.00  0.00     0.004 C 
ENDBRANCH   8  13
BRANCH   7  15
ATOM     15  C   UNL A   1      34.732  24.077  23.709  1.00  0.00     0.026 C 
BRANCH  15  16
ATOM     16  C   UNL A   1      35.193  23.585  25.175  1.00  0.00     0.032 C 
ATOM     17  C   UNL A   1      37.088  24.015  25.786  1.00  0.00     0.083 C 
ATOM     18  C   UNL A   1      34.998  21.661  24.912  1.00  0.00    -0.030 A 
ATOM     19  S   UNL A   1      38.356  21.933  25.751  1.00  0.00    -0.125 SA
ATOM     20  C   UNL A   1      36.500  20.726  24.958  1.00  0.00     0.011 A 
ATOM     21  C   UNL A   1      33.763  21.069  24.881  1.00  0.00     0.005 A 
ATOM     22  C   UNL A   1      36.469  19.376  24.782  1.00  0.00     0.015 A 
ATOM     23  C   UNL A   1      33.867  19.676  24.769  1.00  0.00     0.000 A 
ATOM     24  C   UNL A   1      35.127  18.894  24.692  1.00  0.00     0.001 A 
ENDBRANCH  15  16
ENDBRANCH   7  15
ENDBRANCH   4   7
ENDBRANCH   2   3
ENDBRANCH   1   2
BRANCH   1  25
ATOM     25  C   UNL A   1      32.048  30.082  25.472  1.00  0.00     0.023 C 
BRANCH  25  26
ATOM     26  C   UNL A   1      32.171  30.674  26.849  1.00  0.00     0.116 C 
BRANCH  26  27
ATOM     27  N   UNL A   1      32.097  32.124  26.719  1.00  0.00    -0.352 N 
ATOM     28  C   UNL A   1      32.825  33.002  27.492  1.00  0.00     0.251 C 
ATOM     29  H   UNL A   1      31.491  32.498  26.039  1.00  0.00     0.163 HD
ATOM     30  O   UNL A   1      32.401  34.107  27.792  1.00  0.00    -0.269 OA
BRANCH  28  31
ATOM     31  C   UNL A   1      34.139  32.512  27.944  1.00  0.00     0.039 A 
ATOM     32  C   UNL A   1      34.202  31.184  28.374  1.00  0.00     0.014 A 
ATOM     33  C   UNL A   1      35.216  33.378  28.115  1.00  0.00     0.014 A 
ATOM     34  C   UNL A   1      35.247  30.794  29.181  1.00  0.00     0.010 A 
ATOM     35  C   UNL A   1      36.359  32.907  28.764  1.00  0.00     0.010 A 
ATOM     36  C   UNL A   1      36.369  31.620  29.333  1.00  0.00    -0.014 A 
BRANCH  36  37
ATOM     37  C   UNL A   1      37.547  31.065  30.041  1.00  0.00     0.031 A 
ATOM     38  C   UNL A   1      38.532  30.169  29.348  1.00  0.00     0.074 A 
ATOM     39  C   UNL A   1      37.741  31.433  31.323  1.00  0.00     0.049 A 
ATOM     40  N   UNL A   1      39.579  29.562  29.847  1.00  0.00    -0.248 NA
ATOM     41  C   UNL A   1      38.312  29.908  27.917  1.00  0.00     0.031 C 
ATOM     42  C   UNL A   1      36.861  32.323  32.094  1.00  0.00     0.029 A 
ATOM     43  N   UNL A   1      38.749  31.137  32.201  1.00  0.00    -0.354 N 
ATOM     44  C   UNL A   1      40.124  28.825  28.803  1.00  0.00     0.074 A 
ATOM     45  C   UNL A   1      39.273  29.035  27.651  1.00  0.00     0.031 C 
ATOM     46  C   UNL A   1      37.407  32.562  33.291  1.00  0.00     0.029 A 
ATOM     47  C   UNL A   1      38.600  31.744  33.425  1.00  0.00     0.049 A 
ATOM     48  H   UNL A   1      39.506  30.549  31.977  1.00  0.00     0.167 HD
ATOM     49  C   UNL A   1      41.236  28.049  28.810  1.00  0.00     0.037 A 
ATOM     50  C   UNL A   1      39.314  31.616  34.554  1.00  0.00     0.037 A 
ATOM     51  C   UNL A   1      42.074  27.856  29.967  1.00  0.00     0.049 A 
ATOM     52  C   UNL A   1      40.481  30.679  34.555  1.00  0.00     0.074 A 
ATOM     53  C   UNL A   1      43.224  27.096  30.084  1.00  0.00     0.029 A 
ATOM     54  N   UNL A   1      41.848  28.427  31.213  1.00  0.00    -0.354 N 
ATOM     55  N   UNL A   1      40.979  29.976  33.566  1.00  0.00    -0.248 NA
ATOM     56  C   UNL A   1      41.176  30.504  35.834  1.00  0.00     0.031 C 
ATOM     57  C   UNL A   1      43.655  27.154  31.414  1.00  0.00     0.029 A 
ATOM     58  C   UNL A   1      42.817  28.009  32.111  1.00  0.00     0.049 A 
ATOM     59  H   UNL A   1      41.107  29.040  31.426  1.00  0.00     0.167 HD
ATOM     60  C   UNL A   1      42.063  29.294  34.097  1.00  0.00     0.074 A 
ATOM     61  C   UNL A   1      42.163  29.692  35.488  1.00  0.00     0.031 C 
ATOM     62  C   UNL A   1      42.898  28.414  33.492  1.00  0.00     0.037 A 
BRANCH  49  63
ATOM     63  C   UNL A   1      41.582  27.321  27.541  1.00  0.00     0.057 A 
ATOM     64  C   UNL A   1      42.364  27.940  26.556  1.00  0.00     0.134 A 
ATOM     65  C   UNL A   1      41.138  26.018  27.280  1.00  0.00     0.134 A 
ATOM     66  F   UNL A   1      42.816  29.191  26.731  1.00  0.00    -0.206 F 
ATOM     67  C   UNL A   1      42.695  27.291  25.365  1.00  0.00     0.040 A 
ATOM     68  C   UNL A   1      41.490  25.344  26.108  1.00  0.00     0.040 A 
ATOM     69  F   UNL A   1      40.392  25.360  28.181  1.00  0.00    -0.206 F 
ATOM     70  C   UNL A   1      42.267  25.983  25.144  1.00  0.00     0.006 A 
ENDBRANCH  49  63
BRANCH  50  71
ATOM     71  C   UNL A   1      38.913  32.349  35.782  1.00  0.00     0.057 A 
ATOM     72  C   UNL A   1      38.166  31.730  36.793  1.00  0.00     0.134 A 
ATOM     73  C   UNL A   1      39.287  33.682  35.981  1.00  0.00     0.134 A 
ATOM     74  F   UNL A   1      37.760  30.458  36.657  1.00  0.00    -0.206 F 
ATOM     75  C   UNL A   1      37.803  32.410  37.955  1.00  0.00     0.040 A 
ATOM     76  C   UNL A   1      38.964  34.362  37.156  1.00  0.00     0.040 A 
ATOM     77  F   UNL A   1      40.010  34.325  35.053  1.00  0.00    -0.206 F 
ATOM     78  C   UNL A   1      38.218  33.725  38.145  1.00  0.00     0.006 A 
ENDBRANCH  50  71
BRANCH  62  79
ATOM     79  C   UNL A   1      44.015  27.865  34.331  1.00  0.00     0.057 A 
ATOM     80  C   UNL A   1      45.231  28.551  34.430  1.00  0.00     0.134 A 
ATOM     81  C   UNL A   1      43.890  26.666  35.047  1.00  0.00     0.134 A 
ATOM     82  F   UNL A   1      45.422  29.702  33.766  1.00  0.00    -0.206 F 
ATOM     83  C   UNL A   1      46.280  28.070  35.214  1.00  0.00     0.040 A 
ATOM     84  C   UNL A   1      44.917  26.194  35.864  1.00  0.00     0.040 A 
ATOM     85  F   UNL A   1      42.744  25.968  35.010  1.00  0.00    -0.206 F 
ATOM     86  C   UNL A   1      46.119  26.895  35.944  1.00  0.00     0.006 A 
ENDBRANCH  62  79
ENDBRANCH  36  37
ENDBRANCH  28  31
ENDBRANCH  26  27
ENDBRANCH  25  26
ENDBRANCH   1  25
TORSDOF 14
ENDMDL
