MODEL 1
REMARK VINA RESULT:     -12.8      0.000      0.000
REMARK SMILES Cc1ccc(S(=O)(=O)N[C@@H](Cc2cccc(F)c2)C(=O)NCCCCNC(=O)c2ccc(-c3c4nc(c(-c5c(F)cccc5F)c5ccc([nH]5)c(-c5c(F)cccc5F)c5nc(c(-c6c(F)cccc6F)c6ccc3[nH]6)C=C5)C=C4)cc2)cc1
REMARK SMILES IDX 23 1 22 2 21 3 19 4 20 5 10 7 9 8 6 10 7 11 8 12 5 13 1 14
REMARK SMILES IDX 2 15 3 16 84 17 4 18 83 19 11 20 12 21 13 22 18 23 14 24
REMARK SMILES IDX 16 25 15 26 17 27 24 28 25 29 26 30 27 31 28 33 29 34 30 35
REMARK SMILES IDX 82 36 31 37 81 38 32 39 33 40 34 41 75 42 35 43 80 44 74 45
REMARK SMILES IDX 76 46 36 47 79 48 73 49 72 50 37 52 63 53 46 54 62 55 47 56
REMARK SMILES IDX 50 57 61 58 77 59 48 60 49 61 60 63 78 64 51 65 38 66 39 67
REMARK SMILES IDX 44 68 40 69 41 70 43 71 45 72 42 73 64 74 65 75 70 76 66 77
REMARK SMILES IDX 67 78 69 79 71 80 68 81 52 82 53 83 58 84 54 85 55 86 57 87
REMARK SMILES IDX 59 88 56 89
REMARK H PARENT 21 6 9 9 26 32 76 51 50 62
REMARK Flexibility Score: inf
ROOT
ATOM      1  C   UNL A   1      32.296  29.568  26.823  1.00  0.00     0.023 C 
ENDROOT
BRANCH   1   2
ATOM      2  C   UNL A   1      31.775  29.627  25.384  1.00  0.00     0.116 C 
BRANCH   2   3
ATOM      3  N   UNL A   1      32.859  29.651  24.416  1.00  0.00    -0.355 N 
ATOM      4  C   UNL A   1      33.515  28.627  23.802  1.00  0.00     0.238 C 
ATOM      5  O   UNL A   1      34.465  28.915  23.068  1.00  0.00    -0.273 OA
ATOM      6  H   UNL A   1      33.169  30.551  24.164  1.00  0.00     0.163 HD
BRANCH   4   7
ATOM      7  C   UNL A   1      33.143  27.157  24.057  1.00  0.00     0.163 C 
BRANCH   7   8
ATOM      8  N   UNL A   1      33.541  26.502  22.787  1.00  0.00    -0.198 NA
ATOM      9  H   UNL A   1      33.721  27.266  22.137  1.00  0.00     0.142 HD
BRANCH   8  10
ATOM     10  S   UNL A   1      32.642  25.406  21.931  1.00  0.00     0.241 S 
ATOM     11  O   UNL A   1      33.175  25.369  20.580  1.00  0.00    -0.207 OA
ATOM     12  O   UNL A   1      31.272  25.744  22.196  1.00  0.00    -0.207 OA
BRANCH  10  13
ATOM     13  C   UNL A   1      32.946  23.828  22.668  1.00  0.00     0.082 A 
ATOM     14  C   UNL A   1      33.852  20.181  24.743  1.00  0.00     0.044 C 
ATOM     15  C   UNL A   1      33.529  21.440  23.994  1.00  0.00    -0.051 A 
ATOM     16  C   UNL A   1      34.565  22.271  23.550  1.00  0.00     0.005 A 
ATOM     17  C   UNL A   1      32.202  21.787  23.715  1.00  0.00     0.005 A 
ATOM     18  C   UNL A   1      34.276  23.469  22.899  1.00  0.00     0.022 A 
ATOM     19  C   UNL A   1      31.906  22.972  23.039  1.00  0.00     0.022 A 
ENDBRANCH  10  13
ENDBRANCH   8  10
ENDBRANCH   7   8
BRANCH   7  20
ATOM     20  C   UNL A   1      33.729  26.501  25.319  1.00  0.00     0.065 C 
BRANCH  20  21
ATOM     21  C   UNL A   1      33.152  25.234  25.928  1.00  0.00    -0.043 A 
ATOM     22  C   UNL A   1      34.077  24.285  26.406  1.00  0.00     0.004 A 
ATOM     23  C   UNL A   1      31.792  24.939  26.080  1.00  0.00     0.043 A 
ATOM     24  C   UNL A   1      33.658  23.121  27.053  1.00  0.00     0.003 A 
ATOM     25  C   UNL A   1      31.384  23.800  26.775  1.00  0.00     0.123 A 
ATOM     26  C   UNL A   1      32.305  22.890  27.267  1.00  0.00     0.039 A 
ATOM     27  F   UNL A   1      30.077  23.592  26.982  1.00  0.00    -0.207 F 
ENDBRANCH  20  21
ENDBRANCH   7  20
ENDBRANCH   4   7
ENDBRANCH   2   3
ENDBRANCH   1   2
BRANCH   1  28
ATOM     28  C   UNL A   1      33.098  30.791  27.269  1.00  0.00     0.023 C 
BRANCH  28  29
ATOM     29  C   UNL A   1      34.605  30.600  27.209  1.00  0.00     0.116 C 
BRANCH  29  30
ATOM     30  N   UNL A   1      35.350  31.431  28.142  1.00  0.00    -0.352 N 
ATOM     31  C   UNL A   1      36.406  31.107  28.975  1.00  0.00     0.251 C 
ATOM     32  H   UNL A   1      35.057  32.370  28.188  1.00  0.00     0.163 HD
ATOM     33  O   UNL A   1      36.823  31.950  29.766  1.00  0.00    -0.269 OA
BRANCH  31  34
ATOM     34  C   UNL A   1      37.148  29.829  28.804  1.00  0.00     0.039 A 
ATOM     35  C   UNL A   1      37.309  29.022  29.941  1.00  0.00     0.014 A 
ATOM     36  C   UNL A   1      37.875  29.546  27.655  1.00  0.00     0.014 A 
ATOM     37  C   UNL A   1      38.393  28.154  30.018  1.00  0.00     0.010 A 
ATOM     38  C   UNL A   1      39.015  28.782  27.763  1.00  0.00     0.010 A 
ATOM     39  C   UNL A   1      39.309  28.151  28.972  1.00  0.00    -0.014 A 
BRANCH  39  40
ATOM     40  C   UNL A   1      40.629  27.550  29.046  1.00  0.00     0.031 A 
ATOM     41  C   UNL A   1      40.800  26.137  28.676  1.00  0.00     0.074 A 
ATOM     42  C   UNL A   1      41.693  28.340  29.305  1.00  0.00     0.049 A 
ATOM     43  N   UNL A   1      41.843  25.435  28.946  1.00  0.00    -0.248 NA
ATOM     44  C   UNL A   1      39.766  25.390  27.973  1.00  0.00     0.031 C 
ATOM     45  C   UNL A   1      43.105  28.012  29.153  1.00  0.00     0.029 A 
ATOM     46  N   UNL A   1      41.694  29.565  29.984  1.00  0.00    -0.354 N 
ATOM     47  C   UNL A   1      41.745  24.249  28.255  1.00  0.00     0.074 A 
ATOM     48  C   UNL A   1      40.411  24.252  27.702  1.00  0.00     0.031 C 
ATOM     49  C   UNL A   1      43.819  28.806  29.968  1.00  0.00     0.029 A 
ATOM     50  C   UNL A   1      42.869  29.553  30.773  1.00  0.00     0.049 A 
ATOM     51  H   UNL A   1      41.020  30.281  29.925  1.00  0.00     0.167 HD
ATOM     52  C   UNL A   1      42.853  23.460  28.151  1.00  0.00     0.037 A 
ATOM     53  C   UNL A   1      42.780  29.489  32.136  1.00  0.00     0.037 A 
ATOM     54  C   UNL A   1      43.953  23.997  28.956  1.00  0.00     0.049 A 
ATOM     55  C   UNL A   1      43.377  28.226  32.729  1.00  0.00     0.074 A 
ATOM     56  C   UNL A   1      45.049  24.802  28.689  1.00  0.00     0.029 A 
ATOM     57  N   UNL A   1      43.820  23.985  30.333  1.00  0.00    -0.354 N 
ATOM     58  N   UNL A   1      43.816  27.221  32.019  1.00  0.00    -0.248 NA
ATOM     59  C   UNL A   1      43.458  27.963  34.165  1.00  0.00     0.031 C 
ATOM     60  C   UNL A   1      45.528  25.324  29.928  1.00  0.00     0.029 A 
ATOM     61  C   UNL A   1      44.735  24.818  30.945  1.00  0.00     0.049 A 
ATOM     62  H   UNL A   1      43.153  23.447  30.819  1.00  0.00     0.167 HD
ATOM     63  C   UNL A   1      44.195  26.205  32.846  1.00  0.00     0.074 A 
ATOM     64  C   UNL A   1      43.949  26.711  34.184  1.00  0.00     0.031 C 
ATOM     65  C   UNL A   1      44.656  25.008  32.384  1.00  0.00     0.037 A 
BRANCH  52  66
ATOM     66  C   UNL A   1      43.011  22.323  27.169  1.00  0.00     0.057 A 
ATOM     67  C   UNL A   1      42.209  21.169  27.282  1.00  0.00     0.134 A 
ATOM     68  C   UNL A   1      43.946  22.272  26.121  1.00  0.00     0.134 A 
ATOM     69  F   UNL A   1      41.211  21.090  28.172  1.00  0.00    -0.206 F 
ATOM     70  C   UNL A   1      42.391  20.030  26.485  1.00  0.00     0.040 A 
ATOM     71  C   UNL A   1      44.179  21.121  25.354  1.00  0.00     0.040 A 
ATOM     72  F   UNL A   1      44.636  23.351  25.735  1.00  0.00    -0.206 F 
ATOM     73  C   UNL A   1      43.404  19.989  25.540  1.00  0.00     0.006 A 
ENDBRANCH  52  66
BRANCH  53  74
ATOM     74  C   UNL A   1      41.579  30.205  32.651  1.00  0.00     0.057 A 
ATOM     75  C   UNL A   1      40.466  29.440  33.053  1.00  0.00     0.134 A 
ATOM     76  C   UNL A   1      41.660  31.512  33.138  1.00  0.00     0.134 A 
ATOM     77  F   UNL A   1      40.322  28.178  32.614  1.00  0.00    -0.206 F 
ATOM     78  C   UNL A   1      39.567  29.896  34.019  1.00  0.00     0.040 A 
ATOM     79  C   UNL A   1      40.746  31.990  34.083  1.00  0.00     0.040 A 
ATOM     80  F   UNL A   1      42.691  32.302  32.809  1.00  0.00    -0.206 F 
ATOM     81  C   UNL A   1      39.731  31.164  34.566  1.00  0.00     0.006 A 
ENDBRANCH  53  74
BRANCH  65  82
ATOM     82  C   UNL A   1      45.075  23.908  33.304  1.00  0.00     0.057 A 
ATOM     83  C   UNL A   1      44.182  22.912  33.719  1.00  0.00     0.134 A 
ATOM     84  C   UNL A   1      46.352  23.883  33.890  1.00  0.00     0.134 A 
ATOM     85  F   UNL A   1      42.925  22.876  33.251  1.00  0.00    -0.206 F 
ATOM     86  C   UNL A   1      44.550  21.926  34.639  1.00  0.00     0.040 A 
ATOM     87  C   UNL A   1      46.716  22.935  34.847  1.00  0.00     0.040 A 
ATOM     88  F   UNL A   1      47.299  24.766  33.540  1.00  0.00    -0.206 F 
ATOM     89  C   UNL A   1      45.816  21.944  35.217  1.00  0.00     0.006 A 
ENDBRANCH  65  82
ENDBRANCH  39  40
ENDBRANCH  31  34
ENDBRANCH  29  30
ENDBRANCH  28  29
ENDBRANCH   1  28
TORSDOF 16
ENDMDL
MODEL 2
REMARK VINA RESULT:     -12.5      1.409      2.211
REMARK SMILES Cc1ccc(S(=O)(=O)N[C@@H](Cc2cccc(F)c2)C(=O)NCCCCNC(=O)c2ccc(-c3c4nc(c(-c5c(F)cccc5F)c5ccc([nH]5)c(-c5c(F)cccc5F)c5nc(c(-c6c(F)cccc6F)c6ccc3[nH]6)C=C5)C=C4)cc2)cc1
REMARK SMILES IDX 23 1 22 2 21 3 19 4 20 5 10 7 9 8 6 10 7 11 8 12 5 13 1 14
REMARK SMILES IDX 2 15 3 16 84 17 4 18 83 19 11 20 12 21 13 22 18 23 14 24
REMARK SMILES IDX 16 25 15 26 17 27 24 28 25 29 26 30 27 31 28 33 29 34 30 35
REMARK SMILES IDX 82 36 31 37 81 38 32 39 33 40 34 41 75 42 35 43 80 44 74 45
REMARK SMILES IDX 76 46 36 47 79 48 73 49 72 50 37 52 63 53 46 54 62 55 47 56
REMARK SMILES IDX 50 57 61 58 77 59 48 60 49 61 60 63 78 64 51 65 38 66 39 67
REMARK SMILES IDX 44 68 40 69 41 70 43 71 45 72 42 73 64 74 65 75 70 76 66 77
REMARK SMILES IDX 67 78 69 79 71 80 68 81 52 82 53 83 58 84 54 85 55 86 57 87
REMARK SMILES IDX 59 88 56 89
REMARK H PARENT 21 6 9 9 26 32 76 51 50 62
REMARK Flexibility Score: inf
ROOT
ATOM      1  C   UNL A   1      32.208  30.298  26.478  1.00  0.00     0.023 C 
ENDROOT
BRANCH   1   2
ATOM      2  C   UNL A   1      32.857  29.792  25.186  1.00  0.00     0.116 C 
BRANCH   2   3
ATOM      3  N   UNL A   1      31.864  29.456  24.178  1.00  0.00    -0.355 N 
ATOM      4  C   UNL A   1      31.482  28.244  23.688  1.00  0.00     0.238 C 
ATOM      5  O   UNL A   1      30.661  28.234  22.766  1.00  0.00    -0.273 OA
ATOM      6  H   UNL A   1      31.394  30.228  23.787  1.00  0.00     0.163 HD
BRANCH   4   7
ATOM      7  C   UNL A   1      32.093  26.931  24.204  1.00  0.00     0.163 C 
BRANCH   7   8
ATOM      8  N   UNL A   1      30.898  26.179  24.658  1.00  0.00    -0.198 NA
ATOM      9  H   UNL A   1      30.117  26.826  24.546  1.00  0.00     0.142 HD
BRANCH   8  10
ATOM     10  S   UNL A   1      30.684  25.495  26.151  1.00  0.00     0.241 S 
ATOM     11  O   UNL A   1      29.257  25.301  26.339  1.00  0.00    -0.207 OA
ATOM     12  O   UNL A   1      31.466  26.294  27.054  1.00  0.00    -0.207 OA
BRANCH  10  13
ATOM     13  C   UNL A   1      31.436  23.897  26.079  1.00  0.00     0.082 A 
ATOM     14  C   UNL A   1      33.419  20.122  25.576  1.00  0.00     0.044 C 
ATOM     15  C   UNL A   1      32.710  21.430  25.773  1.00  0.00    -0.051 A 
ATOM     16  C   UNL A   1      31.759  21.854  24.835  1.00  0.00     0.005 A 
ATOM     17  C   UNL A   1      32.971  22.225  26.895  1.00  0.00     0.005 A 
ATOM     18  C   UNL A   1      31.132  23.090  24.980  1.00  0.00     0.022 A 
ATOM     19  C   UNL A   1      32.325  23.452  27.060  1.00  0.00     0.022 A 
ENDBRANCH  10  13
ENDBRANCH   8  10
ENDBRANCH   7   8
BRANCH   7  20
ATOM     20  C   UNL A   1      32.997  26.156  23.230  1.00  0.00     0.065 C 
BRANCH  20  21
ATOM     21  C   UNL A   1      33.936  25.051  23.685  1.00  0.00    -0.043 A 
ATOM     22  C   UNL A   1      34.057  23.934  22.836  1.00  0.00     0.004 A 
ATOM     23  C   UNL A   1      34.708  25.057  24.854  1.00  0.00     0.043 A 
ATOM     24  C   UNL A   1      34.949  22.897  23.118  1.00  0.00     0.003 A 
ATOM     25  C   UNL A   1      35.635  24.044  25.099  1.00  0.00     0.123 A 
ATOM     26  C   UNL A   1      35.765  22.966  24.240  1.00  0.00     0.039 A 
ATOM     27  F   UNL A   1      36.422  24.124  26.180  1.00  0.00    -0.207 F 
ENDBRANCH  20  21
ENDBRANCH   7  20
ENDBRANCH   4   7
ENDBRANCH   2   3
ENDBRANCH   1   2
BRANCH   1  28
ATOM     28  C   UNL A   1      33.095  31.206  27.332  1.00  0.00     0.023 C 
BRANCH  28  29
ATOM     29  C   UNL A   1      34.473  30.632  27.620  1.00  0.00     0.116 C 
BRANCH  29  30
ATOM     30  N   UNL A   1      35.315  31.484  28.444  1.00  0.00    -0.352 N 
ATOM     31  C   UNL A   1      36.470  31.186  29.144  1.00  0.00     0.251 C 
ATOM     32  H   UNL A   1      35.016  32.420  28.517  1.00  0.00     0.163 HD
ATOM     33  O   UNL A   1      36.969  32.044  29.869  1.00  0.00    -0.269 OA
BRANCH  31  34
ATOM     34  C   UNL A   1      37.204  29.916  28.897  1.00  0.00     0.039 A 
ATOM     35  C   UNL A   1      37.317  29.019  29.970  1.00  0.00     0.014 A 
ATOM     36  C   UNL A   1      37.969  29.716  27.754  1.00  0.00     0.014 A 
ATOM     37  C   UNL A   1      38.389  28.133  30.015  1.00  0.00     0.010 A 
ATOM     38  C   UNL A   1      39.096  28.931  27.841  1.00  0.00     0.010 A 
ATOM     39  C   UNL A   1      39.341  28.202  29.004  1.00  0.00    -0.014 A 
BRANCH  39  40
ATOM     40  C   UNL A   1      40.651  27.580  29.075  1.00  0.00     0.031 A 
ATOM     41  C   UNL A   1      40.799  26.164  28.706  1.00  0.00     0.074 A 
ATOM     42  C   UNL A   1      41.729  28.353  29.330  1.00  0.00     0.049 A 
ATOM     43  N   UNL A   1      41.831  25.446  28.974  1.00  0.00    -0.248 NA
ATOM     44  C   UNL A   1      39.751  25.433  28.006  1.00  0.00     0.031 C 
ATOM     45  C   UNL A   1      43.135  28.002  29.175  1.00  0.00     0.029 A 
ATOM     46  N   UNL A   1      41.751  29.578  30.008  1.00  0.00    -0.354 N 
ATOM     47  C   UNL A   1      41.712  24.261  28.285  1.00  0.00     0.074 A 
ATOM     48  C   UNL A   1      40.377  24.285  27.735  1.00  0.00     0.031 C 
ATOM     49  C   UNL A   1      43.863  28.785  29.987  1.00  0.00     0.029 A 
ATOM     50  C   UNL A   1      42.929  29.548  30.794  1.00  0.00     0.049 A 
ATOM     51  H   UNL A   1      41.089  30.305  29.951  1.00  0.00     0.167 HD
ATOM     52  C   UNL A   1      42.807  23.454  28.178  1.00  0.00     0.037 A 
ATOM     53  C   UNL A   1      42.842  29.487  32.157  1.00  0.00     0.037 A 
ATOM     54  C   UNL A   1      43.918  23.974  28.979  1.00  0.00     0.049 A 
ATOM     55  C   UNL A   1      43.420  28.215  32.749  1.00  0.00     0.074 A 
ATOM     56  C   UNL A   1      45.025  24.761  28.709  1.00  0.00     0.029 A 
ATOM     57  N   UNL A   1      43.789  23.965  30.357  1.00  0.00    -0.354 N 
ATOM     58  N   UNL A   1      43.841  27.203  32.040  1.00  0.00    -0.248 NA
ATOM     59  C   UNL A   1      43.502  27.952  34.186  1.00  0.00     0.031 C 
ATOM     60  C   UNL A   1      45.516  25.276  29.946  1.00  0.00     0.029 A 
ATOM     61  C   UNL A   1      44.719  24.784  30.966  1.00  0.00     0.049 A 
ATOM     62  H   UNL A   1      43.115  23.438  30.845  1.00  0.00     0.167 HD
ATOM     63  C   UNL A   1      44.206  26.181  32.867  1.00  0.00     0.074 A 
ATOM     64  C   UNL A   1      43.972  26.692  34.205  1.00  0.00     0.031 C 
ATOM     65  C   UNL A   1      44.647  24.976  32.404  1.00  0.00     0.037 A 
BRANCH  52  66
ATOM     66  C   UNL A   1      42.944  22.313  27.197  1.00  0.00     0.057 A 
ATOM     67  C   UNL A   1      42.125  21.172  27.314  1.00  0.00     0.134 A 
ATOM     68  C   UNL A   1      43.874  22.247  26.145  1.00  0.00     0.134 A 
ATOM     69  F   UNL A   1      41.129  21.109  28.208  1.00  0.00    -0.206 F 
ATOM     70  C   UNL A   1      42.287  20.029  26.518  1.00  0.00     0.040 A 
ATOM     71  C   UNL A   1      44.086  21.092  25.378  1.00  0.00     0.040 A 
ATOM     72  F   UNL A   1      44.578  23.316  25.755  1.00  0.00    -0.206 F 
ATOM     73  C   UNL A   1      43.295  19.972  25.569  1.00  0.00     0.006 A 
ENDBRANCH  52  66
BRANCH  53  74
ATOM     74  C   UNL A   1      41.655  30.223  32.675  1.00  0.00     0.057 A 
ATOM     75  C   UNL A   1      41.670  31.632  32.631  1.00  0.00     0.134 A 
ATOM     76  C   UNL A   1      40.408  29.606  32.798  1.00  0.00     0.134 A 
ATOM     77  F   UNL A   1      42.836  32.290  32.523  1.00  0.00    -0.206 F 
ATOM     78  C   UNL A   1      40.494  32.380  32.547  1.00  0.00     0.040 A 
ATOM     79  C   UNL A   1      39.224  30.349  32.747  1.00  0.00     0.040 A 
ATOM     80  F   UNL A   1      40.306  28.270  32.840  1.00  0.00    -0.206 F 
ATOM     81  C   UNL A   1      39.264  31.732  32.566  1.00  0.00     0.006 A 
ENDBRANCH  53  74
BRANCH  65  82
ATOM     82  C   UNL A   1      45.050  23.871  33.324  1.00  0.00     0.057 A 
ATOM     83  C   UNL A   1      44.146  22.882  33.732  1.00  0.00     0.134 A 
ATOM     84  C   UNL A   1      46.323  23.834  33.917  1.00  0.00     0.134 A 
ATOM     85  F   UNL A   1      42.892  22.858  33.257  1.00  0.00    -0.206 F 
ATOM     86  C   UNL A   1      44.500  21.891  34.652  1.00  0.00     0.040 A 
ATOM     87  C   UNL A   1      46.674  22.880  34.875  1.00  0.00     0.040 A 
ATOM     88  F   UNL A   1      47.281  24.708  33.574  1.00  0.00    -0.206 F 
ATOM     89  C   UNL A   1      45.763  21.897  35.237  1.00  0.00     0.006 A 
ENDBRANCH  65  82
ENDBRANCH  39  40
ENDBRANCH  31  34
ENDBRANCH  29  30
ENDBRANCH  28  29
ENDBRANCH   1  28
TORSDOF 16
ENDMDL
MODEL 3
REMARK VINA RESULT:     -12.5      0.961      1.734
REMARK SMILES Cc1ccc(S(=O)(=O)N[C@@H](Cc2cccc(F)c2)C(=O)NCCCCNC(=O)c2ccc(-c3c4nc(c(-c5c(F)cccc5F)c5ccc([nH]5)c(-c5c(F)cccc5F)c5nc(c(-c6c(F)cccc6F)c6ccc3[nH]6)C=C5)C=C4)cc2)cc1
REMARK SMILES IDX 23 1 22 2 21 3 19 4 20 5 10 7 9 8 6 10 7 11 8 12 5 13 1 14
REMARK SMILES IDX 2 15 3 16 84 17 4 18 83 19 11 20 12 21 13 22 18 23 14 24
REMARK SMILES IDX 16 25 15 26 17 27 24 28 25 29 26 30 27 31 28 33 29 34 30 35
REMARK SMILES IDX 82 36 31 37 81 38 32 39 33 40 34 41 75 42 35 43 80 44 74 45
REMARK SMILES IDX 76 46 36 47 79 48 73 49 72 50 37 52 63 53 46 54 62 55 47 56
REMARK SMILES IDX 50 57 61 58 77 59 48 60 49 61 60 63 78 64 51 65 38 66 39 67
REMARK SMILES IDX 44 68 40 69 41 70 43 71 45 72 42 73 64 74 65 75 70 76 66 77
REMARK SMILES IDX 67 78 69 79 71 80 68 81 52 82 53 83 58 84 54 85 55 86 57 87
REMARK SMILES IDX 59 88 56 89
REMARK H PARENT 21 6 9 9 26 32 76 51 50 62
REMARK Flexibility Score: inf
ROOT
ATOM      1  C   UNL A   1      32.541  30.628  26.812  1.00  0.00     0.023 C 
ENDROOT
BRANCH   1   2
ATOM      2  C   UNL A   1      32.109  29.693  25.678  1.00  0.00     0.116 C 
BRANCH   2   3
ATOM      3  N   UNL A   1      33.075  29.677  24.592  1.00  0.00    -0.355 N 
ATOM      4  C   UNL A   1      33.549  28.639  23.849  1.00  0.00     0.238 C 
ATOM      5  O   UNL A   1      34.436  28.883  23.026  1.00  0.00    -0.273 OA
ATOM      6  H   UNL A   1      33.447  30.558  24.356  1.00  0.00     0.163 HD
BRANCH   4   7
ATOM      7  C   UNL A   1      33.058  27.197  24.064  1.00  0.00     0.163 C 
BRANCH   7   8
ATOM      8  N   UNL A   1      33.524  26.514  22.833  1.00  0.00    -0.198 NA
ATOM      9  H   UNL A   1      33.696  27.262  22.161  1.00  0.00     0.142 HD
BRANCH   8  10
ATOM     10  S   UNL A   1      32.699  25.354  21.989  1.00  0.00     0.241 S 
ATOM     11  O   UNL A   1      33.238  25.331  20.640  1.00  0.00    -0.207 OA
ATOM     12  O   UNL A   1      31.308  25.610  22.245  1.00  0.00    -0.207 OA
BRANCH  10  13
ATOM     13  C   UNL A   1      33.096  23.807  22.748  1.00  0.00     0.082 A 
ATOM     14  C   UNL A   1      34.166  20.250  24.900  1.00  0.00     0.044 C 
ATOM     15  C   UNL A   1      33.791  21.478  24.123  1.00  0.00    -0.051 A 
ATOM     16  C   UNL A   1      34.765  22.439  23.828  1.00  0.00     0.005 A 
ATOM     17  C   UNL A   1      32.479  21.667  23.672  1.00  0.00     0.005 A 
ATOM     18  C   UNL A   1      34.418  23.608  23.152  1.00  0.00     0.022 A 
ATOM     19  C   UNL A   1      32.131  22.822  22.971  1.00  0.00     0.022 A 
ENDBRANCH  10  13
ENDBRANCH   8  10
ENDBRANCH   7   8
BRANCH   7  20
ATOM     20  C   UNL A   1      33.483  26.507  25.371  1.00  0.00     0.065 C 
BRANCH  20  21
ATOM     21  C   UNL A   1      32.719  25.336  25.966  1.00  0.00    -0.043 A 
ATOM     22  C   UNL A   1      31.321  25.342  25.796  1.00  0.00     0.004 A 
ATOM     23  C   UNL A   1      33.280  24.245  26.641  1.00  0.00     0.043 A 
ATOM     24  C   UNL A   1      30.529  24.278  26.235  1.00  0.00     0.003 A 
ATOM     25  C   UNL A   1      32.488  23.162  27.027  1.00  0.00     0.123 A 
ATOM     26  C   UNL A   1      31.119  23.168  26.827  1.00  0.00     0.039 A 
ATOM     27  F   UNL A   1      33.069  22.094  27.589  1.00  0.00    -0.207 F 
ENDBRANCH  20  21
ENDBRANCH   7  20
ENDBRANCH   4   7
ENDBRANCH   2   3
ENDBRANCH   1   2
BRANCH   1  28
ATOM     28  C   UNL A   1      33.870  30.267  27.475  1.00  0.00     0.023 C 
BRANCH  28  29
ATOM     29  C   UNL A   1      34.850  31.427  27.570  1.00  0.00     0.116 C 
BRANCH  29  30
ATOM     30  N   UNL A   1      35.198  31.804  28.931  1.00  0.00    -0.352 N 
ATOM     31  C   UNL A   1      36.025  31.175  29.845  1.00  0.00     0.251 C 
ATOM     32  H   UNL A   1      34.781  32.636  29.252  1.00  0.00     0.163 HD
ATOM     33  O   UNL A   1      36.097  31.618  30.989  1.00  0.00    -0.269 OA
BRANCH  31  34
ATOM     34  C   UNL A   1      36.948  30.091  29.417  1.00  0.00     0.039 A 
ATOM     35  C   UNL A   1      37.080  28.984  30.270  1.00  0.00     0.014 A 
ATOM     36  C   UNL A   1      37.841  30.255  28.365  1.00  0.00     0.014 A 
ATOM     37  C   UNL A   1      38.255  28.240  30.251  1.00  0.00     0.010 A 
ATOM     38  C   UNL A   1      39.052  29.604  28.416  1.00  0.00     0.010 A 
ATOM     39  C   UNL A   1      39.283  28.653  29.410  1.00  0.00    -0.014 A 
BRANCH  39  40
ATOM     40  C   UNL A   1      40.653  28.184  29.506  1.00  0.00     0.031 A 
ATOM     41  C   UNL A   1      41.023  26.904  28.885  1.00  0.00     0.074 A 
ATOM     42  C   UNL A   1      41.589  29.004  30.031  1.00  0.00     0.049 A 
ATOM     43  N   UNL A   1      42.115  26.268  29.122  1.00  0.00    -0.248 NA
ATOM     44  C   UNL A   1      40.150  26.221  27.940  1.00  0.00     0.031 C 
ATOM     45  C   UNL A   1      43.038  28.856  29.971  1.00  0.00     0.029 A 
ATOM     46  N   UNL A   1      41.386  30.054  30.935  1.00  0.00    -0.354 N 
ATOM     47  C   UNL A   1      42.219  25.248  28.204  1.00  0.00     0.074 A 
ATOM     48  C   UNL A   1      40.947  25.234  27.521  1.00  0.00     0.031 C 
ATOM     49  C   UNL A   1      43.579  29.529  31.000  1.00  0.00     0.029 A 
ATOM     50  C   UNL A   1      42.482  29.994  31.829  1.00  0.00     0.049 A 
ATOM     51  H   UNL A   1      40.639  30.696  30.947  1.00  0.00     0.167 HD
ATOM     52  C   UNL A   1      43.419  24.612  28.066  1.00  0.00     0.037 A 
ATOM     53  C   UNL A   1      42.284  29.638  33.134  1.00  0.00     0.037 A 
ATOM     54  C   UNL A   1      44.373  25.076  29.076  1.00  0.00     0.049 A 
ATOM     55  C   UNL A   1      42.974  28.345  33.526  1.00  0.00     0.074 A 
ATOM     56  C   UNL A   1      45.384  26.024  29.094  1.00  0.00     0.029 A 
ATOM     57  N   UNL A   1      44.125  24.763  30.401  1.00  0.00    -0.354 N 
ATOM     58  N   UNL A   1      43.589  27.559  32.684  1.00  0.00    -0.248 NA
ATOM     59  C   UNL A   1      42.963  27.797  34.883  1.00  0.00     0.031 C 
ATOM     60  C   UNL A   1      45.689  26.320  30.457  1.00  0.00     0.029 A 
ATOM     61  C   UNL A   1      44.878  25.537  31.261  1.00  0.00     0.049 A 
ATOM     62  H   UNL A   1      43.488  24.072  30.695  1.00  0.00     0.167 HD
ATOM     63  C   UNL A   1      44.014  26.436  33.329  1.00  0.00     0.074 A 
ATOM     64  C   UNL A   1      43.596  26.624  34.706  1.00  0.00     0.031 C 
ATOM     65  C   UNL A   1      44.654  25.413  32.692  1.00  0.00     0.037 A 
BRANCH  52  66
ATOM     66  C   UNL A   1      43.795  23.726  26.902  1.00  0.00     0.057 A 
ATOM     67  C   UNL A   1      44.568  24.237  25.840  1.00  0.00     0.134 A 
ATOM     68  C   UNL A   1      43.405  22.386  26.735  1.00  0.00     0.134 A 
ATOM     69  F   UNL A   1      45.094  25.469  25.881  1.00  0.00    -0.206 F 
ATOM     70  C   UNL A   1      44.843  23.508  24.674  1.00  0.00     0.040 A 
ATOM     71  C   UNL A   1      43.623  21.663  25.553  1.00  0.00     0.040 A 
ATOM     72  F   UNL A   1      42.855  21.680  27.730  1.00  0.00    -0.206 F 
ATOM     73  C   UNL A   1      44.339  22.228  24.511  1.00  0.00     0.006 A 
ENDBRANCH  52  66
BRANCH  53  74
ATOM     74  C   UNL A   1      40.967  30.108  33.648  1.00  0.00     0.057 A 
ATOM     75  C   UNL A   1      40.825  31.472  33.975  1.00  0.00     0.134 A 
ATOM     76  C   UNL A   1      39.794  29.385  33.423  1.00  0.00     0.134 A 
ATOM     77  F   UNL A   1      41.912  32.225  34.212  1.00  0.00    -0.206 F 
ATOM     78  C   UNL A   1      39.589  32.119  33.919  1.00  0.00     0.040 A 
ATOM     79  C   UNL A   1      38.546  30.018  33.396  1.00  0.00     0.040 A 
ATOM     80  F   UNL A   1      39.842  28.085  33.101  1.00  0.00    -0.206 F 
ATOM     81  C   UNL A   1      38.448  31.396  33.589  1.00  0.00     0.006 A 
ENDBRANCH  53  74
BRANCH  65  82
ATOM     82  C   UNL A   1      45.119  24.192  33.416  1.00  0.00     0.057 A 
ATOM     83  C   UNL A   1      44.273  23.101  33.645  1.00  0.00     0.134 A 
ATOM     84  C   UNL A   1      46.395  24.126  34.003  1.00  0.00     0.134 A 
ATOM     85  F   UNL A   1      43.020  23.089  33.164  1.00  0.00    -0.206 F 
ATOM     86  C   UNL A   1      44.683  21.990  34.388  1.00  0.00     0.040 A 
ATOM     87  C   UNL A   1      46.800  23.046  34.789  1.00  0.00     0.040 A 
ATOM     88  F   UNL A   1      47.301  25.097  33.819  1.00  0.00    -0.206 F 
ATOM     89  C   UNL A   1      45.946  21.967  34.974  1.00  0.00     0.006 A 
ENDBRANCH  65  82
ENDBRANCH  39  40
ENDBRANCH  31  34
ENDBRANCH  29  30
ENDBRANCH  28  29
ENDBRANCH   1  28
TORSDOF 16
ENDMDL
