MODEL 1
REMARK VINA RESULT:     -11.1      0.000      0.000
REMARK SMILES O=C(NCCCCNC(=O)[C@H]1CC[C@@H](CNC(=O)[C@H]2CCSC2)CC1)c1ccc(-c2c3nc(c(-c4c(F)cccc4F)c4ccc([nH]4)c(-c4c(F)cccc4F)c4nc(c(-c5c(F)cccc5F)c5ccc2[nH]5)C=C4)C=C3)cc1
REMARK SMILES IDX 6 1 5 2 4 3 3 4 1 5 2 6 26 8 27 9 79 10 28 11 78 12 29 13
REMARK SMILES IDX 30 14 31 15 72 16 32 17 77 18 71 19 73 20 33 21 76 22 70 23
REMARK SMILES IDX 69 24 34 26 60 27 43 28 59 29 44 30 47 31 58 32 74 33 45 34
REMARK SMILES IDX 46 35 57 37 75 38 48 39 35 40 36 41 41 42 37 43 38 44 40 45
REMARK SMILES IDX 42 46 39 47 61 48 62 49 67 50 63 51 64 52 66 53 68 54 65 55
REMARK SMILES IDX 49 56 50 57 55 58 51 59 52 60 54 61 56 62 53 63 7 64 8 65
REMARK SMILES IDX 9 66 10 68 11 69 25 70 12 71 24 72 13 73 14 74 15 75 16 76
REMARK SMILES IDX 17 77 18 79 19 80 20 81 23 82 21 83 22 84
REMARK H PARENT 3 7 73 25 47 36 8 67 16 78
REMARK Flexibility Score: inf
ROOT
ATOM      1  C   UNL A   1      34.420  33.471  28.980  1.00  0.00     0.023 C 
ENDROOT
BRANCH   1   2
ATOM      2  C   UNL A   1      33.259  34.469  28.916  1.00  0.00     0.023 C 
BRANCH   2   3
ATOM      3  C   UNL A   1      33.547  35.822  29.552  1.00  0.00     0.116 C 
BRANCH   3   4
ATOM      4  N   UNL A   1      32.559  36.225  30.542  1.00  0.00    -0.352 N 
ATOM      5  O   UNL A   1      31.601  36.260  32.592  1.00  0.00    -0.269 OA
ATOM      6  C   UNL A   1      32.545  35.933  31.889  1.00  0.00     0.251 C 
ATOM      7  H   UNL A   1      31.812  36.774  30.210  1.00  0.00     0.163 HD
BRANCH   6   8
ATOM      8  C   UNL A   1      33.678  35.172  32.456  1.00  0.00     0.039 A 
ATOM      9  C   UNL A   1      34.944  35.753  32.525  1.00  0.00     0.014 A 
ATOM     10  C   UNL A   1      33.481  33.849  32.862  1.00  0.00     0.014 A 
ATOM     11  C   UNL A   1      36.039  34.966  32.848  1.00  0.00     0.010 A 
ATOM     12  C   UNL A   1      34.576  33.083  33.275  1.00  0.00     0.010 A 
ATOM     13  C   UNL A   1      35.868  33.626  33.236  1.00  0.00    -0.014 A 
BRANCH  13  14
ATOM     14  C   UNL A   1      37.065  32.849  33.642  1.00  0.00     0.031 A 
ATOM     15  C   UNL A   1      37.715  31.862  32.715  1.00  0.00     0.074 A 
ATOM     16  C   UNL A   1      37.611  33.112  34.846  1.00  0.00     0.049 A 
ATOM     17  N   UNL A   1      38.813  31.169  32.892  1.00  0.00    -0.248 NA
ATOM     18  C   UNL A   1      37.051  31.611  31.427  1.00  0.00     0.031 C 
ATOM     19  C   UNL A   1      37.054  34.036  35.836  1.00  0.00     0.029 A 
ATOM     20  N   UNL A   1      38.768  32.662  35.425  1.00  0.00    -0.354 N 
ATOM     21  C   UNL A   1      38.964  30.393  31.749  1.00  0.00     0.074 A 
ATOM     22  C   UNL A   1      37.833  30.681  30.894  1.00  0.00     0.031 C 
ATOM     23  C   UNL A   1      37.902  34.137  36.869  1.00  0.00     0.029 A 
ATOM     24  C   UNL A   1      39.029  33.242  36.642  1.00  0.00     0.049 A 
ATOM     25  H   UNL A   1      39.355  31.989  35.010  1.00  0.00     0.167 HD
ATOM     26  C   UNL A   1      39.960  29.526  31.444  1.00  0.00     0.037 A 
ATOM     27  C   UNL A   1      40.061  33.070  37.488  1.00  0.00     0.037 A 
ATOM     28  C   UNL A   1      41.089  29.253  32.296  1.00  0.00     0.049 A 
ATOM     29  C   UNL A   1      41.157  32.120  37.113  1.00  0.00     0.074 A 
ATOM     30  C   UNL A   1      42.151  28.391  32.075  1.00  0.00     0.029 A 
ATOM     31  N   UNL A   1      41.309  29.843  33.532  1.00  0.00    -0.354 N 
ATOM     32  N   UNL A   1      41.285  31.398  36.027  1.00  0.00    -0.248 NA
ATOM     33  C   UNL A   1      42.248  31.957  38.081  1.00  0.00     0.031 C 
ATOM     34  C   UNL A   1      42.997  28.439  33.189  1.00  0.00     0.029 A 
ATOM     35  C   UNL A   1      42.482  29.359  34.087  1.00  0.00     0.049 A 
ATOM     36  H   UNL A   1      40.717  30.509  33.952  1.00  0.00     0.167 HD
ATOM     37  C   UNL A   1      42.467  30.689  36.182  1.00  0.00     0.074 A 
ATOM     38  C   UNL A   1      43.038  31.100  37.449  1.00  0.00     0.031 C 
ATOM     39  C   UNL A   1      43.025  29.771  35.356  1.00  0.00     0.037 A 
BRANCH  26  40
ATOM     40  C   UNL A   1      39.873  28.799  30.133  1.00  0.00     0.057 A 
ATOM     41  C   UNL A   1      40.488  29.292  28.976  1.00  0.00     0.134 A 
ATOM     42  C   UNL A   1      39.219  27.564  30.042  1.00  0.00     0.134 A 
ATOM     43  F   UNL A   1      41.121  30.475  28.993  1.00  0.00    -0.206 F 
ATOM     44  C   UNL A   1      40.447  28.587  27.770  1.00  0.00     0.040 A 
ATOM     45  C   UNL A   1      39.188  26.840  28.848  1.00  0.00     0.040 A 
ATOM     46  F   UNL A   1      38.613  27.033  31.114  1.00  0.00    -0.206 F 
ATOM     47  C   UNL A   1      39.802  27.354  27.707  1.00  0.00     0.006 A 
ENDBRANCH  26  40
BRANCH  27  48
ATOM     48  C   UNL A   1      40.091  33.816  38.769  1.00  0.00     0.057 A 
ATOM     49  C   UNL A   1      39.403  33.355  39.896  1.00  0.00     0.134 A 
ATOM     50  C   UNL A   1      40.832  34.997  38.902  1.00  0.00     0.134 A 
ATOM     51  F   UNL A   1      38.666  32.236  39.827  1.00  0.00    -0.206 F 
ATOM     52  C   UNL A   1      39.440  34.048  41.106  1.00  0.00     0.040 A 
ATOM     53  C   UNL A   1      40.900  35.685  40.112  1.00  0.00     0.040 A 
ATOM     54  F   UNL A   1      41.522  35.483  37.859  1.00  0.00    -0.206 F 
ATOM     55  C   UNL A   1      40.197  35.213  41.219  1.00  0.00     0.006 A 
ENDBRANCH  27  48
BRANCH  39  56
ATOM     56  C   UNL A   1      44.312  29.155  35.812  1.00  0.00     0.057 A 
ATOM     57  C   UNL A   1      44.331  27.989  36.588  1.00  0.00     0.134 A 
ATOM     58  C   UNL A   1      45.542  29.732  35.475  1.00  0.00     0.134 A 
ATOM     59  F   UNL A   1      43.184  27.398  36.956  1.00  0.00    -0.206 F 
ATOM     60  C   UNL A   1      45.529  27.435  37.038  1.00  0.00     0.040 A 
ATOM     61  C   UNL A   1      46.748  29.175  35.901  1.00  0.00     0.040 A 
ATOM     62  F   UNL A   1      45.589  30.847  34.730  1.00  0.00    -0.206 F 
ATOM     63  C   UNL A   1      46.742  28.027  36.693  1.00  0.00     0.006 A 
ENDBRANCH  39  56
ENDBRANCH  13  14
ENDBRANCH   6   8
ENDBRANCH   3   4
ENDBRANCH   2   3
ENDBRANCH   1   2
BRANCH   1  64
ATOM     64  C   UNL A   1      34.123  32.117  28.328  1.00  0.00     0.116 C 
BRANCH  64  65
ATOM     65  N   UNL A   1      32.881  32.167  27.587  1.00  0.00    -0.356 N 
ATOM     66  C   UNL A   1      32.258  31.250  26.804  1.00  0.00     0.223 C 
ATOM     67  H   UNL A   1      32.399  33.022  27.666  1.00  0.00     0.163 HD
ATOM     68  O   UNL A   1      31.267  31.643  26.180  1.00  0.00    -0.275 OA
BRANCH  66  69
ATOM     69  C   UNL A   1      32.640  29.769  26.758  1.00  0.00     0.078 C 
ATOM     70  C   UNL A   1      31.755  28.778  27.524  1.00  0.00     0.014 C 
ATOM     71  C   UNL A   1      32.897  29.363  25.301  1.00  0.00     0.014 C 
ATOM     72  C   UNL A   1      32.192  27.324  27.330  1.00  0.00     0.006 C 
ATOM     73  C   UNL A   1      33.347  27.909  25.190  1.00  0.00     0.006 C 
ATOM     74  C   UNL A   1      32.354  26.939  25.848  1.00  0.00     0.008 C 
BRANCH  74  75
ATOM     75  C   UNL A   1      30.993  26.890  25.125  1.00  0.00     0.119 C 
BRANCH  75  76
ATOM     76  N   UNL A   1      31.136  26.698  23.692  1.00  0.00    -0.356 N 
ATOM     77  C   UNL A   1      30.668  27.455  22.657  1.00  0.00     0.223 C 
ATOM     78  H   UNL A   1      31.648  25.901  23.427  1.00  0.00     0.163 HD
ATOM     79  O   UNL A   1      30.917  27.090  21.510  1.00  0.00    -0.275 OA
BRANCH  77  80
ATOM     80  C   UNL A   1      29.881  28.712  22.965  1.00  0.00     0.089 C 
ATOM     81  C   UNL A   1      30.098  29.786  21.900  1.00  0.00     0.025 C 
ATOM     82  C   UNL A   1      28.378  28.450  22.968  1.00  0.00     0.083 C 
ATOM     83  C   UNL A   1      29.137  30.916  22.228  1.00  0.00     0.070 C 
ATOM     84  S   UNL A   1      27.628  30.099  22.810  1.00  0.00    -0.161 SA
ENDBRANCH  77  80
ENDBRANCH  75  76
ENDBRANCH  74  75
ENDBRANCH  66  69
ENDBRANCH  64  65
ENDBRANCH   1  64
TORSDOF 14
ENDMDL
MODEL 2
REMARK VINA RESULT:     -11.1      2.432      7.229
REMARK SMILES O=C(NCCCCNC(=O)[C@H]1CC[C@@H](CNC(=O)[C@H]2CCSC2)CC1)c1ccc(-c2c3nc(c(-c4c(F)cccc4F)c4ccc([nH]4)c(-c4c(F)cccc4F)c4nc(c(-c5c(F)cccc5F)c5ccc2[nH]5)C=C4)C=C3)cc1
REMARK SMILES IDX 6 1 5 2 4 3 3 4 1 5 2 6 26 8 27 9 79 10 28 11 78 12 29 13
REMARK SMILES IDX 30 14 31 15 72 16 32 17 77 18 71 19 73 20 33 21 76 22 70 23
REMARK SMILES IDX 69 24 34 26 60 27 43 28 59 29 44 30 47 31 58 32 74 33 45 34
REMARK SMILES IDX 46 35 57 37 75 38 48 39 35 40 36 41 41 42 37 43 38 44 40 45
REMARK SMILES IDX 42 46 39 47 61 48 62 49 67 50 63 51 64 52 66 53 68 54 65 55
REMARK SMILES IDX 49 56 50 57 55 58 51 59 52 60 54 61 56 62 53 63 7 64 8 65
REMARK SMILES IDX 9 66 10 68 11 69 25 70 12 71 24 72 13 73 14 74 15 75 16 76
REMARK SMILES IDX 17 77 18 79 19 80 20 81 23 82 21 83 22 84
REMARK H PARENT 3 7 73 25 47 36 8 67 16 78
REMARK Flexibility Score: inf
ROOT
ATOM      1  C   UNL A   1      31.767  30.508  26.613  1.00  0.00     0.023 C 
ENDROOT
BRANCH   1   2
ATOM      2  C   UNL A   1      31.552  32.025  26.664  1.00  0.00     0.023 C 
BRANCH   2   3
ATOM      3  C   UNL A   1      32.689  32.807  27.306  1.00  0.00     0.116 C 
BRANCH   3   4
ATOM      4  N   UNL A   1      32.341  34.181  27.635  1.00  0.00    -0.352 N 
ATOM      5  O   UNL A   1      32.509  36.124  28.784  1.00  0.00    -0.269 OA
ATOM      6  C   UNL A   1      32.964  35.018  28.536  1.00  0.00     0.251 C 
ATOM      7  H   UNL A   1      31.568  34.560  27.156  1.00  0.00     0.163 HD
BRANCH   6   8
ATOM      8  C   UNL A   1      34.172  34.528  29.232  1.00  0.00     0.039 A 
ATOM      9  C   UNL A   1      35.429  34.693  28.650  1.00  0.00     0.014 A 
ATOM     10  C   UNL A   1      34.036  33.846  30.445  1.00  0.00     0.014 A 
ATOM     11  C   UNL A   1      36.524  34.041  29.196  1.00  0.00     0.010 A 
ATOM     12  C   UNL A   1      35.159  33.265  31.041  1.00  0.00     0.010 A 
ATOM     13  C   UNL A   1      36.405  33.328  30.401  1.00  0.00    -0.014 A 
BRANCH  13  14
ATOM     14  C   UNL A   1      37.624  32.710  30.980  1.00  0.00     0.031 A 
ATOM     15  C   UNL A   1      38.186  33.162  32.297  1.00  0.00     0.074 A 
ATOM     16  C   UNL A   1      38.175  31.667  30.328  1.00  0.00     0.049 A 
ATOM     17  N   UNL A   1      39.193  32.667  32.973  1.00  0.00    -0.248 NA
ATOM     18  C   UNL A   1      37.546  34.320  32.940  1.00  0.00     0.031 C 
ATOM     19  C   UNL A   1      37.725  31.154  29.032  1.00  0.00     0.029 A 
ATOM     20  N   UNL A   1      39.200  30.828  30.679  1.00  0.00    -0.354 N 
ATOM     21  C   UNL A   1      39.317  33.458  34.109  1.00  0.00     0.074 A 
ATOM     22  C   UNL A   1      38.298  34.481  34.022  1.00  0.00     0.031 C 
ATOM     23  C   UNL A   1      38.422  30.052  28.728  1.00  0.00     0.029 A 
ATOM     24  C   UNL A   1      39.407  29.814  29.776  1.00  0.00     0.049 A 
ATOM     25  H   UNL A   1      39.736  30.941  31.497  1.00  0.00     0.167 HD
ATOM     26  C   UNL A   1      40.197  33.333  35.133  1.00  0.00     0.037 A 
ATOM     27  C   UNL A   1      40.294  28.804  29.786  1.00  0.00     0.037 A 
ATOM     28  C   UNL A   1      41.202  32.304  35.219  1.00  0.00     0.049 A 
ATOM     29  C   UNL A   1      41.242  28.681  30.941  1.00  0.00     0.074 A 
ATOM     30  C   UNL A   1      42.141  32.094  36.216  1.00  0.00     0.029 A 
ATOM     31  N   UNL A   1      41.396  31.307  34.275  1.00  0.00    -0.354 N 
ATOM     32  N   UNL A   1      41.341  29.435  32.008  1.00  0.00    -0.248 NA
ATOM     33  C   UNL A   1      42.201  27.571  30.891  1.00  0.00     0.031 C 
ATOM     34  C   UNL A   1      42.920  30.987  35.860  1.00  0.00     0.029 A 
ATOM     35  C   UNL A   1      42.443  30.485  34.660  1.00  0.00     0.049 A 
ATOM     36  H   UNL A   1      40.868  31.199  33.451  1.00  0.00     0.167 HD
ATOM     37  C   UNL A   1      42.378  28.896  32.756  1.00  0.00     0.074 A 
ATOM     38  C   UNL A   1      42.848  27.728  32.038  1.00  0.00     0.031 C 
ATOM     39  C   UNL A   1      42.903  29.336  33.925  1.00  0.00     0.037 A 
BRANCH  26  40
ATOM     40  C   UNL A   1      40.121  34.339  36.244  1.00  0.00     0.057 A 
ATOM     41  C   UNL A   1      39.319  34.131  37.372  1.00  0.00     0.134 A 
ATOM     42  C   UNL A   1      40.904  35.501  36.212  1.00  0.00     0.134 A 
ATOM     43  F   UNL A   1      38.536  33.045  37.459  1.00  0.00    -0.206 F 
ATOM     44  C   UNL A   1      39.290  35.047  38.427  1.00  0.00     0.040 A 
ATOM     45  C   UNL A   1      40.898  36.414  37.269  1.00  0.00     0.040 A 
ATOM     46  F   UNL A   1      41.698  35.759  35.163  1.00  0.00    -0.206 F 
ATOM     47  C   UNL A   1      40.087  36.189  38.379  1.00  0.00     0.006 A 
ENDBRANCH  26  40
BRANCH  27  48
ATOM     48  C   UNL A   1      40.323  27.840  28.660  1.00  0.00     0.057 A 
ATOM     49  C   UNL A   1      41.060  28.098  27.499  1.00  0.00     0.134 A 
ATOM     50  C   UNL A   1      39.630  26.626  28.729  1.00  0.00     0.134 A 
ATOM     51  F   UNL A   1      41.734  29.251  27.370  1.00  0.00    -0.206 F 
ATOM     52  C   UNL A   1      41.099  27.188  26.443  1.00  0.00     0.040 A 
ATOM     53  C   UNL A   1      39.681  25.694  27.693  1.00  0.00     0.040 A 
ATOM     54  F   UNL A   1      38.914  26.317  29.821  1.00  0.00    -0.206 F 
ATOM     55  C   UNL A   1      40.414  25.978  26.542  1.00  0.00     0.006 A 
ENDBRANCH  27  48
BRANCH  39  56
ATOM     56  C   UNL A   1      44.046  28.544  34.485  1.00  0.00     0.057 A 
ATOM     57  C   UNL A   1      45.376  28.899  34.229  1.00  0.00     0.134 A 
ATOM     58  C   UNL A   1      43.814  27.418  35.284  1.00  0.00     0.134 A 
ATOM     59  F   UNL A   1      45.661  29.959  33.457  1.00  0.00    -0.206 F 
ATOM     60  C   UNL A   1      46.439  28.142  34.724  1.00  0.00     0.040 A 
ATOM     61  C   UNL A   1      44.869  26.667  35.803  1.00  0.00     0.040 A 
ATOM     62  F   UNL A   1      42.562  27.031  35.568  1.00  0.00    -0.206 F 
ATOM     63  C   UNL A   1      46.185  27.024  35.516  1.00  0.00     0.006 A 
ENDBRANCH  39  56
ENDBRANCH  13  14
ENDBRANCH   6   8
ENDBRANCH   3   4
ENDBRANCH   2   3
ENDBRANCH   1   2
BRANCH   1  64
ATOM     64  C   UNL A   1      33.238  30.081  26.591  1.00  0.00     0.116 C 
BRANCH  64  65
ATOM     65  N   UNL A   1      33.641  29.698  25.254  1.00  0.00    -0.356 N 
ATOM     66  C   UNL A   1      33.120  28.805  24.374  1.00  0.00     0.223 C 
ATOM     67  H   UNL A   1      34.437  30.172  24.923  1.00  0.00     0.163 HD
ATOM     68  O   UNL A   1      33.782  28.592  23.353  1.00  0.00    -0.275 OA
BRANCH  66  69
ATOM     69  C   UNL A   1      31.738  28.167  24.525  1.00  0.00     0.078 C 
ATOM     70  C   UNL A   1      30.920  27.924  23.252  1.00  0.00     0.014 C 
ATOM     71  C   UNL A   1      31.853  26.931  25.427  1.00  0.00     0.014 C 
ATOM     72  C   UNL A   1      29.597  27.206  23.528  1.00  0.00     0.006 C 
ATOM     73  C   UNL A   1      30.493  26.282  25.672  1.00  0.00     0.006 C 
ATOM     74  C   UNL A   1      29.773  25.925  24.364  1.00  0.00     0.008 C 
BRANCH  74  75
ATOM     75  C   UNL A   1      30.494  24.822  23.562  1.00  0.00     0.119 C 
BRANCH  75  76
ATOM     76  N   UNL A   1      30.618  23.585  24.314  1.00  0.00    -0.356 N 
ATOM     77  C   UNL A   1      31.735  22.936  24.753  1.00  0.00     0.223 C 
ATOM     78  H   UNL A   1      29.766  23.148  24.541  1.00  0.00     0.163 HD
ATOM     79  O   UNL A   1      31.591  21.888  25.379  1.00  0.00    -0.275 OA
BRANCH  77  80
ATOM     80  C   UNL A   1      33.094  23.541  24.465  1.00  0.00     0.089 C 
ATOM     81  C   UNL A   1      33.915  23.713  25.743  1.00  0.00     0.025 C 
ATOM     82  C   UNL A   1      33.935  22.636  23.570  1.00  0.00     0.083 C 
ATOM     83  C   UNL A   1      35.299  24.162  25.307  1.00  0.00     0.070 C 
ATOM     84  S   UNL A   1      35.638  23.237  23.786  1.00  0.00    -0.161 SA
ENDBRANCH  77  80
ENDBRANCH  75  76
ENDBRANCH  74  75
ENDBRANCH  66  69
ENDBRANCH  64  65
ENDBRANCH   1  64
TORSDOF 14
ENDMDL
MODEL 3
REMARK VINA RESULT:     -11.1      6.137     10.798
REMARK SMILES O=C(NCCCCNC(=O)[C@H]1CC[C@@H](CNC(=O)[C@H]2CCSC2)CC1)c1ccc(-c2c3nc(c(-c4c(F)cccc4F)c4ccc([nH]4)c(-c4c(F)cccc4F)c4nc(c(-c5c(F)cccc5F)c5ccc2[nH]5)C=C4)C=C3)cc1
REMARK SMILES IDX 6 1 5 2 4 3 3 4 1 5 2 6 26 8 27 9 79 10 28 11 78 12 29 13
REMARK SMILES IDX 30 14 31 15 72 16 32 17 77 18 71 19 73 20 33 21 76 22 70 23
REMARK SMILES IDX 69 24 34 26 60 27 43 28 59 29 44 30 47 31 58 32 74 33 45 34
REMARK SMILES IDX 46 35 57 37 75 38 48 39 35 40 36 41 41 42 37 43 38 44 40 45
REMARK SMILES IDX 42 46 39 47 61 48 62 49 67 50 63 51 64 52 66 53 68 54 65 55
REMARK SMILES IDX 49 56 50 57 55 58 51 59 52 60 54 61 56 62 53 63 7 64 8 65
REMARK SMILES IDX 9 66 10 68 11 69 25 70 12 71 24 72 13 73 14 74 15 75 16 76
REMARK SMILES IDX 17 77 18 79 19 80 20 81 23 82 21 83 22 84
REMARK H PARENT 3 7 73 25 47 36 8 67 16 78
REMARK Flexibility Score: inf
ROOT
ATOM      1  C   UNL A   1      36.909  20.896  25.083  1.00  0.00     0.023 C 
ENDROOT
BRANCH   1   2
ATOM      2  C   UNL A   1      38.000  19.824  24.988  1.00  0.00     0.023 C 
BRANCH   2   3
ATOM      3  C   UNL A   1      39.267  20.135  25.771  1.00  0.00     0.116 C 
BRANCH   3   4
ATOM      4  N   UNL A   1      40.227  19.042  25.790  1.00  0.00    -0.352 N 
ATOM      5  O   UNL A   1      42.286  18.118  25.967  1.00  0.00    -0.269 OA
ATOM      6  C   UNL A   1      41.574  19.104  26.080  1.00  0.00     0.251 C 
ATOM      7  H   UNL A   1      39.873  18.149  25.570  1.00  0.00     0.163 HD
BRANCH   6   8
ATOM      8  C   UNL A   1      42.147  20.405  26.485  1.00  0.00     0.039 A 
ATOM      9  C   UNL A   1      42.206  20.751  27.835  1.00  0.00     0.014 A 
ATOM     10  C   UNL A   1      42.568  21.305  25.502  1.00  0.00     0.014 A 
ATOM     11  C   UNL A   1      42.536  22.050  28.192  1.00  0.00     0.010 A 
ATOM     12  C   UNL A   1      42.987  22.587  25.872  1.00  0.00     0.010 A 
ATOM     13  C   UNL A   1      42.939  22.980  27.218  1.00  0.00    -0.014 A 
BRANCH  13  14
ATOM     14  C   UNL A   1      43.351  24.334  27.662  1.00  0.00     0.031 A 
ATOM     15  C   UNL A   1      44.783  24.782  27.597  1.00  0.00     0.074 A 
ATOM     16  C   UNL A   1      42.388  25.193  28.052  1.00  0.00     0.049 A 
ATOM     17  N   UNL A   1      45.288  25.960  27.870  1.00  0.00    -0.248 NA
ATOM     18  C   UNL A   1      45.781  23.785  27.182  1.00  0.00     0.031 C 
ATOM     19  C   UNL A   1      40.966  24.860  28.172  1.00  0.00     0.029 A 
ATOM     20  N   UNL A   1      42.447  26.521  28.381  1.00  0.00    -0.354 N 
ATOM     21  C   UNL A   1      46.659  25.843  27.673  1.00  0.00     0.074 A 
ATOM     22  C   UNL A   1      46.912  24.473  27.282  1.00  0.00     0.031 C 
ATOM     23  C   UNL A   1      40.280  25.969  28.480  1.00  0.00     0.029 A 
ATOM     24  C   UNL A   1      41.217  27.074  28.638  1.00  0.00     0.049 A 
ATOM     25  H   UNL A   1      43.289  27.030  28.428  1.00  0.00     0.167 HD
ATOM     26  C   UNL A   1      47.614  26.796  27.802  1.00  0.00     0.037 A 
ATOM     27  C   UNL A   1      40.878  28.332  28.970  1.00  0.00     0.037 A 
ATOM     28  C   UNL A   1      47.354  28.161  28.182  1.00  0.00     0.049 A 
ATOM     29  C   UNL A   1      41.954  29.368  29.086  1.00  0.00     0.074 A 
ATOM     30  C   UNL A   1      48.254  29.202  28.339  1.00  0.00     0.029 A 
ATOM     31  N   UNL A   1      46.096  28.680  28.456  1.00  0.00    -0.354 N 
ATOM     32  N   UNL A   1      43.244  29.241  28.892  1.00  0.00    -0.248 NA
ATOM     33  C   UNL A   1      41.529  30.720  29.468  1.00  0.00     0.031 C 
ATOM     34  C   UNL A   1      47.545  30.342  28.736  1.00  0.00     0.029 A 
ATOM     35  C   UNL A   1      46.199  30.021  28.790  1.00  0.00     0.049 A 
ATOM     36  H   UNL A   1      45.255  28.169  28.419  1.00  0.00     0.167 HD
ATOM     37  C   UNL A   1      43.788  30.493  29.136  1.00  0.00     0.074 A 
ATOM     38  C   UNL A   1      42.682  31.376  29.452  1.00  0.00     0.031 C 
ATOM     39  C   UNL A   1      45.087  30.877  29.114  1.00  0.00     0.037 A 
BRANCH  26  40
ATOM     40  C   UNL A   1      49.037  26.397  27.539  1.00  0.00     0.057 A 
ATOM     41  C   UNL A   1      49.603  26.489  26.262  1.00  0.00     0.134 A 
ATOM     42  C   UNL A   1      49.866  25.972  28.585  1.00  0.00     0.134 A 
ATOM     43  F   UNL A   1      48.860  26.877  25.215  1.00  0.00    -0.206 F 
ATOM     44  C   UNL A   1      50.942  26.163  26.031  1.00  0.00     0.040 A 
ATOM     45  C   UNL A   1      51.211  25.663  28.371  1.00  0.00     0.040 A 
ATOM     46  F   UNL A   1      49.388  25.866  29.834  1.00  0.00    -0.206 F 
ATOM     47  C   UNL A   1      51.752  25.756  27.090  1.00  0.00     0.006 A 
ENDBRANCH  26  40
BRANCH  27  48
ATOM     48  C   UNL A   1      39.455  28.667  29.219  1.00  0.00     0.057 A 
ATOM     49  C   UNL A   1      38.879  28.506  30.484  1.00  0.00     0.134 A 
ATOM     50  C   UNL A   1      38.644  29.181  28.200  1.00  0.00     0.134 A 
ATOM     51  F   UNL A   1      39.603  28.006  31.496  1.00  0.00    -0.206 F 
ATOM     52  C   UNL A   1      37.544  28.832  30.724  1.00  0.00     0.040 A 
ATOM     53  C   UNL A   1      37.315  29.536  28.432  1.00  0.00     0.040 A 
ATOM     54  F   UNL A   1      39.142  29.368  26.969  1.00  0.00    -0.206 F 
ATOM     55  C   UNL A   1      36.761  29.357  29.697  1.00  0.00     0.006 A 
ENDBRANCH  27  48
BRANCH  39  56
ATOM     56  C   UNL A   1      45.368  32.311  29.445  1.00  0.00     0.057 A 
ATOM     57  C   UNL A   1      45.375  33.302  28.454  1.00  0.00     0.134 A 
ATOM     58  C   UNL A   1      45.634  32.704  30.761  1.00  0.00     0.134 A 
ATOM     59  F   UNL A   1      45.142  32.984  27.172  1.00  0.00    -0.206 F 
ATOM     60  C   UNL A   1      45.668  34.632  28.759  1.00  0.00     0.040 A 
ATOM     61  C   UNL A   1      45.907  34.034  31.081  1.00  0.00     0.040 A 
ATOM     62  F   UNL A   1      45.637  31.802  31.754  1.00  0.00    -0.206 F 
ATOM     63  C   UNL A   1      45.933  35.001  30.077  1.00  0.00     0.006 A 
ENDBRANCH  39  56
ENDBRANCH  13  14
ENDBRANCH   6   8
ENDBRANCH   3   4
ENDBRANCH   2   3
ENDBRANCH   1   2
BRANCH   1  64
ATOM     64  C   UNL A   1      37.379  22.307  24.716  1.00  0.00     0.116 C 
BRANCH  64  65
ATOM     65  N   UNL A   1      36.526  22.885  23.701  1.00  0.00    -0.356 N 
ATOM     66  C   UNL A   1      35.175  22.958  23.589  1.00  0.00     0.223 C 
ATOM     67  H   UNL A   1      37.014  23.303  22.955  1.00  0.00     0.163 HD
ATOM     68  O   UNL A   1      34.735  23.391  22.519  1.00  0.00    -0.275 OA
BRANCH  66  69
ATOM     69  C   UNL A   1      34.208  22.655  24.735  1.00  0.00     0.078 C 
ATOM     70  C   UNL A   1      34.080  23.694  25.856  1.00  0.00     0.014 C 
ATOM     71  C   UNL A   1      32.860  22.214  24.151  1.00  0.00     0.014 C 
ATOM     72  C   UNL A   1      33.022  23.315  26.895  1.00  0.00     0.006 C 
ATOM     73  C   UNL A   1      31.866  21.833  25.245  1.00  0.00     0.006 C 
ATOM     74  C   UNL A   1      31.662  22.962  26.265  1.00  0.00     0.008 C 
BRANCH  74  75
ATOM     75  C   UNL A   1      30.981  24.206  25.658  1.00  0.00     0.119 C 
BRANCH  75  76
ATOM     76  N   UNL A   1      30.911  25.311  26.599  1.00  0.00    -0.356 N 
ATOM     77  C   UNL A   1      31.274  26.617  26.443  1.00  0.00     0.223 C 
ATOM     78  H   UNL A   1      30.547  25.082  27.484  1.00  0.00     0.163 HD
ATOM     79  O   UNL A   1      31.120  27.381  27.394  1.00  0.00    -0.275 OA
BRANCH  77  80
ATOM     80  C   UNL A   1      31.831  27.069  25.109  1.00  0.00     0.089 C 
ATOM     81  C   UNL A   1      31.215  28.394  24.662  1.00  0.00     0.025 C 
ATOM     82  C   UNL A   1      33.332  27.333  25.186  1.00  0.00     0.083 C 
ATOM     83  C   UNL A   1      31.969  28.818  23.414  1.00  0.00     0.070 C 
ATOM     84  S   UNL A   1      33.692  28.346  23.719  1.00  0.00    -0.161 SA
ENDBRANCH  77  80
ENDBRANCH  75  76
ENDBRANCH  74  75
ENDBRANCH  66  69
ENDBRANCH  64  65
ENDBRANCH   1  64
TORSDOF 14
ENDMDL
