MODEL 1
REMARK VINA RESULT:     -12.1      0.000      0.000
REMARK SMILES O=C(C[NH+]1CCN(c2ncc(C(F)(F)F)cc2Cl)CC1)NCCCCNC(=O)c1ccc(-c2c3nc(c(-c4c(F)cccc4F)c4ccc([nH]4)c(-c4c(F)cccc4F)c4nc(c(-c5c(F)cccc5F)c5ccc2[nH]5)C=C4)C=C3)cc1
REMARK SMILES IDX 23 1 22 2 21 3 1 4 2 5 3 7 4 8 5 9 20 10 6 12 19 13 7 14
REMARK SMILES IDX 8 15 9 16 17 17 10 18 16 19 18 20 11 21 12 22 13 23 14 24
REMARK SMILES IDX 15 25 24 26 25 27 26 28 27 29 28 31 29 32 30 33 82 34 31 35
REMARK SMILES IDX 81 36 32 37 33 38 34 39 75 40 35 41 80 42 74 43 76 44 36 45
REMARK SMILES IDX 79 46 73 47 72 48 37 50 63 51 46 52 62 53 47 54 50 55 61 56
REMARK SMILES IDX 77 57 48 58 49 59 60 61 78 62 51 63 38 64 39 65 44 66 40 67
REMARK SMILES IDX 41 68 43 69 45 70 42 71 64 72 65 73 70 74 66 75 67 76 69 77
REMARK SMILES IDX 71 78 68 79 52 80 53 81 58 82 54 83 55 84 57 85 59 86 56 87
REMARK H PARENT 21 6 4 11 26 30 76 49 50 60
REMARK Flexibility Score: inf
ROOT
ATOM      1  C   UNL A   1      31.487  30.652  25.756  1.00  0.00     0.023 C 
ENDROOT
BRANCH   1   2
ATOM      2  C   UNL A   1      32.333  29.617  26.498  1.00  0.00     0.116 C 
BRANCH   2   3
ATOM      3  N   UNL A   1      31.829  28.268  26.365  1.00  0.00    -0.351 N 
ATOM      4  O   UNL A   1      33.645  27.486  25.189  1.00  0.00    -0.269 OA
ATOM      5  C   UNL A   1      32.579  27.271  25.757  1.00  0.00     0.275 C 
ATOM      6  H   UNL A   1      30.934  28.052  26.714  1.00  0.00     0.163 HD
BRANCH   5   7
ATOM      7  C   UNL A   1      31.989  25.867  25.920  1.00  0.00     0.363 C 
BRANCH   7   8
ATOM      8  N   UNL A   1      32.905  24.776  25.568  1.00  0.00    -0.324 N 
ATOM      9  C   UNL A   1      33.376  23.918  26.679  1.00  0.00     0.284 C 
ATOM     10  C   UNL A   1      32.658  24.025  24.330  1.00  0.00     0.284 C 
ATOM     11  H   UNL A   1      33.703  25.360  25.320  1.00  0.00     0.348 HD
ATOM     12  C   UNL A   1      32.804  22.467  26.797  1.00  0.00     0.179 C 
ATOM     13  C   UNL A   1      31.908  22.692  24.534  1.00  0.00     0.179 C 
ATOM     14  N   UNL A   1      32.687  21.884  25.462  1.00  0.00    -0.344 N 
BRANCH  14  15
ATOM     15  C   UNL A   1      33.107  20.611  25.169  1.00  0.00     0.147 A 
ATOM     16  N   UNL A   1      32.150  19.655  25.066  1.00  0.00    -0.237 NA
ATOM     17  C   UNL A   1      34.460  20.265  24.973  1.00  0.00     0.084 A 
ATOM     18  C   UNL A   1      32.510  18.394  24.707  1.00  0.00     0.126 A 
ATOM     19  C   UNL A   1      34.805  18.957  24.628  1.00  0.00     0.039 A 
ATOM     20  Cl  UNL A   1      35.794  21.342  25.214  1.00  0.00    -0.080 Cl
ATOM     21  C   UNL A   1      33.814  17.994  24.473  1.00  0.00     0.075 A 
BRANCH  21  22
ATOM     22  C   UNL A   1      34.131  16.592  24.061  1.00  0.00     0.417 C 
ATOM     23  F   UNL A   1      33.096  15.734  24.267  1.00  0.00    -0.166 F 
ATOM     24  F   UNL A   1      34.446  16.496  22.742  1.00  0.00    -0.166 F 
ATOM     25  F   UNL A   1      35.192  16.062  24.734  1.00  0.00    -0.166 F 
ENDBRANCH  21  22
ENDBRANCH  14  15
ENDBRANCH   7   8
ENDBRANCH   5   7
ENDBRANCH   2   3
ENDBRANCH   1   2
BRANCH   1  26
ATOM     26  C   UNL A   1      31.258  31.977  26.495  1.00  0.00     0.023 C 
BRANCH  26  27
ATOM     27  C   UNL A   1      32.479  32.563  27.202  1.00  0.00     0.116 C 
BRANCH  27  28
ATOM     28  N   UNL A   1      32.299  33.959  27.572  1.00  0.00    -0.352 N 
ATOM     29  C   UNL A   1      32.960  34.726  28.500  1.00  0.00     0.251 C 
ATOM     30  H   UNL A   1      31.590  34.430  27.077  1.00  0.00     0.163 HD
ATOM     31  O   UNL A   1      32.535  35.852  28.767  1.00  0.00    -0.269 OA
BRANCH  29  32
ATOM     32  C   UNL A   1      34.159  34.219  29.207  1.00  0.00     0.039 A 
ATOM     33  C   UNL A   1      33.993  33.586  30.444  1.00  0.00     0.014 A 
ATOM     34  C   UNL A   1      35.444  34.390  28.685  1.00  0.00     0.014 A 
ATOM     35  C   UNL A   1      35.102  33.062  31.116  1.00  0.00     0.010 A 
ATOM     36  C   UNL A   1      36.540  33.803  29.321  1.00  0.00     0.010 A 
ATOM     37  C   UNL A   1      36.381  33.129  30.542  1.00  0.00    -0.014 A 
BRANCH  37  38
ATOM     38  C   UNL A   1      37.554  32.487  31.194  1.00  0.00     0.031 A 
ATOM     39  C   UNL A   1      38.239  31.309  30.555  1.00  0.00     0.074 A 
ATOM     40  C   UNL A   1      37.968  32.925  32.400  1.00  0.00     0.049 A 
ATOM     41  N   UNL A   1      39.226  30.578  31.009  1.00  0.00    -0.248 NA
ATOM     42  C   UNL A   1      37.731  30.883  29.242  1.00  0.00     0.031 C 
ATOM     43  C   UNL A   1      37.370  34.030  33.150  1.00  0.00     0.029 A 
ATOM     44  N   UNL A   1      38.984  32.485  33.213  1.00  0.00    -0.354 N 
ATOM     45  C   UNL A   1      39.450  29.602  30.046  1.00  0.00     0.074 A 
ATOM     46  C   UNL A   1      38.461  29.802  29.008  1.00  0.00     0.031 C 
ATOM     47  C   UNL A   1      38.038  34.194  34.303  1.00  0.00     0.029 A 
ATOM     48  C   UNL A   1      39.085  33.181  34.395  1.00  0.00     0.049 A 
ATOM     49  H   UNL A   1      39.584  31.742  32.973  1.00  0.00     0.167 HD
ATOM     50  C   UNL A   1      40.407  28.643  30.016  1.00  0.00     0.037 A 
ATOM     51  C   UNL A   1      39.915  33.014  35.443  1.00  0.00     0.037 A 
ATOM     52  C   UNL A   1      41.399  28.452  31.042  1.00  0.00     0.049 A 
ATOM     53  C   UNL A   1      40.952  31.926  35.397  1.00  0.00     0.074 A 
ATOM     54  C   UNL A   1      42.438  27.537  31.077  1.00  0.00     0.029 A 
ATOM     55  N   UNL A   1      41.473  29.184  32.218  1.00  0.00    -0.354 N 
ATOM     56  N   UNL A   1      41.192  31.051  34.450  1.00  0.00    -0.248 NA
ATOM     57  C   UNL A   1      41.838  31.804  36.564  1.00  0.00     0.031 C 
ATOM     58  C   UNL A   1      43.109  27.681  32.296  1.00  0.00     0.029 A 
ATOM     59  C   UNL A   1      42.524  28.724  32.997  1.00  0.00     0.049 A 
ATOM     60  H   UNL A   1      40.868  29.920  32.464  1.00  0.00     0.167 HD
ATOM     61  C   UNL A   1      42.273  30.298  34.893  1.00  0.00     0.074 A 
ATOM     62  C   UNL A   1      42.650  30.829  36.186  1.00  0.00     0.031 C 
ATOM     63  C   UNL A   1      42.896  29.262  34.280  1.00  0.00     0.037 A 
BRANCH  50  64
ATOM     64  C   UNL A   1      40.425  27.719  28.830  1.00  0.00     0.057 A 
ATOM     65  C   UNL A   1      41.209  27.985  27.698  1.00  0.00     0.134 A 
ATOM     66  C   UNL A   1      39.682  26.533  28.834  1.00  0.00     0.134 A 
ATOM     67  F   UNL A   1      41.939  29.109  27.625  1.00  0.00    -0.206 F 
ATOM     68  C   UNL A   1      41.228  27.121  26.602  1.00  0.00     0.040 A 
ATOM     69  C   UNL A   1      39.716  25.646  27.755  1.00  0.00     0.040 A 
ATOM     70  F   UNL A   1      38.917  26.210  29.887  1.00  0.00    -0.206 F 
ATOM     71  C   UNL A   1      40.485  25.943  26.632  1.00  0.00     0.006 A 
ENDBRANCH  50  64
BRANCH  51  72
ATOM     72  C   UNL A   1      39.810  33.909  36.624  1.00  0.00     0.057 A 
ATOM     73  C   UNL A   1      39.015  33.564  37.724  1.00  0.00     0.134 A 
ATOM     74  C   UNL A   1      40.491  35.130  36.679  1.00  0.00     0.134 A 
ATOM     75  F   UNL A   1      38.322  32.417  37.723  1.00  0.00    -0.206 F 
ATOM     76  C   UNL A   1      38.883  34.412  38.825  1.00  0.00     0.040 A 
ATOM     77  C   UNL A   1      40.391  35.975  37.786  1.00  0.00     0.040 A 
ATOM     78  F   UNL A   1      41.277  35.515  35.662  1.00  0.00    -0.206 F 
ATOM     79  C   UNL A   1      39.578  35.619  38.860  1.00  0.00     0.006 A 
ENDBRANCH  51  72
BRANCH  63  80
ATOM     80  C   UNL A   1      44.077  28.654  34.983  1.00  0.00     0.057 A 
ATOM     81  C   UNL A   1      43.943  27.570  35.859  1.00  0.00     0.134 A 
ATOM     82  C   UNL A   1      45.370  29.140  34.750  1.00  0.00     0.134 A 
ATOM     83  F   UNL A   1      42.731  27.064  36.136  1.00  0.00    -0.206 F 
ATOM     84  C   UNL A   1      45.050  27.006  36.497  1.00  0.00     0.040 A 
ATOM     85  C   UNL A   1      46.487  28.567  35.359  1.00  0.00     0.040 A 
ATOM     86  F   UNL A   1      45.572  30.172  33.916  1.00  0.00    -0.206 F 
ATOM     87  C   UNL A   1      46.327  27.499  36.241  1.00  0.00     0.006 A 
ENDBRANCH  63  80
ENDBRANCH  37  38
ENDBRANCH  29  32
ENDBRANCH  27  28
ENDBRANCH  26  27
ENDBRANCH   1  26
TORSDOF 14
ENDMDL
MODEL 2
REMARK VINA RESULT:     -12.1      5.470     10.020
REMARK SMILES O=C(C[NH+]1CCN(c2ncc(C(F)(F)F)cc2Cl)CC1)NCCCCNC(=O)c1ccc(-c2c3nc(c(-c4c(F)cccc4F)c4ccc([nH]4)c(-c4c(F)cccc4F)c4nc(c(-c5c(F)cccc5F)c5ccc2[nH]5)C=C4)C=C3)cc1
REMARK SMILES IDX 23 1 22 2 21 3 1 4 2 5 3 7 4 8 5 9 20 10 6 12 19 13 7 14
REMARK SMILES IDX 8 15 9 16 17 17 10 18 16 19 18 20 11 21 12 22 13 23 14 24
REMARK SMILES IDX 15 25 24 26 25 27 26 28 27 29 28 31 29 32 30 33 82 34 31 35
REMARK SMILES IDX 81 36 32 37 33 38 34 39 75 40 35 41 80 42 74 43 76 44 36 45
REMARK SMILES IDX 79 46 73 47 72 48 37 50 63 51 46 52 62 53 47 54 50 55 61 56
REMARK SMILES IDX 77 57 48 58 49 59 60 61 78 62 51 63 38 64 39 65 44 66 40 67
REMARK SMILES IDX 41 68 43 69 45 70 42 71 64 72 65 73 70 74 66 75 67 76 69 77
REMARK SMILES IDX 71 78 68 79 52 80 53 81 58 82 54 83 55 84 57 85 59 86 56 87
REMARK H PARENT 21 6 4 11 26 30 76 49 50 60
REMARK Flexibility Score: inf
ROOT
ATOM      1  C   UNL A   1      36.394  20.393  25.000  1.00  0.00     0.023 C 
ENDROOT
BRANCH   1   2
ATOM      2  C   UNL A   1      36.322  21.812  24.436  1.00  0.00     0.116 C 
BRANCH   2   3
ATOM      3  N   UNL A   1      35.003  22.398  24.534  1.00  0.00    -0.351 N 
ATOM      4  O   UNL A   1      35.036  23.327  22.430  1.00  0.00    -0.269 OA
ATOM      5  C   UNL A   1      34.430  23.075  23.467  1.00  0.00     0.275 C 
ATOM      6  H   UNL A   1      34.501  22.316  25.377  1.00  0.00     0.163 HD
BRANCH   5   7
ATOM      7  C   UNL A   1      32.951  23.415  23.672  1.00  0.00     0.363 C 
BRANCH   7   8
ATOM      8  N   UNL A   1      32.696  24.798  24.092  1.00  0.00    -0.324 N 
ATOM      9  C   UNL A   1      33.286  25.868  23.255  1.00  0.00     0.284 C 
ATOM     10  C   UNL A   1      31.361  25.141  24.601  1.00  0.00     0.284 C 
ATOM     11  H   UNL A   1      33.260  24.775  24.941  1.00  0.00     0.348 HD
ATOM     12  C   UNL A   1      32.338  26.707  22.337  1.00  0.00     0.179 C 
ATOM     13  C   UNL A   1      30.429  25.789  23.556  1.00  0.00     0.179 C 
ATOM     14  N   UNL A   1      31.093  26.982  23.052  1.00  0.00    -0.344 N 
BRANCH  14  15
ATOM     15  C   UNL A   1      30.511  28.225  23.076  1.00  0.00     0.147 A 
ATOM     16  N   UNL A   1      29.762  28.575  22.001  1.00  0.00    -0.237 NA
ATOM     17  C   UNL A   1      30.655  29.129  24.149  1.00  0.00     0.084 A 
ATOM     18  C   UNL A   1      29.108  29.767  22.010  1.00  0.00     0.126 A 
ATOM     19  C   UNL A   1      29.991  30.357  24.123  1.00  0.00     0.039 A 
ATOM     20  Cl  UNL A   1      31.692  28.878  25.513  1.00  0.00    -0.080 Cl
ATOM     21  C   UNL A   1      29.183  30.688  23.041  1.00  0.00     0.075 A 
BRANCH  21  22
ATOM     22  C   UNL A   1      28.417  31.971  22.989  1.00  0.00     0.417 C 
ATOM     23  F   UNL A   1      28.032  32.306  21.728  1.00  0.00    -0.166 F 
ATOM     24  F   UNL A   1      27.280  31.928  23.734  1.00  0.00    -0.166 F 
ATOM     25  F   UNL A   1      29.125  33.038  23.457  1.00  0.00    -0.166 F 
ENDBRANCH  21  22
ENDBRANCH  14  15
ENDBRANCH   7   8
ENDBRANCH   5   7
ENDBRANCH   2   3
ENDBRANCH   1   2
BRANCH   1  26
ATOM     26  C   UNL A   1      37.747  19.686  24.849  1.00  0.00     0.023 C 
BRANCH  26  27
ATOM     27  C   UNL A   1      38.869  20.197  25.750  1.00  0.00     0.116 C 
BRANCH  27  28
ATOM     28  N   UNL A   1      40.013  19.298  25.793  1.00  0.00    -0.352 N 
ATOM     29  C   UNL A   1      41.331  19.548  26.083  1.00  0.00     0.251 C 
ATOM     30  H   UNL A   1      39.807  18.359  25.579  1.00  0.00     0.163 HD
ATOM     31  O   UNL A   1      42.169  18.662  25.901  1.00  0.00    -0.269 OA
BRANCH  29  32
ATOM     32  C   UNL A   1      41.774  20.869  26.586  1.00  0.00     0.039 A 
ATOM     33  C   UNL A   1      42.246  21.814  25.668  1.00  0.00     0.014 A 
ATOM     34  C   UNL A   1      41.761  21.176  27.949  1.00  0.00     0.014 A 
ATOM     35  C   UNL A   1      42.634  23.084  26.108  1.00  0.00     0.010 A 
ATOM     36  C   UNL A   1      42.079  22.466  28.377  1.00  0.00     0.010 A 
ATOM     37  C   UNL A   1      42.515  23.437  27.461  1.00  0.00    -0.014 A 
BRANCH  37  38
ATOM     38  C   UNL A   1      42.824  24.815  27.930  1.00  0.00     0.031 A 
ATOM     39  C   UNL A   1      44.240  25.220  28.241  1.00  0.00     0.074 A 
ATOM     40  C   UNL A   1      41.819  25.689  28.138  1.00  0.00     0.049 A 
ATOM     41  N   UNL A   1      44.690  26.349  28.728  1.00  0.00    -0.248 NA
ATOM     42  C   UNL A   1      45.284  24.213  27.995  1.00  0.00     0.031 C 
ATOM     43  C   UNL A   1      40.399  25.414  27.917  1.00  0.00     0.029 A 
ATOM     44  N   UNL A   1      41.839  26.984  28.595  1.00  0.00    -0.354 N 
ATOM     45  C   UNL A   1      46.064  26.187  28.854  1.00  0.00     0.074 A 
ATOM     46  C   UNL A   1      46.366  24.832  28.445  1.00  0.00     0.031 C 
ATOM     47  C   UNL A   1      39.685  26.510  28.220  1.00  0.00     0.029 A 
ATOM     48  C   UNL A   1      40.590  27.551  28.698  1.00  0.00     0.049 A 
ATOM     49  H   UNL A   1      42.667  27.462  28.828  1.00  0.00     0.167 HD
ATOM     50  C   UNL A   1      46.993  27.090  29.252  1.00  0.00     0.037 A 
ATOM     51  C   UNL A   1      40.212  28.766  29.140  1.00  0.00     0.037 A 
ATOM     52  C   UNL A   1      46.694  28.442  29.648  1.00  0.00     0.049 A 
ATOM     53  C   UNL A   1      41.259  29.742  29.601  1.00  0.00     0.074 A 
ATOM     54  C   UNL A   1      47.573  29.445  30.021  1.00  0.00     0.029 A 
ATOM     55  N   UNL A   1      45.419  28.981  29.728  1.00  0.00    -0.354 N 
ATOM     56  N   UNL A   1      42.561  29.595  29.654  1.00  0.00    -0.248 NA
ATOM     57  C   UNL A   1      40.785  31.057  30.057  1.00  0.00     0.031 C 
ATOM     58  C   UNL A   1      46.826  30.574  30.376  1.00  0.00     0.029 A 
ATOM     59  C   UNL A   1      45.485  30.293  30.169  1.00  0.00     0.049 A 
ATOM     60  H   UNL A   1      44.588  28.501  29.505  1.00  0.00     0.167 HD
ATOM     61  C   UNL A   1      43.062  30.805  30.120  1.00  0.00     0.074 A 
ATOM     62  C   UNL A   1      41.925  31.679  30.319  1.00  0.00     0.031 C 
ATOM     63  C   UNL A   1      44.349  31.158  30.359  1.00  0.00     0.037 A 
BRANCH  50  64
ATOM     64  C   UNL A   1      48.428  26.642  29.282  1.00  0.00     0.057 A 
ATOM     65  C   UNL A   1      49.291  26.856  28.198  1.00  0.00     0.134 A 
ATOM     66  C   UNL A   1      48.962  26.025  30.419  1.00  0.00     0.134 A 
ATOM     67  F   UNL A   1      48.841  27.434  27.074  1.00  0.00    -0.206 F 
ATOM     68  C   UNL A   1      50.625  26.444  28.234  1.00  0.00     0.040 A 
ATOM     69  C   UNL A   1      50.302  25.636  30.477  1.00  0.00     0.040 A 
ATOM     70  F   UNL A   1      48.196  25.797  31.496  1.00  0.00    -0.206 F 
ATOM     71  C   UNL A   1      51.136  25.838  29.379  1.00  0.00     0.006 A 
ENDBRANCH  50  64
BRANCH  51  72
ATOM     72  C   UNL A   1      38.773  29.136  29.158  1.00  0.00     0.057 A 
ATOM     73  C   UNL A   1      38.017  29.042  30.332  1.00  0.00     0.134 A 
ATOM     74  C   UNL A   1      38.118  29.582  28.004  1.00  0.00     0.134 A 
ATOM     75  F   UNL A   1      38.582  28.602  31.465  1.00  0.00    -0.206 F 
ATOM     76  C   UNL A   1      36.657  29.355  30.353  1.00  0.00     0.040 A 
ATOM     77  C   UNL A   1      36.766  29.927  28.017  1.00  0.00     0.040 A 
ATOM     78  F   UNL A   1      38.789  29.704  26.849  1.00  0.00    -0.206 F 
ATOM     79  C   UNL A   1      36.029  29.806  29.194  1.00  0.00     0.006 A 
ENDBRANCH  51  72
BRANCH  63  80
ATOM     80  C   UNL A   1      44.603  32.563  30.827  1.00  0.00     0.057 A 
ATOM     81  C   UNL A   1      44.696  32.887  32.187  1.00  0.00     0.134 A 
ATOM     82  C   UNL A   1      44.793  33.598  29.903  1.00  0.00     0.134 A 
ATOM     83  F   UNL A   1      44.511  31.946  33.125  1.00  0.00    -0.206 F 
ATOM     84  C   UNL A   1      44.945  34.195  32.610  1.00  0.00     0.040 A 
ATOM     85  C   UNL A   1      45.071  34.902  30.312  1.00  0.00     0.040 A 
ATOM     86  F   UNL A   1      44.725  33.355  28.584  1.00  0.00    -0.206 F 
ATOM     87  C   UNL A   1      45.141  35.205  31.670  1.00  0.00     0.006 A 
ENDBRANCH  63  80
ENDBRANCH  37  38
ENDBRANCH  29  32
ENDBRANCH  27  28
ENDBRANCH  26  27
ENDBRANCH   1  26
TORSDOF 14
ENDMDL
MODEL 3
REMARK VINA RESULT:     -12.1      0.780      6.301
REMARK SMILES O=C(C[NH+]1CCN(c2ncc(C(F)(F)F)cc2Cl)CC1)NCCCCNC(=O)c1ccc(-c2c3nc(c(-c4c(F)cccc4F)c4ccc([nH]4)c(-c4c(F)cccc4F)c4nc(c(-c5c(F)cccc5F)c5ccc2[nH]5)C=C4)C=C3)cc1
REMARK SMILES IDX 23 1 22 2 21 3 1 4 2 5 3 7 4 8 5 9 20 10 6 12 19 13 7 14
REMARK SMILES IDX 8 15 9 16 17 17 10 18 16 19 18 20 11 21 12 22 13 23 14 24
REMARK SMILES IDX 15 25 24 26 25 27 26 28 27 29 28 31 29 32 30 33 82 34 31 35
REMARK SMILES IDX 81 36 32 37 33 38 34 39 75 40 35 41 80 42 74 43 76 44 36 45
REMARK SMILES IDX 79 46 73 47 72 48 37 50 63 51 46 52 62 53 47 54 50 55 61 56
REMARK SMILES IDX 77 57 48 58 49 59 60 61 78 62 51 63 38 64 39 65 44 66 40 67
REMARK SMILES IDX 41 68 43 69 45 70 42 71 64 72 65 73 70 74 66 75 67 76 69 77
REMARK SMILES IDX 71 78 68 79 52 80 53 81 58 82 54 83 55 84 57 85 59 86 56 87
REMARK H PARENT 21 6 4 11 26 30 76 49 50 60
REMARK Flexibility Score: inf
ROOT
ATOM      1  C   UNL A   1      31.339  30.663  25.593  1.00  0.00     0.023 C 
ENDROOT
BRANCH   1   2
ATOM      2  C   UNL A   1      32.461  29.674  25.910  1.00  0.00     0.116 C 
BRANCH   2   3
ATOM      3  N   UNL A   1      31.995  28.312  26.058  1.00  0.00    -0.351 N 
ATOM      4  O   UNL A   1      33.480  27.424  24.542  1.00  0.00    -0.269 OA
ATOM      5  C   UNL A   1      32.605  27.262  25.387  1.00  0.00     0.275 C 
ATOM      6  H   UNL A   1      31.229  28.127  26.647  1.00  0.00     0.163 HD
BRANCH   5   7
ATOM      7  C   UNL A   1      32.135  25.879  25.846  1.00  0.00     0.363 C 
BRANCH   7   8
ATOM      8  N   UNL A   1      32.998  24.769  25.424  1.00  0.00    -0.324 N 
ATOM      9  C   UNL A   1      33.597  23.946  26.499  1.00  0.00     0.284 C 
ATOM     10  C   UNL A   1      32.600  23.978  24.252  1.00  0.00     0.284 C 
ATOM     11  H   UNL A   1      33.762  25.339  25.061  1.00  0.00     0.348 HD
ATOM     12  C   UNL A   1      33.039  22.505  26.736  1.00  0.00     0.179 C 
ATOM     13  C   UNL A   1      31.876  22.659  24.592  1.00  0.00     0.179 C 
ATOM     14  N   UNL A   1      32.760  21.878  25.446  1.00  0.00    -0.344 N 
BRANCH  14  15
ATOM     15  C   UNL A   1      33.137  20.593  25.148  1.00  0.00     0.147 A 
ATOM     16  N   UNL A   1      32.150  19.665  25.063  1.00  0.00    -0.237 NA
ATOM     17  C   UNL A   1      34.476  20.206  24.932  1.00  0.00     0.084 A 
ATOM     18  C   UNL A   1      32.467  18.393  24.701  1.00  0.00     0.126 A 
ATOM     19  C   UNL A   1      34.776  18.887  24.584  1.00  0.00     0.039 A 
ATOM     20  Cl  UNL A   1      35.844  21.243  25.150  1.00  0.00    -0.080 Cl
ATOM     21  C   UNL A   1      33.755  17.954  24.447  1.00  0.00     0.075 A 
BRANCH  21  22
ATOM     22  C   UNL A   1      34.023  16.543  24.032  1.00  0.00     0.417 C 
ATOM     23  F   UNL A   1      32.973  15.713  24.273  1.00  0.00    -0.166 F 
ATOM     24  F   UNL A   1      34.296  16.433  22.705  1.00  0.00    -0.166 F 
ATOM     25  F   UNL A   1      35.090  15.989  24.677  1.00  0.00    -0.166 F 
ENDBRANCH  21  22
ENDBRANCH  14  15
ENDBRANCH   7   8
ENDBRANCH   5   7
ENDBRANCH   2   3
ENDBRANCH   1   2
BRANCH   1  26
ATOM     26  C   UNL A   1      31.246  31.882  26.520  1.00  0.00     0.023 C 
BRANCH  26  27
ATOM     27  C   UNL A   1      32.577  32.444  27.017  1.00  0.00     0.116 C 
BRANCH  27  28
ATOM     28  N   UNL A   1      32.466  33.812  27.500  1.00  0.00    -0.352 N 
ATOM     29  C   UNL A   1      33.169  34.470  28.480  1.00  0.00     0.251 C 
ATOM     30  H   UNL A   1      31.777  34.353  27.051  1.00  0.00     0.163 HD
ATOM     31  O   UNL A   1      32.799  35.589  28.840  1.00  0.00    -0.269 OA
BRANCH  29  32
ATOM     32  C   UNL A   1      34.346  33.851  29.132  1.00  0.00     0.039 A 
ATOM     33  C   UNL A   1      34.137  32.914  30.150  1.00  0.00     0.014 A 
ATOM     34  C   UNL A   1      35.650  34.207  28.778  1.00  0.00     0.014 A 
ATOM     35  C   UNL A   1      35.228  32.285  30.757  1.00  0.00     0.010 A 
ATOM     36  C   UNL A   1      36.735  33.526  29.333  1.00  0.00     0.010 A 
ATOM     37  C   UNL A   1      36.536  32.554  30.326  1.00  0.00    -0.014 A 
BRANCH  37  38
ATOM     38  C   UNL A   1      37.701  31.818  30.889  1.00  0.00     0.031 A 
ATOM     39  C   UNL A   1      38.254  32.176  32.242  1.00  0.00     0.074 A 
ATOM     40  C   UNL A   1      38.306  30.865  30.152  1.00  0.00     0.049 A 
ATOM     41  N   UNL A   1      39.303  31.696  32.862  1.00  0.00    -0.248 NA
ATOM     42  C   UNL A   1      37.546  33.228  32.988  1.00  0.00     0.031 C 
ATOM     43  C   UNL A   1      37.900  30.448  28.810  1.00  0.00     0.029 A 
ATOM     44  N   UNL A   1      39.401  30.082  30.425  1.00  0.00    -0.354 N 
ATOM     45  C   UNL A   1      39.387  32.392  34.061  1.00  0.00     0.074 A 
ATOM     46  C   UNL A   1      38.315  33.364  34.058  1.00  0.00     0.031 C 
ATOM     47  C   UNL A   1      38.720  29.475  28.382  1.00  0.00     0.029 A 
ATOM     48  C   UNL A   1      39.736  29.228  29.400  1.00  0.00     0.049 A 
ATOM     49  H   UNL A   1      39.899  30.127  31.273  1.00  0.00     0.167 HD
ATOM     50  C   UNL A   1      40.262  32.222  35.082  1.00  0.00     0.037 A 
ATOM     51  C   UNL A   1      40.755  28.354  29.286  1.00  0.00     0.037 A 
ATOM     52  C   UNL A   1      41.322  31.246  35.090  1.00  0.00     0.049 A 
ATOM     53  C   UNL A   1      41.728  28.201  30.422  1.00  0.00     0.074 A 
ATOM     54  C   UNL A   1      42.228  30.967  36.099  1.00  0.00     0.029 A 
ATOM     55  N   UNL A   1      41.621  30.393  34.038  1.00  0.00    -0.354 N 
ATOM     56  N   UNL A   1      41.757  28.822  31.576  1.00  0.00    -0.248 NA
ATOM     57  C   UNL A   1      42.809  27.221  30.242  1.00  0.00     0.031 C 
ATOM     58  C   UNL A   1      43.108  29.982  35.638  1.00  0.00     0.029 A 
ATOM     59  C   UNL A   1      42.715  29.606  34.364  1.00  0.00     0.049 A 
ATOM     60  H   UNL A   1      41.131  30.354  33.186  1.00  0.00     0.167 HD
ATOM     61  C   UNL A   1      42.836  28.288  32.270  1.00  0.00     0.074 A 
ATOM     62  C   UNL A   1      43.427  27.282  31.413  1.00  0.00     0.031 C 
ATOM     63  C   UNL A   1      43.293  28.603  33.506  1.00  0.00     0.037 A 
BRANCH  50  64
ATOM     64  C   UNL A   1      40.112  33.117  36.280  1.00  0.00     0.057 A 
ATOM     65  C   UNL A   1      39.219  32.816  37.319  1.00  0.00     0.134 A 
ATOM     66  C   UNL A   1      40.893  34.271  36.416  1.00  0.00     0.134 A 
ATOM     67  F   UNL A   1      38.434  31.730  37.249  1.00  0.00    -0.206 F 
ATOM     68  C   UNL A   1      39.088  33.647  38.434  1.00  0.00     0.040 A 
ATOM     69  C   UNL A   1      40.792  35.093  37.541  1.00  0.00     0.040 A 
ATOM     70  F   UNL A   1      41.773  34.614  35.465  1.00  0.00    -0.206 F 
ATOM     71  C   UNL A   1      39.881  34.786  38.550  1.00  0.00     0.006 A 
ENDBRANCH  50  64
BRANCH  51  72
ATOM     72  C   UNL A   1      40.903  27.542  28.050  1.00  0.00     0.057 A 
ATOM     73  C   UNL A   1      41.681  27.993  26.977  1.00  0.00     0.134 A 
ATOM     74  C   UNL A   1      40.263  26.305  27.906  1.00  0.00     0.134 A 
ATOM     75  F   UNL A   1      42.302  29.179  27.046  1.00  0.00    -0.206 F 
ATOM     76  C   UNL A   1      41.800  27.255  25.799  1.00  0.00     0.040 A 
ATOM     77  C   UNL A   1      40.397  25.543  26.745  1.00  0.00     0.040 A 
ATOM     78  F   UNL A   1      39.510  25.812  28.901  1.00  0.00    -0.206 F 
ATOM     79  C   UNL A   1      41.161  26.022  25.683  1.00  0.00     0.006 A 
ENDBRANCH  51  72
BRANCH  63  80
ATOM     80  C   UNL A   1      44.469  27.825  34.026  1.00  0.00     0.057 A 
ATOM     81  C   UNL A   1      45.786  28.274  33.863  1.00  0.00     0.134 A 
ATOM     82  C   UNL A   1      44.277  26.630  34.729  1.00  0.00     0.134 A 
ATOM     83  F   UNL A   1      46.042  29.405  33.187  1.00  0.00    -0.206 F 
ATOM     84  C   UNL A   1      46.871  27.549  34.360  1.00  0.00     0.040 A 
ATOM     85  C   UNL A   1      45.351  25.911  35.257  1.00  0.00     0.040 A 
ATOM     86  F   UNL A   1      43.041  26.147  34.929  1.00  0.00    -0.206 F 
ATOM     87  C   UNL A   1      46.653  26.368  35.067  1.00  0.00     0.006 A 
ENDBRANCH  63  80
ENDBRANCH  37  38
ENDBRANCH  29  32
ENDBRANCH  27  28
ENDBRANCH  26  27
ENDBRANCH   1  26
TORSDOF 14
ENDMDL
