MODEL 1
REMARK VINA RESULT:     -11.9      0.000      0.000
REMARK SMILES Cc1nc2cc(S(=O)(=O)N3CCC(C(=O)NCCCCNC(=O)c4ccc(-c5c6nc(c(-c7c(F)cccc7F)c7ccc([nH]7)c(-c7c(F)cccc7F)c7nc(c(-c8c(F)cccc8F)c8ccc5[nH]8)C=C7)C=C6)cc4)CC3)ccc2n1C1CCCC1
REMARK SMILES IDX 18 1 17 2 16 3 14 4 15 5 13 7 10 8 11 9 79 10 12 11 78 12
REMARK SMILES IDX 7 13 8 14 9 15 6 16 1 17 2 18 3 19 83 20 4 21 82 22 5 23
REMARK SMILES IDX 81 24 80 25 84 26 85 27 88 28 86 29 87 30 19 31 20 32 21 33
REMARK SMILES IDX 22 34 23 36 24 37 25 38 77 39 26 40 76 41 27 42 28 43 29 44
REMARK SMILES IDX 70 45 30 46 75 47 69 48 71 49 31 50 74 51 68 52 67 53 32 55
REMARK SMILES IDX 58 56 41 57 57 58 42 59 45 60 56 61 72 62 43 63 44 64 55 66
REMARK SMILES IDX 73 67 46 68 33 69 34 70 39 71 35 72 36 73 38 74 40 75 37 76
REMARK SMILES IDX 59 77 60 78 65 79 61 80 62 81 64 82 66 83 63 84 47 85 48 86
REMARK SMILES IDX 53 87 49 88 50 89 52 90 54 91 51 92
REMARK H PARENT 16 6 21 35 71 54 45 65
REMARK Flexibility Score: inf
ROOT
ATOM      1  C   UNL A   1      41.041  30.792  34.199  1.00  0.00     0.023 C 
ENDROOT
BRANCH   1   2
ATOM      2  C   UNL A   1      39.579  30.998  33.826  1.00  0.00     0.116 C 
BRANCH   2   3
ATOM      3  N   UNL A   1      38.846  29.740  33.796  1.00  0.00    -0.356 N 
ATOM      4  C   UNL A   1      37.906  29.301  32.910  1.00  0.00     0.223 C 
ATOM      5  O   UNL A   1      37.395  28.195  33.076  1.00  0.00    -0.275 OA
ATOM      6  H   UNL A   1      39.060  29.112  34.524  1.00  0.00     0.163 HD
BRANCH   4   7
ATOM      7  C   UNL A   1      37.519  30.173  31.729  1.00  0.00     0.081 C 
ATOM      8  N   UNL A   1      35.583  30.849  29.672  1.00  0.00    -0.198 NA
ATOM      9  C   UNL A   1      36.729  29.977  29.301  1.00  0.00     0.103 C 
ATOM     10  C   UNL A   1      35.606  31.654  30.920  1.00  0.00     0.103 C 
ATOM     11  C   UNL A   1      37.427  29.322  30.466  1.00  0.00     0.030 C 
ATOM     12  C   UNL A   1      36.279  30.984  32.089  1.00  0.00     0.030 C 
BRANCH   8  13
ATOM     13  S   UNL A   1      34.945  31.722  28.316  1.00  0.00     0.243 S 
ATOM     14  O   UNL A   1      36.083  32.203  27.541  1.00  0.00    -0.207 OA
ATOM     15  O   UNL A   1      33.925  32.609  28.806  1.00  0.00    -0.207 OA
BRANCH  13  16
ATOM     16  C   UNL A   1      34.136  30.480  27.322  1.00  0.00     0.085 A 
ATOM     17  C   UNL A   1      29.968  28.355  23.618  1.00  0.00     0.088 C 
ATOM     18  C   UNL A   1      31.069  28.714  24.545  1.00  0.00     0.106 A 
ATOM     19  N   UNL A   1      31.256  29.926  25.036  1.00  0.00    -0.233 NA
ATOM     20  N   UNL A   1      32.039  27.845  24.994  1.00  0.00    -0.325 N 
ATOM     21  C   UNL A   1      32.363  29.853  25.833  1.00  0.00     0.090 A 
ATOM     22  C   UNL A   1      32.866  28.557  25.831  1.00  0.00     0.068 A 
ATOM     23  C   UNL A   1      32.996  30.847  26.597  1.00  0.00     0.052 A 
ATOM     24  C   UNL A   1      33.981  28.178  26.563  1.00  0.00     0.030 A 
ATOM     25  C   UNL A   1      34.612  29.167  27.284  1.00  0.00     0.024 A 
BRANCH  20  26
ATOM     26  C   UNL A   1      32.188  26.431  24.697  1.00  0.00     0.089 C 
ATOM     27  C   UNL A   1      30.894  25.610  24.765  1.00  0.00     0.025 C 
ATOM     28  C   UNL A   1      32.733  26.151  23.290  1.00  0.00     0.025 C 
ATOM     29  C   UNL A   1      31.205  24.352  23.966  1.00  0.00     0.002 C 
ATOM     30  C   UNL A   1      32.277  24.737  22.949  1.00  0.00     0.002 C 
ENDBRANCH  20  26
ENDBRANCH  13  16
ENDBRANCH   8  13
ENDBRANCH   4   7
ENDBRANCH   2   3
ENDBRANCH   1   2
BRANCH   1  31
ATOM     31  C   UNL A   1      41.907  32.024  33.950  1.00  0.00     0.023 C 
BRANCH  31  32
ATOM     32  C   UNL A   1      41.107  33.231  33.474  1.00  0.00     0.116 C 
BRANCH  32  33
ATOM     33  N   UNL A   1      41.762  33.959  32.415  1.00  0.00    -0.352 N 
ATOM     34  C   UNL A   1      41.887  33.737  31.080  1.00  0.00     0.251 C 
ATOM     35  H   UNL A   1      42.208  34.782  32.720  1.00  0.00     0.163 HD
ATOM     36  O   UNL A   1      42.237  34.693  30.386  1.00  0.00    -0.269 OA
BRANCH  34  37
ATOM     37  C   UNL A   1      41.825  32.391  30.474  1.00  0.00     0.039 A 
ATOM     38  C   UNL A   1      40.706  31.581  30.312  1.00  0.00     0.014 A 
ATOM     39  C   UNL A   1      43.068  31.853  30.156  1.00  0.00     0.014 A 
ATOM     40  C   UNL A   1      40.889  30.195  30.297  1.00  0.00     0.010 A 
ATOM     41  C   UNL A   1      43.154  30.530  29.803  1.00  0.00     0.010 A 
ATOM     42  C   UNL A   1      42.186  29.655  30.234  1.00  0.00    -0.014 A 
BRANCH  42  43
ATOM     43  C   UNL A   1      42.460  28.217  30.037  1.00  0.00     0.031 A 
ATOM     44  C   UNL A   1      43.182  27.761  31.287  1.00  0.00     0.074 A 
ATOM     45  C   UNL A   1      42.079  27.461  28.944  1.00  0.00     0.049 A 
ATOM     46  N   UNL A   1      44.462  27.606  31.365  1.00  0.00    -0.248 NA
ATOM     47  C   UNL A   1      42.574  27.868  32.641  1.00  0.00     0.031 C 
ATOM     48  C   UNL A   1      41.344  27.813  27.700  1.00  0.00     0.029 A 
ATOM     49  N   UNL A   1      42.318  26.112  28.681  1.00  0.00    -0.354 N 
ATOM     50  C   UNL A   1      44.738  27.213  32.672  1.00  0.00     0.074 A 
ATOM     51  C   UNL A   1      43.613  27.623  33.450  1.00  0.00     0.031 C 
ATOM     52  C   UNL A   1      40.945  26.695  27.021  1.00  0.00     0.029 A 
ATOM     53  C   UNL A   1      41.497  25.517  27.664  1.00  0.00     0.049 A 
ATOM     54  H   UNL A   1      43.006  25.599  29.163  1.00  0.00     0.167 HD
ATOM     55  C   UNL A   1      45.709  26.280  32.874  1.00  0.00     0.037 A 
ATOM     56  C   UNL A   1      41.427  24.181  27.306  1.00  0.00     0.037 A 
ATOM     57  C   UNL A   1      46.523  26.202  31.681  1.00  0.00     0.049 A 
ATOM     58  C   UNL A   1      42.673  23.553  27.825  1.00  0.00     0.074 A 
ATOM     59  C   UNL A   1      47.357  27.076  31.015  1.00  0.00     0.029 A 
ATOM     60  N   UNL A   1      46.069  25.295  30.759  1.00  0.00    -0.354 N 
ATOM     61  N   UNL A   1      43.842  23.862  27.332  1.00  0.00    -0.248 NA
ATOM     62  C   UNL A   1      42.632  23.188  29.237  1.00  0.00     0.031 C 
ATOM     63  C   UNL A   1      47.056  26.895  29.632  1.00  0.00     0.029 A 
ATOM     64  C   UNL A   1      46.208  25.798  29.495  1.00  0.00     0.049 A 
ATOM     65  H   UNL A   1      45.696  24.410  30.973  1.00  0.00     0.167 HD
ATOM     66  C   UNL A   1      44.570  24.248  28.445  1.00  0.00     0.074 A 
ATOM     67  C   UNL A   1      43.760  23.814  29.599  1.00  0.00     0.031 C 
ATOM     68  C   UNL A   1      45.550  25.202  28.362  1.00  0.00     0.037 A 
BRANCH  55  69
ATOM     69  C   UNL A   1      45.578  25.083  33.796  1.00  0.00     0.057 A 
ATOM     70  C   UNL A   1      44.628  24.051  33.652  1.00  0.00     0.134 A 
ATOM     71  C   UNL A   1      46.672  24.771  34.625  1.00  0.00     0.134 A 
ATOM     72  F   UNL A   1      43.543  24.171  32.879  1.00  0.00    -0.206 F 
ATOM     73  C   UNL A   1      44.795  22.785  34.228  1.00  0.00     0.040 A 
ATOM     74  C   UNL A   1      46.873  23.495  35.164  1.00  0.00     0.040 A 
ATOM     75  F   UNL A   1      47.637  25.676  34.856  1.00  0.00    -0.206 F 
ATOM     76  C   UNL A   1      45.939  22.491  34.953  1.00  0.00     0.006 A 
ENDBRANCH  55  69
BRANCH  56  77
ATOM     77  C   UNL A   1      40.260  23.305  26.903  1.00  0.00     0.057 A 
ATOM     78  C   UNL A   1      40.535  22.028  26.396  1.00  0.00     0.134 A 
ATOM     79  C   UNL A   1      38.924  23.739  26.691  1.00  0.00     0.134 A 
ATOM     80  F   UNL A   1      41.783  21.545  26.441  1.00  0.00    -0.206 F 
ATOM     81  C   UNL A   1      39.582  21.232  25.738  1.00  0.00     0.040 A 
ATOM     82  C   UNL A   1      37.947  22.938  26.044  1.00  0.00     0.040 A 
ATOM     83  F   UNL A   1      38.531  24.971  27.050  1.00  0.00    -0.206 F 
ATOM     84  C   UNL A   1      38.281  21.680  25.557  1.00  0.00     0.006 A 
ENDBRANCH  56  77
BRANCH  68  85
ATOM     85  C   UNL A   1      45.950  25.702  27.000  1.00  0.00     0.057 A 
ATOM     86  C   UNL A   1      47.037  25.081  26.384  1.00  0.00     0.134 A 
ATOM     87  C   UNL A   1      45.415  26.822  26.340  1.00  0.00     0.134 A 
ATOM     88  F   UNL A   1      47.692  24.096  27.015  1.00  0.00    -0.206 F 
ATOM     89  C   UNL A   1      47.514  25.484  25.137  1.00  0.00     0.040 A 
ATOM     90  C   UNL A   1      45.855  27.213  25.068  1.00  0.00     0.040 A 
ATOM     91  F   UNL A   1      44.512  27.609  26.934  1.00  0.00    -0.206 F 
ATOM     92  C   UNL A   1      46.895  26.525  24.453  1.00  0.00     0.006 A 
ENDBRANCH  68  85
ENDBRANCH  42  43
ENDBRANCH  34  37
ENDBRANCH  32  33
ENDBRANCH  31  32
ENDBRANCH   1  31
TORSDOF 14
ENDMDL
MODEL 2
REMARK VINA RESULT:     -11.7      4.152      8.943
REMARK SMILES Cc1nc2cc(S(=O)(=O)N3CCC(C(=O)NCCCCNC(=O)c4ccc(-c5c6nc(c(-c7c(F)cccc7F)c7ccc([nH]7)c(-c7c(F)cccc7F)c7nc(c(-c8c(F)cccc8F)c8ccc5[nH]8)C=C7)C=C6)cc4)CC3)ccc2n1C1CCCC1
REMARK SMILES IDX 18 1 17 2 16 3 14 4 15 5 13 7 10 8 11 9 79 10 12 11 78 12
REMARK SMILES IDX 7 13 8 14 9 15 6 16 1 17 2 18 3 19 83 20 4 21 82 22 5 23
REMARK SMILES IDX 81 24 80 25 84 26 85 27 88 28 86 29 87 30 19 31 20 32 21 33
REMARK SMILES IDX 22 34 23 36 24 37 25 38 77 39 26 40 76 41 27 42 28 43 29 44
REMARK SMILES IDX 70 45 30 46 75 47 69 48 71 49 31 50 74 51 68 52 67 53 32 55
REMARK SMILES IDX 58 56 41 57 57 58 42 59 45 60 56 61 72 62 43 63 44 64 55 66
REMARK SMILES IDX 73 67 46 68 33 69 34 70 39 71 35 72 36 73 38 74 40 75 37 76
REMARK SMILES IDX 59 77 60 78 65 79 61 80 62 81 64 82 66 83 63 84 47 85 48 86
REMARK SMILES IDX 53 87 49 88 50 89 52 90 54 91 51 92
REMARK H PARENT 16 6 21 35 71 54 45 65
REMARK Flexibility Score: inf
ROOT
ATOM      1  C   UNL A   1      39.784  23.303  27.208  1.00  0.00     0.023 C 
ENDROOT
BRANCH   1   2
ATOM      2  C   UNL A   1      38.571  23.819  26.445  1.00  0.00     0.116 C 
BRANCH   2   3
ATOM      3  N   UNL A   1      38.290  23.011  25.267  1.00  0.00    -0.356 N 
ATOM      4  C   UNL A   1      37.094  22.703  24.688  1.00  0.00     0.223 C 
ATOM      5  O   UNL A   1      37.077  21.984  23.690  1.00  0.00    -0.275 OA
ATOM      6  H   UNL A   1      39.081  22.629  24.822  1.00  0.00     0.163 HD
BRANCH   4   7
ATOM      7  C   UNL A   1      35.808  23.263  25.270  1.00  0.00     0.081 C 
ATOM      8  N   UNL A   1      32.935  23.030  25.623  1.00  0.00    -0.198 NA
ATOM      9  C   UNL A   1      33.442  23.935  24.558  1.00  0.00     0.103 C 
ATOM     10  C   UNL A   1      33.827  22.551  26.710  1.00  0.00     0.103 C 
ATOM     11  C   UNL A   1      34.870  23.683  24.144  1.00  0.00     0.030 C 
ATOM     12  C   UNL A   1      35.245  22.274  26.285  1.00  0.00     0.030 C 
BRANCH   8  13
ATOM     13  S   UNL A   1      31.361  23.488  26.192  1.00  0.00     0.243 S 
ATOM     14  O   UNL A   1      31.417  23.495  27.648  1.00  0.00    -0.207 OA
ATOM     15  O   UNL A   1      30.391  22.713  25.467  1.00  0.00    -0.207 OA
BRANCH  13  16
ATOM     16  C   UNL A   1      31.175  25.186  25.677  1.00  0.00     0.085 A 
ATOM     17  C   UNL A   1      31.714  31.107  26.191  1.00  0.00     0.088 C 
ATOM     18  C   UNL A   1      31.489  29.668  25.910  1.00  0.00     0.106 A 
ATOM     19  N   UNL A   1      31.891  28.689  26.701  1.00  0.00    -0.233 NA
ATOM     20  N   UNL A   1      30.855  29.171  24.792  1.00  0.00    -0.325 N 
ATOM     21  C   UNL A   1      31.505  27.525  26.099  1.00  0.00     0.090 A 
ATOM     22  C   UNL A   1      30.846  27.800  24.907  1.00  0.00     0.068 A 
ATOM     23  C   UNL A   1      31.676  26.193  26.512  1.00  0.00     0.052 A 
ATOM     24  C   UNL A   1      30.327  26.813  24.084  1.00  0.00     0.030 A 
ATOM     25  C   UNL A   1      30.525  25.509  24.483  1.00  0.00     0.024 A 
BRANCH  20  26
ATOM     26  C   UNL A   1      30.264  29.909  23.690  1.00  0.00     0.089 C 
ATOM     27  C   UNL A   1      30.743  29.491  22.293  1.00  0.00     0.025 C 
ATOM     28  C   UNL A   1      28.737  29.786  23.613  1.00  0.00     0.025 C 
ATOM     29  C   UNL A   1      29.670  30.023  21.354  1.00  0.00     0.002 C 
ATOM     30  C   UNL A   1      28.376  30.083  22.162  1.00  0.00     0.002 C 
ENDBRANCH  20  26
ENDBRANCH  13  16
ENDBRANCH   8  13
ENDBRANCH   4   7
ENDBRANCH   2   3
ENDBRANCH   1   2
BRANCH   1  31
ATOM     31  C   UNL A   1      40.600  22.279  26.423  1.00  0.00     0.023 C 
BRANCH  31  32
ATOM     32  C   UNL A   1      42.097  22.368  26.700  1.00  0.00     0.116 C 
BRANCH  32  33
ATOM     33  N   UNL A   1      42.804  23.160  25.724  1.00  0.00    -0.352 N 
ATOM     34  C   UNL A   1      43.173  24.468  25.687  1.00  0.00     0.251 C 
ATOM     35  H   UNL A   1      43.073  22.652  24.925  1.00  0.00     0.163 HD
ATOM     36  O   UNL A   1      44.036  24.780  24.864  1.00  0.00    -0.269 OA
BRANCH  34  37
ATOM     37  C   UNL A   1      42.460  25.532  26.423  1.00  0.00     0.039 A 
ATOM     38  C   UNL A   1      41.440  26.354  25.956  1.00  0.00     0.014 A 
ATOM     39  C   UNL A   1      42.983  25.797  27.684  1.00  0.00     0.014 A 
ATOM     40  C   UNL A   1      41.307  27.627  26.517  1.00  0.00     0.010 A 
ATOM     41  C   UNL A   1      42.556  26.909  28.365  1.00  0.00     0.010 A 
ATOM     42  C   UNL A   1      42.047  27.975  27.662  1.00  0.00    -0.014 A 
BRANCH  42  43
ATOM     43  C   UNL A   1      41.838  29.226  28.418  1.00  0.00     0.031 A 
ATOM     44  C   UNL A   1      43.048  30.088  28.130  1.00  0.00     0.074 A 
ATOM     45  C   UNL A   1      40.728  29.535  29.183  1.00  0.00     0.049 A 
ATOM     46  N   UNL A   1      44.051  30.216  28.936  1.00  0.00    -0.248 NA
ATOM     47  C   UNL A   1      43.414  30.513  26.752  1.00  0.00     0.031 C 
ATOM     48  C   UNL A   1      39.489  28.772  29.489  1.00  0.00     0.029 A 
ATOM     49  N   UNL A   1      40.471  30.680  29.936  1.00  0.00    -0.354 N 
ATOM     50  C   UNL A   1      44.965  31.056  28.306  1.00  0.00     0.074 A 
ATOM     51  C   UNL A   1      44.649  31.004  26.914  1.00  0.00     0.031 C 
ATOM     52  C   UNL A   1      38.539  29.572  30.061  1.00  0.00     0.029 A 
ATOM     53  C   UNL A   1      39.101  30.884  30.319  1.00  0.00     0.049 A 
ATOM     54  H   UNL A   1      41.183  31.311  30.190  1.00  0.00     0.167 HD
ATOM     55  C   UNL A   1      45.638  31.963  29.066  1.00  0.00     0.037 A 
ATOM     56  C   UNL A   1      38.551  31.993  30.939  1.00  0.00     0.037 A 
ATOM     57  C   UNL A   1      45.535  31.563  30.452  1.00  0.00     0.049 A 
ATOM     58  C   UNL A   1      39.692  32.725  31.556  1.00  0.00     0.074 A 
ATOM     59  C   UNL A   1      45.964  30.476  31.185  1.00  0.00     0.029 A 
ATOM     60  N   UNL A   1      44.440  32.078  31.097  1.00  0.00    -0.354 N 
ATOM     61  N   UNL A   1      40.363  32.213  32.553  1.00  0.00    -0.248 NA
ATOM     62  C   UNL A   1      40.431  33.589  30.641  1.00  0.00     0.031 C 
ATOM     63  C   UNL A   1      44.863  30.141  32.029  1.00  0.00     0.029 A 
ATOM     64  C   UNL A   1      43.895  31.138  31.926  1.00  0.00     0.049 A 
ATOM     65  H   UNL A   1      44.094  32.992  30.980  1.00  0.00     0.167 HD
ATOM     66  C   UNL A   1      41.675  32.243  32.107  1.00  0.00     0.074 A 
ATOM     67  C   UNL A   1      41.650  33.103  30.909  1.00  0.00     0.031 C 
ATOM     68  C   UNL A   1      42.582  31.293  32.494  1.00  0.00     0.037 A 
BRANCH  55  69
ATOM     69  C   UNL A   1      45.838  33.420  28.697  1.00  0.00     0.057 A 
ATOM     70  C   UNL A   1      47.084  34.024  28.432  1.00  0.00     0.134 A 
ATOM     71  C   UNL A   1      44.719  34.138  28.232  1.00  0.00     0.134 A 
ATOM     72  F   UNL A   1      48.247  33.463  28.781  1.00  0.00    -0.206 F 
ATOM     73  C   UNL A   1      47.207  35.209  27.697  1.00  0.00     0.040 A 
ATOM     74  C   UNL A   1      44.834  35.296  27.455  1.00  0.00     0.040 A 
ATOM     75  F   UNL A   1      43.475  33.677  28.438  1.00  0.00    -0.206 F 
ATOM     76  C   UNL A   1      46.084  35.828  27.171  1.00  0.00     0.006 A 
ENDBRANCH  55  69
BRANCH  56  77
ATOM     77  C   UNL A   1      37.224  32.697  30.754  1.00  0.00     0.057 A 
ATOM     78  C   UNL A   1      36.122  32.235  31.486  1.00  0.00     0.134 A 
ATOM     79  C   UNL A   1      36.888  33.581  29.694  1.00  0.00     0.134 A 
ATOM     80  F   UNL A   1      36.294  31.319  32.446  1.00  0.00    -0.206 F 
ATOM     81  C   UNL A   1      34.796  32.608  31.211  1.00  0.00     0.040 A 
ATOM     82  C   UNL A   1      35.554  33.979  29.417  1.00  0.00     0.040 A 
ATOM     83  F   UNL A   1      37.827  34.044  28.855  1.00  0.00    -0.206 F 
ATOM     84  C   UNL A   1      34.501  33.483  30.175  1.00  0.00     0.006 A 
ENDBRANCH  56  77
BRANCH  68  85
ATOM     85  C   UNL A   1      42.180  30.309  33.559  1.00  0.00     0.057 A 
ATOM     86  C   UNL A   1      42.441  30.657  34.885  1.00  0.00     0.134 A 
ATOM     87  C   UNL A   1      41.680  29.013  33.343  1.00  0.00     0.134 A 
ATOM     88  F   UNL A   1      43.048  31.820  35.165  1.00  0.00    -0.206 F 
ATOM     89  C   UNL A   1      42.140  29.809  35.949  1.00  0.00     0.040 A 
ATOM     90  C   UNL A   1      41.331  28.165  34.403  1.00  0.00     0.040 A 
ATOM     91  F   UNL A   1      41.586  28.505  32.109  1.00  0.00    -0.206 F 
ATOM     92  C   UNL A   1      41.542  28.575  35.715  1.00  0.00     0.006 A 
ENDBRANCH  68  85
ENDBRANCH  42  43
ENDBRANCH  34  37
ENDBRANCH  32  33
ENDBRANCH  31  32
ENDBRANCH   1  31
TORSDOF 14
ENDMDL
MODEL 3
REMARK VINA RESULT:     -11.5      4.217      8.999
REMARK SMILES Cc1nc2cc(S(=O)(=O)N3CCC(C(=O)NCCCCNC(=O)c4ccc(-c5c6nc(c(-c7c(F)cccc7F)c7ccc([nH]7)c(-c7c(F)cccc7F)c7nc(c(-c8c(F)cccc8F)c8ccc5[nH]8)C=C7)C=C6)cc4)CC3)ccc2n1C1CCCC1
REMARK SMILES IDX 18 1 17 2 16 3 14 4 15 5 13 7 10 8 11 9 79 10 12 11 78 12
REMARK SMILES IDX 7 13 8 14 9 15 6 16 1 17 2 18 3 19 83 20 4 21 82 22 5 23
REMARK SMILES IDX 81 24 80 25 84 26 85 27 88 28 86 29 87 30 19 31 20 32 21 33
REMARK SMILES IDX 22 34 23 36 24 37 25 38 77 39 26 40 76 41 27 42 28 43 29 44
REMARK SMILES IDX 70 45 30 46 75 47 69 48 71 49 31 50 74 51 68 52 67 53 32 55
REMARK SMILES IDX 58 56 41 57 57 58 42 59 45 60 56 61 72 62 43 63 44 64 55 66
REMARK SMILES IDX 73 67 46 68 33 69 34 70 39 71 35 72 36 73 38 74 40 75 37 76
REMARK SMILES IDX 59 77 60 78 65 79 61 80 62 81 64 82 66 83 63 84 47 85 48 86
REMARK SMILES IDX 53 87 49 88 50 89 52 90 54 91 51 92
REMARK H PARENT 16 6 21 35 71 54 45 65
REMARK Flexibility Score: inf
ROOT
ATOM      1  C   UNL A   1      40.118  22.932  27.304  1.00  0.00     0.023 C 
ENDROOT
BRANCH   1   2
ATOM      2  C   UNL A   1      38.820  22.971  26.507  1.00  0.00     0.116 C 
BRANCH   2   3
ATOM      3  N   UNL A   1      38.702  21.830  25.610  1.00  0.00    -0.356 N 
ATOM      4  C   UNL A   1      37.605  21.343  24.962  1.00  0.00     0.223 C 
ATOM      5  O   UNL A   1      37.722  20.346  24.250  1.00  0.00    -0.275 OA
ATOM      6  H   UNL A   1      39.538  21.335  25.448  1.00  0.00     0.163 HD
BRANCH   4   7
ATOM      7  C   UNL A   1      36.267  22.044  25.112  1.00  0.00     0.081 C 
ATOM      8  N   UNL A   1      33.427  22.127  24.509  1.00  0.00    -0.198 NA
ATOM      9  C   UNL A   1      34.345  22.965  23.693  1.00  0.00     0.103 C 
ATOM     10  C   UNL A   1      33.861  21.561  25.812  1.00  0.00     0.103 C 
ATOM     11  C   UNL A   1      35.796  22.556  23.756  1.00  0.00     0.030 C 
ATOM     12  C   UNL A   1      35.303  21.128  25.860  1.00  0.00     0.030 C 
BRANCH   8  13
ATOM     13  S   UNL A   1      31.812  22.758  24.551  1.00  0.00     0.243 S 
ATOM     14  O   UNL A   1      31.176  22.231  25.752  1.00  0.00    -0.207 OA
ATOM     15  O   UNL A   1      31.239  22.583  23.244  1.00  0.00    -0.207 OA
BRANCH  13  16
ATOM     16  C   UNL A   1      32.021  24.511  24.808  1.00  0.00     0.085 A 
ATOM     17  C   UNL A   1      30.621  30.287  24.260  1.00  0.00     0.088 C 
ATOM     18  C   UNL A   1      31.117  28.906  24.484  1.00  0.00     0.106 A 
ATOM     19  N   UNL A   1      30.506  27.821  24.045  1.00  0.00    -0.233 NA
ATOM     20  N   UNL A   1      32.257  28.581  25.187  1.00  0.00    -0.325 N 
ATOM     21  C   UNL A   1      31.262  26.760  24.457  1.00  0.00     0.090 A 
ATOM     22  C   UNL A   1      32.369  27.211  25.166  1.00  0.00     0.068 A 
ATOM     23  C   UNL A   1      31.072  25.382  24.258  1.00  0.00     0.052 A 
ATOM     24  C   UNL A   1      33.326  26.359  25.696  1.00  0.00     0.030 A 
ATOM     25  C   UNL A   1      33.115  25.009  25.521  1.00  0.00     0.024 A 
BRANCH  20  26
ATOM     26  C   UNL A   1      33.208  29.476  25.823  1.00  0.00     0.089 C 
ATOM     27  C   UNL A   1      32.646  30.309  26.982  1.00  0.00     0.025 C 
ATOM     28  C   UNL A   1      34.418  28.757  26.433  1.00  0.00     0.025 C 
ATOM     29  C   UNL A   1      33.879  30.753  27.757  1.00  0.00     0.002 C 
ATOM     30  C   UNL A   1      34.953  29.697  27.508  1.00  0.00     0.002 C 
ENDBRANCH  20  26
ENDBRANCH  13  16
ENDBRANCH   8  13
ENDBRANCH   4   7
ENDBRANCH   2   3
ENDBRANCH   1   2
BRANCH   1  31
ATOM     31  C   UNL A   1      40.994  21.727  26.971  1.00  0.00     0.023 C 
BRANCH  31  32
ATOM     32  C   UNL A   1      42.486  22.038  27.031  1.00  0.00     0.116 C 
BRANCH  32  33
ATOM     33  N   UNL A   1      42.948  22.802  25.898  1.00  0.00    -0.352 N 
ATOM     34  C   UNL A   1      43.117  24.135  25.689  1.00  0.00     0.251 C 
ATOM     35  H   UNL A   1      43.189  22.248  25.121  1.00  0.00     0.163 HD
ATOM     36  O   UNL A   1      43.820  24.463  24.731  1.00  0.00    -0.269 OA
BRANCH  34  37
ATOM     37  C   UNL A   1      42.352  25.171  26.411  1.00  0.00     0.039 A 
ATOM     38  C   UNL A   1      41.339  25.983  25.914  1.00  0.00     0.014 A 
ATOM     39  C   UNL A   1      42.814  25.422  27.699  1.00  0.00     0.014 A 
ATOM     40  C   UNL A   1      41.157  27.243  26.493  1.00  0.00     0.010 A 
ATOM     41  C   UNL A   1      42.336  26.513  28.381  1.00  0.00     0.010 A 
ATOM     42  C   UNL A   1      41.839  27.582  27.675  1.00  0.00    -0.014 A 
BRANCH  42  43
ATOM     43  C   UNL A   1      41.573  28.816  28.444  1.00  0.00     0.031 A 
ATOM     44  C   UNL A   1      42.720  29.752  28.129  1.00  0.00     0.074 A 
ATOM     45  C   UNL A   1      40.468  29.051  29.241  1.00  0.00     0.049 A 
ATOM     46  N   UNL A   1      43.734  29.939  28.908  1.00  0.00    -0.248 NA
ATOM     47  C   UNL A   1      43.020  30.205  26.744  1.00  0.00     0.031 C 
ATOM     48  C   UNL A   1      39.288  28.212  29.575  1.00  0.00     0.029 A 
ATOM     49  N   UNL A   1      40.160  30.175  30.007  1.00  0.00    -0.354 N 
ATOM     50  C   UNL A   1      44.577  30.837  28.258  1.00  0.00     0.074 A 
ATOM     51  C   UNL A   1      44.226  30.771  26.875  1.00  0.00     0.031 C 
ATOM     52  C   UNL A   1      38.305  28.948  30.178  1.00  0.00     0.029 A 
ATOM     53  C   UNL A   1      38.792  30.292  30.427  1.00  0.00     0.049 A 
ATOM     54  H   UNL A   1      40.839  30.848  30.245  1.00  0.00     0.167 HD
ATOM     55  C   UNL A   1      45.212  31.781  29.005  1.00  0.00     0.037 A 
ATOM     56  C   UNL A   1      38.191  31.362  31.069  1.00  0.00     0.037 A 
ATOM     57  C   UNL A   1      45.172  31.370  30.391  1.00  0.00     0.049 A 
ATOM     58  C   UNL A   1      39.300  32.161  31.659  1.00  0.00     0.074 A 
ATOM     59  C   UNL A   1      45.687  30.309  31.105  1.00  0.00     0.029 A 
ATOM     60  N   UNL A   1      44.065  31.813  31.068  1.00  0.00    -0.354 N 
ATOM     61  N   UNL A   1      40.029  31.688  32.634  1.00  0.00    -0.248 NA
ATOM     62  C   UNL A   1      39.959  33.073  30.729  1.00  0.00     0.031 C 
ATOM     63  C   UNL A   1      44.633  29.902  31.978  1.00  0.00     0.029 A 
ATOM     64  C   UNL A   1      43.603  30.837  31.906  1.00  0.00     0.049 A 
ATOM     65  H   UNL A   1      43.660  32.704  30.966  1.00  0.00     0.167 HD
ATOM     66  C   UNL A   1      41.324  31.802  32.153  1.00  0.00     0.074 A 
ATOM     67  C   UNL A   1      41.213  32.663  30.961  1.00  0.00     0.031 C 
ATOM     68  C   UNL A   1      42.298  30.908  32.510  1.00  0.00     0.037 A 
BRANCH  55  69
ATOM     69  C   UNL A   1      45.311  33.249  28.640  1.00  0.00     0.057 A 
ATOM     70  C   UNL A   1      44.214  34.126  28.509  1.00  0.00     0.134 A 
ATOM     71  C   UNL A   1      46.561  33.880  28.791  1.00  0.00     0.134 A 
ATOM     72  F   UNL A   1      42.955  33.693  28.385  1.00  0.00    -0.206 F 
ATOM     73  C   UNL A   1      44.345  35.517  28.599  1.00  0.00     0.040 A 
ATOM     74  C   UNL A   1      46.696  35.266  28.931  1.00  0.00     0.040 A 
ATOM     75  F   UNL A   1      47.685  33.155  28.907  1.00  0.00    -0.206 F 
ATOM     76  C   UNL A   1      45.582  36.090  28.851  1.00  0.00     0.006 A 
ENDBRANCH  55  69
BRANCH  56  77
ATOM     77  C   UNL A   1      36.818  31.982  30.923  1.00  0.00     0.057 A 
ATOM     78  C   UNL A   1      36.511  32.637  29.723  1.00  0.00     0.134 A 
ATOM     79  C   UNL A   1      35.903  32.244  31.978  1.00  0.00     0.134 A 
ATOM     80  F   UNL A   1      37.350  32.554  28.683  1.00  0.00    -0.206 F 
ATOM     81  C   UNL A   1      35.399  33.479  29.560  1.00  0.00     0.040 A 
ATOM     82  C   UNL A   1      34.765  33.078  31.822  1.00  0.00     0.040 A 
ATOM     83  F   UNL A   1      36.107  31.750  33.209  1.00  0.00    -0.206 F 
ATOM     84  C   UNL A   1      34.517  33.706  30.607  1.00  0.00     0.006 A 
ENDBRANCH  56  77
BRANCH  68  85
ATOM     85  C   UNL A   1      41.987  29.896  33.580  1.00  0.00     0.057 A 
ATOM     86  C   UNL A   1      42.260  30.256  34.900  1.00  0.00     0.134 A 
ATOM     87  C   UNL A   1      41.565  28.572  33.370  1.00  0.00     0.134 A 
ATOM     88  F   UNL A   1      42.800  31.453  35.171  1.00  0.00    -0.206 F 
ATOM     89  C   UNL A   1      42.042  29.386  35.968  1.00  0.00     0.040 A 
ATOM     90  C   UNL A   1      41.299  27.700  34.434  1.00  0.00     0.040 A 
ATOM     91  F   UNL A   1      41.471  28.064  32.136  1.00  0.00    -0.206 F 
ATOM     92  C   UNL A   1      41.517  28.117  35.742  1.00  0.00     0.006 A 
ENDBRANCH  68  85
ENDBRANCH  42  43
ENDBRANCH  34  37
ENDBRANCH  32  33
ENDBRANCH  31  32
ENDBRANCH   1  31
TORSDOF 14
ENDMDL
