MODEL 1
REMARK VINA RESULT:     -12.2      0.000      0.000
REMARK SMILES O=C(NCCCCNC(=O)c1cc(-c2cccc(Cl)c2)ccc1Cl)c1ccc(-c2c3nc(c(-c4c(F)cccc4F)c4ccc([nH]4)c(-c4c(F)cccc4F)c4nc(c(-c5c(F)cccc5F)c5ccc2[nH]5)C=C4)C=C3)cc1
REMARK SMILES IDX 5 1 4 2 3 3 1 4 2 5 25 7 26 8 78 9 27 10 77 11 28 12 29 13
REMARK SMILES IDX 30 14 71 15 31 16 76 17 70 18 72 19 32 20 75 21 69 22 68 23
REMARK SMILES IDX 33 25 59 26 42 27 58 28 43 29 46 30 57 31 73 32 44 33 45 34
REMARK SMILES IDX 56 36 74 37 47 38 34 39 35 40 40 41 36 42 37 43 39 44 41 45
REMARK SMILES IDX 38 46 60 47 61 48 66 49 62 50 63 51 65 52 67 53 64 54 48 55
REMARK SMILES IDX 49 56 54 57 50 58 51 59 53 60 55 61 52 62 6 63 7 64 8 65
REMARK SMILES IDX 9 66 10 68 11 69 12 70 23 71 13 72 22 73 24 74 21 75 14 76
REMARK SMILES IDX 15 77 20 78 16 79 18 80 17 81 19 82
REMARK H PARENT 3 6 72 24 46 35 8 67
REMARK Flexibility Score: inf
ROOT
ATOM      1  C   UNL A   1      33.325  28.550  27.246  1.00  0.00     0.023 C 
ENDROOT
BRANCH   1   2
ATOM      2  C   UNL A   1      34.614  29.365  27.251  1.00  0.00     0.116 C 
BRANCH   2   3
ATOM      3  N   UNL A   1      34.712  30.284  28.376  1.00  0.00    -0.352 N 
ATOM      4  O   UNL A   1      35.618  31.263  30.197  1.00  0.00    -0.269 OA
ATOM      5  C   UNL A   1      35.765  30.523  29.229  1.00  0.00     0.251 C 
ATOM      6  H   UNL A   1      33.903  30.816  28.554  1.00  0.00     0.163 HD
BRANCH   5   7
ATOM      7  C   UNL A   1      37.065  29.852  29.008  1.00  0.00     0.039 A 
ATOM      8  C   UNL A   1      37.717  29.194  30.052  1.00  0.00     0.014 A 
ATOM      9  C   UNL A   1      37.652  29.905  27.740  1.00  0.00     0.014 A 
ATOM     10  C   UNL A   1      39.028  28.764  29.880  1.00  0.00     0.010 A 
ATOM     11  C   UNL A   1      38.935  29.387  27.545  1.00  0.00     0.010 A 
ATOM     12  C   UNL A   1      39.657  28.863  28.628  1.00  0.00    -0.014 A 
BRANCH  12  13
ATOM     13  C   UNL A   1      41.066  28.411  28.489  1.00  0.00     0.031 A 
ATOM     14  C   UNL A   1      41.395  26.995  28.095  1.00  0.00     0.074 A 
ATOM     15  C   UNL A   1      42.058  29.308  28.658  1.00  0.00     0.049 A 
ATOM     16  N   UNL A   1      42.566  26.457  27.860  1.00  0.00    -0.248 NA
ATOM     17  C   UNL A   1      40.269  26.060  27.955  1.00  0.00     0.031 C 
ATOM     18  C   UNL A   1      41.872  30.706  29.053  1.00  0.00     0.029 A 
ATOM     19  N   UNL A   1      43.414  29.188  28.487  1.00  0.00    -0.354 N 
ATOM     20  C   UNL A   1      42.322  25.119  27.574  1.00  0.00     0.074 A 
ATOM     21  C   UNL A   1      40.891  24.921  27.683  1.00  0.00     0.031 C 
ATOM     22  C   UNL A   1      43.058  31.329  29.031  1.00  0.00     0.029 A 
ATOM     23  C   UNL A   1      44.093  30.366  28.670  1.00  0.00     0.049 A 
ATOM     24  H   UNL A   1      43.856  28.340  28.255  1.00  0.00     0.167 HD
ATOM     25  C   UNL A   1      43.206  24.147  27.242  1.00  0.00     0.037 A 
ATOM     26  C   UNL A   1      45.404  30.646  28.558  1.00  0.00     0.037 A 
ATOM     27  C   UNL A   1      44.623  24.350  27.095  1.00  0.00     0.049 A 
ATOM     28  C   UNL A   1      46.358  29.555  28.168  1.00  0.00     0.074 A 
ATOM     29  C   UNL A   1      45.592  23.435  26.720  1.00  0.00     0.029 A 
ATOM     30  N   UNL A   1      45.275  25.554  27.312  1.00  0.00    -0.354 N 
ATOM     31  N   UNL A   1      46.105  28.305  27.874  1.00  0.00    -0.248 NA
ATOM     32  C   UNL A   1      47.780  29.917  28.101  1.00  0.00     0.031 C 
ATOM     33  C   UNL A   1      46.835  24.078  26.739  1.00  0.00     0.029 A 
ATOM     34  C   UNL A   1      46.634  25.402  27.093  1.00  0.00     0.049 A 
ATOM     35  H   UNL A   1      44.837  26.393  27.582  1.00  0.00     0.167 HD
ATOM     36  C   UNL A   1      47.332  27.732  27.571  1.00  0.00     0.074 A 
ATOM     37  C   UNL A   1      48.327  28.777  27.699  1.00  0.00     0.031 C 
ATOM     38  C   UNL A   1      47.610  26.453  27.221  1.00  0.00     0.037 A 
BRANCH  25  39
ATOM     39  C   UNL A   1      42.667  22.763  27.028  1.00  0.00     0.057 A 
ATOM     40  C   UNL A   1      42.561  22.198  25.751  1.00  0.00     0.134 A 
ATOM     41  C   UNL A   1      42.292  21.968  28.119  1.00  0.00     0.134 A 
ATOM     42  F   UNL A   1      42.893  22.911  24.663  1.00  0.00    -0.206 F 
ATOM     43  C   UNL A   1      42.086  20.898  25.565  1.00  0.00     0.040 A 
ATOM     44  C   UNL A   1      41.835  20.661  27.949  1.00  0.00     0.040 A 
ATOM     45  F   UNL A   1      42.375  22.447  29.370  1.00  0.00    -0.206 F 
ATOM     46  C   UNL A   1      41.727  20.123  26.667  1.00  0.00     0.006 A 
ENDBRANCH  25  39
BRANCH  26  47
ATOM     47  C   UNL A   1      45.884  32.028  28.797  1.00  0.00     0.057 A 
ATOM     48  C   UNL A   1      46.201  32.469  30.087  1.00  0.00     0.134 A 
ATOM     49  C   UNL A   1      46.052  32.934  27.743  1.00  0.00     0.134 A 
ATOM     50  F   UNL A   1      46.044  31.650  31.137  1.00  0.00    -0.206 F 
ATOM     51  C   UNL A   1      46.660  33.765  30.322  1.00  0.00     0.040 A 
ATOM     52  C   UNL A   1      46.532  34.225  27.962  1.00  0.00     0.040 A 
ATOM     53  F   UNL A   1      45.772  32.566  26.484  1.00  0.00    -0.206 F 
ATOM     54  C   UNL A   1      46.832  34.646  29.255  1.00  0.00     0.006 A 
ENDBRANCH  26  47
BRANCH  38  55
ATOM     55  C   UNL A   1      49.043  26.126  26.929  1.00  0.00     0.057 A 
ATOM     56  C   UNL A   1      49.582  26.268  25.644  1.00  0.00     0.134 A 
ATOM     57  C   UNL A   1      49.895  25.679  27.946  1.00  0.00     0.134 A 
ATOM     58  F   UNL A   1      48.813  26.679  24.626  1.00  0.00    -0.206 F 
ATOM     59  C   UNL A   1      50.915  25.953  25.376  1.00  0.00     0.040 A 
ATOM     60  C   UNL A   1      51.234  25.380  27.695  1.00  0.00     0.040 A 
ATOM     61  F   UNL A   1      49.439  25.527  29.199  1.00  0.00    -0.206 F 
ATOM     62  C   UNL A   1      51.746  25.511  26.405  1.00  0.00     0.006 A 
ENDBRANCH  38  55
ENDBRANCH  12  13
ENDBRANCH   5   7
ENDBRANCH   2   3
ENDBRANCH   1   2
BRANCH   1  63
ATOM     63  C   UNL A   1      33.279  27.394  26.251  1.00  0.00     0.023 C 
BRANCH  63  64
ATOM     64  C   UNL A   1      31.884  26.984  25.789  1.00  0.00     0.116 C 
BRANCH  64  65
ATOM     65  N   UNL A   1      31.305  25.927  26.600  1.00  0.00    -0.352 N 
ATOM     66  C   UNL A   1      31.510  24.572  26.502  1.00  0.00     0.252 C 
ATOM     67  H   UNL A   1      30.688  26.217  27.310  1.00  0.00     0.163 HD
ATOM     68  O   UNL A   1      30.937  23.790  27.251  1.00  0.00    -0.269 OA
BRANCH  66  69
ATOM     69  C   UNL A   1      32.371  24.054  25.427  1.00  0.00     0.059 A 
ATOM     70  C   UNL A   1      33.677  23.686  25.780  1.00  0.00     0.024 A 
ATOM     71  C   UNL A   1      31.922  23.910  24.113  1.00  0.00     0.053 A 
ATOM     72  C   UNL A   1      34.543  23.116  24.834  1.00  0.00    -0.017 A 
ATOM     73  C   UNL A   1      32.758  23.315  23.171  1.00  0.00     0.022 A 
ATOM     74  Cl  UNL A   1      30.365  24.442  23.591  1.00  0.00    -0.083 Cl
ATOM     75  C   UNL A   1      34.049  22.913  23.532  1.00  0.00     0.010 A 
BRANCH  72  76
ATOM     76  C   UNL A   1      35.931  22.764  25.180  1.00  0.00    -0.017 A 
ATOM     77  C   UNL A   1      36.783  23.716  25.768  1.00  0.00     0.009 A 
ATOM     78  C   UNL A   1      36.443  21.476  24.949  1.00  0.00     0.029 A 
ATOM     79  C   UNL A   1      38.100  23.401  26.110  1.00  0.00     0.002 A 
ATOM     80  C   UNL A   1      37.760  21.163  25.295  1.00  0.00     0.041 A 
ATOM     81  C   UNL A   1      38.590  22.120  25.873  1.00  0.00     0.020 A 
ATOM     82  Cl  UNL A   1      38.365  19.578  25.001  1.00  0.00    -0.084 Cl
ENDBRANCH  72  76
ENDBRANCH  66  69
ENDBRANCH  64  65
ENDBRANCH  63  64
ENDBRANCH   1  63
TORSDOF 12
ENDMDL
MODEL 2
REMARK VINA RESULT:     -12.0      5.486     10.223
REMARK SMILES O=C(NCCCCNC(=O)c1cc(-c2cccc(Cl)c2)ccc1Cl)c1ccc(-c2c3nc(c(-c4c(F)cccc4F)c4ccc([nH]4)c(-c4c(F)cccc4F)c4nc(c(-c5c(F)cccc5F)c5ccc2[nH]5)C=C4)C=C3)cc1
REMARK SMILES IDX 5 1 4 2 3 3 1 4 2 5 25 7 26 8 78 9 27 10 77 11 28 12 29 13
REMARK SMILES IDX 30 14 71 15 31 16 76 17 70 18 72 19 32 20 75 21 69 22 68 23
REMARK SMILES IDX 33 25 59 26 42 27 58 28 43 29 46 30 57 31 73 32 44 33 45 34
REMARK SMILES IDX 56 36 74 37 47 38 34 39 35 40 40 41 36 42 37 43 39 44 41 45
REMARK SMILES IDX 38 46 60 47 61 48 66 49 62 50 63 51 65 52 67 53 64 54 48 55
REMARK SMILES IDX 49 56 54 57 50 58 51 59 53 60 55 61 52 62 6 63 7 64 8 65
REMARK SMILES IDX 9 66 10 68 11 69 12 70 23 71 13 72 22 73 24 74 21 75 14 76
REMARK SMILES IDX 15 77 20 78 16 79 18 80 17 81 19 82
REMARK H PARENT 3 6 72 24 46 35 8 67
REMARK Flexibility Score: inf
ROOT
ATOM      1  C   UNL A   1      37.032  23.466  25.159  1.00  0.00     0.023 C 
ENDROOT
BRANCH   1   2
ATOM      2  C   UNL A   1      37.910  23.797  26.361  1.00  0.00     0.116 C 
BRANCH   2   3
ATOM      3  N   UNL A   1      39.331  23.614  26.106  1.00  0.00    -0.352 N 
ATOM      4  O   UNL A   1      41.530  24.121  26.092  1.00  0.00    -0.269 OA
ATOM      5  C   UNL A   1      40.403  24.379  26.505  1.00  0.00     0.251 C 
ATOM      6  H   UNL A   1      39.561  22.823  25.566  1.00  0.00     0.163 HD
BRANCH   5   7
ATOM      7  C   UNL A   1      40.194  25.541  27.395  1.00  0.00     0.039 A 
ATOM      8  C   UNL A   1      40.775  26.777  27.107  1.00  0.00     0.014 A 
ATOM      9  C   UNL A   1      39.424  25.384  28.551  1.00  0.00     0.014 A 
ATOM     10  C   UNL A   1      40.748  27.788  28.061  1.00  0.00     0.010 A 
ATOM     11  C   UNL A   1      39.321  26.434  29.468  1.00  0.00     0.010 A 
ATOM     12  C   UNL A   1      40.030  27.627  29.257  1.00  0.00    -0.014 A 
BRANCH  12  13
ATOM     13  C   UNL A   1      40.042  28.722  30.262  1.00  0.00     0.031 A 
ATOM     14  C   UNL A   1      39.015  29.823  30.226  1.00  0.00     0.074 A 
ATOM     15  C   UNL A   1      40.953  28.686  31.254  1.00  0.00     0.049 A 
ATOM     16  N   UNL A   1      38.840  30.812  31.066  1.00  0.00    -0.248 NA
ATOM     17  C   UNL A   1      38.068  29.821  29.101  1.00  0.00     0.031 C 
ATOM     18  C   UNL A   1      42.009  27.680  31.392  1.00  0.00     0.029 A 
ATOM     19  N   UNL A   1      41.116  29.494  32.351  1.00  0.00    -0.354 N 
ATOM     20  C   UNL A   1      37.787  31.564  30.559  1.00  0.00     0.074 A 
ATOM     21  C   UNL A   1      37.374  30.928  29.326  1.00  0.00     0.031 C 
ATOM     22  C   UNL A   1      42.668  27.892  32.541  1.00  0.00     0.029 A 
ATOM     23  C   UNL A   1      42.116  29.074  33.193  1.00  0.00     0.049 A 
ATOM     24  H   UNL A   1      40.570  30.295  32.517  1.00  0.00     0.167 HD
ATOM     25  C   UNL A   1      37.211  32.676  31.076  1.00  0.00     0.037 A 
ATOM     26  C   UNL A   1      42.541  29.581  34.364  1.00  0.00     0.037 A 
ATOM     27  C   UNL A   1      37.595  33.288  32.322  1.00  0.00     0.049 A 
ATOM     28  C   UNL A   1      41.872  30.801  34.925  1.00  0.00     0.074 A 
ATOM     29  C   UNL A   1      37.041  34.392  32.948  1.00  0.00     0.029 A 
ATOM     30  N   UNL A   1      38.627  32.846  33.134  1.00  0.00    -0.354 N 
ATOM     31  N   UNL A   1      40.860  31.480  34.445  1.00  0.00    -0.248 NA
ATOM     32  C   UNL A   1      42.409  31.325  36.187  1.00  0.00     0.031 C 
ATOM     33  C   UNL A   1      37.758  34.636  34.125  1.00  0.00     0.029 A 
ATOM     34  C   UNL A   1      38.736  33.662  34.248  1.00  0.00     0.049 A 
ATOM     35  H   UNL A   1      39.198  32.067  32.947  1.00  0.00     0.167 HD
ATOM     36  C   UNL A   1      40.627  32.503  35.353  1.00  0.00     0.074 A 
ATOM     37  C   UNL A   1      41.592  32.344  36.422  1.00  0.00     0.031 C 
ATOM     38  C   UNL A   1      39.699  33.488  35.304  1.00  0.00     0.037 A 
BRANCH  25  39
ATOM     39  C   UNL A   1      36.109  33.318  30.287  1.00  0.00     0.057 A 
ATOM     40  C   UNL A   1      36.364  34.072  29.135  1.00  0.00     0.134 A 
ATOM     41  C   UNL A   1      34.770  33.139  30.658  1.00  0.00     0.134 A 
ATOM     42  F   UNL A   1      37.625  34.291  28.731  1.00  0.00    -0.206 F 
ATOM     43  C   UNL A   1      35.328  34.640  28.390  1.00  0.00     0.040 A 
ATOM     44  C   UNL A   1      33.725  33.685  29.912  1.00  0.00     0.040 A 
ATOM     45  F   UNL A   1      34.457  32.422  31.748  1.00  0.00    -0.206 F 
ATOM     46  C   UNL A   1      34.003  34.443  28.776  1.00  0.00     0.006 A 
ENDBRANCH  25  39
BRANCH  26  47
ATOM     47  C   UNL A   1      43.647  28.915  35.095  1.00  0.00     0.057 A 
ATOM     48  C   UNL A   1      44.983  29.221  34.815  1.00  0.00     0.134 A 
ATOM     49  C   UNL A   1      43.394  27.972  36.098  1.00  0.00     0.134 A 
ATOM     50  F   UNL A   1      45.286  30.104  33.853  1.00  0.00    -0.206 F 
ATOM     51  C   UNL A   1      46.030  28.605  35.501  1.00  0.00     0.040 A 
ATOM     52  C   UNL A   1      44.431  27.366  36.807  1.00  0.00     0.040 A 
ATOM     53  F   UNL A   1      42.132  27.643  36.415  1.00  0.00    -0.206 F 
ATOM     54  C   UNL A   1      45.754  27.679  36.505  1.00  0.00     0.006 A 
ENDBRANCH  26  47
BRANCH  38  55
ATOM     55  C   UNL A   1      39.671  34.452  36.451  1.00  0.00     0.057 A 
ATOM     56  C   UNL A   1      40.339  35.682  36.395  1.00  0.00     0.134 A 
ATOM     57  C   UNL A   1      38.959  34.151  37.618  1.00  0.00     0.134 A 
ATOM     58  F   UNL A   1      41.050  36.020  35.309  1.00  0.00    -0.206 F 
ATOM     59  C   UNL A   1      40.317  36.571  37.470  1.00  0.00     0.040 A 
ATOM     60  C   UNL A   1      38.913  35.041  38.692  1.00  0.00     0.040 A 
ATOM     61  F   UNL A   1      38.295  32.991  37.732  1.00  0.00    -0.206 F 
ATOM     62  C   UNL A   1      39.599  36.253  38.622  1.00  0.00     0.006 A 
ENDBRANCH  38  55
ENDBRANCH  12  13
ENDBRANCH   5   7
ENDBRANCH   2   3
ENDBRANCH   1   2
BRANCH   1  63
ATOM     63  C   UNL A   1      35.590  23.959  25.239  1.00  0.00     0.023 C 
BRANCH  63  64
ATOM     64  C   UNL A   1      34.612  23.282  24.284  1.00  0.00     0.116 C 
BRANCH  64  65
ATOM     65  N   UNL A   1      34.487  23.975  23.013  1.00  0.00    -0.352 N 
ATOM     66  C   UNL A   1      33.689  25.052  22.708  1.00  0.00     0.252 C 
ATOM     67  H   UNL A   1      35.044  23.632  22.278  1.00  0.00     0.163 HD
ATOM     68  O   UNL A   1      33.675  25.527  21.578  1.00  0.00    -0.269 OA
BRANCH  66  69
ATOM     69  C   UNL A   1      32.782  25.584  23.735  1.00  0.00     0.059 A 
ATOM     70  C   UNL A   1      33.187  26.753  24.397  1.00  0.00     0.024 A 
ATOM     71  C   UNL A   1      31.560  24.981  24.041  1.00  0.00     0.053 A 
ATOM     72  C   UNL A   1      32.351  27.370  25.340  1.00  0.00    -0.017 A 
ATOM     73  C   UNL A   1      30.706  25.600  24.950  1.00  0.00     0.022 A 
ATOM     74  Cl  UNL A   1      31.053  23.486  23.342  1.00  0.00    -0.083 Cl
ATOM     75  C   UNL A   1      31.093  26.786  25.583  1.00  0.00     0.010 A 
BRANCH  72  76
ATOM     76  C   UNL A   1      32.780  28.573  26.073  1.00  0.00    -0.017 A 
ATOM     77  C   UNL A   1      34.007  28.590  26.761  1.00  0.00     0.009 A 
ATOM     78  C   UNL A   1      31.995  29.738  26.101  1.00  0.00     0.029 A 
ATOM     79  C   UNL A   1      34.436  29.724  27.455  1.00  0.00     0.002 A 
ATOM     80  C   UNL A   1      32.427  30.870  26.795  1.00  0.00     0.041 A 
ATOM     81  C   UNL A   1      33.644  30.868  27.472  1.00  0.00     0.020 A 
ATOM     82  Cl  UNL A   1      31.446  32.286  26.815  1.00  0.00    -0.084 Cl
ENDBRANCH  72  76
ENDBRANCH  66  69
ENDBRANCH  64  65
ENDBRANCH  63  64
ENDBRANCH   1  63
TORSDOF 12
ENDMDL
MODEL 3
REMARK VINA RESULT:     -11.9      4.889      8.964
REMARK SMILES O=C(NCCCCNC(=O)c1cc(-c2cccc(Cl)c2)ccc1Cl)c1ccc(-c2c3nc(c(-c4c(F)cccc4F)c4ccc([nH]4)c(-c4c(F)cccc4F)c4nc(c(-c5c(F)cccc5F)c5ccc2[nH]5)C=C4)C=C3)cc1
REMARK SMILES IDX 5 1 4 2 3 3 1 4 2 5 25 7 26 8 78 9 27 10 77 11 28 12 29 13
REMARK SMILES IDX 30 14 71 15 31 16 76 17 70 18 72 19 32 20 75 21 69 22 68 23
REMARK SMILES IDX 33 25 59 26 42 27 58 28 43 29 46 30 57 31 73 32 44 33 45 34
REMARK SMILES IDX 56 36 74 37 47 38 34 39 35 40 40 41 36 42 37 43 39 44 41 45
REMARK SMILES IDX 38 46 60 47 61 48 66 49 62 50 63 51 65 52 67 53 64 54 48 55
REMARK SMILES IDX 49 56 54 57 50 58 51 59 53 60 55 61 52 62 6 63 7 64 8 65
REMARK SMILES IDX 9 66 10 68 11 69 12 70 23 71 13 72 22 73 24 74 21 75 14 76
REMARK SMILES IDX 15 77 20 78 16 79 18 80 17 81 19 82
REMARK H PARENT 3 6 72 24 46 35 8 67
REMARK Flexibility Score: inf
ROOT
ATOM      1  C   UNL A   1      32.367  29.744  25.341  1.00  0.00     0.023 C 
ENDROOT
BRANCH   1   2
ATOM      2  C   UNL A   1      32.068  30.202  26.763  1.00  0.00     0.116 C 
BRANCH   2   3
ATOM      3  N   UNL A   1      31.998  31.650  26.902  1.00  0.00    -0.352 N 
ATOM      4  O   UNL A   1      32.615  33.712  27.580  1.00  0.00    -0.269 OA
ATOM      5  C   UNL A   1      32.905  32.526  27.453  1.00  0.00     0.251 C 
ATOM      6  H   UNL A   1      31.179  32.066  26.548  1.00  0.00     0.163 HD
BRANCH   5   7
ATOM      7  C   UNL A   1      34.213  32.033  27.937  1.00  0.00     0.039 A 
ATOM      8  C   UNL A   1      34.388  30.693  28.284  1.00  0.00     0.014 A 
ATOM      9  C   UNL A   1      35.274  32.933  28.069  1.00  0.00     0.014 A 
ATOM     10  C   UNL A   1      35.550  30.299  28.938  1.00  0.00     0.010 A 
ATOM     11  C   UNL A   1      36.477  32.512  28.643  1.00  0.00     0.010 A 
ATOM     12  C   UNL A   1      36.605  31.204  29.135  1.00  0.00    -0.014 A 
BRANCH  12  13
ATOM     13  C   UNL A   1      37.822  30.751  29.857  1.00  0.00     0.031 A 
ATOM     14  C   UNL A   1      38.042  31.098  31.306  1.00  0.00     0.074 A 
ATOM     15  C   UNL A   1      38.708  29.965  29.214  1.00  0.00     0.049 A 
ATOM     16  N   UNL A   1      39.011  30.725  32.104  1.00  0.00    -0.248 NA
ATOM     17  C   UNL A   1      37.054  31.984  31.941  1.00  0.00     0.031 C 
ATOM     18  C   UNL A   1      38.615  29.569  27.807  1.00  0.00     0.029 A 
ATOM     19  N   UNL A   1      39.837  29.331  29.665  1.00  0.00    -0.354 N 
ATOM     20  C   UNL A   1      38.768  31.350  33.321  1.00  0.00     0.074 A 
ATOM     21  C   UNL A   1      37.569  32.144  33.152  1.00  0.00     0.031 C 
ATOM     22  C   UNL A   1      39.606  28.709  27.528  1.00  0.00     0.029 A 
ATOM     23  C   UNL A   1      40.431  28.534  28.719  1.00  0.00     0.049 A 
ATOM     24  H   UNL A   1      40.187  29.438  30.579  1.00  0.00     0.167 HD
ATOM     25  C   UNL A   1      39.473  31.264  34.475  1.00  0.00     0.037 A 
ATOM     26  C   UNL A   1      41.517  27.744  28.798  1.00  0.00     0.037 A 
ATOM     27  C   UNL A   1      40.643  30.446  34.656  1.00  0.00     0.049 A 
ATOM     28  C   UNL A   1      42.266  27.651  30.094  1.00  0.00     0.074 A 
ATOM     29  C   UNL A   1      41.399  30.261  35.802  1.00  0.00     0.029 A 
ATOM     30  N   UNL A   1      41.226  29.671  33.666  1.00  0.00    -0.354 N 
ATOM     31  N   UNL A   1      42.004  28.227  31.241  1.00  0.00    -0.248 NA
ATOM     32  C   UNL A   1      43.464  26.802  30.103  1.00  0.00     0.031 C 
ATOM     33  C   UNL A   1      42.456  29.397  35.497  1.00  0.00     0.029 A 
ATOM     34  C   UNL A   1      42.339  29.017  34.170  1.00  0.00     0.049 A 
ATOM     35  H   UNL A   1      40.897  29.595  32.741  1.00  0.00     0.167 HD
ATOM     36  C   UNL A   1      42.994  27.798  32.114  1.00  0.00     0.074 A 
ATOM     37  C   UNL A   1      43.851  26.900  31.368  1.00  0.00     0.031 C 
ATOM     38  C   UNL A   1      43.179  28.124  33.415  1.00  0.00     0.037 A 
BRANCH  25  39
ATOM     39  C   UNL A   1      39.006  32.092  35.636  1.00  0.00     0.057 A 
ATOM     40  C   UNL A   1      38.203  31.557  36.652  1.00  0.00     0.134 A 
ATOM     41  C   UNL A   1      39.403  33.429  35.764  1.00  0.00     0.134 A 
ATOM     42  F   UNL A   1      37.778  30.286  36.584  1.00  0.00    -0.206 F 
ATOM     43  C   UNL A   1      37.798  32.328  37.744  1.00  0.00     0.040 A 
ATOM     44  C   UNL A   1      39.022  34.204  36.859  1.00  0.00     0.040 A 
ATOM     45  F   UNL A   1      40.178  34.000  34.828  1.00  0.00    -0.206 F 
ATOM     46  C   UNL A   1      38.213  33.655  37.852  1.00  0.00     0.006 A 
ENDBRANCH  25  39
BRANCH  26  47
ATOM     47  C   UNL A   1      41.944  26.960  27.613  1.00  0.00     0.057 A 
ATOM     48  C   UNL A   1      42.764  27.526  26.632  1.00  0.00     0.134 A 
ATOM     49  C   UNL A   1      41.555  25.626  27.444  1.00  0.00     0.134 A 
ATOM     50  F   UNL A   1      43.154  28.805  26.733  1.00  0.00    -0.206 F 
ATOM     51  C   UNL A   1      43.177  26.796  25.517  1.00  0.00     0.040 A 
ATOM     52  C   UNL A   1      41.979  24.878  26.346  1.00  0.00     0.040 A 
ATOM     53  F   UNL A   1      40.774  25.028  28.356  1.00  0.00    -0.206 F 
ATOM     54  C   UNL A   1      42.789  25.465  25.376  1.00  0.00     0.006 A 
ENDBRANCH  26  47
BRANCH  38  55
ATOM     55  C   UNL A   1      44.337  27.483  34.117  1.00  0.00     0.057 A 
ATOM     56  C   UNL A   1      44.218  26.237  34.746  1.00  0.00     0.134 A 
ATOM     57  C   UNL A   1      45.588  28.111  34.152  1.00  0.00     0.134 A 
ATOM     58  F   UNL A   1      43.041  25.592  34.759  1.00  0.00    -0.206 F 
ATOM     59  C   UNL A   1      45.297  25.649  35.407  1.00  0.00     0.040 A 
ATOM     60  C   UNL A   1      46.680  27.524  34.791  1.00  0.00     0.040 A 
ATOM     61  F   UNL A   1      45.767  29.304  33.563  1.00  0.00    -0.206 F 
ATOM     62  C   UNL A   1      46.534  26.291  35.426  1.00  0.00     0.006 A 
ENDBRANCH  38  55
ENDBRANCH  12  13
ENDBRANCH   5   7
ENDBRANCH   2   3
ENDBRANCH   1   2
BRANCH   1  63
ATOM     63  C   UNL A   1      33.600  28.860  25.177  1.00  0.00     0.023 C 
BRANCH  63  64
ATOM     64  C   UNL A   1      33.335  27.358  25.203  1.00  0.00     0.116 C 
BRANCH  64  65
ATOM     65  N   UNL A   1      33.508  26.728  23.905  1.00  0.00    -0.352 N 
ATOM     66  C   UNL A   1      32.560  26.508  22.935  1.00  0.00     0.252 C 
ATOM     67  H   UNL A   1      34.419  26.419  23.693  1.00  0.00     0.163 HD
ATOM     68  O   UNL A   1      32.849  25.946  21.885  1.00  0.00    -0.269 OA
BRANCH  66  69
ATOM     69  C   UNL A   1      31.164  26.884  23.200  1.00  0.00     0.059 A 
ATOM     70  C   UNL A   1      30.789  28.199  22.887  1.00  0.00     0.024 A 
ATOM     71  C   UNL A   1      30.232  25.985  23.723  1.00  0.00     0.053 A 
ATOM     72  C   UNL A   1      29.460  28.623  23.041  1.00  0.00    -0.017 A 
ATOM     73  C   UNL A   1      28.903  26.381  23.849  1.00  0.00     0.022 A 
ATOM     74  Cl  UNL A   1      30.653  24.389  24.228  1.00  0.00    -0.083 Cl
ATOM     75  C   UNL A   1      28.521  27.681  23.501  1.00  0.00     0.010 A 
BRANCH  72  76
ATOM     76  C   UNL A   1      29.060  30.011  22.755  1.00  0.00    -0.017 A 
ATOM     77  C   UNL A   1      29.152  30.999  23.753  1.00  0.00     0.009 A 
ATOM     78  C   UNL A   1      28.591  30.398  21.489  1.00  0.00     0.029 A 
ATOM     79  C   UNL A   1      28.785  32.324  23.501  1.00  0.00     0.002 A 
ATOM     80  C   UNL A   1      28.227  31.723  21.240  1.00  0.00     0.041 A 
ATOM     81  C   UNL A   1      28.321  32.687  22.240  1.00  0.00     0.020 A 
ATOM     82  Cl  UNL A   1      27.653  32.171  19.679  1.00  0.00    -0.084 Cl
ENDBRANCH  72  76
ENDBRANCH  66  69
ENDBRANCH  64  65
ENDBRANCH  63  64
ENDBRANCH   1  63
TORSDOF 12
ENDMDL
