MODEL 1
REMARK VINA RESULT:     -12.2      0.000      0.000
REMARK SMILES Cc1ccc(Nc2c(F)cccc2I)c(CC(=O)NCCCCNC(=O)c2ccc(-c3c4nc(c(-c5c(F)cccc5F)c5ccc([nH]5)c(-c5c(F)cccc5F)c5nc(c(-c6c(F)cccc6F)c6ccc3[nH]6)C=C5)C=C4)cc2)c1
REMARK SMILES IDX 21 1 20 2 19 3 17 4 18 5 16 7 15 8 1 9 2 10 3 11 81 12 4 13
REMARK SMILES IDX 5 14 6 15 7 17 8 18 13 19 9 20 10 21 12 22 14 23 11 24 22 25
REMARK SMILES IDX 23 26 24 27 25 28 26 30 27 31 28 32 80 33 29 34 79 35 30 36
REMARK SMILES IDX 31 37 32 38 73 39 33 40 78 41 72 42 74 43 34 44 77 45 71 46
REMARK SMILES IDX 70 47 35 49 61 50 44 51 60 52 45 53 48 54 59 55 75 56 46 57
REMARK SMILES IDX 47 58 58 60 76 61 49 62 36 63 37 64 42 65 38 66 39 67 41 68
REMARK SMILES IDX 43 69 40 70 62 71 63 72 68 73 64 74 65 75 67 76 69 77 66 78
REMARK SMILES IDX 50 79 51 80 56 81 52 82 53 83 55 84 57 85 54 86
REMARK H PARENT 19 6 6 16 24 29 74 48 48 59
REMARK Flexibility Score: inf
ROOT
ATOM      1  C   UNL A   1      32.838  29.022  27.258  1.00  0.00     0.023 C 
ENDROOT
BRANCH   1   2
ATOM      2  C   UNL A   1      31.790  28.443  26.293  1.00  0.00     0.116 C 
BRANCH   2   3
ATOM      3  N   UNL A   1      31.307  27.126  26.673  1.00  0.00    -0.356 N 
ATOM      4  C   UNL A   1      31.887  25.902  26.520  1.00  0.00     0.224 C 
ATOM      5  O   UNL A   1      31.250  24.907  26.876  1.00  0.00    -0.275 OA
ATOM      6  H   UNL A   1      30.425  27.116  27.109  1.00  0.00     0.163 HD
BRANCH   4   7
ATOM      7  C   UNL A   1      33.270  25.746  25.918  1.00  0.00     0.137 C 
BRANCH   7   8
ATOM      8  C   UNL A   1      33.274  25.119  24.541  1.00  0.00    -0.015 A 
ATOM      9  C   UNL A   1      31.778  26.080  21.155  1.00  0.00     0.044 C 
ATOM     10  C   UNL A   1      32.522  25.330  22.220  1.00  0.00    -0.051 A 
ATOM     11  C   UNL A   1      33.023  24.056  21.964  1.00  0.00     0.005 A 
ATOM     12  C   UNL A   1      32.688  25.868  23.496  1.00  0.00     0.009 A 
ATOM     13  C   UNL A   1      33.655  23.327  22.977  1.00  0.00     0.026 A 
ATOM     14  C   UNL A   1      33.777  23.823  24.286  1.00  0.00     0.042 A 
BRANCH  14  15
ATOM     15  N   UNL A   1      34.379  23.050  25.303  1.00  0.00    -0.352 N 
ATOM     16  H   UNL A   1      33.991  23.175  26.199  1.00  0.00     0.167 HD
BRANCH  15  17
ATOM     17  C   UNL A   1      35.449  22.126  25.243  1.00  0.00     0.088 A 
ATOM     18  C   UNL A   1      36.792  22.543  25.247  1.00  0.00     0.147 A 
ATOM     19  C   UNL A   1      35.211  20.743  25.110  1.00  0.00     0.040 A 
ATOM     20  F   UNL A   1      37.100  23.841  25.391  1.00  0.00    -0.205 F 
ATOM     21  C   UNL A   1      37.848  21.638  25.132  1.00  0.00     0.041 A 
ATOM     22  C   UNL A   1      36.270  19.830  24.992  1.00  0.00     0.017 A 
ATOM     23  I   UNL A   1      33.270  19.946  25.017  1.00  0.00    -0.042 I 
ATOM     24  C   UNL A   1      37.589  20.279  25.002  1.00  0.00     0.004 A 
ENDBRANCH  15  17
ENDBRANCH  14  15
ENDBRANCH   7   8
ENDBRANCH   4   7
ENDBRANCH   2   3
ENDBRANCH   1   2
BRANCH   1  25
ATOM     25  C   UNL A   1      32.834  30.543  27.414  1.00  0.00     0.023 C 
BRANCH  25  26
ATOM     26  C   UNL A   1      34.197  31.188  27.236  1.00  0.00     0.116 C 
BRANCH  26  27
ATOM     27  N   UNL A   1      34.704  31.877  28.417  1.00  0.00    -0.352 N 
ATOM     28  C   UNL A   1      35.651  31.454  29.338  1.00  0.00     0.251 C 
ATOM     29  H   UNL A   1      34.320  32.768  28.584  1.00  0.00     0.163 HD
ATOM     30  O   UNL A   1      35.924  32.150  30.305  1.00  0.00    -0.269 OA
BRANCH  28  31
ATOM     31  C   UNL A   1      36.440  30.227  29.060  1.00  0.00     0.039 A 
ATOM     32  C   UNL A   1      36.653  29.345  30.126  1.00  0.00     0.014 A 
ATOM     33  C   UNL A   1      37.156  30.075  27.876  1.00  0.00     0.014 A 
ATOM     34  C   UNL A   1      37.774  28.522  30.113  1.00  0.00     0.010 A 
ATOM     35  C   UNL A   1      38.324  29.336  27.899  1.00  0.00     0.010 A 
ATOM     36  C   UNL A   1      38.676  28.638  29.057  1.00  0.00    -0.014 A 
BRANCH  36  37
ATOM     37  C   UNL A   1      40.070  28.224  29.163  1.00  0.00     0.031 A 
ATOM     38  C   UNL A   1      40.491  26.862  28.784  1.00  0.00     0.074 A 
ATOM     39  C   UNL A   1      40.998  29.138  29.532  1.00  0.00     0.049 A 
ATOM     40  N   UNL A   1      41.651  26.374  29.065  1.00  0.00    -0.248 NA
ATOM     41  C   UNL A   1      39.611  25.904  28.119  1.00  0.00     0.031 C 
ATOM     42  C   UNL A   1      42.452  29.040  29.416  1.00  0.00     0.029 A 
ATOM     43  N   UNL A   1      40.795  30.263  30.347  1.00  0.00    -0.354 N 
ATOM     44  C   UNL A   1      41.781  25.197  28.376  1.00  0.00     0.074 A 
ATOM     45  C   UNL A   1      40.450  24.880  27.924  1.00  0.00     0.031 C 
ATOM     46  C   UNL A   1      43.013  29.825  30.348  1.00  0.00     0.029 A 
ATOM     47  C   UNL A   1      41.939  30.334  31.180  1.00  0.00     0.049 A 
ATOM     48  H   UNL A   1      40.022  30.873  30.342  1.00  0.00     0.167 HD
ATOM     49  C   UNL A   1      43.029  24.701  28.162  1.00  0.00     0.037 A 
ATOM     50  C   UNL A   1      41.831  30.141  32.527  1.00  0.00     0.037 A 
ATOM     51  C   UNL A   1      44.006  25.302  29.070  1.00  0.00     0.049 A 
ATOM     52  C   UNL A   1      42.602  28.951  33.067  1.00  0.00     0.074 A 
ATOM     53  C   UNL A   1      45.078  26.169  28.955  1.00  0.00     0.029 A 
ATOM     54  N   UNL A   1      43.782  25.161  30.432  1.00  0.00    -0.354 N 
ATOM     55  N   UNL A   1      43.310  28.131  32.341  1.00  0.00    -0.248 NA
ATOM     56  C   UNL A   1      42.546  28.540  34.471  1.00  0.00     0.031 C 
ATOM     57  C   UNL A   1      45.439  26.601  30.271  1.00  0.00     0.029 A 
ATOM     58  C   UNL A   1      44.611  25.967  31.180  1.00  0.00     0.049 A 
ATOM     59  H   UNL A   1      43.108  24.556  30.817  1.00  0.00     0.167 HD
ATOM     60  C   UNL A   1      43.730  27.084  33.118  1.00  0.00     0.074 A 
ATOM     61  C   UNL A   1      43.237  27.389  34.447  1.00  0.00     0.031 C 
ATOM     62  C   UNL A   1      44.408  26.010  32.621  1.00  0.00     0.037 A 
BRANCH  49  63
ATOM     63  C   UNL A   1      43.385  23.736  27.057  1.00  0.00     0.057 A 
ATOM     64  C   UNL A   1      43.947  24.205  25.854  1.00  0.00     0.134 A 
ATOM     65  C   UNL A   1      43.081  22.357  27.057  1.00  0.00     0.134 A 
ATOM     66  F   UNL A   1      44.255  25.499  25.688  1.00  0.00    -0.206 F 
ATOM     67  C   UNL A   1      44.196  23.370  24.755  1.00  0.00     0.040 A 
ATOM     68  C   UNL A   1      43.378  21.503  25.986  1.00  0.00     0.040 A 
ATOM     69  F   UNL A   1      42.420  21.768  28.059  1.00  0.00    -0.206 F 
ATOM     70  C   UNL A   1      43.928  22.010  24.823  1.00  0.00     0.006 A 
ENDBRANCH  49  63
BRANCH  50  71
ATOM     71  C   UNL A   1      40.552  30.655  33.085  1.00  0.00     0.057 A 
ATOM     72  C   UNL A   1      39.503  29.747  33.322  1.00  0.00     0.134 A 
ATOM     73  C   UNL A   1      40.458  31.908  33.696  1.00  0.00     0.134 A 
ATOM     74  F   UNL A   1      39.530  28.525  32.765  1.00  0.00    -0.206 F 
ATOM     75  C   UNL A   1      38.470  30.029  34.218  1.00  0.00     0.040 A 
ATOM     76  C   UNL A   1      39.417  32.208  34.583  1.00  0.00     0.040 A 
ATOM     77  F   UNL A   1      41.430  32.818  33.543  1.00  0.00    -0.206 F 
ATOM     78  C   UNL A   1      38.444  31.254  34.875  1.00  0.00     0.006 A 
ENDBRANCH  50  71
BRANCH  62  79
ATOM     79  C   UNL A   1      44.884  24.880  33.488  1.00  0.00     0.057 A 
ATOM     80  C   UNL A   1      46.247  24.615  33.688  1.00  0.00     0.134 A 
ATOM     81  C   UNL A   1      43.991  23.957  34.064  1.00  0.00     0.134 A 
ATOM     82  F   UNL A   1      47.190  25.399  33.142  1.00  0.00    -0.206 F 
ATOM     83  C   UNL A   1      46.692  23.523  34.444  1.00  0.00     0.040 A 
ATOM     84  C   UNL A   1      44.424  22.838  34.781  1.00  0.00     0.040 A 
ATOM     85  F   UNL A   1      42.663  24.118  33.975  1.00  0.00    -0.206 F 
ATOM     86  C   UNL A   1      45.779  22.623  34.982  1.00  0.00     0.006 A 
ENDBRANCH  62  79
ENDBRANCH  36  37
ENDBRANCH  28  31
ENDBRANCH  26  27
ENDBRANCH  25  26
ENDBRANCH   1  25
TORSDOF 14
ENDMDL
MODEL 2
REMARK VINA RESULT:     -12.1      3.897      9.107
REMARK SMILES Cc1ccc(Nc2c(F)cccc2I)c(CC(=O)NCCCCNC(=O)c2ccc(-c3c4nc(c(-c5c(F)cccc5F)c5ccc([nH]5)c(-c5c(F)cccc5F)c5nc(c(-c6c(F)cccc6F)c6ccc3[nH]6)C=C5)C=C4)cc2)c1
REMARK SMILES IDX 21 1 20 2 19 3 17 4 18 5 16 7 15 8 1 9 2 10 3 11 81 12 4 13
REMARK SMILES IDX 5 14 6 15 7 17 8 18 13 19 9 20 10 21 12 22 14 23 11 24 22 25
REMARK SMILES IDX 23 26 24 27 25 28 26 30 27 31 28 32 80 33 29 34 79 35 30 36
REMARK SMILES IDX 31 37 32 38 73 39 33 40 78 41 72 42 74 43 34 44 77 45 71 46
REMARK SMILES IDX 70 47 35 49 61 50 44 51 60 52 45 53 48 54 59 55 75 56 46 57
REMARK SMILES IDX 47 58 58 60 76 61 49 62 36 63 37 64 42 65 38 66 39 67 41 68
REMARK SMILES IDX 43 69 40 70 62 71 63 72 68 73 64 74 65 75 67 76 69 77 66 78
REMARK SMILES IDX 50 79 51 80 56 81 52 82 53 83 55 84 57 85 54 86
REMARK H PARENT 19 6 6 16 24 29 74 48 48 59
REMARK Flexibility Score: inf
ROOT
ATOM      1  C   UNL A   1      37.538  22.134  25.288  1.00  0.00     0.023 C 
ENDROOT
BRANCH   1   2
ATOM      2  C   UNL A   1      36.420  21.081  25.387  1.00  0.00     0.116 C 
BRANCH   2   3
ATOM      3  N   UNL A   1      35.261  21.377  24.563  1.00  0.00    -0.356 N 
ATOM      4  C   UNL A   1      34.150  22.114  24.846  1.00  0.00     0.224 C 
ATOM      5  O   UNL A   1      33.259  22.177  23.994  1.00  0.00    -0.275 OA
ATOM      6  H   UNL A   1      35.281  20.985  23.660  1.00  0.00     0.163 HD
BRANCH   4   7
ATOM      7  C   UNL A   1      33.987  22.832  26.172  1.00  0.00     0.137 C 
BRANCH   7   8
ATOM      8  C   UNL A   1      32.669  23.558  26.320  1.00  0.00    -0.015 A 
ATOM      9  C   UNL A   1      29.125  22.506  27.301  1.00  0.00     0.044 C 
ATOM     10  C   UNL A   1      30.295  23.347  26.886  1.00  0.00    -0.051 A 
ATOM     11  C   UNL A   1      30.107  24.672  26.499  1.00  0.00     0.005 A 
ATOM     12  C   UNL A   1      31.582  22.813  26.831  1.00  0.00     0.009 A 
ATOM     13  C   UNL A   1      31.186  25.437  26.044  1.00  0.00     0.026 A 
ATOM     14  C   UNL A   1      32.479  24.902  25.921  1.00  0.00     0.042 A 
BRANCH  14  15
ATOM     15  N   UNL A   1      33.544  25.679  25.417  1.00  0.00    -0.352 N 
ATOM     16  H   UNL A   1      34.413  25.519  25.849  1.00  0.00     0.167 HD
BRANCH  15  17
ATOM     17  C   UNL A   1      33.564  26.652  24.389  1.00  0.00     0.088 A 
ATOM     18  C   UNL A   1      33.557  26.298  23.029  1.00  0.00     0.147 A 
ATOM     19  C   UNL A   1      33.658  28.026  24.689  1.00  0.00     0.040 A 
ATOM     20  F   UNL A   1      33.447  25.011  22.664  1.00  0.00    -0.205 F 
ATOM     21  C   UNL A   1      33.632  27.252  22.014  1.00  0.00     0.041 A 
ATOM     22  C   UNL A   1      33.736  28.990  23.672  1.00  0.00     0.017 A 
ATOM     23  I   UNL A   1      33.750  28.738  26.664  1.00  0.00    -0.042 I 
ATOM     24  C   UNL A   1      33.725  28.601  22.334  1.00  0.00     0.004 A 
ENDBRANCH  15  17
ENDBRANCH  14  15
ENDBRANCH   7   8
ENDBRANCH   4   7
ENDBRANCH   2   3
ENDBRANCH   1   2
BRANCH   1  25
ATOM     25  C   UNL A   1      38.931  21.671  25.715  1.00  0.00     0.023 C 
BRANCH  25  26
ATOM     26  C   UNL A   1      39.543  22.498  26.832  1.00  0.00     0.116 C 
BRANCH  26  27
ATOM     27  N   UNL A   1      40.933  22.881  26.616  1.00  0.00    -0.352 N 
ATOM     28  C   UNL A   1      41.497  24.146  26.576  1.00  0.00     0.251 C 
ATOM     29  H   UNL A   1      41.560  22.134  26.478  1.00  0.00     0.163 HD
ATOM     30  O   UNL A   1      42.686  24.285  26.334  1.00  0.00    -0.269 OA
BRANCH  28  31
ATOM     31  C   UNL A   1      40.681  25.320  26.981  1.00  0.00     0.039 A 
ATOM     32  C   UNL A   1      40.819  26.490  26.225  1.00  0.00     0.014 A 
ATOM     33  C   UNL A   1      40.008  25.352  28.199  1.00  0.00     0.014 A 
ATOM     34  C   UNL A   1      40.555  27.719  26.822  1.00  0.00     0.010 A 
ATOM     35  C   UNL A   1      39.839  26.570  28.830  1.00  0.00     0.010 A 
ATOM     36  C   UNL A   1      40.206  27.746  28.170  1.00  0.00    -0.014 A 
BRANCH  36  37
ATOM     37  C   UNL A   1      40.384  28.927  29.007  1.00  0.00     0.031 A 
ATOM     38  C   UNL A   1      39.335  29.960  29.100  1.00  0.00     0.074 A 
ATOM     39  C   UNL A   1      41.496  29.024  29.774  1.00  0.00     0.049 A 
ATOM     40  N   UNL A   1      39.525  31.118  29.635  1.00  0.00    -0.248 NA
ATOM     41  C   UNL A   1      37.999  29.803  28.529  1.00  0.00     0.031 C 
ATOM     42  C   UNL A   1      41.742  29.938  30.887  1.00  0.00     0.029 A 
ATOM     43  N   UNL A   1      42.755  28.461  29.508  1.00  0.00    -0.354 N 
ATOM     44  C   UNL A   1      38.301  31.721  29.756  1.00  0.00     0.074 A 
ATOM     45  C   UNL A   1      37.415  30.938  28.933  1.00  0.00     0.031 C 
ATOM     46  C   UNL A   1      43.066  30.122  31.009  1.00  0.00     0.029 A 
ATOM     47  C   UNL A   1      43.695  29.449  29.888  1.00  0.00     0.049 A 
ATOM     48  H   UNL A   1      42.943  27.569  29.136  1.00  0.00     0.167 HD
ATOM     49  C   UNL A   1      38.162  32.741  30.645  1.00  0.00     0.037 A 
ATOM     50  C   UNL A   1      44.486  30.053  28.953  1.00  0.00     0.037 A 
ATOM     51  C   UNL A   1      39.460  33.296  31.030  1.00  0.00     0.049 A 
ATOM     52  C   UNL A   1      44.290  31.551  28.821  1.00  0.00     0.074 A 
ATOM     53  C   UNL A   1      40.238  33.320  32.173  1.00  0.00     0.029 A 
ATOM     54  N   UNL A   1      40.263  33.798  30.017  1.00  0.00    -0.354 N 
ATOM     55  N   UNL A   1      43.432  32.254  29.508  1.00  0.00    -0.248 NA
ATOM     56  C   UNL A   1      44.992  32.358  27.821  1.00  0.00     0.031 C 
ATOM     57  C   UNL A   1      41.546  33.775  31.806  1.00  0.00     0.029 A 
ATOM     58  C   UNL A   1      41.544  34.060  30.452  1.00  0.00     0.049 A 
ATOM     59  H   UNL A   1      39.953  33.949  29.095  1.00  0.00     0.167 HD
ATOM     60  C   UNL A   1      43.403  33.535  29.022  1.00  0.00     0.074 A 
ATOM     61  C   UNL A   1      44.404  33.555  27.973  1.00  0.00     0.031 C 
ATOM     62  C   UNL A   1      42.529  34.482  29.468  1.00  0.00     0.037 A 
BRANCH  49  63
ATOM     63  C   UNL A   1      36.846  33.173  31.246  1.00  0.00     0.057 A 
ATOM     64  C   UNL A   1      36.466  32.727  32.526  1.00  0.00     0.134 A 
ATOM     65  C   UNL A   1      35.852  33.915  30.571  1.00  0.00     0.134 A 
ATOM     66  F   UNL A   1      37.288  31.978  33.275  1.00  0.00    -0.206 F 
ATOM     67  C   UNL A   1      35.211  33.008  33.088  1.00  0.00     0.040 A 
ATOM     68  C   UNL A   1      34.619  34.250  31.145  1.00  0.00     0.040 A 
ATOM     69  F   UNL A   1      35.986  34.301  29.298  1.00  0.00    -0.206 F 
ATOM     70  C   UNL A   1      34.287  33.786  32.405  1.00  0.00     0.006 A 
ENDBRANCH  49  63
BRANCH  50  71
ATOM     71  C   UNL A   1      44.871  29.139  27.845  1.00  0.00     0.057 A 
ATOM     72  C   UNL A   1      45.899  28.204  28.064  1.00  0.00     0.134 A 
ATOM     73  C   UNL A   1      44.049  28.931  26.735  1.00  0.00     0.134 A 
ATOM     74  F   UNL A   1      46.725  28.343  29.114  1.00  0.00    -0.206 F 
ATOM     75  C   UNL A   1      46.029  27.053  27.285  1.00  0.00     0.040 A 
ATOM     76  C   UNL A   1      44.182  27.790  25.935  1.00  0.00     0.040 A 
ATOM     77  F   UNL A   1      43.029  29.761  26.474  1.00  0.00    -0.206 F 
ATOM     78  C   UNL A   1      45.147  26.829  26.234  1.00  0.00     0.006 A 
ENDBRANCH  50  71
BRANCH  62  79
ATOM     79  C   UNL A   1      42.524  35.890  28.945  1.00  0.00     0.057 A 
ATOM     80  C   UNL A   1      41.924  36.231  27.723  1.00  0.00     0.134 A 
ATOM     81  C   UNL A   1      43.214  36.929  29.598  1.00  0.00     0.134 A 
ATOM     82  F   UNL A   1      41.283  35.309  26.989  1.00  0.00    -0.206 F 
ATOM     83  C   UNL A   1      41.976  37.530  27.204  1.00  0.00     0.040 A 
ATOM     84  C   UNL A   1      43.312  38.218  29.066  1.00  0.00     0.040 A 
ATOM     85  F   UNL A   1      43.799  36.740  30.790  1.00  0.00    -0.206 F 
ATOM     86  C   UNL A   1      42.683  38.526  27.869  1.00  0.00     0.006 A 
ENDBRANCH  62  79
ENDBRANCH  36  37
ENDBRANCH  28  31
ENDBRANCH  26  27
ENDBRANCH  25  26
ENDBRANCH   1  25
TORSDOF 14
ENDMDL
MODEL 3
REMARK VINA RESULT:     -12.1      3.906      9.100
REMARK SMILES Cc1ccc(Nc2c(F)cccc2I)c(CC(=O)NCCCCNC(=O)c2ccc(-c3c4nc(c(-c5c(F)cccc5F)c5ccc([nH]5)c(-c5c(F)cccc5F)c5nc(c(-c6c(F)cccc6F)c6ccc3[nH]6)C=C5)C=C4)cc2)c1
REMARK SMILES IDX 21 1 20 2 19 3 17 4 18 5 16 7 15 8 1 9 2 10 3 11 81 12 4 13
REMARK SMILES IDX 5 14 6 15 7 17 8 18 13 19 9 20 10 21 12 22 14 23 11 24 22 25
REMARK SMILES IDX 23 26 24 27 25 28 26 30 27 31 28 32 80 33 29 34 79 35 30 36
REMARK SMILES IDX 31 37 32 38 73 39 33 40 78 41 72 42 74 43 34 44 77 45 71 46
REMARK SMILES IDX 70 47 35 49 61 50 44 51 60 52 45 53 48 54 59 55 75 56 46 57
REMARK SMILES IDX 47 58 58 60 76 61 49 62 36 63 37 64 42 65 38 66 39 67 41 68
REMARK SMILES IDX 43 69 40 70 62 71 63 72 68 73 64 74 65 75 67 76 69 77 66 78
REMARK SMILES IDX 50 79 51 80 56 81 52 82 53 83 55 84 57 85 54 86
REMARK H PARENT 19 6 6 16 24 29 74 48 48 59
REMARK Flexibility Score: inf
ROOT
ATOM      1  C   UNL A   1      38.288  21.373  25.389  1.00  0.00     0.023 C 
ENDROOT
BRANCH   1   2
ATOM      2  C   UNL A   1      37.715  22.800  25.417  1.00  0.00     0.116 C 
BRANCH   2   3
ATOM      3  N   UNL A   1      37.019  23.177  24.199  1.00  0.00    -0.356 N 
ATOM      4  C   UNL A   1      35.694  23.102  23.888  1.00  0.00     0.224 C 
ATOM      5  O   UNL A   1      35.341  23.432  22.753  1.00  0.00    -0.275 OA
ATOM      6  H   UNL A   1      37.592  23.542  23.487  1.00  0.00     0.163 HD
BRANCH   4   7
ATOM      7  C   UNL A   1      34.667  22.615  24.893  1.00  0.00     0.137 C 
BRANCH   7   8
ATOM      8  C   UNL A   1      33.911  21.382  24.450  1.00  0.00    -0.015 A 
ATOM      9  C   UNL A   1      34.621  17.626  24.548  1.00  0.00     0.044 C 
ATOM     10  C   UNL A   1      33.935  18.937  24.308  1.00  0.00    -0.051 A 
ATOM     11  C   UNL A   1      32.758  18.990  23.565  1.00  0.00     0.005 A 
ATOM     12  C   UNL A   1      34.481  20.131  24.779  1.00  0.00     0.009 A 
ATOM     13  C   UNL A   1      32.154  20.219  23.281  1.00  0.00     0.026 A 
ATOM     14  C   UNL A   1      32.719  21.438  23.691  1.00  0.00     0.042 A 
BRANCH  14  15
ATOM     15  N   UNL A   1      32.116  22.670  23.354  1.00  0.00    -0.352 N 
ATOM     16  H   UNL A   1      32.061  22.851  22.388  1.00  0.00     0.167 HD
BRANCH  15  17
ATOM     17  C   UNL A   1      31.578  23.685  24.179  1.00  0.00     0.088 A 
ATOM     18  C   UNL A   1      30.927  23.392  25.390  1.00  0.00     0.147 A 
ATOM     19  C   UNL A   1      31.614  25.039  23.787  1.00  0.00     0.040 A 
ATOM     20  F   UNL A   1      30.870  22.129  25.841  1.00  0.00    -0.205 F 
ATOM     21  C   UNL A   1      30.347  24.385  26.179  1.00  0.00     0.041 A 
ATOM     22  C   UNL A   1      31.030  26.042  24.576  1.00  0.00     0.017 A 
ATOM     23  I   UNL A   1      32.483  25.657  21.977  1.00  0.00    -0.042 I 
ATOM     24  C   UNL A   1      30.395  25.714  25.771  1.00  0.00     0.004 A 
ENDBRANCH  15  17
ENDBRANCH  14  15
ENDBRANCH   7   8
ENDBRANCH   4   7
ENDBRANCH   2   3
ENDBRANCH   1   2
BRANCH   1  25
ATOM     25  C   UNL A   1      39.613  21.170  26.124  1.00  0.00     0.023 C 
BRANCH  25  26
ATOM     26  C   UNL A   1      40.091  22.393  26.887  1.00  0.00     0.116 C 
BRANCH  26  27
ATOM     27  N   UNL A   1      41.406  22.883  26.490  1.00  0.00    -0.352 N 
ATOM     28  C   UNL A   1      41.848  24.190  26.354  1.00  0.00     0.251 C 
ATOM     29  H   UNL A   1      42.073  22.188  26.290  1.00  0.00     0.163 HD
ATOM     30  O   UNL A   1      42.982  24.419  25.962  1.00  0.00    -0.269 OA
BRANCH  28  31
ATOM     31  C   UNL A   1      40.990  25.303  26.834  1.00  0.00     0.039 A 
ATOM     32  C   UNL A   1      41.007  26.492  26.096  1.00  0.00     0.014 A 
ATOM     33  C   UNL A   1      40.396  25.273  28.093  1.00  0.00     0.014 A 
ATOM     34  C   UNL A   1      40.708  27.692  26.733  1.00  0.00     0.010 A 
ATOM     35  C   UNL A   1      40.195  26.467  28.759  1.00  0.00     0.010 A 
ATOM     36  C   UNL A   1      40.445  27.674  28.102  1.00  0.00    -0.014 A 
BRANCH  36  37
ATOM     37  C   UNL A   1      40.605  28.850  28.950  1.00  0.00     0.031 A 
ATOM     38  C   UNL A   1      39.548  29.875  29.038  1.00  0.00     0.074 A 
ATOM     39  C   UNL A   1      41.706  28.949  29.731  1.00  0.00     0.049 A 
ATOM     40  N   UNL A   1      39.723  31.029  29.585  1.00  0.00    -0.248 NA
ATOM     41  C   UNL A   1      38.221  29.714  28.448  1.00  0.00     0.031 C 
ATOM     42  C   UNL A   1      41.932  29.856  30.855  1.00  0.00     0.029 A 
ATOM     43  N   UNL A   1      42.972  28.396  29.478  1.00  0.00    -0.354 N 
ATOM     44  C   UNL A   1      38.494  31.624  29.694  1.00  0.00     0.074 A 
ATOM     45  C   UNL A   1      37.624  30.841  28.854  1.00  0.00     0.031 C 
ATOM     46  C   UNL A   1      43.252  30.047  30.995  1.00  0.00     0.029 A 
ATOM     47  C   UNL A   1      43.901  29.387  29.878  1.00  0.00     0.049 A 
ATOM     48  H   UNL A   1      43.172  27.508  29.101  1.00  0.00     0.167 HD
ATOM     49  C   UNL A   1      38.336  32.635  30.590  1.00  0.00     0.037 A 
ATOM     50  C   UNL A   1      44.699  30.004  28.958  1.00  0.00     0.037 A 
ATOM     51  C   UNL A   1      39.625  33.196  30.995  1.00  0.00     0.049 A 
ATOM     52  C   UNL A   1      44.495  31.502  28.835  1.00  0.00     0.074 A 
ATOM     53  C   UNL A   1      40.388  33.217  32.148  1.00  0.00     0.029 A 
ATOM     54  N   UNL A   1      40.438  33.712  29.997  1.00  0.00    -0.354 N 
ATOM     55  N   UNL A   1      43.623  32.193  29.516  1.00  0.00    -0.248 NA
ATOM     56  C   UNL A   1      45.204  32.321  27.850  1.00  0.00     0.031 C 
ATOM     57  C   UNL A   1      41.697  33.683  31.801  1.00  0.00     0.029 A 
ATOM     58  C   UNL A   1      41.711  33.979  30.450  1.00  0.00     0.049 A 
ATOM     59  H   UNL A   1      40.139  33.868  29.072  1.00  0.00     0.167 HD
ATOM     60  C   UNL A   1      43.591  33.478  29.040  1.00  0.00     0.074 A 
ATOM     61  C   UNL A   1      44.606  33.513  28.004  1.00  0.00     0.031 C 
ATOM     62  C   UNL A   1      42.705  34.416  29.482  1.00  0.00     0.037 A 
BRANCH  49  63
ATOM     63  C   UNL A   1      37.009  33.054  31.177  1.00  0.00     0.057 A 
ATOM     64  C   UNL A   1      36.621  32.605  32.454  1.00  0.00     0.134 A 
ATOM     65  C   UNL A   1      36.014  33.784  30.491  1.00  0.00     0.134 A 
ATOM     66  F   UNL A   1      37.444  31.866  33.212  1.00  0.00    -0.206 F 
ATOM     67  C   UNL A   1      35.358  32.873  33.003  1.00  0.00     0.040 A 
ATOM     68  C   UNL A   1      34.772  34.106  31.052  1.00  0.00     0.040 A 
ATOM     69  F   UNL A   1      36.156  34.170  29.219  1.00  0.00    -0.206 F 
ATOM     70  C   UNL A   1      34.433  33.640  32.310  1.00  0.00     0.006 A 
ENDBRANCH  49  63
BRANCH  50  71
ATOM     71  C   UNL A   1      45.104  29.102  27.847  1.00  0.00     0.057 A 
ATOM     72  C   UNL A   1      46.159  28.196  28.062  1.00  0.00     0.134 A 
ATOM     73  C   UNL A   1      44.284  28.871  26.740  1.00  0.00     0.134 A 
ATOM     74  F   UNL A   1      46.986  28.358  29.107  1.00  0.00    -0.206 F 
ATOM     75  C   UNL A   1      46.318  27.048  27.281  1.00  0.00     0.040 A 
ATOM     76  C   UNL A   1      44.445  27.734  25.940  1.00  0.00     0.040 A 
ATOM     77  F   UNL A   1      43.240  29.673  26.485  1.00  0.00    -0.206 F 
ATOM     78  C   UNL A   1      45.438  26.801  26.234  1.00  0.00     0.006 A 
ENDBRANCH  50  71
BRANCH  62  79
ATOM     79  C   UNL A   1      42.697  35.827  28.970  1.00  0.00     0.057 A 
ATOM     80  C   UNL A   1      43.365  36.867  29.633  1.00  0.00     0.134 A 
ATOM     81  C   UNL A   1      41.930  36.208  27.853  1.00  0.00     0.134 A 
ATOM     82  F   UNL A   1      44.086  36.629  30.740  1.00  0.00    -0.206 F 
ATOM     83  C   UNL A   1      43.304  38.195  29.192  1.00  0.00     0.040 A 
ATOM     84  C   UNL A   1      41.824  37.537  27.430  1.00  0.00     0.040 A 
ATOM     85  F   UNL A   1      41.273  35.304  27.112  1.00  0.00    -0.206 F 
ATOM     86  C   UNL A   1      42.521  38.535  28.094  1.00  0.00     0.006 A 
ENDBRANCH  62  79
ENDBRANCH  36  37
ENDBRANCH  28  31
ENDBRANCH  26  27
ENDBRANCH  25  26
ENDBRANCH   1  25
TORSDOF 14
ENDMDL
