MODEL 1
REMARK VINA RESULT:     -13.2      0.000      0.000
REMARK SMILES O=C(Cn1nc(C(=O)NCCCCNC(=O)c2ccc(-c3c4nc(c(-c5c(F)cccc5F)c5ccc([nH]5)c(-c5c(F)cccc5F)c5nc(c(-c6c(F)cccc6F)c6ccc3[nH]6)C=C5)C=C4)cc2)c2ccccc2c1=O)Nc1ccc2c(c1)C(=O)c1ccccc1C2=O
REMARK SMILES IDX 11 1 10 2 9 3 7 4 8 5 6 7 4 8 5 9 77 10 76 11 78 12 71 13
REMARK SMILES IDX 75 14 72 15 74 16 73 17 3 18 2 19 1 20 79 21 80 23 81 24
REMARK SMILES IDX 85 25 82 26 84 27 83 28 86 29 94 30 87 31 88 32 93 33 95 34
REMARK SMILES IDX 89 35 92 36 90 37 91 38 12 39 13 40 14 41 15 42 16 44 17 45
REMARK SMILES IDX 18 46 70 47 19 48 69 49 20 50 21 51 22 52 63 53 23 54 68 55
REMARK SMILES IDX 62 56 64 57 24 58 67 59 61 60 60 61 25 63 51 64 34 65 50 66
REMARK SMILES IDX 35 67 38 68 49 69 65 70 36 71 37 72 48 74 66 75 39 76 26 77
REMARK SMILES IDX 27 78 32 79 28 80 29 81 31 82 33 83 30 84 52 85 53 86 58 87
REMARK SMILES IDX 54 88 55 89 57 90 59 91 56 92 40 93 41 94 46 95 42 96 43 97
REMARK SMILES IDX 45 98 47 99 44 100
REMARK H PARENT 9 6 79 22 14 43 64 62 38 73
REMARK Flexibility Score: inf
ROOT
ATOM      1  C   UNL A   1      32.586  27.135  25.860  1.00  0.00     0.023 C 
ENDROOT
BRANCH   1   2
ATOM      2  C   UNL A   1      32.021  25.991  25.006  1.00  0.00     0.116 C 
BRANCH   2   3
ATOM      3  N   UNL A   1      32.535  26.020  23.644  1.00  0.00    -0.351 N 
ATOM      4  C   UNL A   1      33.586  25.334  23.105  1.00  0.00     0.272 C 
ATOM      5  O   UNL A   1      34.030  25.592  21.995  1.00  0.00    -0.267 OA
ATOM      6  H   UNL A   1      32.058  26.619  23.025  1.00  0.00     0.163 HD
BRANCH   4   7
ATOM      7  C   UNL A   1      34.172  24.181  23.893  1.00  0.00     0.156 A 
ATOM      8  N   UNL A   1      35.695  23.418  25.459  1.00  0.00    -0.219 N 
ATOM      9  N   UNL A   1      35.145  24.449  24.719  1.00  0.00    -0.163 NA
ATOM     10  C   UNL A   1      35.197  22.109  25.431  1.00  0.00     0.275 A 
ATOM     11  C   UNL A   1      34.109  21.822  24.476  1.00  0.00     0.051 A 
ATOM     12  O   UNL A   1      35.603  21.207  26.159  1.00  0.00    -0.267 OA
ATOM     13  C   UNL A   1      33.599  22.843  23.689  1.00  0.00     0.020 A 
ATOM     14  C   UNL A   1      33.582  20.527  24.367  1.00  0.00     0.014 A 
ATOM     15  C   UNL A   1      32.570  22.576  22.772  1.00  0.00     0.011 A 
ATOM     16  C   UNL A   1      32.556  20.261  23.458  1.00  0.00     0.001 A 
ATOM     17  C   UNL A   1      32.055  21.284  22.657  1.00  0.00     0.001 A 
BRANCH   8  18
ATOM     18  C   UNL A   1      36.731  23.729  26.468  1.00  0.00     0.248 C 
BRANCH  18  19
ATOM     19  C   UNL A   1      38.219  23.428  26.193  1.00  0.00     0.246 C 
ATOM     20  O   UNL A   1      38.889  24.139  25.448  1.00  0.00    -0.273 OA
ATOM     21  N   UNL A   1      38.644  22.240  26.725  1.00  0.00    -0.324 N 
ATOM     22  H   UNL A   1      37.938  21.696  27.145  1.00  0.00     0.169 HD
BRANCH  21  23
ATOM     23  C   UNL A   1      39.924  21.679  26.765  1.00  0.00     0.042 A 
ATOM     24  C   UNL A   1      40.385  20.652  25.938  1.00  0.00     0.027 A 
ATOM     25  C   UNL A   1      40.814  22.308  27.629  1.00  0.00     0.039 A 
ATOM     26  C   UNL A   1      41.769  20.411  25.831  1.00  0.00     0.015 A 
ATOM     27  C   UNL A   1      42.160  21.990  27.600  1.00  0.00     0.036 A 
ATOM     28  C   UNL A   1      42.657  21.164  26.607  1.00  0.00     0.034 A 
ATOM     29  C   UNL A   1      43.083  22.744  28.453  1.00  0.00     0.194 C 
ATOM     30  C   UNL A   1      44.078  21.363  26.212  1.00  0.00     0.194 C 
ATOM     31  O   UNL A   1      42.861  22.975  29.630  1.00  0.00    -0.289 OA
ATOM     32  C   UNL A   1      44.227  23.315  27.754  1.00  0.00     0.034 A 
ATOM     33  C   UNL A   1      44.689  22.669  26.607  1.00  0.00     0.034 A 
ATOM     34  O   UNL A   1      44.670  20.573  25.492  1.00  0.00    -0.289 OA
ATOM     35  C   UNL A   1      44.668  24.584  28.126  1.00  0.00     0.013 A 
ATOM     36  C   UNL A   1      45.594  23.333  25.784  1.00  0.00     0.013 A 
ATOM     37  C   UNL A   1      45.548  25.254  27.287  1.00  0.00     0.001 A 
ATOM     38  C   UNL A   1      45.999  24.635  26.115  1.00  0.00     0.001 A 
ENDBRANCH  21  23
ENDBRANCH  18  19
ENDBRANCH   8  18
ENDBRANCH   4   7
ENDBRANCH   2   3
ENDBRANCH   1   2
BRANCH   1  39
ATOM     39  C   UNL A   1      31.677  28.358  25.789  1.00  0.00     0.023 C 
BRANCH  39  40
ATOM     40  C   UNL A   1      32.303  29.682  25.397  1.00  0.00     0.116 C 
BRANCH  40  41
ATOM     41  N   UNL A   1      31.837  30.880  26.062  1.00  0.00    -0.352 N 
ATOM     42  C   UNL A   1      32.480  31.747  26.928  1.00  0.00     0.251 C 
ATOM     43  H   UNL A   1      30.903  31.119  25.865  1.00  0.00     0.163 HD
ATOM     44  O   UNL A   1      31.884  32.776  27.253  1.00  0.00    -0.269 OA
BRANCH  42  45
ATOM     45  C   UNL A   1      33.823  31.479  27.532  1.00  0.00     0.039 A 
ATOM     46  C   UNL A   1      34.291  30.211  27.854  1.00  0.00     0.014 A 
ATOM     47  C   UNL A   1      34.673  32.571  27.782  1.00  0.00     0.014 A 
ATOM     48  C   UNL A   1      35.445  30.051  28.619  1.00  0.00     0.010 A 
ATOM     49  C   UNL A   1      35.914  32.396  28.422  1.00  0.00     0.010 A 
ATOM     50  C   UNL A   1      36.292  31.135  28.896  1.00  0.00    -0.014 A 
BRANCH  50  51
ATOM     51  C   UNL A   1      37.577  30.863  29.605  1.00  0.00     0.031 A 
ATOM     52  C   UNL A   1      37.784  31.209  31.056  1.00  0.00     0.074 A 
ATOM     53  C   UNL A   1      38.542  30.190  28.944  1.00  0.00     0.049 A 
ATOM     54  N   UNL A   1      38.777  30.868  31.845  1.00  0.00    -0.248 NA
ATOM     55  C   UNL A   1      36.770  32.051  31.705  1.00  0.00     0.031 C 
ATOM     56  C   UNL A   1      38.491  29.827  27.524  1.00  0.00     0.029 A 
ATOM     57  N   UNL A   1      39.720  29.637  29.382  1.00  0.00    -0.354 N 
ATOM     58  C   UNL A   1      38.515  31.465  33.072  1.00  0.00     0.074 A 
ATOM     59  C   UNL A   1      37.283  32.210  32.919  1.00  0.00     0.031 C 
ATOM     60  C   UNL A   1      39.523  29.022  27.237  1.00  0.00     0.029 A 
ATOM     61  C   UNL A   1      40.346  28.866  28.432  1.00  0.00     0.049 A 
ATOM     62  H   UNL A   1      40.080  29.779  30.287  1.00  0.00     0.167 HD
ATOM     63  C   UNL A   1      39.230  31.390  34.222  1.00  0.00     0.037 A 
ATOM     64  C   UNL A   1      41.450  28.101  28.506  1.00  0.00     0.037 A 
ATOM     65  C   UNL A   1      40.441  30.625  34.392  1.00  0.00     0.049 A 
ATOM     66  C   UNL A   1      42.210  28.023  29.793  1.00  0.00     0.074 A 
ATOM     67  C   UNL A   1      41.192  30.443  35.542  1.00  0.00     0.029 A 
ATOM     68  N   UNL A   1      41.081  29.920  33.385  1.00  0.00    -0.354 N 
ATOM     69  N   UNL A   1      41.920  28.556  30.954  1.00  0.00    -0.248 NA
ATOM     70  C   UNL A   1      43.459  27.250  29.776  1.00  0.00     0.031 C 
ATOM     71  C   UNL A   1      42.306  29.657  35.223  1.00  0.00     0.029 A 
ATOM     72  C   UNL A   1      42.230  29.323  33.882  1.00  0.00     0.049 A 
ATOM     73  H   UNL A   1      40.767  29.853  32.455  1.00  0.00     0.167 HD
ATOM     74  C   UNL A   1      42.954  28.190  31.804  1.00  0.00     0.074 A 
ATOM     75  C   UNL A   1      43.858  27.361  31.034  1.00  0.00     0.031 C 
ATOM     76  C   UNL A   1      43.137  28.521  33.105  1.00  0.00     0.037 A 
BRANCH  63  77
ATOM     77  C   UNL A   1      38.725  32.160  35.407  1.00  0.00     0.057 A 
ATOM     78  C   UNL A   1      38.957  33.538  35.513  1.00  0.00     0.134 A 
ATOM     79  C   UNL A   1      38.080  31.528  36.477  1.00  0.00     0.134 A 
ATOM     80  F   UNL A   1      39.580  34.201  34.527  1.00  0.00    -0.206 F 
ATOM     81  C   UNL A   1      38.572  34.258  36.644  1.00  0.00     0.040 A 
ATOM     82  C   UNL A   1      37.674  32.242  37.607  1.00  0.00     0.040 A 
ATOM     83  F   UNL A   1      37.825  30.211  36.436  1.00  0.00    -0.206 F 
ATOM     84  C   UNL A   1      37.927  33.609  37.695  1.00  0.00     0.006 A 
ENDBRANCH  63  77
BRANCH  64  85
ATOM     85  C   UNL A   1      41.893  27.332  27.317  1.00  0.00     0.057 A 
ATOM     86  C   UNL A   1      42.786  27.879  26.389  1.00  0.00     0.134 A 
ATOM     87  C   UNL A   1      41.415  26.040  27.076  1.00  0.00     0.134 A 
ATOM     88  F   UNL A   1      43.274  29.116  26.567  1.00  0.00    -0.206 F 
ATOM     89  C   UNL A   1      43.176  27.174  25.251  1.00  0.00     0.040 A 
ATOM     90  C   UNL A   1      41.814  25.314  25.953  1.00  0.00     0.040 A 
ATOM     91  F   UNL A   1      40.571  25.459  27.941  1.00  0.00    -0.206 F 
ATOM     92  C   UNL A   1      42.692  25.885  25.033  1.00  0.00     0.006 A 
ENDBRANCH  64  85
BRANCH  76  93
ATOM     93  C   UNL A   1      44.374  27.990  33.763  1.00  0.00     0.057 A 
ATOM     94  C   UNL A   1      45.554  28.743  33.793  1.00  0.00     0.134 A 
ATOM     95  C   UNL A   1      44.390  26.732  34.379  1.00  0.00     0.134 A 
ATOM     96  F   UNL A   1      45.604  29.955  33.220  1.00  0.00    -0.206 F 
ATOM     97  C   UNL A   1      46.706  28.266  34.420  1.00  0.00     0.040 A 
ATOM     98  C   UNL A   1      45.530  26.252  35.025  1.00  0.00     0.040 A 
ATOM     99  F   UNL A   1      43.285  25.972  34.400  1.00  0.00    -0.206 F 
ATOM    100  C   UNL A   1      46.693  27.020  35.045  1.00  0.00     0.006 A 
ENDBRANCH  76  93
ENDBRANCH  50  51
ENDBRANCH  42  45
ENDBRANCH  40  41
ENDBRANCH  39  40
ENDBRANCH   1  39
TORSDOF 14
ENDMDL
MODEL 2
REMARK VINA RESULT:     -12.5      5.522     10.452
REMARK SMILES O=C(Cn1nc(C(=O)NCCCCNC(=O)c2ccc(-c3c4nc(c(-c5c(F)cccc5F)c5ccc([nH]5)c(-c5c(F)cccc5F)c5nc(c(-c6c(F)cccc6F)c6ccc3[nH]6)C=C5)C=C4)cc2)c2ccccc2c1=O)Nc1ccc2c(c1)C(=O)c1ccccc1C2=O
REMARK SMILES IDX 11 1 10 2 9 3 7 4 8 5 6 7 4 8 5 9 77 10 76 11 78 12 71 13
REMARK SMILES IDX 75 14 72 15 74 16 73 17 3 18 2 19 1 20 79 21 80 23 81 24
REMARK SMILES IDX 85 25 82 26 84 27 83 28 86 29 94 30 87 31 88 32 93 33 95 34
REMARK SMILES IDX 89 35 92 36 90 37 91 38 12 39 13 40 14 41 15 42 16 44 17 45
REMARK SMILES IDX 18 46 70 47 19 48 69 49 20 50 21 51 22 52 63 53 23 54 68 55
REMARK SMILES IDX 62 56 64 57 24 58 67 59 61 60 60 61 25 63 51 64 34 65 50 66
REMARK SMILES IDX 35 67 38 68 49 69 65 70 36 71 37 72 48 74 66 75 39 76 26 77
REMARK SMILES IDX 27 78 32 79 28 80 29 81 31 82 33 83 30 84 52 85 53 86 58 87
REMARK SMILES IDX 54 88 55 89 57 90 59 91 56 92 40 93 41 94 46 95 42 96 43 97
REMARK SMILES IDX 45 98 47 99 44 100
REMARK H PARENT 9 6 79 22 14 43 64 62 38 73
REMARK Flexibility Score: inf
ROOT
ATOM      1  C   UNL A   1      40.110  27.479  27.814  1.00  0.00     0.023 C 
ENDROOT
BRANCH   1   2
ATOM      2  C   UNL A   1      38.991  28.503  28.055  1.00  0.00     0.116 C 
BRANCH   2   3
ATOM      3  N   UNL A   1      38.295  28.266  29.311  1.00  0.00    -0.351 N 
ATOM      4  C   UNL A   1      37.462  29.098  30.005  1.00  0.00     0.272 C 
ATOM      5  O   UNL A   1      37.091  28.844  31.143  1.00  0.00    -0.267 OA
ATOM      6  H   UNL A   1      38.446  27.382  29.719  1.00  0.00     0.163 HD
BRANCH   4   7
ATOM      7  C   UNL A   1      36.941  30.337  29.310  1.00  0.00     0.156 A 
ATOM      8  N   UNL A   1      35.316  31.348  28.008  1.00  0.00    -0.219 N 
ATOM      9  N   UNL A   1      35.822  30.230  28.648  1.00  0.00    -0.163 NA
ATOM     10  C   UNL A   1      35.901  32.616  28.113  1.00  0.00     0.275 A 
ATOM     11  C   UNL A   1      37.176  32.713  28.850  1.00  0.00     0.051 A 
ATOM     12  O   UNL A   1      35.407  33.638  27.641  1.00  0.00    -0.267 OA
ATOM     13  C   UNL A   1      37.715  31.580  29.438  1.00  0.00     0.020 A 
ATOM     14  C   UNL A   1      37.838  33.943  28.966  1.00  0.00     0.014 A 
ATOM     15  C   UNL A   1      38.932  31.661  30.134  1.00  0.00     0.011 A 
ATOM     16  C   UNL A   1      39.046  34.027  29.662  1.00  0.00     0.001 A 
ATOM     17  C   UNL A   1      39.595  32.885  30.240  1.00  0.00     0.001 A 
BRANCH   8  18
ATOM     18  C   UNL A   1      34.000  31.259  27.337  1.00  0.00     0.248 C 
BRANCH  18  19
ATOM     19  C   UNL A   1      33.404  29.893  26.940  1.00  0.00     0.246 C 
ATOM     20  O   UNL A   1      32.637  29.289  27.686  1.00  0.00    -0.273 OA
ATOM     21  N   UNL A   1      33.931  29.382  25.784  1.00  0.00    -0.324 N 
ATOM     22  H   UNL A   1      34.670  29.906  25.396  1.00  0.00     0.169 HD
BRANCH  21  23
ATOM     23  C   UNL A   1      33.583  28.232  25.069  1.00  0.00     0.042 A 
ATOM     24  C   UNL A   1      33.240  28.193  23.715  1.00  0.00     0.027 A 
ATOM     25  C   UNL A   1      33.720  27.040  25.771  1.00  0.00     0.039 A 
ATOM     26  C   UNL A   1      33.248  26.962  23.030  1.00  0.00     0.015 A 
ATOM     27  C   UNL A   1      33.617  25.826  25.116  1.00  0.00     0.036 A 
ATOM     28  C   UNL A   1      33.536  25.788  23.734  1.00  0.00     0.034 A 
ATOM     29  C   UNL A   1      33.866  24.593  25.868  1.00  0.00     0.194 C 
ATOM     30  C   UNL A   1      34.071  24.574  23.061  1.00  0.00     0.194 C 
ATOM     31  O   UNL A   1      33.384  24.375  26.966  1.00  0.00    -0.289 OA
ATOM     32  C   UNL A   1      34.847  23.701  25.262  1.00  0.00     0.034 A 
ATOM     33  C   UNL A   1      34.996  23.729  23.875  1.00  0.00     0.034 A 
ATOM     34  O   UNL A   1      33.879  24.350  21.875  1.00  0.00    -0.289 OA
ATOM     35  C   UNL A   1      35.737  23.027  26.097  1.00  0.00     0.013 A 
ATOM     36  C   UNL A   1      36.097  23.092  23.309  1.00  0.00     0.013 A 
ATOM     37  C   UNL A   1      36.849  22.419  25.530  1.00  0.00     0.001 A 
ATOM     38  C   UNL A   1      37.033  22.461  24.142  1.00  0.00     0.001 A 
ENDBRANCH  21  23
ENDBRANCH  18  19
ENDBRANCH   8  18
ENDBRANCH   4   7
ENDBRANCH   2   3
ENDBRANCH   1   2
BRANCH   1  39
ATOM     39  C   UNL A   1      39.668  26.087  28.254  1.00  0.00     0.023 C 
BRANCH  39  40
ATOM     40  C   UNL A   1      39.469  25.037  27.179  1.00  0.00     0.116 C 
BRANCH  40  41
ATOM     41  N   UNL A   1      40.201  23.794  27.297  1.00  0.00    -0.352 N 
ATOM     42  C   UNL A   1      41.559  23.544  27.379  1.00  0.00     0.251 C 
ATOM     43  H   UNL A   1      39.636  22.988  27.325  1.00  0.00     0.163 HD
ATOM     44  O   UNL A   1      41.915  22.386  27.606  1.00  0.00    -0.269 OA
BRANCH  42  45
ATOM     45  C   UNL A   1      42.613  24.582  27.152  1.00  0.00     0.039 A 
ATOM     46  C   UNL A   1      43.416  25.107  28.158  1.00  0.00     0.014 A 
ATOM     47  C   UNL A   1      42.819  25.052  25.843  1.00  0.00     0.014 A 
ATOM     48  C   UNL A   1      44.211  26.227  27.922  1.00  0.00     0.010 A 
ATOM     49  C   UNL A   1      43.736  26.084  25.575  1.00  0.00     0.010 A 
ATOM     50  C   UNL A   1      44.408  26.721  26.624  1.00  0.00    -0.014 A 
BRANCH  50  51
ATOM     51  C   UNL A   1      45.379  27.838  26.434  1.00  0.00     0.031 A 
ATOM     52  C   UNL A   1      45.001  29.279  26.651  1.00  0.00     0.074 A 
ATOM     53  C   UNL A   1      46.664  27.529  26.159  1.00  0.00     0.049 A 
ATOM     54  N   UNL A   1      45.783  30.333  26.700  1.00  0.00    -0.248 NA
ATOM     55  C   UNL A   1      43.575  29.589  26.821  1.00  0.00     0.031 C 
ATOM     56  C   UNL A   1      47.162  26.177  25.885  1.00  0.00     0.029 A 
ATOM     57  N   UNL A   1      47.794  28.308  26.126  1.00  0.00    -0.354 N 
ATOM     58  C   UNL A   1      44.945  31.426  26.888  1.00  0.00     0.074 A 
ATOM     59  C   UNL A   1      43.592  30.913  26.920  1.00  0.00     0.031 C 
ATOM     60  C   UNL A   1      48.500  26.205  25.824  1.00  0.00     0.029 A 
ATOM     61  C   UNL A   1      48.952  27.582  25.988  1.00  0.00     0.049 A 
ATOM     62  H   UNL A   1      47.776  29.290  26.195  1.00  0.00     0.167 HD
ATOM     63  C   UNL A   1      45.275  32.733  27.030  1.00  0.00     0.037 A 
ATOM     64  C   UNL A   1      50.241  27.968  26.005  1.00  0.00     0.037 A 
ATOM     65  C   UNL A   1      46.622  33.249  27.030  1.00  0.00     0.049 A 
ATOM     66  C   UNL A   1      50.576  29.416  26.181  1.00  0.00     0.074 A 
ATOM     67  C   UNL A   1      47.047  34.552  27.232  1.00  0.00     0.029 A 
ATOM     68  N   UNL A   1      47.761  32.490  26.812  1.00  0.00    -0.354 N 
ATOM     69  N   UNL A   1      49.774  30.426  26.405  1.00  0.00    -0.248 NA
ATOM     70  C   UNL A   1      51.998  29.779  26.091  1.00  0.00     0.031 C 
ATOM     71  C   UNL A   1      48.441  34.588  27.102  1.00  0.00     0.029 A 
ATOM     72  C   UNL A   1      48.885  33.302  26.851  1.00  0.00     0.049 A 
ATOM     73  H   UNL A   1      47.771  31.520  26.652  1.00  0.00     0.167 HD
ATOM     74  C   UNL A   1      50.589  31.546  26.475  1.00  0.00     0.074 A 
ATOM     75  C   UNL A   1      51.952  31.086  26.305  1.00  0.00     0.031 C 
ATOM     76  C   UNL A   1      50.235  32.841  26.656  1.00  0.00     0.037 A 
BRANCH  63  77
ATOM     77  C   UNL A   1      44.156  33.719  27.200  1.00  0.00     0.057 A 
ATOM     78  C   UNL A   1      43.666  34.437  26.101  1.00  0.00     0.134 A 
ATOM     79  C   UNL A   1      43.619  34.015  28.459  1.00  0.00     0.134 A 
ATOM     80  F   UNL A   1      44.147  34.210  24.869  1.00  0.00    -0.206 F 
ATOM     81  C   UNL A   1      42.686  35.419  26.250  1.00  0.00     0.040 A 
ATOM     82  C   UNL A   1      42.624  34.982  28.617  1.00  0.00     0.040 A 
ATOM     83  F   UNL A   1      44.042  33.359  29.551  1.00  0.00    -0.206 F 
ATOM     84  C   UNL A   1      42.161  35.693  27.511  1.00  0.00     0.006 A 
ENDBRANCH  63  77
BRANCH  64  85
ATOM     85  C   UNL A   1      51.314  26.953  25.865  1.00  0.00     0.057 A 
ATOM     86  C   UNL A   1      51.852  26.632  24.614  1.00  0.00     0.134 A 
ATOM     87  C   UNL A   1      51.810  26.271  26.981  1.00  0.00     0.134 A 
ATOM     88  F   UNL A   1      51.412  27.251  23.509  1.00  0.00    -0.206 F 
ATOM     89  C   UNL A   1      52.834  25.652  24.474  1.00  0.00     0.040 A 
ATOM     90  C   UNL A   1      52.809  25.304  26.858  1.00  0.00     0.040 A 
ATOM     91  F   UNL A   1      51.344  26.551  28.206  1.00  0.00    -0.206 F 
ATOM     92  C   UNL A   1      53.318  24.988  25.600  1.00  0.00     0.006 A 
ENDBRANCH  64  85
BRANCH  76  93
ATOM     93  C   UNL A   1      51.346  33.845  26.664  1.00  0.00     0.057 A 
ATOM     94  C   UNL A   1      51.978  34.211  27.858  1.00  0.00     0.134 A 
ATOM     95  C   UNL A   1      51.799  34.442  25.480  1.00  0.00     0.134 A 
ATOM     96  F   UNL A   1      51.590  33.677  29.026  1.00  0.00    -0.206 F 
ATOM     97  C   UNL A   1      53.027  35.131  27.874  1.00  0.00     0.040 A 
ATOM     98  C   UNL A   1      52.860  35.348  25.481  1.00  0.00     0.040 A 
ATOM     99  F   UNL A   1      51.247  34.117  24.302  1.00  0.00    -0.206 F 
ATOM    100  C   UNL A   1      53.475  35.697  26.682  1.00  0.00     0.006 A 
ENDBRANCH  76  93
ENDBRANCH  50  51
ENDBRANCH  42  45
ENDBRANCH  40  41
ENDBRANCH  39  40
ENDBRANCH   1  39
TORSDOF 14
ENDMDL
MODEL 3
REMARK VINA RESULT:     -12.2      7.996     13.767
REMARK SMILES O=C(Cn1nc(C(=O)NCCCCNC(=O)c2ccc(-c3c4nc(c(-c5c(F)cccc5F)c5ccc([nH]5)c(-c5c(F)cccc5F)c5nc(c(-c6c(F)cccc6F)c6ccc3[nH]6)C=C5)C=C4)cc2)c2ccccc2c1=O)Nc1ccc2c(c1)C(=O)c1ccccc1C2=O
REMARK SMILES IDX 11 1 10 2 9 3 7 4 8 5 6 7 4 8 5 9 77 10 76 11 78 12 71 13
REMARK SMILES IDX 75 14 72 15 74 16 73 17 3 18 2 19 1 20 79 21 80 23 81 24
REMARK SMILES IDX 85 25 82 26 84 27 83 28 86 29 94 30 87 31 88 32 93 33 95 34
REMARK SMILES IDX 89 35 92 36 90 37 91 38 12 39 13 40 14 41 15 42 16 44 17 45
REMARK SMILES IDX 18 46 70 47 19 48 69 49 20 50 21 51 22 52 63 53 23 54 68 55
REMARK SMILES IDX 62 56 64 57 24 58 67 59 61 60 60 61 25 63 51 64 34 65 50 66
REMARK SMILES IDX 35 67 38 68 49 69 65 70 36 71 37 72 48 74 66 75 39 76 26 77
REMARK SMILES IDX 27 78 32 79 28 80 29 81 31 82 33 83 30 84 52 85 53 86 58 87
REMARK SMILES IDX 54 88 55 89 57 90 59 91 56 92 40 93 41 94 46 95 42 96 43 97
REMARK SMILES IDX 45 98 47 99 44 100
REMARK H PARENT 9 6 79 22 14 43 64 62 38 73
REMARK Flexibility Score: inf
ROOT
ATOM      1  C   UNL A   1      47.046  23.253  36.489  1.00  0.00     0.023 C 
ENDROOT
BRANCH   1   2
ATOM      2  C   UNL A   1      45.803  22.486  36.963  1.00  0.00     0.116 C 
BRANCH   2   3
ATOM      3  N   UNL A   1      45.525  21.327  36.127  1.00  0.00    -0.351 N 
ATOM      4  C   UNL A   1      46.134  20.104  36.120  1.00  0.00     0.272 C 
ATOM      5  O   UNL A   1      45.929  19.280  35.239  1.00  0.00    -0.267 OA
ATOM      6  H   UNL A   1      44.797  21.440  35.474  1.00  0.00     0.163 HD
BRANCH   4   7
ATOM      7  C   UNL A   1      47.041  19.746  37.279  1.00  0.00     0.156 A 
ATOM      8  N   UNL A   1      47.282  18.950  39.438  1.00  0.00    -0.219 N 
ATOM      9  N   UNL A   1      46.479  19.294  38.365  1.00  0.00    -0.163 NA
ATOM     10  C   UNL A   1      48.682  18.978  39.383  1.00  0.00     0.275 A 
ATOM     11  C   UNL A   1      49.298  19.510  38.152  1.00  0.00     0.051 A 
ATOM     12  O   UNL A   1      49.410  18.576  40.287  1.00  0.00    -0.267 OA
ATOM     13  C   UNL A   1      48.490  19.913  37.099  1.00  0.00     0.020 A 
ATOM     14  C   UNL A   1      50.692  19.601  38.037  1.00  0.00     0.014 A 
ATOM     15  C   UNL A   1      49.068  20.428  35.928  1.00  0.00     0.011 A 
ATOM     16  C   UNL A   1      51.269  20.109  36.871  1.00  0.00     0.001 A 
ATOM     17  C   UNL A   1      50.456  20.528  35.820  1.00  0.00     0.001 A 
BRANCH   8  18
ATOM     18  C   UNL A   1      46.662  18.347  40.638  1.00  0.00     0.248 C 
BRANCH  18  19
ATOM     19  C   UNL A   1      45.721  17.131  40.516  1.00  0.00     0.246 C 
ATOM     20  O   UNL A   1      46.015  16.162  39.820  1.00  0.00    -0.273 OA
ATOM     21  N   UNL A   1      44.505  17.318  41.118  1.00  0.00    -0.324 N 
ATOM     22  H   UNL A   1      44.355  18.220  41.482  1.00  0.00     0.169 HD
BRANCH  21  23
ATOM     23  C   UNL A   1      43.443  16.425  41.296  1.00  0.00     0.042 A 
ATOM     24  C   UNL A   1      42.582  15.980  40.290  1.00  0.00     0.027 A 
ATOM     25  C   UNL A   1      43.351  15.869  42.567  1.00  0.00     0.039 A 
ATOM     26  C   UNL A   1      41.786  14.838  40.510  1.00  0.00     0.015 A 
ATOM     27  C   UNL A   1      42.485  14.818  42.809  1.00  0.00     0.036 A 
ATOM     28  C   UNL A   1      41.823  14.206  41.757  1.00  0.00     0.034 A 
ATOM     29  C   UNL A   1      42.487  14.190  44.133  1.00  0.00     0.194 C 
ATOM     30  C   UNL A   1      41.464  12.773  41.928  1.00  0.00     0.194 C 
ATOM     31  O   UNL A   1      42.468  14.830  45.171  1.00  0.00    -0.289 OA
ATOM     32  C   UNL A   1      42.650  12.742  44.119  1.00  0.00     0.034 A 
ATOM     33  C   UNL A   1      42.199  12.038  43.002  1.00  0.00     0.034 A 
ATOM     34  O   UNL A   1      40.718  12.193  41.154  1.00  0.00    -0.289 OA
ATOM     35  C   UNL A   1      43.435  12.152  45.108  1.00  0.00     0.013 A 
ATOM     36  C   UNL A   1      42.581  10.708  42.851  1.00  0.00     0.013 A 
ATOM     37  C   UNL A   1      43.839  10.834  44.937  1.00  0.00     0.001 A 
ATOM     38  C   UNL A   1      43.422  10.120  43.807  1.00  0.00     0.001 A 
ENDBRANCH  21  23
ENDBRANCH  18  19
ENDBRANCH   8  18
ENDBRANCH   4   7
ENDBRANCH   2   3
ENDBRANCH   1   2
BRANCH   1  39
ATOM     39  C   UNL A   1      46.993  23.482  34.982  1.00  0.00     0.023 C 
BRANCH  39  40
ATOM     40  C   UNL A   1      48.012  24.427  34.375  1.00  0.00     0.116 C 
BRANCH  40  41
ATOM     41  N   UNL A   1      48.533  25.493  35.205  1.00  0.00    -0.352 N 
ATOM     42  C   UNL A   1      47.957  26.677  35.630  1.00  0.00     0.251 C 
ATOM     43  H   UNL A   1      49.454  25.350  35.522  1.00  0.00     0.163 HD
ATOM     44  O   UNL A   1      48.582  27.355  36.447  1.00  0.00    -0.269 OA
BRANCH  42  45
ATOM     45  C   UNL A   1      46.655  27.204  35.113  1.00  0.00     0.039 A 
ATOM     46  C   UNL A   1      45.412  26.726  35.509  1.00  0.00     0.014 A 
ATOM     47  C   UNL A   1      46.682  28.253  34.177  1.00  0.00     0.014 A 
ATOM     48  C   UNL A   1      44.255  27.097  34.825  1.00  0.00     0.010 A 
ATOM     49  C   UNL A   1      45.498  28.738  33.592  1.00  0.00     0.010 A 
ATOM     50  C   UNL A   1      44.271  28.127  33.873  1.00  0.00    -0.014 A 
BRANCH  50  51
ATOM     51  C   UNL A   1      42.971  28.560  33.281  1.00  0.00     0.031 A 
ATOM     52  C   UNL A   1      42.056  29.534  33.974  1.00  0.00     0.074 A 
ATOM     53  C   UNL A   1      42.663  28.139  32.036  1.00  0.00     0.049 A 
ATOM     54  N   UNL A   1      40.989  30.135  33.500  1.00  0.00    -0.248 NA
ATOM     55  C   UNL A   1      42.355  29.869  35.373  1.00  0.00     0.031 C 
ATOM     56  C   UNL A   1      43.440  27.164  31.263  1.00  0.00     0.029 A 
ATOM     57  N   UNL A   1      41.662  28.516  31.176  1.00  0.00    -0.354 N 
ATOM     58  C   UNL A   1      40.484  30.902  34.543  1.00  0.00     0.074 A 
ATOM     59  C   UNL A   1      41.345  30.673  35.684  1.00  0.00     0.031 C 
ATOM     60  C   UNL A   1      42.956  27.105  30.015  1.00  0.00     0.029 A 
ATOM     61  C   UNL A   1      41.797  27.985  29.916  1.00  0.00     0.049 A 
ATOM     62  H   UNL A   1      40.920  29.109  31.437  1.00  0.00     0.167 HD
ATOM     63  C   UNL A   1      39.408  31.728  34.545  1.00  0.00     0.037 A 
ATOM     64  C   UNL A   1      41.083  28.187  28.793  1.00  0.00     0.037 A 
ATOM     65  C   UNL A   1      38.564  31.985  33.405  1.00  0.00     0.049 A 
ATOM     66  C   UNL A   1      39.911  29.118  28.821  1.00  0.00     0.074 A 
ATOM     67  C   UNL A   1      37.492  32.858  33.305  1.00  0.00     0.029 A 
ATOM     68  N   UNL A   1      38.690  31.370  32.169  1.00  0.00    -0.354 N 
ATOM     69  N   UNL A   1      39.479  29.869  29.802  1.00  0.00    -0.248 NA
ATOM     70  C   UNL A   1      39.118  29.216  27.588  1.00  0.00     0.031 C 
ATOM     71  C   UNL A   1      36.947  32.744  32.020  1.00  0.00     0.029 A 
ATOM     72  C   UNL A   1      37.701  31.825  31.310  1.00  0.00     0.049 A 
ATOM     73  H   UNL A   1      39.379  30.707  31.937  1.00  0.00     0.167 HD
ATOM     74  C   UNL A   1      38.360  30.525  29.310  1.00  0.00     0.074 A 
ATOM     75  C   UNL A   1      38.201  30.108  27.932  1.00  0.00     0.031 C 
ATOM     76  C   UNL A   1      37.534  31.388  29.949  1.00  0.00     0.037 A 
BRANCH  63  77
ATOM     77  C   UNL A   1      39.070  32.427  35.829  1.00  0.00     0.057 A 
ATOM     78  C   UNL A   1      38.269  31.799  36.792  1.00  0.00     0.134 A 
ATOM     79  C   UNL A   1      39.470  33.745  36.080  1.00  0.00     0.134 A 
ATOM     80  F   UNL A   1      37.842  30.541  36.608  1.00  0.00    -0.206 F 
ATOM     81  C   UNL A   1      37.871  32.461  37.955  1.00  0.00     0.040 A 
ATOM     82  C   UNL A   1      39.094  34.411  37.248  1.00  0.00     0.040 A 
ATOM     83  F   UNL A   1      40.243  34.401  35.200  1.00  0.00    -0.206 F 
ATOM     84  C   UNL A   1      38.286  33.771  38.186  1.00  0.00     0.006 A 
ENDBRANCH  63  77
BRANCH  64  85
ATOM     85  C   UNL A   1      41.474  27.499  27.539  1.00  0.00     0.057 A 
ATOM     86  C   UNL A   1      41.026  26.206  27.249  1.00  0.00     0.134 A 
ATOM     87  C   UNL A   1      42.322  28.116  26.613  1.00  0.00     0.134 A 
ATOM     88  F   UNL A   1      40.215  25.563  28.103  1.00  0.00    -0.206 F 
ATOM     89  C   UNL A   1      41.422  25.541  26.089  1.00  0.00     0.040 A 
ATOM     90  C   UNL A   1      42.708  27.472  25.437  1.00  0.00     0.040 A 
ATOM     91  F   UNL A   1      42.767  29.362  26.830  1.00  0.00    -0.206 F 
ATOM     92  C   UNL A   1      42.263  26.177  25.177  1.00  0.00     0.006 A 
ENDBRANCH  64  85
BRANCH  76  93
ATOM     93  C   UNL A   1      36.380  31.922  29.158  1.00  0.00     0.057 A 
ATOM     94  C   UNL A   1      35.288  31.107  28.836  1.00  0.00     0.134 A 
ATOM     95  C   UNL A   1      36.348  33.254  28.723  1.00  0.00     0.134 A 
ATOM     96  F   UNL A   1      35.259  29.823  29.223  1.00  0.00    -0.206 F 
ATOM     97  C   UNL A   1      34.200  31.601  28.115  1.00  0.00     0.040 A 
ATOM     98  C   UNL A   1      35.257  33.763  28.018  1.00  0.00     0.040 A 
ATOM     99  F   UNL A   1      37.357  34.088  29.016  1.00  0.00    -0.206 F 
ATOM    100  C   UNL A   1      34.180  32.935  27.711  1.00  0.00     0.006 A 
ENDBRANCH  76  93
ENDBRANCH  50  51
ENDBRANCH  42  45
ENDBRANCH  40  41
ENDBRANCH  39  40
ENDBRANCH   1  39
TORSDOF 14
ENDMDL
