MODEL 1
REMARK VINA RESULT:     -12.6      0.000      0.000
REMARK SMILES O=C(CCC(=O)N1Cc2[nH]cnc2C[C@H]1C(=O)NCc1ccccc1)NCCCCNC(=O)c1ccc(-c2c3nc(c(-c4c(F)cccc4F)c4ccc([nH]4)c(-c4c(F)cccc4F)c4nc(c(-c5c(F)cccc5F)c5ccc2[nH]5)C=C4)C=C3)cc1
REMARK SMILES IDX 1 1 2 2 26 3 3 5 4 6 5 7 6 8 7 9 8 10 15 11 9 12 14 13 10 14
REMARK SMILES IDX 13 15 11 16 12 18 16 19 17 20 18 21 19 23 20 24 21 25 25 26
REMARK SMILES IDX 22 27 24 28 23 29 27 30 28 31 29 32 30 33 31 34 32 35 33 37
REMARK SMILES IDX 34 38 35 39 87 40 36 41 86 42 37 43 38 44 39 45 80 46 40 47
REMARK SMILES IDX 85 48 79 49 81 50 41 51 84 52 78 53 77 54 42 56 68 57 51 58
REMARK SMILES IDX 67 59 52 60 55 61 66 62 82 63 53 64 54 65 65 67 83 68 56 69
REMARK SMILES IDX 43 70 44 71 49 72 45 73 46 74 48 75 50 76 47 77 69 78 70 79
REMARK SMILES IDX 75 80 71 81 72 82 74 83 76 84 73 85 57 86 58 87 63 88 59 89
REMARK SMILES IDX 60 90 62 91 64 92 61 93
REMARK H PARENT 26 4 10 17 18 22 31 36 81 55 55 66
REMARK Flexibility Score: inf
ROOT
ATOM      1  O   UNL A   1      38.072  24.027  26.619  1.00  0.00    -0.275 OA
ATOM      2  C   UNL A   1      38.015  23.077  25.846  1.00  0.00     0.220 C 
ATOM      3  N   UNL A   1      38.929  22.008  25.906  1.00  0.00    -0.356 N 
ATOM      4  H   UNL A   1      38.733  21.174  25.423  1.00  0.00     0.163 HD
ENDROOT
BRANCH   2   5
ATOM      5  C   UNL A   1      37.001  23.041  24.670  1.00  0.00     0.110 C 
BRANCH   5   6
ATOM      6  C   UNL A   1      35.539  23.452  24.987  1.00  0.00     0.110 C 
BRANCH   6   7
ATOM      7  C   UNL A   1      34.558  23.591  23.805  1.00  0.00     0.224 C 
ATOM      8  O   UNL A   1      34.914  23.287  22.666  1.00  0.00    -0.275 OA
BRANCH   7   9
ATOM      9  N   UNL A   1      33.263  24.028  24.060  1.00  0.00    -0.324 N 
ATOM     10  C   UNL A   1      32.667  25.067  23.177  1.00  0.00     0.176 C 
ATOM     11  C   UNL A   1      32.629  23.750  25.372  1.00  0.00     0.180 C 
ATOM     12  C   UNL A   1      31.600  25.765  23.925  1.00  0.00     0.058 A 
ATOM     13  C   UNL A   1      32.357  25.027  26.142  1.00  0.00     0.093 C 
ATOM     14  N   UNL A   1      30.360  26.132  23.493  1.00  0.00    -0.347 N 
ATOM     15  C   UNL A   1      31.513  25.837  25.292  1.00  0.00     0.066 A 
ATOM     16  C   UNL A   1      29.609  26.288  24.626  1.00  0.00     0.197 A 
ATOM     17  H   UNL A   1      30.066  26.258  22.562  1.00  0.00     0.167 HD
ATOM     18  N   UNL A   1      30.320  26.267  25.721  1.00  0.00    -0.242 NA
BRANCH  11  19
ATOM     19  C   UNL A   1      31.782  22.465  25.625  1.00  0.00     0.243 C 
ATOM     20  O   UNL A   1      30.674  22.558  26.169  1.00  0.00    -0.273 OA
ATOM     21  N   UNL A   1      32.127  21.192  25.339  1.00  0.00    -0.350 N 
ATOM     22  H   UNL A   1      31.385  20.619  25.040  1.00  0.00     0.163 HD
BRANCH  21  23
ATOM     23  C   UNL A   1      33.407  20.541  25.405  1.00  0.00     0.151 C 
BRANCH  23  24
ATOM     24  C   UNL A   1      33.490  19.332  24.500  1.00  0.00    -0.029 A 
ATOM     25  C   UNL A   1      32.555  19.185  23.471  1.00  0.00     0.005 A 
ATOM     26  C   UNL A   1      34.460  18.325  24.649  1.00  0.00     0.005 A 
ATOM     27  C   UNL A   1      32.523  18.018  22.709  1.00  0.00     0.000 A 
ATOM     28  C   UNL A   1      34.462  17.185  23.855  1.00  0.00     0.000 A 
ATOM     29  C   UNL A   1      33.474  17.020  22.900  1.00  0.00     0.000 A 
ENDBRANCH  23  24
ENDBRANCH  21  23
ENDBRANCH  11  19
ENDBRANCH   7   9
ENDBRANCH   6   7
ENDBRANCH   5   6
ENDBRANCH   2   5
BRANCH   3  30
ATOM     30  C   UNL A   1      40.176  22.122  26.682  1.00  0.00     0.116 C 
BRANCH  30  31
ATOM     31  C   UNL A   1      40.926  20.825  27.103  1.00  0.00     0.023 C 
BRANCH  31  32
ATOM     32  C   UNL A   1      41.309  19.672  26.123  1.00  0.00     0.023 C 
BRANCH  32  33
ATOM     33  C   UNL A   1      42.714  18.985  26.195  1.00  0.00     0.116 C 
BRANCH  33  34
ATOM     34  N   UNL A   1      43.583  19.103  25.013  1.00  0.00    -0.352 N 
ATOM     35  C   UNL A   1      44.478  20.115  24.626  1.00  0.00     0.251 C 
ATOM     36  H   UNL A   1      43.527  18.346  24.387  1.00  0.00     0.163 HD
ATOM     37  O   UNL A   1      45.348  19.839  23.811  1.00  0.00    -0.269 OA
BRANCH  35  38
ATOM     38  C   UNL A   1      44.434  21.517  25.163  1.00  0.00     0.039 A 
ATOM     39  C   UNL A   1      45.417  22.040  26.038  1.00  0.00     0.014 A 
ATOM     40  C   UNL A   1      43.462  22.389  24.739  1.00  0.00     0.014 A 
ATOM     41  C   UNL A   1      45.271  23.308  26.691  1.00  0.00     0.010 A 
ATOM     42  C   UNL A   1      43.327  23.625  25.381  1.00  0.00     0.010 A 
ATOM     43  C   UNL A   1      44.142  24.089  26.458  1.00  0.00    -0.014 A 
BRANCH  43  44
ATOM     44  C   UNL A   1      43.699  25.354  27.207  1.00  0.00     0.031 A 
ATOM     45  C   UNL A   1      44.545  26.501  26.808  1.00  0.00     0.074 A 
ATOM     46  C   UNL A   1      42.612  25.713  27.973  1.00  0.00     0.049 A 
ATOM     47  N   UNL A   1      45.669  26.816  27.369  1.00  0.00    -0.248 NA
ATOM     48  C   UNL A   1      44.277  27.214  25.544  1.00  0.00     0.031 C 
ATOM     49  C   UNL A   1      41.491  24.894  28.447  1.00  0.00     0.029 A 
ATOM     50  N   UNL A   1      42.195  26.983  28.404  1.00  0.00    -0.354 N 
ATOM     51  C   UNL A   1      46.067  27.938  26.667  1.00  0.00     0.074 A 
ATOM     52  C   UNL A   1      45.465  27.804  25.375  1.00  0.00     0.031 C 
ATOM     53  C   UNL A   1      40.462  25.682  28.855  1.00  0.00     0.029 A 
ATOM     54  C   UNL A   1      40.849  27.079  28.810  1.00  0.00     0.049 A 
ATOM     55  H   UNL A   1      42.804  27.757  28.423  1.00  0.00     0.167 HD
ATOM     56  C   UNL A   1      46.320  29.100  27.329  1.00  0.00     0.037 A 
ATOM     57  C   UNL A   1      40.124  28.152  29.259  1.00  0.00     0.037 A 
ATOM     58  C   UNL A   1      46.373  28.863  28.759  1.00  0.00     0.049 A 
ATOM     59  C   UNL A   1      41.046  29.032  29.981  1.00  0.00     0.074 A 
ATOM     60  C   UNL A   1      47.170  28.179  29.654  1.00  0.00     0.029 A 
ATOM     61  N   UNL A   1      45.184  29.092  29.393  1.00  0.00    -0.354 N 
ATOM     62  N   UNL A   1      41.586  28.711  31.118  1.00  0.00    -0.248 NA
ATOM     63  C   UNL A   1      41.596  30.201  29.313  1.00  0.00     0.031 C 
ATOM     64  C   UNL A   1      46.393  27.975  30.835  1.00  0.00     0.029 A 
ATOM     65  C   UNL A   1      45.154  28.575  30.660  1.00  0.00     0.049 A 
ATOM     66  H   UNL A   1      44.431  29.577  28.983  1.00  0.00     0.167 HD
ATOM     67  C   UNL A   1      42.833  29.274  31.023  1.00  0.00     0.074 A 
ATOM     68  C   UNL A   1      42.712  30.335  30.032  1.00  0.00     0.031 C 
ATOM     69  C   UNL A   1      43.916  28.541  31.397  1.00  0.00     0.037 A 
BRANCH  56  70
ATOM     70  C   UNL A   1      46.010  30.494  26.789  1.00  0.00     0.057 A 
ATOM     71  C   UNL A   1      47.064  31.421  26.730  1.00  0.00     0.134 A 
ATOM     72  C   UNL A   1      44.733  31.052  26.540  1.00  0.00     0.134 A 
ATOM     73  F   UNL A   1      48.330  31.037  26.960  1.00  0.00    -0.206 F 
ATOM     74  C   UNL A   1      46.860  32.788  26.502  1.00  0.00     0.040 A 
ATOM     75  C   UNL A   1      44.525  32.406  26.262  1.00  0.00     0.040 A 
ATOM     76  F   UNL A   1      43.589  30.371  26.630  1.00  0.00    -0.206 F 
ATOM     77  C   UNL A   1      45.587  33.286  26.268  1.00  0.00     0.006 A 
ENDBRANCH  56  70
BRANCH  57  78
ATOM     78  C   UNL A   1      38.705  28.611  29.149  1.00  0.00     0.057 A 
ATOM     79  C   UNL A   1      37.846  28.754  30.259  1.00  0.00     0.134 A 
ATOM     80  C   UNL A   1      38.297  29.296  27.995  1.00  0.00     0.134 A 
ATOM     81  F   UNL A   1      38.185  28.248  31.453  1.00  0.00    -0.206 F 
ATOM     82  C   UNL A   1      36.651  29.499  30.209  1.00  0.00     0.040 A 
ATOM     83  C   UNL A   1      37.092  30.017  27.918  1.00  0.00     0.040 A 
ATOM     84  F   UNL A   1      39.123  29.368  26.939  1.00  0.00    -0.206 F 
ATOM     85  C   UNL A   1      36.264  30.126  29.030  1.00  0.00     0.006 A 
ENDBRANCH  57  78
BRANCH  69  86
ATOM     86  C   UNL A   1      43.740  27.585  32.535  1.00  0.00     0.057 A 
ATOM     87  C   UNL A   1      43.515  27.935  33.874  1.00  0.00     0.134 A 
ATOM     88  C   UNL A   1      43.790  26.219  32.237  1.00  0.00     0.134 A 
ATOM     89  F   UNL A   1      43.407  29.216  34.254  1.00  0.00    -0.206 F 
ATOM     90  C   UNL A   1      43.373  26.963  34.871  1.00  0.00     0.040 A 
ATOM     91  C   UNL A   1      43.619  25.241  33.215  1.00  0.00     0.040 A 
ATOM     92  F   UNL A   1      43.997  25.813  30.974  1.00  0.00    -0.206 F 
ATOM     93  C   UNL A   1      43.418  25.610  34.541  1.00  0.00     0.006 A 
ENDBRANCH  69  86
ENDBRANCH  43  44
ENDBRANCH  35  38
ENDBRANCH  33  34
ENDBRANCH  32  33
ENDBRANCH  31  32
ENDBRANCH  30  31
ENDBRANCH   3  30
TORSDOF 17
ENDMDL
MODEL 2
REMARK VINA RESULT:     -12.4      1.843      3.494
REMARK SMILES O=C(CCC(=O)N1Cc2[nH]cnc2C[C@H]1C(=O)NCc1ccccc1)NCCCCNC(=O)c1ccc(-c2c3nc(c(-c4c(F)cccc4F)c4ccc([nH]4)c(-c4c(F)cccc4F)c4nc(c(-c5c(F)cccc5F)c5ccc2[nH]5)C=C4)C=C3)cc1
REMARK SMILES IDX 1 1 2 2 26 3 3 5 4 6 5 7 6 8 7 9 8 10 15 11 9 12 14 13 10 14
REMARK SMILES IDX 13 15 11 16 12 18 16 19 17 20 18 21 19 23 20 24 21 25 25 26
REMARK SMILES IDX 22 27 24 28 23 29 27 30 28 31 29 32 30 33 31 34 32 35 33 37
REMARK SMILES IDX 34 38 35 39 87 40 36 41 86 42 37 43 38 44 39 45 80 46 40 47
REMARK SMILES IDX 85 48 79 49 81 50 41 51 84 52 78 53 77 54 42 56 68 57 51 58
REMARK SMILES IDX 67 59 52 60 55 61 66 62 82 63 53 64 54 65 65 67 83 68 56 69
REMARK SMILES IDX 43 70 44 71 49 72 45 73 46 74 48 75 50 76 47 77 69 78 70 79
REMARK SMILES IDX 75 80 71 81 72 82 74 83 76 84 73 85 57 86 58 87 63 88 59 89
REMARK SMILES IDX 60 90 62 91 64 92 61 93
REMARK H PARENT 26 4 10 17 18 22 31 36 81 55 55 66
REMARK Flexibility Score: inf
ROOT
ATOM      1  O   UNL A   1      38.162  24.209  26.424  1.00  0.00    -0.275 OA
ATOM      2  C   UNL A   1      37.952  23.215  25.736  1.00  0.00     0.220 C 
ATOM      3  N   UNL A   1      38.768  22.070  25.807  1.00  0.00    -0.356 N 
ATOM      4  H   UNL A   1      38.455  21.227  25.408  1.00  0.00     0.163 HD
ENDROOT
BRANCH   2   5
ATOM      5  C   UNL A   1      36.840  23.195  24.652  1.00  0.00     0.110 C 
BRANCH   5   6
ATOM      6  C   UNL A   1      35.425  23.658  25.085  1.00  0.00     0.110 C 
BRANCH   6   7
ATOM      7  C   UNL A   1      34.547  24.367  24.035  1.00  0.00     0.224 C 
ATOM      8  O   UNL A   1      34.646  24.072  22.843  1.00  0.00    -0.275 OA
BRANCH   7   9
ATOM      9  N   UNL A   1      33.623  25.313  24.465  1.00  0.00    -0.324 N 
ATOM     10  C   UNL A   1      34.110  26.650  24.900  1.00  0.00     0.176 C 
ATOM     11  C   UNL A   1      32.247  24.896  24.831  1.00  0.00     0.180 C 
ATOM     12  C   UNL A   1      33.109  27.241  25.813  1.00  0.00     0.058 A 
ATOM     13  C   UNL A   1      31.969  25.122  26.304  1.00  0.00     0.093 C 
ATOM     14  N   UNL A   1      32.645  28.523  25.849  1.00  0.00    -0.347 N 
ATOM     15  C   UNL A   1      32.190  26.532  26.542  1.00  0.00     0.066 A 
ATOM     16  C   UNL A   1      31.442  28.458  26.498  1.00  0.00     0.197 A 
ATOM     17  H   UNL A   1      33.082  29.326  25.484  1.00  0.00     0.167 HD
ATOM     18  N   UNL A   1      31.222  27.298  27.058  1.00  0.00    -0.242 NA
BRANCH  11  19
ATOM     19  C   UNL A   1      31.086  24.870  23.790  1.00  0.00     0.243 C 
ATOM     20  O   UNL A   1      30.724  23.791  23.302  1.00  0.00    -0.273 OA
ATOM     21  N   UNL A   1      30.404  25.928  23.303  1.00  0.00    -0.350 N 
ATOM     22  H   UNL A   1      29.449  25.763  23.134  1.00  0.00     0.163 HD
BRANCH  21  23
ATOM     23  C   UNL A   1      30.853  27.256  22.990  1.00  0.00     0.151 C 
BRANCH  23  24
ATOM     24  C   UNL A   1      29.752  28.286  23.114  1.00  0.00    -0.029 A 
ATOM     25  C   UNL A   1      28.425  27.856  23.205  1.00  0.00     0.005 A 
ATOM     26  C   UNL A   1      29.992  29.671  23.126  1.00  0.00     0.005 A 
ATOM     27  C   UNL A   1      27.382  28.781  23.184  1.00  0.00     0.000 A 
ATOM     28  C   UNL A   1      28.955  30.595  23.158  1.00  0.00     0.000 A 
ATOM     29  C   UNL A   1      27.645  30.148  23.160  1.00  0.00     0.000 A 
ENDBRANCH  23  24
ENDBRANCH  21  23
ENDBRANCH  11  19
ENDBRANCH   7   9
ENDBRANCH   6   7
ENDBRANCH   5   6
ENDBRANCH   2   5
BRANCH   3  30
ATOM     30  C   UNL A   1      40.082  22.118  26.468  1.00  0.00     0.116 C 
BRANCH  30  31
ATOM     31  C   UNL A   1      40.759  20.785  26.902  1.00  0.00     0.023 C 
BRANCH  31  32
ATOM     32  C   UNL A   1      41.335  19.726  25.909  1.00  0.00     0.023 C 
BRANCH  32  33
ATOM     33  C   UNL A   1      42.762  19.118  26.116  1.00  0.00     0.116 C 
BRANCH  33  34
ATOM     34  N   UNL A   1      43.709  19.223  24.994  1.00  0.00    -0.352 N 
ATOM     35  C   UNL A   1      44.637  20.226  24.664  1.00  0.00     0.251 C 
ATOM     36  H   UNL A   1      43.687  18.464  24.368  1.00  0.00     0.163 HD
ATOM     37  O   UNL A   1      45.557  19.938  23.909  1.00  0.00    -0.269 OA
BRANCH  35  38
ATOM     38  C   UNL A   1      44.571  21.630  25.192  1.00  0.00     0.039 A 
ATOM     39  C   UNL A   1      45.572  22.191  26.022  1.00  0.00     0.014 A 
ATOM     40  C   UNL A   1      43.555  22.467  24.802  1.00  0.00     0.014 A 
ATOM     41  C   UNL A   1      45.412  23.460  26.670  1.00  0.00     0.010 A 
ATOM     42  C   UNL A   1      43.406  23.704  25.440  1.00  0.00     0.010 A 
ATOM     43  C   UNL A   1      44.251  24.202  26.479  1.00  0.00    -0.014 A 
BRANCH  43  44
ATOM     44  C   UNL A   1      43.799  25.459  27.236  1.00  0.00     0.031 A 
ATOM     45  C   UNL A   1      44.634  26.616  26.842  1.00  0.00     0.074 A 
ATOM     46  C   UNL A   1      42.711  25.805  28.008  1.00  0.00     0.049 A 
ATOM     47  N   UNL A   1      45.757  26.938  27.401  1.00  0.00    -0.248 NA
ATOM     48  C   UNL A   1      44.356  27.334  25.582  1.00  0.00     0.031 C 
ATOM     49  C   UNL A   1      41.598  24.973  28.481  1.00  0.00     0.029 A 
ATOM     50  N   UNL A   1      42.284  27.068  28.447  1.00  0.00    -0.354 N 
ATOM     51  C   UNL A   1      46.142  28.067  26.704  1.00  0.00     0.074 A 
ATOM     52  C   UNL A   1      45.538  27.934  25.413  1.00  0.00     0.031 C 
ATOM     53  C   UNL A   1      40.563  25.750  28.896  1.00  0.00     0.029 A 
ATOM     54  C   UNL A   1      40.938  27.150  28.857  1.00  0.00     0.049 A 
ATOM     55  H   UNL A   1      42.886  27.847  28.469  1.00  0.00     0.167 HD
ATOM     56  C   UNL A   1      46.387  29.227  27.373  1.00  0.00     0.037 A 
ATOM     57  C   UNL A   1      40.205  28.215  29.315  1.00  0.00     0.037 A 
ATOM     58  C   UNL A   1      46.447  28.983  28.800  1.00  0.00     0.049 A 
ATOM     59  C   UNL A   1      41.121  29.099  30.039  1.00  0.00     0.074 A 
ATOM     60  C   UNL A   1      47.252  28.300  29.689  1.00  0.00     0.029 A 
ATOM     61  N   UNL A   1      45.258  29.198  29.439  1.00  0.00    -0.354 N 
ATOM     62  N   UNL A   1      41.668  28.776  31.173  1.00  0.00    -0.248 NA
ATOM     63  C   UNL A   1      41.659  30.276  29.376  1.00  0.00     0.031 C 
ATOM     64  C   UNL A   1      46.480  28.083  30.871  1.00  0.00     0.029 A 
ATOM     65  C   UNL A   1      45.236  28.673  30.703  1.00  0.00     0.049 A 
ATOM     66  H   UNL A   1      44.499  29.678  29.035  1.00  0.00     0.167 HD
ATOM     67  C   UNL A   1      42.909  29.350  31.077  1.00  0.00     0.074 A 
ATOM     68  C   UNL A   1      42.776  30.416  30.093  1.00  0.00     0.031 C 
ATOM     69  C   UNL A   1      44.000  28.624  31.444  1.00  0.00     0.037 A 
BRANCH  56  70
ATOM     70  C   UNL A   1      46.063  30.621  26.840  1.00  0.00     0.057 A 
ATOM     71  C   UNL A   1      47.111  31.556  26.778  1.00  0.00     0.134 A 
ATOM     72  C   UNL A   1      44.781  31.172  26.604  1.00  0.00     0.134 A 
ATOM     73  F   UNL A   1      48.381  31.180  26.997  1.00  0.00    -0.206 F 
ATOM     74  C   UNL A   1      46.896  32.923  26.558  1.00  0.00     0.040 A 
ATOM     75  C   UNL A   1      44.561  32.525  26.334  1.00  0.00     0.040 A 
ATOM     76  F   UNL A   1      43.642  30.482  26.700  1.00  0.00    -0.206 F 
ATOM     77  C   UNL A   1      45.617  33.412  26.336  1.00  0.00     0.006 A 
ENDBRANCH  56  70
BRANCH  57  78
ATOM     78  C   UNL A   1      38.782  28.662  29.211  1.00  0.00     0.057 A 
ATOM     79  C   UNL A   1      37.914  28.756  30.320  1.00  0.00     0.134 A 
ATOM     80  C   UNL A   1      38.375  29.383  28.080  1.00  0.00     0.134 A 
ATOM     81  F   UNL A   1      38.251  28.210  31.496  1.00  0.00    -0.206 F 
ATOM     82  C   UNL A   1      36.711  29.488  30.288  1.00  0.00     0.040 A 
ATOM     83  C   UNL A   1      37.162  30.094  28.021  1.00  0.00     0.040 A 
ATOM     84  F   UNL A   1      39.206  29.502  27.033  1.00  0.00    -0.206 F 
ATOM     85  C   UNL A   1      36.326  30.154  29.130  1.00  0.00     0.006 A 
ENDBRANCH  57  78
BRANCH  69  86
ATOM     86  C   UNL A   1      43.835  27.661  32.577  1.00  0.00     0.057 A 
ATOM     87  C   UNL A   1      43.648  28.002  33.924  1.00  0.00     0.134 A 
ATOM     88  C   UNL A   1      43.857  26.297  32.265  1.00  0.00     0.134 A 
ATOM     89  F   UNL A   1      43.569  29.280  34.318  1.00  0.00    -0.206 F 
ATOM     90  C   UNL A   1      43.514  27.022  34.915  1.00  0.00     0.040 A 
ATOM     91  C   UNL A   1      43.694  25.312  33.238  1.00  0.00     0.040 A 
ATOM     92  F   UNL A   1      44.028  25.899  30.994  1.00  0.00    -0.206 F 
ATOM     93  C   UNL A   1      43.529  25.672  34.571  1.00  0.00     0.006 A 
ENDBRANCH  69  86
ENDBRANCH  43  44
ENDBRANCH  35  38
ENDBRANCH  33  34
ENDBRANCH  32  33
ENDBRANCH  31  32
ENDBRANCH  30  31
ENDBRANCH   3  30
TORSDOF 17
ENDMDL
MODEL 3
REMARK VINA RESULT:     -12.2      4.404     10.140
REMARK SMILES O=C(CCC(=O)N1Cc2[nH]cnc2C[C@H]1C(=O)NCc1ccccc1)NCCCCNC(=O)c1ccc(-c2c3nc(c(-c4c(F)cccc4F)c4ccc([nH]4)c(-c4c(F)cccc4F)c4nc(c(-c5c(F)cccc5F)c5ccc2[nH]5)C=C4)C=C3)cc1
REMARK SMILES IDX 1 1 2 2 26 3 3 5 4 6 5 7 6 8 7 9 8 10 15 11 9 12 14 13 10 14
REMARK SMILES IDX 13 15 11 16 12 18 16 19 17 20 18 21 19 23 20 24 21 25 25 26
REMARK SMILES IDX 22 27 24 28 23 29 27 30 28 31 29 32 30 33 31 34 32 35 33 37
REMARK SMILES IDX 34 38 35 39 87 40 36 41 86 42 37 43 38 44 39 45 80 46 40 47
REMARK SMILES IDX 85 48 79 49 81 50 41 51 84 52 78 53 77 54 42 56 68 57 51 58
REMARK SMILES IDX 67 59 52 60 55 61 66 62 82 63 53 64 54 65 65 67 83 68 56 69
REMARK SMILES IDX 43 70 44 71 49 72 45 73 46 74 48 75 50 76 47 77 69 78 70 79
REMARK SMILES IDX 75 80 71 81 72 82 74 83 76 84 73 85 57 86 58 87 63 88 59 89
REMARK SMILES IDX 60 90 62 91 64 92 61 93
REMARK H PARENT 26 4 10 17 18 22 31 36 81 55 55 66
REMARK Flexibility Score: inf
ROOT
ATOM      1  O   UNL A   1      35.073  31.010  27.589  1.00  0.00    -0.275 OA
ATOM      2  C   UNL A   1      33.913  31.403  27.535  1.00  0.00     0.220 C 
ATOM      3  N   UNL A   1      33.553  32.721  27.874  1.00  0.00    -0.356 N 
ATOM      4  H   UNL A   1      32.665  33.062  27.621  1.00  0.00     0.163 HD
ENDROOT
BRANCH   2   5
ATOM      5  C   UNL A   1      32.741  30.441  27.201  1.00  0.00     0.110 C 
BRANCH   5   6
ATOM      6  C   UNL A   1      33.082  28.934  27.065  1.00  0.00     0.110 C 
BRANCH   6   7
ATOM      7  C   UNL A   1      31.911  27.932  27.015  1.00  0.00     0.224 C 
ATOM      8  O   UNL A   1      31.079  27.906  27.923  1.00  0.00    -0.275 OA
BRANCH   7   9
ATOM      9  N   UNL A   1      31.797  27.093  25.911  1.00  0.00    -0.324 N 
ATOM     10  C   UNL A   1      30.847  25.949  25.973  1.00  0.00     0.176 C 
ATOM     11  C   UNL A   1      32.838  27.108  24.855  1.00  0.00     0.180 C 
ATOM     12  C   UNL A   1      31.289  24.920  25.008  1.00  0.00     0.058 A 
ATOM     13  C   UNL A   1      33.575  25.786  24.781  1.00  0.00     0.093 C 
ATOM     14  N   UNL A   1      30.531  24.189  24.140  1.00  0.00    -0.347 N 
ATOM     15  C   UNL A   1      32.568  24.777  24.537  1.00  0.00     0.066 A 
ATOM     16  C   UNL A   1      31.397  23.760  23.171  1.00  0.00     0.197 A 
ATOM     17  H   UNL A   1      29.566  24.007  24.199  1.00  0.00     0.167 HD
ATOM     18  N   UNL A   1      32.651  23.972  23.471  1.00  0.00    -0.242 NA
BRANCH  11  19
ATOM     19  C   UNL A   1      32.740  28.043  23.610  1.00  0.00     0.243 C 
ATOM     20  O   UNL A   1      33.467  29.042  23.536  1.00  0.00    -0.273 OA
ATOM     21  N   UNL A   1      31.904  27.916  22.559  1.00  0.00    -0.350 N 
ATOM     22  H   UNL A   1      32.286  28.180  21.691  1.00  0.00     0.163 HD
BRANCH  21  23
ATOM     23  C   UNL A   1      30.543  27.458  22.506  1.00  0.00     0.151 C 
BRANCH  23  24
ATOM     24  C   UNL A   1      29.546  28.574  22.726  1.00  0.00    -0.029 A 
ATOM     25  C   UNL A   1      28.226  28.253  23.059  1.00  0.00     0.005 A 
ATOM     26  C   UNL A   1      29.874  29.935  22.596  1.00  0.00     0.005 A 
ATOM     27  C   UNL A   1      27.256  29.252  23.134  1.00  0.00     0.000 A 
ATOM     28  C   UNL A   1      28.918  30.936  22.723  1.00  0.00     0.000 A 
ATOM     29  C   UNL A   1      27.600  30.590  22.966  1.00  0.00     0.000 A 
ENDBRANCH  23  24
ENDBRANCH  21  23
ENDBRANCH  11  19
ENDBRANCH   7   9
ENDBRANCH   6   7
ENDBRANCH   5   6
ENDBRANCH   2   5
BRANCH   3  30
ATOM     30  C   UNL A   1      34.486  33.597  28.603  1.00  0.00     0.116 C 
BRANCH  30  31
ATOM     31  C   UNL A   1      34.433  35.132  28.353  1.00  0.00     0.023 C 
BRANCH  31  32
ATOM     32  C   UNL A   1      33.216  36.041  28.714  1.00  0.00     0.023 C 
BRANCH  32  33
ATOM     33  C   UNL A   1      33.196  36.874  30.040  1.00  0.00     0.116 C 
BRANCH  33  34
ATOM     34  N   UNL A   1      32.388  36.350  31.153  1.00  0.00    -0.352 N 
ATOM     35  C   UNL A   1      32.757  35.614  32.292  1.00  0.00     0.251 C 
ATOM     36  H   UNL A   1      31.425  36.547  31.087  1.00  0.00     0.163 HD
ATOM     37  O   UNL A   1      31.992  35.603  33.248  1.00  0.00    -0.269 OA
BRANCH  35  38
ATOM     38  C   UNL A   1      34.042  34.845  32.407  1.00  0.00     0.039 A 
ATOM     39  C   UNL A   1      35.258  35.434  32.833  1.00  0.00     0.014 A 
ATOM     40  C   UNL A   1      34.059  33.491  32.186  1.00  0.00     0.014 A 
ATOM     41  C   UNL A   1      36.513  34.744  32.762  1.00  0.00     0.010 A 
ATOM     42  C   UNL A   1      35.288  32.825  32.119  1.00  0.00     0.010 A 
ATOM     43  C   UNL A   1      36.568  33.438  32.284  1.00  0.00    -0.014 A 
BRANCH  43  44
ATOM     44  C   UNL A   1      37.815  32.614  31.933  1.00  0.00     0.031 A 
ATOM     45  C   UNL A   1      38.510  32.194  33.170  1.00  0.00     0.074 A 
ATOM     46  C   UNL A   1      38.309  32.015  30.795  1.00  0.00     0.049 A 
ATOM     47  N   UNL A   1      39.406  32.897  33.786  1.00  0.00    -0.248 NA
ATOM     48  C   UNL A   1      38.018  31.032  33.938  1.00  0.00     0.031 C 
ATOM     49  C   UNL A   1      37.811  32.075  29.415  1.00  0.00     0.029 A 
ATOM     50  N   UNL A   1      39.341  31.074  30.648  1.00  0.00    -0.354 N 
ATOM     51  C   UNL A   1      39.753  32.096  34.856  1.00  0.00     0.074 A 
ATOM     52  C   UNL A   1      38.596  31.293  35.114  1.00  0.00     0.031 C 
ATOM     53  C   UNL A   1      38.350  31.075  28.668  1.00  0.00     0.029 A 
ATOM     54  C   UNL A   1      39.340  30.348  29.440  1.00  0.00     0.049 A 
ATOM     55  H   UNL A   1      40.023  30.931  31.344  1.00  0.00     0.167 HD
ATOM     56  C   UNL A   1      41.052  31.734  35.040  1.00  0.00     0.037 A 
ATOM     57  C   UNL A   1      40.175  29.359  28.990  1.00  0.00     0.037 A 
ATOM     58  C   UNL A   1      41.919  32.507  34.173  1.00  0.00     0.049 A 
ATOM     59  C   UNL A   1      41.505  29.622  29.545  1.00  0.00     0.074 A 
ATOM     60  C   UNL A   1      42.307  33.823  34.023  1.00  0.00     0.029 A 
ATOM     61  N   UNL A   1      42.208  31.880  32.992  1.00  0.00    -0.354 N 
ATOM     62  N   UNL A   1      42.236  30.632  29.183  1.00  0.00    -0.248 NA
ATOM     63  C   UNL A   1      41.948  28.896  30.726  1.00  0.00     0.031 C 
ATOM     64  C   UNL A   1      42.803  33.965  32.691  1.00  0.00     0.029 A 
ATOM     65  C   UNL A   1      42.752  32.727  32.065  1.00  0.00     0.049 A 
ATOM     66  H   UNL A   1      42.042  30.924  32.827  1.00  0.00     0.167 HD
ATOM     67  C   UNL A   1      42.865  30.977  30.352  1.00  0.00     0.074 A 
ATOM     68  C   UNL A   1      42.834  29.782  31.184  1.00  0.00     0.031 C 
ATOM     69  C   UNL A   1      42.928  32.290  30.703  1.00  0.00     0.037 A 
BRANCH  56  70
ATOM     70  C   UNL A   1      41.509  30.379  35.579  1.00  0.00     0.057 A 
ATOM     71  C   UNL A   1      42.458  30.375  36.615  1.00  0.00     0.134 A 
ATOM     72  C   UNL A   1      41.262  29.106  35.014  1.00  0.00     0.134 A 
ATOM     73  F   UNL A   1      42.804  31.515  37.234  1.00  0.00    -0.206 F 
ATOM     74  C   UNL A   1      43.141  29.218  37.014  1.00  0.00     0.040 A 
ATOM     75  C   UNL A   1      41.901  27.937  35.439  1.00  0.00     0.040 A 
ATOM     76  F   UNL A   1      40.465  28.895  33.964  1.00  0.00    -0.206 F 
ATOM     77  C   UNL A   1      42.864  27.994  36.424  1.00  0.00     0.006 A 
ENDBRANCH  56  70
BRANCH  57  78
ATOM     78  C   UNL A   1      40.031  28.133  28.145  1.00  0.00     0.057 A 
ATOM     79  C   UNL A   1      40.688  27.958  26.909  1.00  0.00     0.134 A 
ATOM     80  C   UNL A   1      39.557  26.952  28.735  1.00  0.00     0.134 A 
ATOM     81  F   UNL A   1      41.289  28.993  26.306  1.00  0.00    -0.206 F 
ATOM     82  C   UNL A   1      40.831  26.700  26.292  1.00  0.00     0.040 A 
ATOM     83  C   UNL A   1      39.664  25.692  28.117  1.00  0.00     0.040 A 
ATOM     84  F   UNL A   1      39.071  26.982  29.985  1.00  0.00    -0.206 F 
ATOM     85  C   UNL A   1      40.308  25.561  26.892  1.00  0.00     0.006 A 
ENDBRANCH  57  78
BRANCH  69  86
ATOM     86  C   UNL A   1      43.055  33.292  29.598  1.00  0.00     0.057 A 
ATOM     87  C   UNL A   1      42.057  34.183  29.179  1.00  0.00     0.134 A 
ATOM     88  C   UNL A   1      44.283  33.355  28.931  1.00  0.00     0.134 A 
ATOM     89  F   UNL A   1      40.862  34.230  29.783  1.00  0.00    -0.206 F 
ATOM     90  C   UNL A   1      42.271  35.078  28.124  1.00  0.00     0.040 A 
ATOM     91  C   UNL A   1      44.519  34.264  27.900  1.00  0.00     0.040 A 
ATOM     92  F   UNL A   1      45.285  32.534  29.283  1.00  0.00    -0.206 F 
ATOM     93  C   UNL A   1      43.509  35.125  27.487  1.00  0.00     0.006 A 
ENDBRANCH  69  86
ENDBRANCH  43  44
ENDBRANCH  35  38
ENDBRANCH  33  34
ENDBRANCH  32  33
ENDBRANCH  31  32
ENDBRANCH  30  31
ENDBRANCH   3  30
TORSDOF 17
ENDMDL
