MODEL 1
REMARK VINA RESULT:     -10.5      0.000      0.000
REMARK SMILES CC[NH2+][C@]1(C(=O)NCCCCNC(=O)c2ccc(-c3c4nc(c(-c5c(F)cccc5F)c5ccc([nH]5)c(-c5c(F)cccc5F)c5nc(c(-c6c(F)cccc6F)c6ccc3[nH]6)C=C5)C=C4)cc2)CCC[C@@H]1CCSc1ccccc1F
REMARK SMILES IDX 8 1 7 2 5 3 6 4 4 6 69 7 72 8 70 9 71 10 3 11 2 14 1 15
REMARK SMILES IDX 73 16 74 17 75 18 76 19 77 20 81 21 78 22 80 23 82 24 79 25
REMARK SMILES IDX 9 26 10 27 11 28 12 29 13 30 14 32 15 33 16 34 68 35 17 36
REMARK SMILES IDX 67 37 18 38 19 39 20 40 61 41 21 42 66 43 60 44 62 45 22 46
REMARK SMILES IDX 65 47 59 48 58 49 23 51 49 52 32 53 48 54 33 55 36 56 47 57
REMARK SMILES IDX 63 58 34 59 35 60 46 62 64 63 37 64 24 65 25 66 30 67 26 68
REMARK SMILES IDX 27 69 29 70 31 71 28 72 50 73 51 74 56 75 52 76 53 77 55 78
REMARK SMILES IDX 57 79 54 80 38 81 39 82 44 83 40 84 41 85 43 86 45 87 42 88
REMARK H PARENT 7 5 3 12 3 13 12 31 62 50 36 61
REMARK Flexibility Score: inf
ROOT
ATOM      1  C   UNL A   1      35.913  21.651  25.309  1.00  0.00     0.116 C 
ENDROOT
BRANCH   1   2
ATOM      2  N   UNL A   1      35.231  21.742  26.588  1.00  0.00    -0.351 N 
ATOM      3  C   UNL A   1      34.216  22.500  27.066  1.00  0.00     0.281 C 
ATOM      4  O   UNL A   1      34.264  22.694  28.293  1.00  0.00    -0.268 OA
ATOM      5  H   UNL A   1      35.586  21.112  27.256  1.00  0.00     0.163 HD
BRANCH   3   6
ATOM      6  C   UNL A   1      32.980  23.080  26.281  1.00  0.00     0.178 C 
ATOM      7  C   UNL A   1      31.658  23.080  27.058  1.00  0.00     0.079 C 
ATOM      8  C   UNL A   1      33.172  24.622  26.043  1.00  0.00     0.061 C 
ATOM      9  C   UNL A   1      30.765  24.081  26.355  1.00  0.00     0.008 C 
ATOM     10  C   UNL A   1      31.722  25.182  25.910  1.00  0.00     0.011 C 
BRANCH   6  11
ATOM     11  N   UNL A   1      32.882  22.194  25.086  1.00  0.00    -0.334 N 
ATOM     12  H   UNL A   1      32.678  22.803  24.294  1.00  0.00     0.347 HD
ATOM     13  H   UNL A   1      33.773  21.699  25.109  1.00  0.00     0.347 HD
BRANCH  11  14
ATOM     14  C   UNL A   1      31.925  21.102  25.019  1.00  0.00     0.257 C 
ATOM     15  C   UNL A   1      32.669  19.770  24.941  1.00  0.00     0.071 C 
ENDBRANCH  11  14
ENDBRANCH   6  11
BRANCH   8  16
ATOM     16  C   UNL A   1      34.070  25.087  24.866  1.00  0.00     0.022 C 
BRANCH  16  17
ATOM     17  C   UNL A   1      33.377  25.887  23.756  1.00  0.00     0.075 C 
BRANCH  17  18
ATOM     18  S   UNL A   1      34.000  27.596  23.572  1.00  0.00    -0.123 SA
BRANCH  18  19
ATOM     19  C   UNL A   1      33.111  28.538  24.800  1.00  0.00     0.043 A 
ATOM     20  C   UNL A   1      32.017  29.353  24.489  1.00  0.00     0.018 A 
ATOM     21  C   UNL A   1      33.559  28.520  26.130  1.00  0.00     0.136 A 
ATOM     22  C   UNL A   1      31.361  30.084  25.485  1.00  0.00     0.001 A 
ATOM     23  C   UNL A   1      32.907  29.244  27.128  1.00  0.00     0.040 A 
ATOM     24  F   UNL A   1      34.627  27.790  26.488  1.00  0.00    -0.206 F 
ATOM     25  C   UNL A   1      31.805  30.030  26.804  1.00  0.00     0.003 A 
ENDBRANCH  18  19
ENDBRANCH  17  18
ENDBRANCH  16  17
ENDBRANCH   8  16
ENDBRANCH   3   6
ENDBRANCH   1   2
BRANCH   1  26
ATOM     26  C   UNL A   1      36.339  20.212  24.991  1.00  0.00     0.023 C 
BRANCH  26  27
ATOM     27  C   UNL A   1      37.810  19.989  24.628  1.00  0.00     0.023 C 
BRANCH  27  28
ATOM     28  C   UNL A   1      38.826  20.238  25.739  1.00  0.00     0.116 C 
BRANCH  28  29
ATOM     29  N   UNL A   1      39.947  19.317  25.724  1.00  0.00    -0.352 N 
ATOM     30  C   UNL A   1      41.258  19.506  26.097  1.00  0.00     0.251 C 
ATOM     31  H   UNL A   1      39.736  18.413  25.395  1.00  0.00     0.163 HD
ATOM     32  O   UNL A   1      42.069  18.602  25.938  1.00  0.00    -0.269 OA
BRANCH  30  33
ATOM     33  C   UNL A   1      41.713  20.803  26.653  1.00  0.00     0.039 A 
ATOM     34  C   UNL A   1      42.189  21.772  25.763  1.00  0.00     0.014 A 
ATOM     35  C   UNL A   1      41.707  21.068  28.025  1.00  0.00     0.014 A 
ATOM     36  C   UNL A   1      42.595  23.022  26.240  1.00  0.00     0.010 A 
ATOM     37  C   UNL A   1      42.053  22.338  28.494  1.00  0.00     0.010 A 
ATOM     38  C   UNL A   1      42.500  23.331  27.607  1.00  0.00    -0.014 A 
BRANCH  38  39
ATOM     39  C   UNL A   1      42.855  24.691  28.102  1.00  0.00     0.031 A 
ATOM     40  C   UNL A   1      41.787  25.730  28.326  1.00  0.00     0.074 A 
ATOM     41  C   UNL A   1      44.147  25.004  28.329  1.00  0.00     0.049 A 
ATOM     42  N   UNL A   1      41.911  26.964  28.748  1.00  0.00    -0.248 NA
ATOM     43  C   UNL A   1      40.403  25.339  28.022  1.00  0.00     0.031 C 
ATOM     44  C   UNL A   1      45.284  24.104  28.121  1.00  0.00     0.029 A 
ATOM     45  N   UNL A   1      44.725  26.165  28.783  1.00  0.00    -0.354 N 
ATOM     46  C   UNL A   1      40.628  27.499  28.747  1.00  0.00     0.074 A 
ATOM     47  C   UNL A   1      39.746  26.469  28.243  1.00  0.00     0.031 C 
ATOM     48  C   UNL A   1      46.415  24.736  28.474  1.00  0.00     0.029 A 
ATOM     49  C   UNL A   1      46.094  26.095  28.895  1.00  0.00     0.049 A 
ATOM     50  H   UNL A   1      44.207  26.972  29.008  1.00  0.00     0.167 HD
ATOM     51  C   UNL A   1      40.221  28.728  29.145  1.00  0.00     0.037 A 
ATOM     52  C   UNL A   1      46.990  27.024  29.284  1.00  0.00     0.037 A 
ATOM     53  C   UNL A   1      41.094  29.743  29.674  1.00  0.00     0.049 A 
ATOM     54  C   UNL A   1      46.506  28.388  29.700  1.00  0.00     0.074 A 
ATOM     55  C   UNL A   1      40.758  30.990  30.175  1.00  0.00     0.029 A 
ATOM     56  N   UNL A   1      42.473  29.636  29.764  1.00  0.00    -0.354 N 
ATOM     57  N   UNL A   1      45.281  28.845  29.777  1.00  0.00    -0.248 NA
ATOM     58  C   UNL A   1      47.536  29.365  30.087  1.00  0.00     0.031 C 
ATOM     59  C   UNL A   1      41.938  31.661  30.510  1.00  0.00     0.029 A 
ATOM     60  C   UNL A   1      43.005  30.808  30.279  1.00  0.00     0.049 A 
ATOM     61  H   UNL A   1      42.997  28.844  29.503  1.00  0.00     0.167 HD
ATOM     62  C   UNL A   1      45.389  30.144  30.258  1.00  0.00     0.074 A 
ATOM     63  C   UNL A   1      46.797  30.398  30.468  1.00  0.00     0.031 C 
ATOM     64  C   UNL A   1      44.407  31.047  30.502  1.00  0.00     0.037 A 
BRANCH  51  65
ATOM     65  C   UNL A   1      38.760  29.059  29.023  1.00  0.00     0.057 A 
ATOM     66  C   UNL A   1      37.886  28.972  30.113  1.00  0.00     0.134 A 
ATOM     67  C   UNL A   1      38.241  29.545  27.815  1.00  0.00     0.134 A 
ATOM     68  F   UNL A   1      38.317  28.508  31.296  1.00  0.00    -0.206 F 
ATOM     69  C   UNL A   1      36.544  29.341  30.003  1.00  0.00     0.040 A 
ATOM     70  C   UNL A   1      36.908  29.943  27.701  1.00  0.00     0.040 A 
ATOM     71  F   UNL A   1      39.026  29.663  26.734  1.00  0.00    -0.206 F 
ATOM     72  C   UNL A   1      36.054  29.838  28.796  1.00  0.00     0.006 A 
ENDBRANCH  51  65
BRANCH  52  73
ATOM     73  C   UNL A   1      48.443  26.707  29.315  1.00  0.00     0.057 A 
ATOM     74  C   UNL A   1      49.264  26.962  28.209  1.00  0.00     0.134 A 
ATOM     75  C   UNL A   1      49.035  26.093  30.425  1.00  0.00     0.134 A 
ATOM     76  F   UNL A   1      48.752  27.529  27.106  1.00  0.00    -0.206 F 
ATOM     77  C   UNL A   1      50.608  26.587  28.191  1.00  0.00     0.040 A 
ATOM     78  C   UNL A   1      50.386  25.740  30.433  1.00  0.00     0.040 A 
ATOM     79  F   UNL A   1      48.308  25.826  31.520  1.00  0.00    -0.206 F 
ATOM     80  C   UNL A   1      51.173  25.975  29.307  1.00  0.00     0.006 A 
ENDBRANCH  52  73
BRANCH  64  81
ATOM     81  C   UNL A   1      44.815  32.374  31.076  1.00  0.00     0.057 A 
ATOM     82  C   UNL A   1      45.089  33.482  30.265  1.00  0.00     0.134 A 
ATOM     83  C   UNL A   1      44.894  32.554  32.463  1.00  0.00     0.134 A 
ATOM     84  F   UNL A   1      45.043  33.375  28.928  1.00  0.00    -0.206 F 
ATOM     85  C   UNL A   1      45.456  34.714  30.811  1.00  0.00     0.040 A 
ATOM     86  C   UNL A   1      45.228  33.789  33.022  1.00  0.00     0.040 A 
ATOM     87  F   UNL A   1      44.634  31.538  33.300  1.00  0.00    -0.206 F 
ATOM     88  C   UNL A   1      45.518  34.871  32.194  1.00  0.00     0.006 A 
ENDBRANCH  64  81
ENDBRANCH  38  39
ENDBRANCH  30  33
ENDBRANCH  28  29
ENDBRANCH  27  28
ENDBRANCH  26  27
ENDBRANCH   1  26
TORSDOF 17
ENDMDL
MODEL 2
REMARK VINA RESULT:     -10.4      2.039      3.765
REMARK SMILES CC[NH2+][C@]1(C(=O)NCCCCNC(=O)c2ccc(-c3c4nc(c(-c5c(F)cccc5F)c5ccc([nH]5)c(-c5c(F)cccc5F)c5nc(c(-c6c(F)cccc6F)c6ccc3[nH]6)C=C5)C=C4)cc2)CCC[C@@H]1CCSc1ccccc1F
REMARK SMILES IDX 8 1 7 2 5 3 6 4 4 6 69 7 72 8 70 9 71 10 3 11 2 14 1 15
REMARK SMILES IDX 73 16 74 17 75 18 76 19 77 20 81 21 78 22 80 23 82 24 79 25
REMARK SMILES IDX 9 26 10 27 11 28 12 29 13 30 14 32 15 33 16 34 68 35 17 36
REMARK SMILES IDX 67 37 18 38 19 39 20 40 61 41 21 42 66 43 60 44 62 45 22 46
REMARK SMILES IDX 65 47 59 48 58 49 23 51 49 52 32 53 48 54 33 55 36 56 47 57
REMARK SMILES IDX 63 58 34 59 35 60 46 62 64 63 37 64 24 65 25 66 30 67 26 68
REMARK SMILES IDX 27 69 29 70 31 71 28 72 50 73 51 74 56 75 52 76 53 77 55 78
REMARK SMILES IDX 57 79 54 80 38 81 39 82 44 83 40 84 41 85 43 86 45 87 42 88
REMARK H PARENT 7 5 3 12 3 13 12 31 62 50 36 61
REMARK Flexibility Score: inf
ROOT
ATOM      1  C   UNL A   1      35.896  21.063  25.680  1.00  0.00     0.116 C 
ENDROOT
BRANCH   1   2
ATOM      2  N   UNL A   1      36.325  22.353  26.190  1.00  0.00    -0.351 N 
ATOM      3  C   UNL A   1      36.038  23.638  25.873  1.00  0.00     0.281 C 
ATOM      4  O   UNL A   1      36.956  24.438  26.124  1.00  0.00    -0.268 OA
ATOM      5  H   UNL A   1      36.967  22.276  26.932  1.00  0.00     0.163 HD
BRANCH   3   6
ATOM      6  C   UNL A   1      34.688  24.225  25.312  1.00  0.00     0.178 C 
ATOM      7  C   UNL A   1      34.404  25.682  25.696  1.00  0.00     0.079 C 
ATOM      8  C   UNL A   1      34.769  24.352  23.747  1.00  0.00     0.061 C 
ATOM      9  C   UNL A   1      33.377  26.179  24.699  1.00  0.00     0.008 C 
ATOM     10  C   UNL A   1      33.766  25.493  23.394  1.00  0.00     0.011 C 
BRANCH   6  11
ATOM     11  N   UNL A   1      33.652  23.321  25.889  1.00  0.00    -0.334 N 
ATOM     12  H   UNL A   1      32.852  23.363  25.257  1.00  0.00     0.347 HD
ATOM     13  H   UNL A   1      34.159  22.442  25.984  1.00  0.00     0.347 HD
BRANCH  11  14
ATOM     14  C   UNL A   1      33.124  23.520  27.228  1.00  0.00     0.257 C 
ATOM     15  C   UNL A   1      33.179  22.203  28.002  1.00  0.00     0.071 C 
ENDBRANCH  11  14
ENDBRANCH   6  11
BRANCH   8  16
ATOM     16  C   UNL A   1      34.517  23.088  22.884  1.00  0.00     0.022 C 
BRANCH  16  17
ATOM     17  C   UNL A   1      33.191  23.042  22.116  1.00  0.00     0.075 C 
BRANCH  17  18
ATOM     18  S   UNL A   1      31.778  22.434  23.105  1.00  0.00    -0.123 SA
BRANCH  18  19
ATOM     19  C   UNL A   1      32.162  20.723  23.442  1.00  0.00     0.043 A 
ATOM     20  C   UNL A   1      32.536  20.264  24.709  1.00  0.00     0.018 A 
ATOM     21  C   UNL A   1      32.154  19.801  22.384  1.00  0.00     0.136 A 
ATOM     22  C   UNL A   1      32.842  18.915  24.921  1.00  0.00     0.001 A 
ATOM     23  C   UNL A   1      32.454  18.455  22.590  1.00  0.00     0.040 A 
ATOM     24  F   UNL A   1      31.842  20.185  21.136  1.00  0.00    -0.206 F 
ATOM     25  C   UNL A   1      32.800  18.011  23.863  1.00  0.00     0.003 A 
ENDBRANCH  18  19
ENDBRANCH  17  18
ENDBRANCH  16  17
ENDBRANCH   8  16
ENDBRANCH   3   6
ENDBRANCH   1   2
BRANCH   1  26
ATOM     26  C   UNL A   1      36.839  20.539  24.589  1.00  0.00     0.023 C 
BRANCH  26  27
ATOM     27  C   UNL A   1      37.837  19.452  24.999  1.00  0.00     0.023 C 
BRANCH  27  28
ATOM     28  C   UNL A   1      39.078  19.922  25.752  1.00  0.00     0.116 C 
BRANCH  28  29
ATOM     29  N   UNL A   1      40.157  18.951  25.764  1.00  0.00    -0.352 N 
ATOM     30  C   UNL A   1      41.498  19.117  26.022  1.00  0.00     0.251 C 
ATOM     31  H   UNL A   1      39.886  18.028  25.555  1.00  0.00     0.163 HD
ATOM     32  O   UNL A   1      42.258  18.163  25.911  1.00  0.00    -0.269 OA
BRANCH  30  33
ATOM     33  C   UNL A   1      42.044  20.444  26.396  1.00  0.00     0.039 A 
ATOM     34  C   UNL A   1      42.527  21.270  25.374  1.00  0.00     0.014 A 
ATOM     35  C   UNL A   1      42.117  20.872  27.724  1.00  0.00     0.014 A 
ATOM     36  C   UNL A   1      43.018  22.543  25.677  1.00  0.00     0.010 A 
ATOM     37  C   UNL A   1      42.550  22.169  28.018  1.00  0.00     0.010 A 
ATOM     38  C   UNL A   1      43.003  23.020  26.998  1.00  0.00    -0.014 A 
BRANCH  38  39
ATOM     39  C   UNL A   1      43.451  24.408  27.307  1.00  0.00     0.031 A 
ATOM     40  C   UNL A   1      42.460  25.455  27.743  1.00  0.00     0.074 A 
ATOM     41  C   UNL A   1      44.751  24.737  27.172  1.00  0.00     0.049 A 
ATOM     42  N   UNL A   1      42.667  26.712  28.048  1.00  0.00    -0.248 NA
ATOM     43  C   UNL A   1      41.051  25.043  27.832  1.00  0.00     0.031 C 
ATOM     44  C   UNL A   1      45.812  23.830  26.726  1.00  0.00     0.029 A 
ATOM     45  N   UNL A   1      45.406  25.924  27.394  1.00  0.00    -0.354 N 
ATOM     46  C   UNL A   1      41.418  27.243  28.351  1.00  0.00     0.074 A 
ATOM     47  C   UNL A   1      40.453  26.182  28.153  1.00  0.00     0.031 C 
ATOM     48  C   UNL A   1      46.984  24.484  26.736  1.00  0.00     0.029 A 
ATOM     49  C   UNL A   1      46.759  25.865  27.149  1.00  0.00     0.049 A 
ATOM     50  H   UNL A   1      44.950  26.741  27.701  1.00  0.00     0.167 HD
ATOM     51  C   UNL A   1      41.106  28.492  28.773  1.00  0.00     0.037 A 
ATOM     52  C   UNL A   1      47.709  26.817  27.240  1.00  0.00     0.037 A 
ATOM     53  C   UNL A   1      42.069  29.538  28.999  1.00  0.00     0.049 A 
ATOM     54  C   UNL A   1      47.325  28.202  27.690  1.00  0.00     0.074 A 
ATOM     55  C   UNL A   1      41.852  30.812  29.499  1.00  0.00     0.029 A 
ATOM     56  N   UNL A   1      43.425  29.440  28.733  1.00  0.00    -0.354 N 
ATOM     57  N   UNL A   1      46.154  28.660  28.058  1.00  0.00    -0.248 NA
ATOM     58  C   UNL A   1      48.402  29.203  27.741  1.00  0.00     0.031 C 
ATOM     59  C   UNL A   1      43.066  31.504  29.479  1.00  0.00     0.029 A 
ATOM     60  C   UNL A   1      44.051  30.642  29.025  1.00  0.00     0.049 A 
ATOM     61  H   UNL A   1      43.877  28.636  28.389  1.00  0.00     0.167 HD
ATOM     62  C   UNL A   1      46.359  29.985  28.422  1.00  0.00     0.074 A 
ATOM     63  C   UNL A   1      47.769  30.254  28.243  1.00  0.00     0.031 C 
ATOM     64  C   UNL A   1      45.459  30.897  28.862  1.00  0.00     0.037 A 
BRANCH  51  65
ATOM     65  C   UNL A   1      39.658  28.810  29.017  1.00  0.00     0.057 A 
ATOM     66  C   UNL A   1      39.076  28.697  30.286  1.00  0.00     0.134 A 
ATOM     67  C   UNL A   1      38.857  29.312  27.982  1.00  0.00     0.134 A 
ATOM     68  F   UNL A   1      39.786  28.216  31.318  1.00  0.00    -0.206 F 
ATOM     69  C   UNL A   1      37.746  29.054  30.513  1.00  0.00     0.040 A 
ATOM     70  C   UNL A   1      37.535  29.699  28.204  1.00  0.00     0.040 A 
ATOM     71  F   UNL A   1      39.354  29.456  26.744  1.00  0.00    -0.206 F 
ATOM     72  C   UNL A   1      36.975  29.567  29.472  1.00  0.00     0.006 A 
ENDBRANCH  51  65
BRANCH  52  73
ATOM     73  C   UNL A   1      49.125  26.507  26.909  1.00  0.00     0.057 A 
ATOM     74  C   UNL A   1      49.634  26.728  25.623  1.00  0.00     0.134 A 
ATOM     75  C   UNL A   1      49.987  25.932  27.850  1.00  0.00     0.134 A 
ATOM     76  F   UNL A   1      48.852  27.256  24.670  1.00  0.00    -0.206 F 
ATOM     77  C   UNL A   1      50.933  26.357  25.274  1.00  0.00     0.040 A 
ATOM     78  C   UNL A   1      51.300  25.585  27.525  1.00  0.00     0.040 A 
ATOM     79  F   UNL A   1      49.567  25.699  29.103  1.00  0.00    -0.206 F 
ATOM     80  C   UNL A   1      51.772  25.785  26.228  1.00  0.00     0.006 A 
ENDBRANCH  52  73
BRANCH  64  81
ATOM     81  C   UNL A   1      45.977  32.257  29.235  1.00  0.00     0.057 A 
ATOM     82  C   UNL A   1      46.485  32.537  30.510  1.00  0.00     0.134 A 
ATOM     83  C   UNL A   1      46.003  33.291  28.289  1.00  0.00     0.134 A 
ATOM     84  F   UNL A   1      46.478  31.595  31.466  1.00  0.00    -0.206 F 
ATOM     85  C   UNL A   1      46.974  33.802  30.840  1.00  0.00     0.040 A 
ATOM     86  C   UNL A   1      46.519  34.550  28.597  1.00  0.00     0.040 A 
ATOM     87  F   UNL A   1      45.543  33.090  27.045  1.00  0.00    -0.206 F 
ATOM     88  C   UNL A   1      46.999  34.811  29.878  1.00  0.00     0.006 A 
ENDBRANCH  64  81
ENDBRANCH  38  39
ENDBRANCH  30  33
ENDBRANCH  28  29
ENDBRANCH  27  28
ENDBRANCH  26  27
ENDBRANCH   1  26
TORSDOF 17
ENDMDL
MODEL 3
REMARK VINA RESULT:     -10.3      2.889      7.106
REMARK SMILES CC[NH2+][C@]1(C(=O)NCCCCNC(=O)c2ccc(-c3c4nc(c(-c5c(F)cccc5F)c5ccc([nH]5)c(-c5c(F)cccc5F)c5nc(c(-c6c(F)cccc6F)c6ccc3[nH]6)C=C5)C=C4)cc2)CCC[C@@H]1CCSc1ccccc1F
REMARK SMILES IDX 8 1 7 2 5 3 6 4 4 6 69 7 72 8 70 9 71 10 3 11 2 14 1 15
REMARK SMILES IDX 73 16 74 17 75 18 76 19 77 20 81 21 78 22 80 23 82 24 79 25
REMARK SMILES IDX 9 26 10 27 11 28 12 29 13 30 14 32 15 33 16 34 68 35 17 36
REMARK SMILES IDX 67 37 18 38 19 39 20 40 61 41 21 42 66 43 60 44 62 45 22 46
REMARK SMILES IDX 65 47 59 48 58 49 23 51 49 52 32 53 48 54 33 55 36 56 47 57
REMARK SMILES IDX 63 58 34 59 35 60 46 62 64 63 37 64 24 65 25 66 30 67 26 68
REMARK SMILES IDX 27 69 29 70 31 71 28 72 50 73 51 74 56 75 52 76 53 77 55 78
REMARK SMILES IDX 57 79 54 80 38 81 39 82 44 83 40 84 41 85 43 86 45 87 42 88
REMARK H PARENT 7 5 3 12 3 13 12 31 62 50 36 61
REMARK Flexibility Score: inf
ROOT
ATOM      1  C   UNL A   1      31.653  26.164  25.997  1.00  0.00     0.116 C 
ENDROOT
BRANCH   1   2
ATOM      2  N   UNL A   1      31.668  24.990  26.849  1.00  0.00    -0.351 N 
ATOM      3  C   UNL A   1      31.819  23.662  26.628  1.00  0.00     0.281 C 
ATOM      4  O   UNL A   1      31.251  22.942  27.467  1.00  0.00    -0.268 OA
ATOM      5  H   UNL A   1      31.541  25.207  27.801  1.00  0.00     0.163 HD
BRANCH   3   6
ATOM      6  C   UNL A   1      32.667  22.951  25.508  1.00  0.00     0.178 C 
ATOM      7  C   UNL A   1      33.053  21.498  25.808  1.00  0.00     0.079 C 
ATOM      8  C   UNL A   1      31.792  22.755  24.217  1.00  0.00     0.061 C 
ATOM      9  C   UNL A   1      33.405  20.879  24.471  1.00  0.00     0.008 C 
ATOM     10  C   UNL A   1      32.429  21.527  23.495  1.00  0.00     0.011 C 
BRANCH   6  11
ATOM     11  N   UNL A   1      33.886  23.804  25.404  1.00  0.00    -0.334 N 
ATOM     12  H   UNL A   1      34.142  23.819  24.417  1.00  0.00     0.347 HD
ATOM     13  H   UNL A   1      33.584  24.670  25.849  1.00  0.00     0.347 HD
BRANCH  11  14
ATOM     14  C   UNL A   1      35.103  23.490  26.136  1.00  0.00     0.257 C 
ATOM     15  C   UNL A   1      36.320  23.860  25.289  1.00  0.00     0.071 C 
ENDBRANCH  11  14
ENDBRANCH   6  11
BRANCH   8  16
ATOM     16  C   UNL A   1      31.616  23.953  23.248  1.00  0.00     0.022 C 
BRANCH  16  17
ATOM     17  C   UNL A   1      32.839  24.334  22.406  1.00  0.00     0.075 C 
BRANCH  17  18
ATOM     18  S   UNL A   1      32.538  25.705  21.234  1.00  0.00    -0.123 SA
BRANCH  18  19
ATOM     19  C   UNL A   1      31.909  27.036  22.245  1.00  0.00     0.043 A 
ATOM     20  C   UNL A   1      30.542  27.261  22.441  1.00  0.00     0.018 A 
ATOM     21  C   UNL A   1      32.813  27.941  22.821  1.00  0.00     0.136 A 
ATOM     22  C   UNL A   1      30.098  28.328  23.231  1.00  0.00     0.001 A 
ATOM     23  C   UNL A   1      32.376  29.004  23.612  1.00  0.00     0.040 A 
ATOM     24  F   UNL A   1      34.137  27.805  22.639  1.00  0.00    -0.206 F 
ATOM     25  C   UNL A   1      31.013  29.198  23.816  1.00  0.00     0.003 A 
ENDBRANCH  18  19
ENDBRANCH  17  18
ENDBRANCH  16  17
ENDBRANCH   8  16
ENDBRANCH   3   6
ENDBRANCH   1   2
BRANCH   1  26
ATOM     26  C   UNL A   1      31.082  27.390  26.722  1.00  0.00     0.023 C 
BRANCH  26  27
ATOM     27  C   UNL A   1      31.999  28.088  27.731  1.00  0.00     0.023 C 
BRANCH  27  28
ATOM     28  C   UNL A   1      33.276  28.706  27.169  1.00  0.00     0.116 C 
BRANCH  28  29
ATOM     29  N   UNL A   1      33.353  30.145  27.339  1.00  0.00    -0.352 N 
ATOM     30  C   UNL A   1      34.354  30.925  27.867  1.00  0.00     0.251 C 
ATOM     31  H   UNL A   1      32.562  30.642  27.025  1.00  0.00     0.163 HD
ATOM     32  O   UNL A   1      34.186  32.133  27.980  1.00  0.00    -0.269 OA
BRANCH  30  33
ATOM     33  C   UNL A   1      35.623  30.320  28.340  1.00  0.00     0.039 A 
ATOM     34  C   UNL A   1      36.719  30.321  27.470  1.00  0.00     0.014 A 
ATOM     35  C   UNL A   1      35.742  29.732  29.602  1.00  0.00     0.014 A 
ATOM     36  C   UNL A   1      37.944  29.793  27.887  1.00  0.00     0.010 A 
ATOM     37  C   UNL A   1      36.984  29.261  30.040  1.00  0.00     0.010 A 
ATOM     38  C   UNL A   1      38.100  29.288  29.188  1.00  0.00    -0.014 A 
BRANCH  38  39
ATOM     39  C   UNL A   1      39.428  28.802  29.658  1.00  0.00     0.031 A 
ATOM     40  C   UNL A   1      40.153  29.506  30.775  1.00  0.00     0.074 A 
ATOM     41  C   UNL A   1      39.999  27.736  29.062  1.00  0.00     0.049 A 
ATOM     42  N   UNL A   1      41.316  29.228  31.310  1.00  0.00    -0.248 NA
ATOM     43  C   UNL A   1      39.495  30.686  31.356  1.00  0.00     0.031 C 
ATOM     44  C   UNL A   1      39.423  26.981  27.946  1.00  0.00     0.029 A 
ATOM     45  N   UNL A   1      41.192  27.100  29.307  1.00  0.00    -0.354 N 
ATOM     46  C   UNL A   1      41.535  30.201  32.278  1.00  0.00     0.074 A 
ATOM     47  C   UNL A   1      40.403  31.103  32.228  1.00  0.00     0.031 C 
ATOM     48  C   UNL A   1      40.247  25.971  27.626  1.00  0.00     0.029 A 
ATOM     49  C   UNL A   1      41.428  26.026  28.481  1.00  0.00     0.049 A 
ATOM     50  H   UNL A   1      41.821  27.387  30.009  1.00  0.00     0.167 HD
ATOM     51  C   UNL A   1      42.572  30.323  33.140  1.00  0.00     0.037 A 
ATOM     52  C   UNL A   1      42.479  25.184  28.414  1.00  0.00     0.037 A 
ATOM     53  C   UNL A   1      43.683  29.410  33.210  1.00  0.00     0.049 A 
ATOM     54  C   UNL A   1      43.627  25.362  29.372  1.00  0.00     0.074 A 
ATOM     55  C   UNL A   1      44.742  29.413  34.104  1.00  0.00     0.029 A 
ATOM     56  N   UNL A   1      43.888  28.341  32.353  1.00  0.00    -0.354 N 
ATOM     57  N   UNL A   1      43.774  26.234  30.339  1.00  0.00    -0.248 NA
ATOM     58  C   UNL A   1      44.757  24.430  29.230  1.00  0.00     0.031 C 
ATOM     59  C   UNL A   1      45.618  28.382  33.749  1.00  0.00     0.029 A 
ATOM     60  C   UNL A   1      45.073  27.698  32.674  1.00  0.00     0.049 A 
ATOM     61  H   UNL A   1      43.280  28.076  31.625  1.00  0.00     0.167 HD
ATOM     62  C   UNL A   1      44.988  25.931  30.944  1.00  0.00     0.074 A 
ATOM     63  C   UNL A   1      45.531  24.788  30.244  1.00  0.00     0.031 C 
ATOM     64  C   UNL A   1      45.598  26.548  31.985  1.00  0.00     0.037 A 
BRANCH  51  65
ATOM     65  C   UNL A   1      42.569  31.492  34.084  1.00  0.00     0.057 A 
ATOM     66  C   UNL A   1      41.968  31.424  35.347  1.00  0.00     0.134 A 
ATOM     67  C   UNL A   1      43.244  32.675  33.753  1.00  0.00     0.134 A 
ATOM     68  F   UNL A   1      41.299  30.324  35.724  1.00  0.00    -0.206 F 
ATOM     69  C   UNL A   1      42.024  32.496  36.240  1.00  0.00     0.040 A 
ATOM     70  C   UNL A   1      43.331  33.742  34.648  1.00  0.00     0.040 A 
ATOM     71  F   UNL A   1      43.850  32.804  32.562  1.00  0.00    -0.206 F 
ATOM     72  C   UNL A   1      42.716  33.656  35.895  1.00  0.00     0.006 A 
ENDBRANCH  51  65
BRANCH  52  73
ATOM     73  C   UNL A   1      42.507  24.085  27.413  1.00  0.00     0.057 A 
ATOM     74  C   UNL A   1      42.103  22.787  27.752  1.00  0.00     0.134 A 
ATOM     75  C   UNL A   1      42.988  24.289  26.115  1.00  0.00     0.134 A 
ATOM     76  F   UNL A   1      41.653  22.521  28.987  1.00  0.00    -0.206 F 
ATOM     77  C   UNL A   1      42.209  21.727  26.850  1.00  0.00     0.040 A 
ATOM     78  C   UNL A   1      43.071  23.244  25.192  1.00  0.00     0.040 A 
ATOM     79  F   UNL A   1      43.385  25.509  25.723  1.00  0.00    -0.206 F 
ATOM     80  C   UNL A   1      42.693  21.955  25.564  1.00  0.00     0.006 A 
ENDBRANCH  52  73
BRANCH  64  81
ATOM     81  C   UNL A   1      46.897  25.968  32.469  1.00  0.00     0.057 A 
ATOM     82  C   UNL A   1      46.954  25.044  33.519  1.00  0.00     0.134 A 
ATOM     83  C   UNL A   1      48.105  26.313  31.846  1.00  0.00     0.134 A 
ATOM     84  F   UNL A   1      45.836  24.680  34.166  1.00  0.00    -0.206 F 
ATOM     85  C   UNL A   1      48.167  24.504  33.951  1.00  0.00     0.040 A 
ATOM     86  C   UNL A   1      49.319  25.756  32.248  1.00  0.00     0.040 A 
ATOM     87  F   UNL A   1      48.122  27.185  30.827  1.00  0.00    -0.206 F 
ATOM     88  C   UNL A   1      49.353  24.854  33.309  1.00  0.00     0.006 A 
ENDBRANCH  64  81
ENDBRANCH  38  39
ENDBRANCH  30  33
ENDBRANCH  28  29
ENDBRANCH  27  28
ENDBRANCH  26  27
ENDBRANCH   1  26
TORSDOF 17
ENDMDL
