MODEL 1
REMARK VINA RESULT:     -10.9      0.000      0.000
REMARK SMILES C[C@H]1CCCC[C@@H]1NC(=O)CCn1cc(C(=O)NCCCCNC(=O)c2ccc(-c3c4nc(c(-c5c(F)cccc5F)c5ccc([nH]5)c(-c5c(F)cccc5F)c5nc(c(-c6c(F)cccc6F)c6ccc3[nH]6)C=C5)C=C4)cc2)cn1
REMARK SMILES IDX 19 1 18 2 16 3 17 4 15 6 13 7 14 8 81 9 80 10 12 11 11 12
REMARK SMILES IDX 9 13 8 14 10 16 7 17 1 18 2 19 3 20 4 21 6 22 5 23 20 24
REMARK SMILES IDX 21 25 22 26 23 27 24 28 25 30 26 31 27 32 79 33 28 34 78 35
REMARK SMILES IDX 29 36 30 37 31 38 72 39 32 40 77 41 71 42 73 43 33 44 76 45
REMARK SMILES IDX 70 46 69 47 34 49 60 50 43 51 59 52 44 53 47 54 58 55 74 56
REMARK SMILES IDX 45 57 46 58 57 60 75 61 48 62 35 63 36 64 41 65 37 66 38 67
REMARK SMILES IDX 40 68 42 69 39 70 61 71 62 72 67 73 63 74 64 75 66 76 68 77
REMARK SMILES IDX 65 78 49 79 50 80 55 81 51 82 52 83 54 84 56 85 53 86
REMARK H PARENT 18 5 8 15 23 29 73 48 47 59
REMARK Flexibility Score: inf
ROOT
ATOM      1  C   UNL A   1      39.410  21.365  26.061  1.00  0.00     0.116 C 
ENDROOT
BRANCH   1   2
ATOM      2  N   UNL A   1      39.035  22.732  26.366  1.00  0.00    -0.352 N 
ATOM      3  C   UNL A   1      37.893  23.454  26.129  1.00  0.00     0.254 C 
ATOM      4  O   UNL A   1      37.856  24.594  26.596  1.00  0.00    -0.269 OA
ATOM      5  H   UNL A   1      39.735  23.238  26.837  1.00  0.00     0.163 HD
BRANCH   3   6
ATOM      6  C   UNL A   1      36.736  22.887  25.456  1.00  0.00     0.077 A 
ATOM      7  N   UNL A   1      34.808  22.000  24.844  1.00  0.00    -0.271 N 
ATOM      8  C   UNL A   1      35.685  22.102  25.893  1.00  0.00     0.122 A 
ATOM      9  N   UNL A   1      35.281  22.536  23.711  1.00  0.00    -0.181 NA
ATOM     10  C   UNL A   1      36.454  23.056  24.075  1.00  0.00     0.149 A 
BRANCH   7  11
ATOM     11  C   UNL A   1      33.483  21.408  24.859  1.00  0.00     0.154 C 
BRANCH  11  12
ATOM     12  C   UNL A   1      32.361  22.421  25.048  1.00  0.00     0.123 C 
BRANCH  12  13
ATOM     13  C   UNL A   1      31.991  23.123  23.757  1.00  0.00     0.222 C 
ATOM     14  N   UNL A   1      31.875  24.483  23.717  1.00  0.00    -0.353 N 
ATOM     15  H   UNL A   1      31.581  24.860  22.856  1.00  0.00     0.163 HD
ATOM     16  O   UNL A   1      31.758  22.474  22.737  1.00  0.00    -0.275 OA
BRANCH  14  17
ATOM     17  C   UNL A   1      32.127  25.451  24.772  1.00  0.00     0.084 C 
ATOM     18  C   UNL A   1      29.714  26.328  24.607  1.00  0.00     0.010 C 
ATOM     19  C   UNL A   1      31.196  26.683  24.718  1.00  0.00     0.008 C 
ATOM     20  C   UNL A   1      31.443  27.532  25.978  1.00  0.00     0.005 C 
ATOM     21  C   UNL A   1      32.905  27.969  26.098  1.00  0.00     0.000 C 
ATOM     22  C   UNL A   1      33.584  25.933  24.730  1.00  0.00     0.025 C 
ATOM     23  C   UNL A   1      33.883  26.809  25.943  1.00  0.00     0.002 C 
ENDBRANCH  14  17
ENDBRANCH  12  13
ENDBRANCH  11  12
ENDBRANCH   7  11
ENDBRANCH   3   6
ENDBRANCH   1   2
BRANCH   1  24
ATOM     24  C   UNL A   1      40.696  20.975  26.793  1.00  0.00     0.023 C 
BRANCH  24  25
ATOM     25  C   UNL A   1      41.447  19.784  26.174  1.00  0.00     0.023 C 
BRANCH  25  26
ATOM     26  C   UNL A   1      42.877  19.638  26.672  1.00  0.00     0.116 C 
BRANCH  26  27
ATOM     27  N   UNL A   1      43.867  19.607  25.590  1.00  0.00    -0.352 N 
ATOM     28  C   UNL A   1      44.335  20.666  24.824  1.00  0.00     0.251 C 
ATOM     29  H   UNL A   1      44.249  18.724  25.380  1.00  0.00     0.163 HD
ATOM     30  O   UNL A   1      44.894  20.489  23.759  1.00  0.00    -0.269 OA
BRANCH  28  31
ATOM     31  C   UNL A   1      44.160  22.026  25.362  1.00  0.00     0.039 A 
ATOM     32  C   UNL A   1      43.179  22.909  24.896  1.00  0.00     0.014 A 
ATOM     33  C   UNL A   1      45.004  22.378  26.405  1.00  0.00     0.014 A 
ATOM     34  C   UNL A   1      43.024  24.135  25.542  1.00  0.00     0.010 A 
ATOM     35  C   UNL A   1      44.690  23.453  27.179  1.00  0.00     0.010 A 
ATOM     36  C   UNL A   1      43.788  24.389  26.686  1.00  0.00    -0.014 A 
BRANCH  36  37
ATOM     37  C   UNL A   1      43.709  25.626  27.445  1.00  0.00     0.031 A 
ATOM     38  C   UNL A   1      44.709  26.667  27.088  1.00  0.00     0.074 A 
ATOM     39  C   UNL A   1      42.590  25.884  28.160  1.00  0.00     0.049 A 
ATOM     40  N   UNL A   1      45.594  27.207  27.857  1.00  0.00    -0.248 NA
ATOM     41  C   UNL A   1      44.825  27.077  25.678  1.00  0.00     0.031 C 
ATOM     42  C   UNL A   1      41.386  25.048  28.310  1.00  0.00     0.029 A 
ATOM     43  N   UNL A   1      42.224  27.031  28.783  1.00  0.00    -0.354 N 
ATOM     44  C   UNL A   1      46.255  28.162  27.085  1.00  0.00     0.074 A 
ATOM     45  C   UNL A   1      45.870  27.906  25.723  1.00  0.00     0.031 C 
ATOM     46  C   UNL A   1      40.357  25.804  28.749  1.00  0.00     0.029 A 
ATOM     47  C   UNL A   1      40.867  27.120  29.077  1.00  0.00     0.049 A 
ATOM     48  H   UNL A   1      42.865  27.743  29.008  1.00  0.00     0.167 HD
ATOM     49  C   UNL A   1      46.892  29.221  27.661  1.00  0.00     0.037 A 
ATOM     50  C   UNL A   1      40.218  28.226  29.512  1.00  0.00     0.037 A 
ATOM     51  C   UNL A   1      47.025  29.020  29.082  1.00  0.00     0.049 A 
ATOM     52  C   UNL A   1      41.256  29.147  30.049  1.00  0.00     0.074 A 
ATOM     53  C   UNL A   1      47.665  28.087  29.874  1.00  0.00     0.029 A 
ATOM     54  N   UNL A   1      46.106  29.641  29.897  1.00  0.00    -0.354 N 
ATOM     55  N   UNL A   1      41.962  28.884  31.117  1.00  0.00    -0.248 NA
ATOM     56  C   UNL A   1      41.861  30.094  29.121  1.00  0.00     0.031 C 
ATOM     57  C   UNL A   1      46.768  27.852  30.955  1.00  0.00     0.029 A 
ATOM     58  C   UNL A   1      45.678  28.712  30.808  1.00  0.00     0.049 A 
ATOM     59  H   UNL A   1      45.813  30.579  29.837  1.00  0.00     0.167 HD
ATOM     60  C   UNL A   1      43.254  29.287  30.801  1.00  0.00     0.074 A 
ATOM     61  C   UNL A   1      43.115  30.091  29.586  1.00  0.00     0.031 C 
ATOM     62  C   UNL A   1      44.343  28.684  31.362  1.00  0.00     0.037 A 
BRANCH  49  63
ATOM     63  C   UNL A   1      47.080  30.589  27.048  1.00  0.00     0.057 A 
ATOM     64  C   UNL A   1      48.366  31.167  27.061  1.00  0.00     0.134 A 
ATOM     65  C   UNL A   1      46.035  31.475  26.725  1.00  0.00     0.134 A 
ATOM     66  F   UNL A   1      49.453  30.428  27.336  1.00  0.00    -0.206 F 
ATOM     67  C   UNL A   1      48.579  32.538  26.881  1.00  0.00     0.040 A 
ATOM     68  C   UNL A   1      46.244  32.838  26.492  1.00  0.00     0.040 A 
ATOM     69  F   UNL A   1      44.751  31.103  26.715  1.00  0.00    -0.206 F 
ATOM     70  C   UNL A   1      47.512  33.383  26.610  1.00  0.00     0.006 A 
ENDBRANCH  49  63
BRANCH  50  71
ATOM     71  C   UNL A   1      38.824  28.639  29.228  1.00  0.00     0.057 A 
ATOM     72  C   UNL A   1      37.859  28.712  30.241  1.00  0.00     0.134 A 
ATOM     73  C   UNL A   1      38.459  29.206  27.991  1.00  0.00     0.134 A 
ATOM     74  F   UNL A   1      38.125  28.237  31.467  1.00  0.00    -0.206 F 
ATOM     75  C   UNL A   1      36.613  29.324  30.043  1.00  0.00     0.040 A 
ATOM     76  C   UNL A   1      37.218  29.815  27.778  1.00  0.00     0.040 A 
ATOM     77  F   UNL A   1      39.327  29.262  26.970  1.00  0.00    -0.206 F 
ATOM     78  C   UNL A   1      36.292  29.887  28.810  1.00  0.00     0.006 A 
ENDBRANCH  50  71
BRANCH  62  79
ATOM     79  C   UNL A   1      44.123  27.706  32.486  1.00  0.00     0.057 A 
ATOM     80  C   UNL A   1      44.081  26.314  32.314  1.00  0.00     0.134 A 
ATOM     81  C   UNL A   1      44.179  28.175  33.802  1.00  0.00     0.134 A 
ATOM     82  F   UNL A   1      44.127  25.764  31.097  1.00  0.00    -0.206 F 
ATOM     83  C   UNL A   1      44.071  25.432  33.399  1.00  0.00     0.040 A 
ATOM     84  C   UNL A   1      44.202  27.304  34.894  1.00  0.00     0.040 A 
ATOM     85  F   UNL A   1      44.285  29.491  34.044  1.00  0.00    -0.206 F 
ATOM     86  C   UNL A   1      44.144  25.928  34.695  1.00  0.00     0.006 A 
ENDBRANCH  62  79
ENDBRANCH  36  37
ENDBRANCH  28  31
ENDBRANCH  26  27
ENDBRANCH  25  26
ENDBRANCH  24  25
ENDBRANCH   1  24
TORSDOF 15
ENDMDL
MODEL 2
REMARK VINA RESULT:     -10.8      2.717      7.639
REMARK SMILES C[C@H]1CCCC[C@@H]1NC(=O)CCn1cc(C(=O)NCCCCNC(=O)c2ccc(-c3c4nc(c(-c5c(F)cccc5F)c5ccc([nH]5)c(-c5c(F)cccc5F)c5nc(c(-c6c(F)cccc6F)c6ccc3[nH]6)C=C5)C=C4)cc2)cn1
REMARK SMILES IDX 19 1 18 2 16 3 17 4 15 6 13 7 14 8 81 9 80 10 12 11 11 12
REMARK SMILES IDX 9 13 8 14 10 16 7 17 1 18 2 19 3 20 4 21 6 22 5 23 20 24
REMARK SMILES IDX 21 25 22 26 23 27 24 28 25 30 26 31 27 32 79 33 28 34 78 35
REMARK SMILES IDX 29 36 30 37 31 38 72 39 32 40 77 41 71 42 73 43 33 44 76 45
REMARK SMILES IDX 70 46 69 47 34 49 60 50 43 51 59 52 44 53 47 54 58 55 74 56
REMARK SMILES IDX 45 57 46 58 57 60 75 61 48 62 35 63 36 64 41 65 37 66 38 67
REMARK SMILES IDX 40 68 42 69 39 70 61 71 62 72 67 73 63 74 64 75 66 76 68 77
REMARK SMILES IDX 65 78 49 79 50 80 55 81 51 82 52 83 54 84 56 85 53 86
REMARK H PARENT 18 5 8 15 23 29 73 48 47 59
REMARK Flexibility Score: inf
ROOT
ATOM      1  C   UNL A   1      31.834  30.119  26.244  1.00  0.00     0.116 C 
ENDROOT
BRANCH   1   2
ATOM      2  N   UNL A   1      31.092  30.407  25.031  1.00  0.00    -0.352 N 
ATOM      3  C   UNL A   1      30.541  29.600  24.069  1.00  0.00     0.254 C 
ATOM      4  O   UNL A   1      29.891  30.162  23.185  1.00  0.00    -0.269 OA
ATOM      5  H   UNL A   1      30.958  31.368  24.868  1.00  0.00     0.163 HD
BRANCH   3   6
ATOM      6  C   UNL A   1      30.617  28.149  24.129  1.00  0.00     0.077 A 
ATOM      7  N   UNL A   1      30.756  26.009  24.658  1.00  0.00    -0.271 N 
ATOM      8  C   UNL A   1      31.076  27.270  25.093  1.00  0.00     0.122 A 
ATOM      9  N   UNL A   1      30.257  25.994  23.416  1.00  0.00    -0.181 NA
ATOM     10  C   UNL A   1      30.190  27.284  23.087  1.00  0.00     0.149 A 
BRANCH   7  11
ATOM     11  C   UNL A   1      30.890  24.765  25.394  1.00  0.00     0.154 C 
BRANCH  11  12
ATOM     12  C   UNL A   1      31.998  24.787  26.440  1.00  0.00     0.123 C 
BRANCH  12  13
ATOM     13  C   UNL A   1      32.324  23.404  26.966  1.00  0.00     0.222 C 
ATOM     14  N   UNL A   1      33.392  22.711  26.473  1.00  0.00    -0.353 N 
ATOM     15  H   UNL A   1      33.508  21.800  26.827  1.00  0.00     0.163 HD
ATOM     16  O   UNL A   1      31.611  22.875  27.819  1.00  0.00    -0.275 OA
BRANCH  14  17
ATOM     17  C   UNL A   1      34.383  23.135  25.496  1.00  0.00     0.084 C 
ATOM     18  C   UNL A   1      33.073  21.990  23.602  1.00  0.00     0.010 C 
ATOM     19  C   UNL A   1      34.439  22.237  24.240  1.00  0.00     0.008 C 
ATOM     20  C   UNL A   1      35.389  22.891  23.220  1.00  0.00     0.005 C 
ATOM     21  C   UNL A   1      36.792  23.098  23.794  1.00  0.00     0.000 C 
ATOM     22  C   UNL A   1      35.782  23.184  26.128  1.00  0.00     0.025 C 
ATOM     23  C   UNL A   1      36.779  23.797  25.150  1.00  0.00     0.002 C 
ENDBRANCH  14  17
ENDBRANCH  12  13
ENDBRANCH  11  12
ENDBRANCH   7  11
ENDBRANCH   3   6
ENDBRANCH   1   2
BRANCH   1  24
ATOM     24  C   UNL A   1      33.299  29.811  25.927  1.00  0.00     0.023 C 
BRANCH  24  25
ATOM     25  C   UNL A   1      33.986  28.874  26.935  1.00  0.00     0.023 C 
BRANCH  25  26
ATOM     26  C   UNL A   1      35.346  29.371  27.403  1.00  0.00     0.116 C 
BRANCH  26  27
ATOM     27  N   UNL A   1      35.343  29.845  28.791  1.00  0.00    -0.352 N 
ATOM     28  C   UNL A   1      36.279  29.598  29.785  1.00  0.00     0.251 C 
ATOM     29  H   UNL A   1      34.580  30.411  29.050  1.00  0.00     0.163 HD
ATOM     30  O   UNL A   1      36.022  29.758  30.962  1.00  0.00    -0.269 OA
BRANCH  28  31
ATOM     31  C   UNL A   1      37.621  29.160  29.364  1.00  0.00     0.039 A 
ATOM     32  C   UNL A   1      38.282  29.694  28.251  1.00  0.00     0.014 A 
ATOM     33  C   UNL A   1      38.228  28.206  30.168  1.00  0.00     0.014 A 
ATOM     34  C   UNL A   1      39.592  29.291  27.996  1.00  0.00     0.010 A 
ATOM     35  C   UNL A   1      39.569  28.006  30.063  1.00  0.00     0.010 A 
ATOM     36  C   UNL A   1      40.222  28.446  28.917  1.00  0.00    -0.014 A 
BRANCH  36  37
ATOM     37  C   UNL A   1      41.585  27.965  28.761  1.00  0.00     0.031 A 
ATOM     38  C   UNL A   1      41.738  26.698  27.998  1.00  0.00     0.074 A 
ATOM     39  C   UNL A   1      42.610  28.812  29.011  1.00  0.00     0.049 A 
ATOM     40  N   UNL A   1      42.261  25.591  28.406  1.00  0.00    -0.248 NA
ATOM     41  C   UNL A   1      41.134  26.606  26.659  1.00  0.00     0.031 C 
ATOM     42  C   UNL A   1      42.550  30.215  29.459  1.00  0.00     0.029 A 
ATOM     43  N   UNL A   1      43.932  28.645  28.762  1.00  0.00    -0.354 N 
ATOM     44  C   UNL A   1      42.228  24.717  27.319  1.00  0.00     0.074 A 
ATOM     45  C   UNL A   1      41.365  25.330  26.345  1.00  0.00     0.031 C 
ATOM     46  C   UNL A   1      43.728  30.825  29.206  1.00  0.00     0.029 A 
ATOM     47  C   UNL A   1      44.669  29.825  28.747  1.00  0.00     0.049 A 
ATOM     48  H   UNL A   1      44.337  27.762  28.603  1.00  0.00     0.167 HD
ATOM     49  C   UNL A   1      43.092  23.666  27.228  1.00  0.00     0.037 A 
ATOM     50  C   UNL A   1      45.953  29.955  28.335  1.00  0.00     0.037 A 
ATOM     51  C   UNL A   1      43.760  23.450  28.487  1.00  0.00     0.049 A 
ATOM     52  C   UNL A   1      46.549  28.592  28.353  1.00  0.00     0.074 A 
ATOM     53  C   UNL A   1      43.344  23.116  29.760  1.00  0.00     0.029 A 
ATOM     54  N   UNL A   1      45.029  23.964  28.625  1.00  0.00    -0.354 N 
ATOM     55  N   UNL A   1      46.749  27.913  29.452  1.00  0.00    -0.248 NA
ATOM     56  C   UNL A   1      46.436  27.791  27.140  1.00  0.00     0.031 C 
ATOM     57  C   UNL A   1      44.160  23.900  30.626  1.00  0.00     0.029 A 
ATOM     58  C   UNL A   1      45.079  24.598  29.839  1.00  0.00     0.049 A 
ATOM     59  H   UNL A   1      45.763  23.890  27.974  1.00  0.00     0.167 HD
ATOM     60  C   UNL A   1      46.370  26.612  29.144  1.00  0.00     0.074 A 
ATOM     61  C   UNL A   1      46.254  26.584  27.686  1.00  0.00     0.031 C 
ATOM     62  C   UNL A   1      45.884  25.769  30.103  1.00  0.00     0.037 A 
BRANCH  49  63
ATOM     63  C   UNL A   1      43.620  23.054  25.951  1.00  0.00     0.057 A 
ATOM     64  C   UNL A   1      43.601  21.651  25.815  1.00  0.00     0.134 A 
ATOM     65  C   UNL A   1      44.403  23.733  25.000  1.00  0.00     0.134 A 
ATOM     66  F   UNL A   1      42.879  20.885  26.647  1.00  0.00    -0.206 F 
ATOM     67  C   UNL A   1      44.391  20.974  24.878  1.00  0.00     0.040 A 
ATOM     68  C   UNL A   1      45.155  23.068  24.026  1.00  0.00     0.040 A 
ATOM     69  F   UNL A   1      44.568  25.059  25.015  1.00  0.00    -0.206 F 
ATOM     70  C   UNL A   1      45.185  21.683  23.988  1.00  0.00     0.006 A 
ENDBRANCH  49  63
BRANCH  50  71
ATOM     71  C   UNL A   1      46.584  31.116  27.665  1.00  0.00     0.057 A 
ATOM     72  C   UNL A   1      45.891  31.882  26.719  1.00  0.00     0.134 A 
ATOM     73  C   UNL A   1      47.805  31.654  28.114  1.00  0.00     0.134 A 
ATOM     74  F   UNL A   1      44.698  31.476  26.259  1.00  0.00    -0.206 F 
ATOM     75  C   UNL A   1      46.375  33.115  26.256  1.00  0.00     0.040 A 
ATOM     76  C   UNL A   1      48.302  32.880  27.658  1.00  0.00     0.040 A 
ATOM     77  F   UNL A   1      48.520  31.048  29.074  1.00  0.00    -0.206 F 
ATOM     78  C   UNL A   1      47.580  33.622  26.733  1.00  0.00     0.006 A 
ENDBRANCH  50  71
BRANCH  62  79
ATOM     79  C   UNL A   1      45.952  26.205  31.543  1.00  0.00     0.057 A 
ATOM     80  C   UNL A   1      44.875  26.774  32.240  1.00  0.00     0.134 A 
ATOM     81  C   UNL A   1      47.065  25.831  32.303  1.00  0.00     0.134 A 
ATOM     82  F   UNL A   1      43.729  27.071  31.622  1.00  0.00    -0.206 F 
ATOM     83  C   UNL A   1      44.913  26.983  33.622  1.00  0.00     0.040 A 
ATOM     84  C   UNL A   1      47.103  26.005  33.689  1.00  0.00     0.040 A 
ATOM     85  F   UNL A   1      48.108  25.223  31.716  1.00  0.00    -0.206 F 
ATOM     86  C   UNL A   1      46.027  26.587  34.353  1.00  0.00     0.006 A 
ENDBRANCH  62  79
ENDBRANCH  36  37
ENDBRANCH  28  31
ENDBRANCH  26  27
ENDBRANCH  25  26
ENDBRANCH  24  25
ENDBRANCH   1  24
TORSDOF 15
ENDMDL
MODEL 3
REMARK VINA RESULT:     -10.6      2.941      8.184
REMARK SMILES C[C@H]1CCCC[C@@H]1NC(=O)CCn1cc(C(=O)NCCCCNC(=O)c2ccc(-c3c4nc(c(-c5c(F)cccc5F)c5ccc([nH]5)c(-c5c(F)cccc5F)c5nc(c(-c6c(F)cccc6F)c6ccc3[nH]6)C=C5)C=C4)cc2)cn1
REMARK SMILES IDX 19 1 18 2 16 3 17 4 15 6 13 7 14 8 81 9 80 10 12 11 11 12
REMARK SMILES IDX 9 13 8 14 10 16 7 17 1 18 2 19 3 20 4 21 6 22 5 23 20 24
REMARK SMILES IDX 21 25 22 26 23 27 24 28 25 30 26 31 27 32 79 33 28 34 78 35
REMARK SMILES IDX 29 36 30 37 31 38 72 39 32 40 77 41 71 42 73 43 33 44 76 45
REMARK SMILES IDX 70 46 69 47 34 49 60 50 43 51 59 52 44 53 47 54 58 55 74 56
REMARK SMILES IDX 45 57 46 58 57 60 75 61 48 62 35 63 36 64 41 65 37 66 38 67
REMARK SMILES IDX 40 68 42 69 39 70 61 71 62 72 67 73 63 74 64 75 66 76 68 77
REMARK SMILES IDX 65 78 49 79 50 80 55 81 51 82 52 83 54 84 56 85 53 86
REMARK H PARENT 18 5 8 15 23 29 73 48 47 59
REMARK Flexibility Score: inf
ROOT
ATOM      1  C   UNL A   1      31.816  29.539  25.885  1.00  0.00     0.116 C 
ENDROOT
BRANCH   1   2
ATOM      2  N   UNL A   1      31.089  30.023  24.728  1.00  0.00    -0.352 N 
ATOM      3  C   UNL A   1      30.446  29.378  23.702  1.00  0.00     0.254 C 
ATOM      4  O   UNL A   1      29.842  30.090  22.898  1.00  0.00    -0.269 OA
ATOM      5  H   UNL A   1      31.049  31.004  24.668  1.00  0.00     0.163 HD
BRANCH   3   6
ATOM      6  C   UNL A   1      30.379  27.929  23.610  1.00  0.00     0.077 A 
ATOM      7  N   UNL A   1      30.706  25.745  23.584  1.00  0.00    -0.271 N 
ATOM      8  C   UNL A   1      31.342  26.951  23.441  1.00  0.00     0.122 A 
ATOM      9  N   UNL A   1      29.376  25.862  23.685  1.00  0.00    -0.181 NA
ATOM     10  C   UNL A   1      29.175  27.180  23.683  1.00  0.00     0.149 A 
BRANCH   7  11
ATOM     11  C   UNL A   1      31.317  24.429  23.645  1.00  0.00     0.154 C 
BRANCH  11  12
ATOM     12  C   UNL A   1      31.204  23.763  25.011  1.00  0.00     0.123 C 
BRANCH  12  13
ATOM     13  C   UNL A   1      31.980  24.504  26.081  1.00  0.00     0.222 C 
ATOM     14  N   UNL A   1      33.307  24.250  26.275  1.00  0.00    -0.353 N 
ATOM     15  H   UNL A   1      33.728  24.732  27.023  1.00  0.00     0.163 HD
ATOM     16  O   UNL A   1      31.415  25.319  26.812  1.00  0.00    -0.275 OA
BRANCH  14  17
ATOM     17  C   UNL A   1      34.185  23.364  25.528  1.00  0.00     0.084 C 
ATOM     18  C   UNL A   1      34.152  21.643  27.439  1.00  0.00     0.010 C 
ATOM     19  C   UNL A   1      35.000  22.402  26.420  1.00  0.00     0.008 C 
ATOM     20  C   UNL A   1      35.744  21.409  25.507  1.00  0.00     0.005 C 
ATOM     21  C   UNL A   1      36.660  22.122  24.510  1.00  0.00     0.000 C 
ATOM     22  C   UNL A   1      35.158  24.171  24.657  1.00  0.00     0.025 C 
ATOM     23  C   UNL A   1      35.951  23.237  23.748  1.00  0.00     0.002 C 
ENDBRANCH  14  17
ENDBRANCH  12  13
ENDBRANCH  11  12
ENDBRANCH   7  11
ENDBRANCH   3   6
ENDBRANCH   1   2
BRANCH   1  24
ATOM     24  C   UNL A   1      33.198  30.192  25.974  1.00  0.00     0.023 C 
BRANCH  24  25
ATOM     25  C   UNL A   1      33.809  30.201  27.386  1.00  0.00     0.023 C 
BRANCH  25  26
ATOM     26  C   UNL A   1      34.825  31.313  27.604  1.00  0.00     0.116 C 
BRANCH  26  27
ATOM     27  N   UNL A   1      34.560  32.112  28.805  1.00  0.00    -0.352 N 
ATOM     28  C   UNL A   1      35.083  31.946  30.079  1.00  0.00     0.251 C 
ATOM     29  H   UNL A   1      33.931  32.862  28.693  1.00  0.00     0.163 HD
ATOM     30  O   UNL A   1      34.560  32.444  31.057  1.00  0.00    -0.269 OA
BRANCH  28  31
ATOM     31  C   UNL A   1      36.325  31.166  30.210  1.00  0.00     0.039 A 
ATOM     32  C   UNL A   1      36.339  29.774  30.348  1.00  0.00     0.014 A 
ATOM     33  C   UNL A   1      37.507  31.890  30.141  1.00  0.00     0.014 A 
ATOM     34  C   UNL A   1      37.568  29.115  30.357  1.00  0.00     0.010 A 
ATOM     35  C   UNL A   1      38.675  31.235  29.904  1.00  0.00     0.010 A 
ATOM     36  C   UNL A   1      38.728  29.864  30.131  1.00  0.00    -0.014 A 
BRANCH  36  37
ATOM     37  C   UNL A   1      40.063  29.288  30.111  1.00  0.00     0.031 A 
ATOM     38  C   UNL A   1      40.716  29.130  31.437  1.00  0.00     0.074 A 
ATOM     39  C   UNL A   1      40.485  28.655  28.993  1.00  0.00     0.049 A 
ATOM     40  N   UNL A   1      41.830  29.646  31.834  1.00  0.00    -0.248 NA
ATOM     41  C   UNL A   1      39.991  28.407  32.496  1.00  0.00     0.031 C 
ATOM     42  C   UNL A   1      39.768  28.468  27.719  1.00  0.00     0.029 A 
ATOM     43  N   UNL A   1      41.596  27.899  28.811  1.00  0.00    -0.354 N 
ATOM     44  C   UNL A   1      42.048  29.165  33.125  1.00  0.00     0.074 A 
ATOM     45  C   UNL A   1      40.808  28.566  33.540  1.00  0.00     0.031 C 
ATOM     46  C   UNL A   1      40.336  27.464  27.019  1.00  0.00     0.029 A 
ATOM     47  C   UNL A   1      41.548  27.061  27.702  1.00  0.00     0.049 A 
ATOM     48  H   UNL A   1      42.372  27.939  29.416  1.00  0.00     0.167 HD
ATOM     49  C   UNL A   1      43.303  29.107  33.657  1.00  0.00     0.037 A 
ATOM     50  C   UNL A   1      42.431  26.075  27.411  1.00  0.00     0.037 A 
ATOM     51  C   UNL A   1      44.230  29.860  32.850  1.00  0.00     0.049 A 
ATOM     52  C   UNL A   1      43.661  26.356  28.199  1.00  0.00     0.074 A 
ATOM     53  C   UNL A   1      44.344  31.189  32.491  1.00  0.00     0.029 A 
ATOM     54  N   UNL A   1      45.008  29.158  31.959  1.00  0.00    -0.354 N 
ATOM     55  N   UNL A   1      44.427  27.394  27.986  1.00  0.00    -0.248 NA
ATOM     56  C   UNL A   1      43.749  25.784  29.537  1.00  0.00     0.031 C 
ATOM     57  C   UNL A   1      44.763  31.161  31.129  1.00  0.00     0.029 A 
ATOM     58  C   UNL A   1      44.961  29.828  30.764  1.00  0.00     0.049 A 
ATOM     59  H   UNL A   1      45.506  28.330  32.145  1.00  0.00     0.167 HD
ATOM     60  C   UNL A   1      44.763  27.858  29.251  1.00  0.00     0.074 A 
ATOM     61  C   UNL A   1      44.375  26.784  30.166  1.00  0.00     0.031 C 
ATOM     62  C   UNL A   1      45.031  29.179  29.474  1.00  0.00     0.037 A 
BRANCH  49  63
ATOM     63  C   UNL A   1      43.794  28.105  34.676  1.00  0.00     0.057 A 
ATOM     64  C   UNL A   1      44.434  28.579  35.838  1.00  0.00     0.134 A 
ATOM     65  C   UNL A   1      43.939  26.725  34.439  1.00  0.00     0.134 A 
ATOM     66  F   UNL A   1      44.359  29.872  36.190  1.00  0.00    -0.206 F 
ATOM     67  C   UNL A   1      45.247  27.766  36.637  1.00  0.00     0.040 A 
ATOM     68  C   UNL A   1      44.706  25.893  35.260  1.00  0.00     0.040 A 
ATOM     69  F   UNL A   1      43.436  26.122  33.357  1.00  0.00    -0.206 F 
ATOM     70  C   UNL A   1      45.398  26.419  36.339  1.00  0.00     0.006 A 
ENDBRANCH  49  63
BRANCH  50  71
ATOM     71  C   UNL A   1      42.167  24.784  26.735  1.00  0.00     0.057 A 
ATOM     72  C   UNL A   1      42.974  24.328  25.684  1.00  0.00     0.134 A 
ATOM     73  C   UNL A   1      41.260  23.845  27.263  1.00  0.00     0.134 A 
ATOM     74  F   UNL A   1      43.898  25.133  25.139  1.00  0.00    -0.206 F 
ATOM     75  C   UNL A   1      42.893  23.016  25.195  1.00  0.00     0.040 A 
ATOM     76  C   UNL A   1      41.165  22.535  26.782  1.00  0.00     0.040 A 
ATOM     77  F   UNL A   1      40.489  24.144  28.320  1.00  0.00    -0.206 F 
ATOM     78  C   UNL A   1      41.993  22.111  25.751  1.00  0.00     0.006 A 
ENDBRANCH  50  71
BRANCH  62  79
ATOM     79  C   UNL A   1      45.155  30.097  28.287  1.00  0.00     0.057 A 
ATOM     80  C   UNL A   1      44.090  30.846  27.763  1.00  0.00     0.134 A 
ATOM     81  C   UNL A   1      46.432  30.399  27.805  1.00  0.00     0.134 A 
ATOM     82  F   UNL A   1      42.847  30.703  28.230  1.00  0.00    -0.206 F 
ATOM     83  C   UNL A   1      44.284  31.831  26.790  1.00  0.00     0.040 A 
ATOM     84  C   UNL A   1      46.643  31.403  26.857  1.00  0.00     0.040 A 
ATOM     85  F   UNL A   1      47.507  29.770  28.305  1.00  0.00    -0.206 F 
ATOM     86  C   UNL A   1      45.567  32.120  26.342  1.00  0.00     0.006 A 
ENDBRANCH  62  79
ENDBRANCH  36  37
ENDBRANCH  28  31
ENDBRANCH  26  27
ENDBRANCH  25  26
ENDBRANCH  24  25
ENDBRANCH   1  24
TORSDOF 15
ENDMDL
