MODEL 1
REMARK VINA RESULT:     -12.7      0.000      0.000
REMARK SMILES Cc1ccc(C(=O)NCCCCNC(=O)c2ccc(-c3c4nc(c(-c5c(F)cccc5F)c5ccc([nH]5)c(-c5c(F)cccc5F)c5nc(c(-c6c(F)cccc6F)c6ccc3[nH]6)C=C5)C=C4)cc2)c2c1N[C@H](c1ccccc1F)[C@H]1CC=C[C@@H]21
REMARK SMILES IDX 11 1 10 2 9 3 8 4 6 5 7 6 5 8 1 9 2 10 3 11 71 12 4 13 70 14
REMARK SMILES IDX 72 15 85 16 73 17 81 19 84 20 82 21 83 22 74 23 75 24 79 25
REMARK SMILES IDX 76 26 78 27 80 28 77 29 12 30 13 31 14 32 15 34 16 35 17 36
REMARK SMILES IDX 69 37 18 38 68 39 19 40 20 41 21 42 62 43 22 44 67 45 61 46
REMARK SMILES IDX 63 47 23 48 66 49 60 50 59 51 24 53 50 54 33 55 49 56 34 57
REMARK SMILES IDX 37 58 48 59 64 60 35 61 36 62 47 64 65 65 38 66 25 67 26 68
REMARK SMILES IDX 31 69 27 70 28 71 30 72 32 73 29 74 51 75 52 76 57 77 53 78
REMARK SMILES IDX 54 79 56 80 58 81 55 82 39 83 40 84 45 85 41 86 42 87 44 88
REMARK SMILES IDX 46 89 43 90
REMARK H PARENT 8 7 72 18 13 33 63 52 37 63
REMARK Flexibility Score: inf
ROOT
ATOM      1  C   UNL A   1      37.177  20.409  24.902  1.00  0.00     0.023 C 
ENDROOT
BRANCH   1   2
ATOM      2  C   UNL A   1      35.924  21.056  25.501  1.00  0.00     0.023 C 
BRANCH   2   3
ATOM      3  C   UNL A   1      35.883  22.583  25.375  1.00  0.00     0.116 C 
BRANCH   3   4
ATOM      4  N   UNL A   1      35.487  22.953  24.034  1.00  0.00    -0.352 N 
ATOM      5  C   UNL A   1      34.286  23.256  23.444  1.00  0.00     0.251 C 
ATOM      6  O   UNL A   1      34.329  23.289  22.215  1.00  0.00    -0.269 OA
ATOM      7  H   UNL A   1      36.244  22.995  23.407  1.00  0.00     0.163 HD
BRANCH   5   8
ATOM      8  C   UNL A   1      33.009  23.554  24.196  1.00  0.00     0.045 A 
ATOM      9  C   UNL A   1      29.449  24.328  26.556  1.00  0.00     0.046 C 
ATOM     10  C   UNL A   1      30.633  24.076  25.659  1.00  0.00    -0.028 A 
ATOM     11  C   UNL A   1      31.289  22.853  25.776  1.00  0.00     0.006 A 
ATOM     12  C   UNL A   1      31.118  25.043  24.751  1.00  0.00     0.042 A 
ATOM     13  C   UNL A   1      32.431  22.589  25.026  1.00  0.00     0.014 A 
ATOM     14  C   UNL A   1      32.322  24.797  24.037  1.00  0.00    -0.005 A 
ATOM     15  N   UNL A   1      30.401  26.213  24.561  1.00  0.00    -0.377 N 
ATOM     16  C   UNL A   1      32.808  25.849  23.060  1.00  0.00     0.050 C 
ATOM     17  C   UNL A   1      30.973  27.387  23.925  1.00  0.00     0.117 C 
ATOM     18  H   UNL A   1      29.467  26.250  24.870  1.00  0.00     0.161 HD
ATOM     19  C   UNL A   1      31.807  26.966  22.707  1.00  0.00     0.031 C 
ATOM     20  C   UNL A   1      34.012  26.643  23.493  1.00  0.00    -0.023 C 
ATOM     21  C   UNL A   1      32.712  28.118  22.225  1.00  0.00     0.034 C 
ATOM     22  C   UNL A   1      33.966  27.891  23.010  1.00  0.00    -0.030 C 
BRANCH  17  23
ATOM     23  C   UNL A   1      29.846  28.387  23.676  1.00  0.00     0.010 A 
ATOM     24  C   UNL A   1      28.596  27.893  23.246  1.00  0.00     0.009 A 
ATOM     25  C   UNL A   1      29.963  29.775  23.833  1.00  0.00     0.128 A 
ATOM     26  C   UNL A   1      27.522  28.751  22.993  1.00  0.00     0.001 A 
ATOM     27  C   UNL A   1      28.892  30.634  23.587  1.00  0.00     0.039 A 
ATOM     28  F   UNL A   1      31.106  30.339  24.242  1.00  0.00    -0.207 F 
ATOM     29  C   UNL A   1      27.669  30.124  23.167  1.00  0.00     0.003 A 
ENDBRANCH  17  23
ENDBRANCH   5   8
ENDBRANCH   3   4
ENDBRANCH   2   3
ENDBRANCH   1   2
BRANCH   1  30
ATOM     30  C   UNL A   1      38.487  20.834  25.551  1.00  0.00     0.116 C 
BRANCH  30  31
ATOM     31  N   UNL A   1      39.466  19.759  25.591  1.00  0.00    -0.352 N 
ATOM     32  C   UNL A   1      40.769  19.820  26.016  1.00  0.00     0.251 C 
ATOM     33  H   UNL A   1      39.155  18.880  25.276  1.00  0.00     0.163 HD
ATOM     34  O   UNL A   1      41.518  18.863  25.903  1.00  0.00    -0.269 OA
BRANCH  32  35
ATOM     35  C   UNL A   1      41.254  21.085  26.593  1.00  0.00     0.039 A 
ATOM     36  C   UNL A   1      41.828  22.035  25.745  1.00  0.00     0.014 A 
ATOM     37  C   UNL A   1      41.100  21.335  27.960  1.00  0.00     0.014 A 
ATOM     38  C   UNL A   1      42.221  23.266  26.267  1.00  0.00     0.010 A 
ATOM     39  C   UNL A   1      41.456  22.577  28.470  1.00  0.00     0.010 A 
ATOM     40  C   UNL A   1      42.025  23.546  27.628  1.00  0.00    -0.014 A 
BRANCH  40  41
ATOM     41  C   UNL A   1      42.478  24.824  28.215  1.00  0.00     0.031 A 
ATOM     42  C   UNL A   1      41.478  25.923  28.427  1.00  0.00     0.074 A 
ATOM     43  C   UNL A   1      43.778  25.013  28.499  1.00  0.00     0.049 A 
ATOM     44  N   UNL A   1      41.668  27.146  28.847  1.00  0.00    -0.248 NA
ATOM     45  C   UNL A   1      40.077  25.604  28.103  1.00  0.00     0.031 C 
ATOM     46  C   UNL A   1      44.840  24.023  28.317  1.00  0.00     0.029 A 
ATOM     47  N   UNL A   1      44.429  26.116  28.989  1.00  0.00    -0.354 N 
ATOM     48  C   UNL A   1      40.415  27.743  28.833  1.00  0.00     0.074 A 
ATOM     49  C   UNL A   1      39.481  26.767  28.316  1.00  0.00     0.031 C 
ATOM     50  C   UNL A   1      46.011  24.564  28.694  1.00  0.00     0.029 A 
ATOM     51  C   UNL A   1      45.785  25.943  29.116  1.00  0.00     0.049 A 
ATOM     52  H   UNL A   1      43.967  26.952  29.227  1.00  0.00     0.167 HD
ATOM     53  C   UNL A   1      40.071  28.989  29.235  1.00  0.00     0.037 A 
ATOM     54  C   UNL A   1      46.733  26.809  29.519  1.00  0.00     0.037 A 
ATOM     55  C   UNL A   1      41.001  29.953  29.756  1.00  0.00     0.049 A 
ATOM     56  C   UNL A   1      46.331  28.202  29.918  1.00  0.00     0.074 A 
ATOM     57  C   UNL A   1      40.751  31.228  30.228  1.00  0.00     0.029 A 
ATOM     58  N   UNL A   1      42.368  29.743  29.867  1.00  0.00    -0.354 N 
ATOM     59  N   UNL A   1      45.136  28.742  29.950  1.00  0.00    -0.248 NA
ATOM     60  C   UNL A   1      47.410  29.108  30.334  1.00  0.00     0.031 C 
ATOM     61  C   UNL A   1      41.974  31.803  30.595  1.00  0.00     0.029 A 
ATOM     62  C   UNL A   1      42.979  30.872  30.384  1.00  0.00     0.049 A 
ATOM     63  H   UNL A   1      42.834  28.912  29.617  1.00  0.00     0.167 HD
ATOM     64  C   UNL A   1      45.316  30.037  30.416  1.00  0.00     0.074 A 
ATOM     65  C   UNL A   1      46.735  30.200  30.660  1.00  0.00     0.031 C 
ATOM     66  C   UNL A   1      44.392  31.006  30.627  1.00  0.00     0.037 A 
BRANCH  53  67
ATOM     67  C   UNL A   1      38.625  29.364  29.122  1.00  0.00     0.057 A 
ATOM     68  C   UNL A   1      38.082  29.765  27.895  1.00  0.00     0.134 A 
ATOM     69  C   UNL A   1      37.767  29.321  30.228  1.00  0.00     0.134 A 
ATOM     70  F   UNL A   1      38.850  29.827  26.797  1.00  0.00    -0.206 F 
ATOM     71  C   UNL A   1      36.734  30.105  27.773  1.00  0.00     0.040 A 
ATOM     72  C   UNL A   1      36.412  29.636  30.113  1.00  0.00     0.040 A 
ATOM     73  F   UNL A   1      38.222  28.927  31.426  1.00  0.00    -0.206 F 
ATOM     74  C   UNL A   1      35.893  30.033  28.882  1.00  0.00     0.006 A 
ENDBRANCH  53  67
BRANCH  54  75
ATOM     75  C   UNL A   1      48.153  26.388  29.581  1.00  0.00     0.057 A 
ATOM     76  C   UNL A   1      48.693  25.797  30.728  1.00  0.00     0.134 A 
ATOM     77  C   UNL A   1      48.998  26.546  28.476  1.00  0.00     0.134 A 
ATOM     78  F   UNL A   1      47.936  25.622  31.821  1.00  0.00    -0.206 F 
ATOM     79  C   UNL A   1      50.023  25.375  30.774  1.00  0.00     0.040 A 
ATOM     80  C   UNL A   1      50.324  26.110  28.501  1.00  0.00     0.040 A 
ATOM     81  F   UNL A   1      48.530  27.087  27.342  1.00  0.00    -0.206 F 
ATOM     82  C   UNL A   1      50.840  25.525  29.655  1.00  0.00     0.006 A 
ENDBRANCH  54  75
BRANCH  66  83
ATOM     83  C   UNL A   1      44.884  32.310  31.176  1.00  0.00     0.057 A 
ATOM     84  C   UNL A   1      44.944  32.521  32.559  1.00  0.00     0.134 A 
ATOM     85  C   UNL A   1      45.261  33.366  30.339  1.00  0.00     0.134 A 
ATOM     86  F   UNL A   1      44.591  31.550  33.413  1.00  0.00    -0.206 F 
ATOM     87  C   UNL A   1      45.357  33.743  33.090  1.00  0.00     0.040 A 
ATOM     88  C   UNL A   1      45.696  34.585  30.859  1.00  0.00     0.040 A 
ATOM     89  F   UNL A   1      45.238  33.218  29.006  1.00  0.00    -0.206 F 
ATOM     90  C   UNL A   1      45.739  34.778  32.239  1.00  0.00     0.006 A 
ENDBRANCH  66  83
ENDBRANCH  40  41
ENDBRANCH  32  35
ENDBRANCH  30  31
ENDBRANCH   1  30
TORSDOF 12
ENDMDL
MODEL 2
REMARK VINA RESULT:     -12.6      4.846     10.333
REMARK SMILES Cc1ccc(C(=O)NCCCCNC(=O)c2ccc(-c3c4nc(c(-c5c(F)cccc5F)c5ccc([nH]5)c(-c5c(F)cccc5F)c5nc(c(-c6c(F)cccc6F)c6ccc3[nH]6)C=C5)C=C4)cc2)c2c1N[C@H](c1ccccc1F)[C@H]1CC=C[C@@H]21
REMARK SMILES IDX 11 1 10 2 9 3 8 4 6 5 7 6 5 8 1 9 2 10 3 11 71 12 4 13 70 14
REMARK SMILES IDX 72 15 85 16 73 17 81 19 84 20 82 21 83 22 74 23 75 24 79 25
REMARK SMILES IDX 76 26 78 27 80 28 77 29 12 30 13 31 14 32 15 34 16 35 17 36
REMARK SMILES IDX 69 37 18 38 68 39 19 40 20 41 21 42 62 43 22 44 67 45 61 46
REMARK SMILES IDX 63 47 23 48 66 49 60 50 59 51 24 53 50 54 33 55 49 56 34 57
REMARK SMILES IDX 37 58 48 59 64 60 35 61 36 62 47 64 65 65 38 66 25 67 26 68
REMARK SMILES IDX 31 69 27 70 28 71 30 72 32 73 29 74 51 75 52 76 57 77 53 78
REMARK SMILES IDX 54 79 56 80 58 81 55 82 39 83 40 84 45 85 41 86 42 87 44 88
REMARK SMILES IDX 46 89 43 90
REMARK H PARENT 8 7 72 18 13 33 63 52 37 63
REMARK Flexibility Score: inf
ROOT
ATOM      1  C   UNL A   1      41.896  22.269  27.320  1.00  0.00     0.023 C 
ENDROOT
BRANCH   1   2
ATOM      2  C   UNL A   1      42.558  23.041  28.465  1.00  0.00     0.023 C 
BRANCH   2   3
ATOM      3  C   UNL A   1      43.814  23.819  28.056  1.00  0.00     0.116 C 
BRANCH   3   4
ATOM      4  N   UNL A   1      43.936  23.828  26.615  1.00  0.00    -0.352 N 
ATOM      5  C   UNL A   1      44.572  24.649  25.717  1.00  0.00     0.251 C 
ATOM      6  O   UNL A   1      44.241  24.460  24.548  1.00  0.00    -0.269 OA
ATOM      7  H   UNL A   1      43.458  23.085  26.183  1.00  0.00     0.163 HD
BRANCH   5   8
ATOM      8  C   UNL A   1      45.608  25.687  26.086  1.00  0.00     0.045 A 
ATOM      9  C   UNL A   1      48.714  28.590  26.958  1.00  0.00     0.046 C 
ATOM     10  C   UNL A   1      47.597  27.604  26.739  1.00  0.00    -0.028 A 
ATOM     11  C   UNL A   1      47.939  26.277  26.488  1.00  0.00     0.006 A 
ATOM     12  C   UNL A   1      46.237  27.985  26.734  1.00  0.00     0.042 A 
ATOM     13  C   UNL A   1      46.955  25.334  26.208  1.00  0.00     0.014 A 
ATOM     14  C   UNL A   1      45.240  27.035  26.381  1.00  0.00    -0.005 A 
ATOM     15  N   UNL A   1      45.896  29.280  27.090  1.00  0.00    -0.377 N 
ATOM     16  C   UNL A   1      43.789  27.473  26.400  1.00  0.00     0.050 C 
ATOM     17  C   UNL A   1      44.595  29.856  26.797  1.00  0.00     0.117 C 
ATOM     18  H   UNL A   1      46.562  29.833  27.558  1.00  0.00     0.161 HD
ATOM     19  C   UNL A   1      43.493  28.825  27.078  1.00  0.00     0.031 C 
ATOM     20  C   UNL A   1      43.141  27.660  25.054  1.00  0.00    -0.023 C 
ATOM     21  C   UNL A   1      42.152  29.254  26.450  1.00  0.00     0.034 C 
ATOM     22  C   UNL A   1      42.219  28.630  25.091  1.00  0.00    -0.030 C 
BRANCH  17  23
ATOM     23  C   UNL A   1      44.492  31.192  27.528  1.00  0.00     0.010 A 
ATOM     24  C   UNL A   1      44.720  31.211  28.920  1.00  0.00     0.009 A 
ATOM     25  C   UNL A   1      44.173  32.412  26.917  1.00  0.00     0.128 A 
ATOM     26  C   UNL A   1      44.637  32.397  29.656  1.00  0.00     0.001 A 
ATOM     27  C   UNL A   1      44.094  33.600  27.646  1.00  0.00     0.039 A 
ATOM     28  F   UNL A   1      43.945  32.498  25.601  1.00  0.00    -0.207 F 
ATOM     29  C   UNL A   1      44.326  33.594  29.016  1.00  0.00     0.003 A 
ENDBRANCH  17  23
ENDBRANCH   5   8
ENDBRANCH   3   4
ENDBRANCH   2   3
ENDBRANCH   1   2
BRANCH   1  30
ATOM     30  C   UNL A   1      40.542  21.661  27.659  1.00  0.00     0.116 C 
BRANCH  30  31
ATOM     31  N   UNL A   1      39.540  21.919  26.637  1.00  0.00    -0.352 N 
ATOM     32  C   UNL A   1      38.893  23.099  26.368  1.00  0.00     0.251 C 
ATOM     33  H   UNL A   1      39.298  21.153  26.067  1.00  0.00     0.163 HD
ATOM     34  O   UNL A   1      37.996  23.155  25.542  1.00  0.00    -0.269 OA
BRANCH  32  35
ATOM     35  C   UNL A   1      39.293  24.299  27.122  1.00  0.00     0.039 A 
ATOM     36  C   UNL A   1      40.077  25.263  26.486  1.00  0.00     0.014 A 
ATOM     37  C   UNL A   1      38.853  24.476  28.437  1.00  0.00     0.014 A 
ATOM     38  C   UNL A   1      40.398  26.437  27.166  1.00  0.00     0.010 A 
ATOM     39  C   UNL A   1      39.139  25.664  29.097  1.00  0.00     0.010 A 
ATOM     40  C   UNL A   1      39.920  26.647  28.468  1.00  0.00    -0.014 A 
BRANCH  40  41
ATOM     41  C   UNL A   1      40.285  27.862  29.227  1.00  0.00     0.031 A 
ATOM     42  C   UNL A   1      41.602  27.905  29.943  1.00  0.00     0.074 A 
ATOM     43  C   UNL A   1      39.420  28.886  29.315  1.00  0.00     0.049 A 
ATOM     44  N   UNL A   1      42.087  28.828  30.731  1.00  0.00    -0.248 NA
ATOM     45  C   UNL A   1      42.484  26.738  29.763  1.00  0.00     0.031 C 
ATOM     46  C   UNL A   1      38.105  28.947  28.676  1.00  0.00     0.029 A 
ATOM     47  N   UNL A   1      39.515  30.072  29.997  1.00  0.00    -0.354 N 
ATOM     48  C   UNL A   1      43.325  28.354  31.143  1.00  0.00     0.074 A 
ATOM     49  C   UNL A   1      43.496  27.041  30.561  1.00  0.00     0.031 C 
ATOM     50  C   UNL A   1      37.517  30.112  28.993  1.00  0.00     0.029 A 
ATOM     51  C   UNL A   1      38.400  30.865  29.879  1.00  0.00     0.049 A 
ATOM     52  H   UNL A   1      40.307  30.331  30.521  1.00  0.00     0.167 HD
ATOM     53  C   UNL A   1      44.246  28.969  31.922  1.00  0.00     0.037 A 
ATOM     54  C   UNL A   1      38.127  32.060  30.435  1.00  0.00     0.037 A 
ATOM     55  C   UNL A   1      44.075  30.277  32.491  1.00  0.00     0.049 A 
ATOM     56  C   UNL A   1      39.148  32.701  31.333  1.00  0.00     0.074 A 
ATOM     57  C   UNL A   1      44.962  31.007  33.261  1.00  0.00     0.029 A 
ATOM     58  N   UNL A   1      42.932  31.049  32.352  1.00  0.00    -0.354 N 
ATOM     59  N   UNL A   1      40.338  32.269  31.675  1.00  0.00    -0.248 NA
ATOM     60  C   UNL A   1      38.788  33.998  31.924  1.00  0.00     0.031 C 
ATOM     61  C   UNL A   1      44.340  32.210  33.616  1.00  0.00     0.029 A 
ATOM     62  C   UNL A   1      43.081  32.242  33.038  1.00  0.00     0.049 A 
ATOM     63  H   UNL A   1      42.132  30.788  31.840  1.00  0.00     0.167 HD
ATOM     64  C   UNL A   1      40.878  33.250  32.496  1.00  0.00     0.074 A 
ATOM     65  C   UNL A   1      39.889  34.304  32.594  1.00  0.00     0.031 C 
ATOM     66  C   UNL A   1      42.085  33.280  33.112  1.00  0.00     0.037 A 
BRANCH  53  67
ATOM     67  C   UNL A   1      45.515  28.219  32.192  1.00  0.00     0.057 A 
ATOM     68  C   UNL A   1      46.600  28.302  31.311  1.00  0.00     0.134 A 
ATOM     69  C   UNL A   1      45.666  27.420  33.333  1.00  0.00     0.134 A 
ATOM     70  F   UNL A   1      46.520  29.052  30.202  1.00  0.00    -0.206 F 
ATOM     71  C   UNL A   1      47.792  27.620  31.558  1.00  0.00     0.040 A 
ATOM     72  C   UNL A   1      46.860  26.750  33.602  1.00  0.00     0.040 A 
ATOM     73  F   UNL A   1      44.669  27.314  34.225  1.00  0.00    -0.206 F 
ATOM     74  C   UNL A   1      47.927  26.847  32.711  1.00  0.00     0.006 A 
ENDBRANCH  53  67
BRANCH  54  75
ATOM     75  C   UNL A   1      36.839  32.739  30.154  1.00  0.00     0.057 A 
ATOM     76  C   UNL A   1      36.694  33.617  29.074  1.00  0.00     0.134 A 
ATOM     77  C   UNL A   1      35.712  32.500  30.949  1.00  0.00     0.134 A 
ATOM     78  F   UNL A   1      37.737  33.889  28.277  1.00  0.00    -0.206 F 
ATOM     79  C   UNL A   1      35.473  34.232  28.794  1.00  0.00     0.040 A 
ATOM     80  C   UNL A   1      34.480  33.093  30.668  1.00  0.00     0.040 A 
ATOM     81  F   UNL A   1      35.786  31.652  31.985  1.00  0.00    -0.206 F 
ATOM     82  C   UNL A   1      34.359  33.964  29.588  1.00  0.00     0.006 A 
ENDBRANCH  54  75
BRANCH  66  83
ATOM     83  C   UNL A   1      42.410  34.502  33.915  1.00  0.00     0.057 A 
ATOM     84  C   UNL A   1      42.167  34.532  35.294  1.00  0.00     0.134 A 
ATOM     85  C   UNL A   1      42.926  35.659  33.320  1.00  0.00     0.134 A 
ATOM     86  F   UNL A   1      41.667  33.456  35.922  1.00  0.00    -0.206 F 
ATOM     87  C   UNL A   1      42.420  35.674  36.052  1.00  0.00     0.040 A 
ATOM     88  C   UNL A   1      43.204  36.800  34.072  1.00  0.00     0.040 A 
ATOM     89  F   UNL A   1      43.193  35.685  32.006  1.00  0.00    -0.206 F 
ATOM     90  C   UNL A   1      42.945  36.812  35.442  1.00  0.00     0.006 A 
ENDBRANCH  66  83
ENDBRANCH  40  41
ENDBRANCH  32  35
ENDBRANCH  30  31
ENDBRANCH   1  30
TORSDOF 12
ENDMDL
MODEL 3
REMARK VINA RESULT:     -12.6      5.073      8.409
REMARK SMILES Cc1ccc(C(=O)NCCCCNC(=O)c2ccc(-c3c4nc(c(-c5c(F)cccc5F)c5ccc([nH]5)c(-c5c(F)cccc5F)c5nc(c(-c6c(F)cccc6F)c6ccc3[nH]6)C=C5)C=C4)cc2)c2c1N[C@H](c1ccccc1F)[C@H]1CC=C[C@@H]21
REMARK SMILES IDX 11 1 10 2 9 3 8 4 6 5 7 6 5 8 1 9 2 10 3 11 71 12 4 13 70 14
REMARK SMILES IDX 72 15 85 16 73 17 81 19 84 20 82 21 83 22 74 23 75 24 79 25
REMARK SMILES IDX 76 26 78 27 80 28 77 29 12 30 13 31 14 32 15 34 16 35 17 36
REMARK SMILES IDX 69 37 18 38 68 39 19 40 20 41 21 42 62 43 22 44 67 45 61 46
REMARK SMILES IDX 63 47 23 48 66 49 60 50 59 51 24 53 50 54 33 55 49 56 34 57
REMARK SMILES IDX 37 58 48 59 64 60 35 61 36 62 47 64 65 65 38 66 25 67 26 68
REMARK SMILES IDX 31 69 27 70 28 71 30 72 32 73 29 74 51 75 52 76 57 77 53 78
REMARK SMILES IDX 54 79 56 80 58 81 55 82 39 83 40 84 45 85 41 86 42 87 44 88
REMARK SMILES IDX 46 89 43 90
REMARK H PARENT 8 7 72 18 13 33 63 52 37 63
REMARK Flexibility Score: inf
ROOT
ATOM      1  C   UNL A   1      45.095  23.341  25.504  1.00  0.00     0.023 C 
ENDROOT
BRANCH   1   2
ATOM      2  C   UNL A   1      45.126  21.824  25.718  1.00  0.00     0.023 C 
BRANCH   2   3
ATOM      3  C   UNL A   1      43.963  21.072  25.062  1.00  0.00     0.116 C 
BRANCH   3   4
ATOM      4  N   UNL A   1      43.416  20.109  25.992  1.00  0.00    -0.352 N 
ATOM      5  C   UNL A   1      42.271  20.057  26.747  1.00  0.00     0.251 C 
ATOM      6  O   UNL A   1      42.278  19.172  27.602  1.00  0.00    -0.269 OA
ATOM      7  H   UNL A   1      43.991  19.319  26.111  1.00  0.00     0.163 HD
BRANCH   5   8
ATOM      8  C   UNL A   1      41.078  20.966  26.563  1.00  0.00     0.045 A 
ATOM      9  C   UNL A   1      37.511  23.400  26.115  1.00  0.00     0.046 C 
ATOM     10  C   UNL A   1      38.796  22.621  26.221  1.00  0.00    -0.028 A 
ATOM     11  C   UNL A   1      38.804  21.310  25.751  1.00  0.00     0.006 A 
ATOM     12  C   UNL A   1      39.962  23.155  26.815  1.00  0.00     0.042 A 
ATOM     13  C   UNL A   1      39.939  20.517  25.886  1.00  0.00     0.014 A 
ATOM     14  C   UNL A   1      41.096  22.322  27.012  1.00  0.00    -0.005 A 
ATOM     15  N   UNL A   1      39.983  24.491  27.182  1.00  0.00    -0.377 N 
ATOM     16  C   UNL A   1      42.336  22.930  27.639  1.00  0.00     0.050 C 
ATOM     17  C   UNL A   1      40.980  25.038  28.085  1.00  0.00     0.117 C 
ATOM     18  H   UNL A   1      39.294  25.092  26.818  1.00  0.00     0.161 HD
ATOM     19  C   UNL A   1      42.363  24.467  27.744  1.00  0.00     0.031 C 
ATOM     20  C   UNL A   1      42.622  22.522  29.060  1.00  0.00    -0.023 C 
ATOM     21  C   UNL A   1      43.373  24.730  28.880  1.00  0.00     0.034 C 
ATOM     22  C   UNL A   1      43.216  23.512  29.736  1.00  0.00    -0.030 C 
BRANCH  17  23
ATOM     23  C   UNL A   1      40.842  26.559  28.079  1.00  0.00     0.010 A 
ATOM     24  C   UNL A   1      40.753  27.227  29.319  1.00  0.00     0.009 A 
ATOM     25  C   UNL A   1      40.784  27.349  26.923  1.00  0.00     0.128 A 
ATOM     26  C   UNL A   1      40.618  28.617  29.389  1.00  0.00     0.001 A 
ATOM     27  C   UNL A   1      40.655  28.737  26.988  1.00  0.00     0.039 A 
ATOM     28  F   UNL A   1      40.866  26.809  25.701  1.00  0.00    -0.207 F 
ATOM     29  C   UNL A   1      40.572  29.373  28.221  1.00  0.00     0.003 A 
ENDBRANCH  17  23
ENDBRANCH   5   8
ENDBRANCH   3   4
ENDBRANCH   2   3
ENDBRANCH   1   2
BRANCH   1  30
ATOM     30  C   UNL A   1      46.341  24.078  25.976  1.00  0.00     0.116 C 
BRANCH  30  31
ATOM     31  N   UNL A   1      46.855  25.004  24.980  1.00  0.00    -0.352 N 
ATOM     32  C   UNL A   1      46.746  26.372  24.964  1.00  0.00     0.251 C 
ATOM     33  H   UNL A   1      47.341  24.601  24.225  1.00  0.00     0.163 HD
ATOM     34  O   UNL A   1      47.137  27.028  24.012  1.00  0.00    -0.269 OA
BRANCH  32  35
ATOM     35  C   UNL A   1      46.118  27.034  26.120  1.00  0.00     0.039 A 
ATOM     36  C   UNL A   1      46.935  27.536  27.135  1.00  0.00     0.014 A 
ATOM     37  C   UNL A   1      44.729  27.185  26.169  1.00  0.00     0.014 A 
ATOM     38  C   UNL A   1      46.357  28.230  28.196  1.00  0.00     0.010 A 
ATOM     39  C   UNL A   1      44.158  27.912  27.206  1.00  0.00     0.010 A 
ATOM     40  C   UNL A   1      44.968  28.431  28.229  1.00  0.00    -0.014 A 
BRANCH  40  41
ATOM     41  C   UNL A   1      44.326  29.121  29.367  1.00  0.00     0.031 A 
ATOM     42  C   UNL A   1      44.014  30.584  29.250  1.00  0.00     0.074 A 
ATOM     43  C   UNL A   1      44.081  28.455  30.508  1.00  0.00     0.049 A 
ATOM     44  N   UNL A   1      43.532  31.402  30.147  1.00  0.00    -0.248 NA
ATOM     45  C   UNL A   1      44.303  31.212  27.949  1.00  0.00     0.031 C 
ATOM     46  C   UNL A   1      44.360  27.037  30.742  1.00  0.00     0.029 A 
ATOM     47  N   UNL A   1      43.554  28.892  31.696  1.00  0.00    -0.354 N 
ATOM     48  C   UNL A   1      43.464  32.641  29.524  1.00  0.00     0.074 A 
ATOM     49  C   UNL A   1      44.001  32.479  28.190  1.00  0.00     0.031 C 
ATOM     50  C   UNL A   1      43.998  26.721  31.996  1.00  0.00     0.029 A 
ATOM     51  C   UNL A   1      43.488  27.917  32.661  1.00  0.00     0.049 A 
ATOM     52  H   UNL A   1      43.251  29.817  31.843  1.00  0.00     0.167 HD
ATOM     53  C   UNL A   1      42.978  33.806  30.013  1.00  0.00     0.037 A 
ATOM     54  C   UNL A   1      43.072  27.992  33.938  1.00  0.00     0.037 A 
ATOM     55  C   UNL A   1      42.438  33.960  31.336  1.00  0.00     0.049 A 
ATOM     56  C   UNL A   1      42.579  29.308  34.472  1.00  0.00     0.074 A 
ATOM     57  C   UNL A   1      41.884  35.086  31.918  1.00  0.00     0.029 A 
ATOM     58  N   UNL A   1      42.391  32.951  32.286  1.00  0.00    -0.354 N 
ATOM     59  N   UNL A   1      42.470  30.462  33.859  1.00  0.00    -0.248 NA
ATOM     60  C   UNL A   1      42.153  29.333  35.879  1.00  0.00     0.031 C 
ATOM     61  C   UNL A   1      41.531  34.765  33.234  1.00  0.00     0.029 A 
ATOM     62  C   UNL A   1      41.833  33.431  33.459  1.00  0.00     0.049 A 
ATOM     63  H   UNL A   1      42.706  32.028  32.147  1.00  0.00     0.167 HD
ATOM     64  C   UNL A   1      41.938  31.341  34.793  1.00  0.00     0.074 A 
ATOM     65  C   UNL A   1      41.739  30.585  36.012  1.00  0.00     0.031 C 
ATOM     66  C   UNL A   1      41.637  32.655  34.656  1.00  0.00     0.037 A 
BRANCH  53  67
ATOM     67  C   UNL A   1      43.015  34.994  29.101  1.00  0.00     0.057 A 
ATOM     68  C   UNL A   1      44.216  35.670  28.852  1.00  0.00     0.134 A 
ATOM     69  C   UNL A   1      41.861  35.465  28.463  1.00  0.00     0.134 A 
ATOM     70  F   UNL A   1      45.357  35.268  29.432  1.00  0.00    -0.206 F 
ATOM     71  C   UNL A   1      44.266  36.770  27.995  1.00  0.00     0.040 A 
ATOM     72  C   UNL A   1      41.903  36.550  27.586  1.00  0.00     0.040 A 
ATOM     73  F   UNL A   1      40.683  34.849  28.647  1.00  0.00    -0.206 F 
ATOM     74  C   UNL A   1      43.109  37.208  27.353  1.00  0.00     0.006 A 
ENDBRANCH  53  67
BRANCH  54  75
ATOM     75  C   UNL A   1      43.088  26.787  34.802  1.00  0.00     0.057 A 
ATOM     76  C   UNL A   1      41.940  26.014  35.002  1.00  0.00     0.134 A 
ATOM     77  C   UNL A   1      44.268  26.367  35.427  1.00  0.00     0.134 A 
ATOM     78  F   UNL A   1      40.778  26.365  34.433  1.00  0.00    -0.206 F 
ATOM     79  C   UNL A   1      41.964  24.863  35.792  1.00  0.00     0.040 A 
ATOM     80  C   UNL A   1      44.312  25.208  36.204  1.00  0.00     0.040 A 
ATOM     81  F   UNL A   1      45.405  27.058  35.255  1.00  0.00    -0.206 F 
ATOM     82  C   UNL A   1      43.156  24.453  36.390  1.00  0.00     0.006 A 
ENDBRANCH  54  75
BRANCH  66  83
ATOM     83  C   UNL A   1      41.033  33.344  35.842  1.00  0.00     0.057 A 
ATOM     84  C   UNL A   1      39.643  33.376  36.013  1.00  0.00     0.134 A 
ATOM     85  C   UNL A   1      41.821  34.006  36.789  1.00  0.00     0.134 A 
ATOM     86  F   UNL A   1      38.834  32.766  35.134  1.00  0.00    -0.206 F 
ATOM     87  C   UNL A   1      39.059  34.050  37.085  1.00  0.00     0.040 A 
ATOM     88  C   UNL A   1      41.249  34.664  37.878  1.00  0.00     0.040 A 
ATOM     89  F   UNL A   1      43.158  33.996  36.686  1.00  0.00    -0.206 F 
ATOM     90  C   UNL A   1      39.862  34.692  38.024  1.00  0.00     0.006 A 
ENDBRANCH  66  83
ENDBRANCH  40  41
ENDBRANCH  32  35
ENDBRANCH  30  31
ENDBRANCH   1  30
TORSDOF 12
ENDMDL
