MODEL 1
REMARK VINA RESULT:     -11.4      0.000      0.000
REMARK SMILES Cc1cc(Br)c(C)c([C@@H]2[NH2+][C@H](C(=O)NCCCCNC(=O)c3ccc(-c4c5nc(c(-c6c(F)cccc6F)c6ccc([nH]6)c(-c6c(F)cccc6F)c6nc(c(-c7c(F)cccc7F)c7ccc4[nH]7)C=C6)C=C5)cc3)CS2)c1O
REMARK SMILES IDX 16 1 15 2 14 3 12 4 13 5 11 7 9 8 10 9 77 10 76 13 8 14 1 15
REMARK SMILES IDX 2 16 3 17 78 18 4 19 5 20 6 21 7 22 79 23 17 25 18 26 19 27
REMARK SMILES IDX 20 28 21 30 22 31 23 32 75 33 24 34 74 35 25 36 26 37 27 38
REMARK SMILES IDX 68 39 28 40 73 41 67 42 69 43 29 44 72 45 66 46 65 47 30 49
REMARK SMILES IDX 56 50 39 51 55 52 40 53 43 54 54 55 70 56 41 57 42 58 53 60
REMARK SMILES IDX 71 61 44 62 31 63 32 64 37 65 33 66 34 67 36 68 38 69 35 70
REMARK SMILES IDX 57 71 58 72 63 73 59 74 60 75 62 76 64 77 61 78 45 79 46 80
REMARK SMILES IDX 51 81 47 82 48 83 50 84 52 85 49 86
REMARK H PARENT 14 6 10 11 10 12 79 24 19 29 69 48 43 59
REMARK Flexibility Score: inf
ROOT
ATOM      1  C   UNL A   1      31.752  28.948  27.239  1.00  0.00     0.023 C 
ENDROOT
BRANCH   1   2
ATOM      2  C   UNL A   1      32.382  27.566  27.090  1.00  0.00     0.116 C 
BRANCH   2   3
ATOM      3  N   UNL A   1      31.465  26.511  26.720  1.00  0.00    -0.351 N 
ATOM      4  C   UNL A   1      31.533  25.610  25.696  1.00  0.00     0.279 C 
ATOM      5  O   UNL A   1      30.829  24.597  25.824  1.00  0.00    -0.268 OA
ATOM      6  H   UNL A   1      30.669  26.430  27.293  1.00  0.00     0.163 HD
BRANCH   4   7
ATOM      7  C   UNL A   1      32.408  25.747  24.425  1.00  0.00     0.283 C 
ATOM      8  C   UNL A   1      34.094  24.371  23.352  1.00  0.00     0.278 C 
ATOM      9  N   UNL A   1      33.776  25.188  24.536  1.00  0.00    -0.320 N 
ATOM     10  S   UNL A   1      32.916  24.721  22.040  1.00  0.00    -0.087 SA
ATOM     11  H   UNL A   1      34.448  25.953  24.607  1.00  0.00     0.348 HD
ATOM     12  H   UNL A   1      33.827  24.599  25.368  1.00  0.00     0.348 HD
ATOM     13  C   UNL A   1      31.645  25.273  23.192  1.00  0.00     0.151 C 
BRANCH   8  14
ATOM     14  C   UNL A   1      34.362  22.913  23.763  1.00  0.00     0.066 A 
ATOM     15  C   UNL A   1      32.459  19.913  25.296  1.00  0.00     0.048 C 
ATOM     16  C   UNL A   1      33.553  20.768  24.713  1.00  0.00    -0.008 A 
ATOM     17  C   UNL A   1      34.874  20.360  24.884  1.00  0.00     0.023 A 
ATOM     18  C   UNL A   1      33.312  22.027  24.140  1.00  0.00     0.128 A 
ATOM     19  C   UNL A   1      35.935  21.206  24.559  1.00  0.00     0.021 A 
ATOM     20  Br  UNL A   1      37.668  20.585  25.057  1.00  0.00    -0.051 Br
ATOM     21  C   UNL A   1      35.711  22.482  23.996  1.00  0.00    -0.023 A 
ATOM     22  C   UNL A   1      36.894  23.407  23.800  1.00  0.00     0.046 C 
BRANCH  18  23
ATOM     23  O   UNL A   1      32.021  22.479  24.079  1.00  0.00    -0.507 OA
ATOM     24  H   UNL A   1      31.509  22.330  23.308  1.00  0.00     0.293 HD
ENDBRANCH  18  23
ENDBRANCH   8  14
ENDBRANCH   4   7
ENDBRANCH   2   3
ENDBRANCH   1   2
BRANCH   1  25
ATOM     25  C   UNL A   1      32.426  30.061  26.436  1.00  0.00     0.023 C 
BRANCH  25  26
ATOM     26  C   UNL A   1      33.229  31.096  27.224  1.00  0.00     0.116 C 
BRANCH  26  27
ATOM     27  N   UNL A   1      32.554  32.367  27.455  1.00  0.00    -0.352 N 
ATOM     28  C   UNL A   1      33.034  33.498  28.087  1.00  0.00     0.251 C 
ATOM     29  H   UNL A   1      31.633  32.428  27.116  1.00  0.00     0.163 HD
ATOM     30  O   UNL A   1      32.354  34.514  28.180  1.00  0.00    -0.269 OA
BRANCH  28  31
ATOM     31  C   UNL A   1      34.363  33.453  28.728  1.00  0.00     0.039 A 
ATOM     32  C   UNL A   1      35.485  33.933  28.056  1.00  0.00     0.014 A 
ATOM     33  C   UNL A   1      34.493  32.791  29.953  1.00  0.00     0.014 A 
ATOM     34  C   UNL A   1      36.742  33.533  28.482  1.00  0.00     0.010 A 
ATOM     35  C   UNL A   1      35.765  32.471  30.429  1.00  0.00     0.010 A 
ATOM     36  C   UNL A   1      36.893  32.762  29.648  1.00  0.00    -0.014 A 
BRANCH  36  37
ATOM     37  C   UNL A   1      38.229  32.201  29.969  1.00  0.00     0.031 A 
ATOM     38  C   UNL A   1      39.094  32.851  31.018  1.00  0.00     0.074 A 
ATOM     39  C   UNL A   1      38.599  31.039  29.404  1.00  0.00     0.049 A 
ATOM     40  N   UNL A   1      40.258  32.468  31.481  1.00  0.00    -0.248 NA
ATOM     41  C   UNL A   1      38.592  34.093  31.630  1.00  0.00     0.031 C 
ATOM     42  C   UNL A   1      37.817  30.310  28.402  1.00  0.00     0.029 A 
ATOM     43  N   UNL A   1      39.688  30.238  29.625  1.00  0.00    -0.354 N 
ATOM     44  C   UNL A   1      40.636  33.429  32.411  1.00  0.00     0.074 A 
ATOM     45  C   UNL A   1      39.589  34.426  32.439  1.00  0.00     0.031 C 
ATOM     46  C   UNL A   1      38.408  29.132  28.158  1.00  0.00     0.029 A 
ATOM     47  C   UNL A   1      39.644  29.054  28.930  1.00  0.00     0.049 A 
ATOM     48  H   UNL A   1      40.430  30.487  30.222  1.00  0.00     0.167 HD
ATOM     49  C   UNL A   1      41.752  33.470  33.177  1.00  0.00     0.037 A 
ATOM     50  C   UNL A   1      40.504  28.018  28.917  1.00  0.00     0.037 A 
ATOM     51  C   UNL A   1      42.772  32.455  33.164  1.00  0.00     0.049 A 
ATOM     52  C   UNL A   1      41.740  28.095  29.762  1.00  0.00     0.074 A 
ATOM     53  C   UNL A   1      43.948  32.403  33.890  1.00  0.00     0.029 A 
ATOM     54  N   UNL A   1      42.726  31.303  32.392  1.00  0.00    -0.354 N 
ATOM     55  N   UNL A   1      42.103  29.032  30.605  1.00  0.00    -0.248 NA
ATOM     56  C   UNL A   1      42.696  26.987  29.642  1.00  0.00     0.031 C 
ATOM     57  C   UNL A   1      44.629  31.234  33.534  1.00  0.00     0.029 A 
ATOM     58  C   UNL A   1      43.858  30.539  32.615  1.00  0.00     0.049 A 
ATOM     59  H   UNL A   1      41.996  31.064  31.776  1.00  0.00     0.167 HD
ATOM     60  C   UNL A   1      43.332  28.633  31.110  1.00  0.00     0.074 A 
ATOM     61  C   UNL A   1      43.638  27.353  30.501  1.00  0.00     0.031 C 
ATOM     62  C   UNL A   1      44.139  29.273  31.990  1.00  0.00     0.037 A 
BRANCH  49  63
ATOM     63  C   UNL A   1      41.943  34.655  34.078  1.00  0.00     0.057 A 
ATOM     64  C   UNL A   1      41.562  34.631  35.425  1.00  0.00     0.134 A 
ATOM     65  C   UNL A   1      42.565  35.818  33.605  1.00  0.00     0.134 A 
ATOM     66  F   UNL A   1      40.949  33.555  35.939  1.00  0.00    -0.206 F 
ATOM     67  C   UNL A   1      41.783  35.725  36.267  1.00  0.00     0.040 A 
ATOM     68  C   UNL A   1      42.812  36.909  34.441  1.00  0.00     0.040 A 
ATOM     69  F   UNL A   1      42.959  35.907  32.326  1.00  0.00    -0.206 F 
ATOM     70  C   UNL A   1      42.417  36.865  35.776  1.00  0.00     0.006 A 
ENDBRANCH  49  63
BRANCH  50  71
ATOM     71  C   UNL A   1      40.206  26.835  28.074  1.00  0.00     0.057 A 
ATOM     72  C   UNL A   1      40.744  26.707  26.790  1.00  0.00     0.134 A 
ATOM     73  C   UNL A   1      39.430  25.773  28.558  1.00  0.00     0.134 A 
ATOM     74  F   UNL A   1      41.482  27.697  26.265  1.00  0.00    -0.206 F 
ATOM     75  C   UNL A   1      40.529  25.563  26.018  1.00  0.00     0.040 A 
ATOM     76  C   UNL A   1      39.229  24.613  27.809  1.00  0.00     0.040 A 
ATOM     77  F   UNL A   1      38.893  25.832  29.785  1.00  0.00    -0.206 F 
ATOM     78  C   UNL A   1      39.779  24.506  26.534  1.00  0.00     0.006 A 
ENDBRANCH  50  71
BRANCH  62  79
ATOM     79  C   UNL A   1      45.431  28.602  32.341  1.00  0.00     0.057 A 
ATOM     80  C   UNL A   1      46.609  28.878  31.635  1.00  0.00     0.134 A 
ATOM     81  C   UNL A   1      45.511  27.727  33.429  1.00  0.00     0.134 A 
ATOM     82  F   UNL A   1      46.591  29.701  30.577  1.00  0.00    -0.206 F 
ATOM     83  C   UNL A   1      47.824  28.295  31.997  1.00  0.00     0.040 A 
ATOM     84  C   UNL A   1      46.723  27.153  33.812  1.00  0.00     0.040 A 
ATOM     85  F   UNL A   1      44.417  27.433  34.149  1.00  0.00    -0.206 F 
ATOM     86  C   UNL A   1      47.883  27.436  33.093  1.00  0.00     0.006 A 
ENDBRANCH  62  79
ENDBRANCH  36  37
ENDBRANCH  28  31
ENDBRANCH  26  27
ENDBRANCH  25  26
ENDBRANCH   1  25
TORSDOF 13
ENDMDL
MODEL 2
REMARK VINA RESULT:     -11.4      3.743      7.760
REMARK SMILES Cc1cc(Br)c(C)c([C@@H]2[NH2+][C@H](C(=O)NCCCCNC(=O)c3ccc(-c4c5nc(c(-c6c(F)cccc6F)c6ccc([nH]6)c(-c6c(F)cccc6F)c6nc(c(-c7c(F)cccc7F)c7ccc4[nH]7)C=C6)C=C5)cc3)CS2)c1O
REMARK SMILES IDX 16 1 15 2 14 3 12 4 13 5 11 7 9 8 10 9 77 10 76 13 8 14 1 15
REMARK SMILES IDX 2 16 3 17 78 18 4 19 5 20 6 21 7 22 79 23 17 25 18 26 19 27
REMARK SMILES IDX 20 28 21 30 22 31 23 32 75 33 24 34 74 35 25 36 26 37 27 38
REMARK SMILES IDX 68 39 28 40 73 41 67 42 69 43 29 44 72 45 66 46 65 47 30 49
REMARK SMILES IDX 56 50 39 51 55 52 40 53 43 54 54 55 70 56 41 57 42 58 53 60
REMARK SMILES IDX 71 61 44 62 31 63 32 64 37 65 33 66 34 67 36 68 38 69 35 70
REMARK SMILES IDX 57 71 58 72 63 73 59 74 60 75 62 76 64 77 61 78 45 79 46 80
REMARK SMILES IDX 51 81 47 82 48 83 50 84 52 85 49 86
REMARK H PARENT 14 6 10 11 10 12 79 24 19 29 69 48 43 59
REMARK Flexibility Score: inf
ROOT
ATOM      1  C   UNL A   1      32.412  28.538  27.627  1.00  0.00     0.023 C 
ENDROOT
BRANCH   1   2
ATOM      2  C   UNL A   1      31.331  28.003  26.694  1.00  0.00     0.116 C 
BRANCH   2   3
ATOM      3  N   UNL A   1      31.126  26.573  26.748  1.00  0.00    -0.351 N 
ATOM      4  C   UNL A   1      31.771  25.570  26.082  1.00  0.00     0.279 C 
ATOM      5  O   UNL A   1      31.664  24.439  26.580  1.00  0.00    -0.268 OA
ATOM      6  H   UNL A   1      30.413  26.276  27.358  1.00  0.00     0.163 HD
BRANCH   4   7
ATOM      7  C   UNL A   1      32.613  25.734  24.793  1.00  0.00     0.283 C 
ATOM      8  C   UNL A   1      34.237  24.361  23.624  1.00  0.00     0.278 C 
ATOM      9  N   UNL A   1      33.971  25.141  24.845  1.00  0.00    -0.320 N 
ATOM     10  S   UNL A   1      33.032  24.784  22.360  1.00  0.00    -0.087 SA
ATOM     11  H   UNL A   1      34.662  25.888  24.924  1.00  0.00     0.348 HD
ATOM     12  H   UNL A   1      34.031  24.522  25.653  1.00  0.00     0.348 HD
ATOM     13  C   UNL A   1      31.807  25.322  23.566  1.00  0.00     0.151 C 
BRANCH   8  14
ATOM     14  C   UNL A   1      34.483  22.883  23.975  1.00  0.00     0.066 A 
ATOM     15  C   UNL A   1      32.578  19.894  25.527  1.00  0.00     0.048 C 
ATOM     16  C   UNL A   1      33.663  20.734  24.906  1.00  0.00    -0.008 A 
ATOM     17  C   UNL A   1      34.978  20.282  24.987  1.00  0.00     0.023 A 
ATOM     18  C   UNL A   1      33.429  22.018  24.386  1.00  0.00     0.128 A 
ATOM     19  C   UNL A   1      36.044  21.106  24.626  1.00  0.00     0.021 A 
ATOM     20  Br  UNL A   1      37.783  20.418  25.002  1.00  0.00    -0.051 Br
ATOM     21  C   UNL A   1      35.828  22.406  24.115  1.00  0.00    -0.023 A 
ATOM     22  C   UNL A   1      37.026  23.301  23.878  1.00  0.00     0.046 C 
BRANCH  18  23
ATOM     23  O   UNL A   1      32.151  22.509  24.414  1.00  0.00    -0.507 OA
ATOM     24  H   UNL A   1      31.443  21.990  24.086  1.00  0.00     0.293 HD
ENDBRANCH  18  23
ENDBRANCH   8  14
ENDBRANCH   4   7
ENDBRANCH   2   3
ENDBRANCH   1   2
BRANCH   1  25
ATOM     25  C   UNL A   1      33.034  29.871  27.208  1.00  0.00     0.023 C 
BRANCH  25  26
ATOM     26  C   UNL A   1      34.512  30.082  27.539  1.00  0.00     0.116 C 
BRANCH  26  27
ATOM     27  N   UNL A   1      34.778  30.844  28.752  1.00  0.00    -0.352 N 
ATOM     28  C   UNL A   1      35.923  30.867  29.524  1.00  0.00     0.251 C 
ATOM     29  H   UNL A   1      34.044  31.421  29.063  1.00  0.00     0.163 HD
ATOM     30  O   UNL A   1      36.013  31.590  30.512  1.00  0.00    -0.269 OA
BRANCH  28  31
ATOM     31  C   UNL A   1      37.028  29.946  29.196  1.00  0.00     0.039 A 
ATOM     32  C   UNL A   1      37.629  29.183  30.195  1.00  0.00     0.014 A 
ATOM     33  C   UNL A   1      37.550  29.962  27.899  1.00  0.00     0.014 A 
ATOM     34  C   UNL A   1      38.885  28.643  29.961  1.00  0.00     0.010 A 
ATOM     35  C   UNL A   1      38.770  29.336  27.641  1.00  0.00     0.010 A 
ATOM     36  C   UNL A   1      39.487  28.751  28.695  1.00  0.00    -0.014 A 
BRANCH  36  37
ATOM     37  C   UNL A   1      40.900  28.325  28.536  1.00  0.00     0.031 A 
ATOM     38  C   UNL A   1      41.227  26.902  28.162  1.00  0.00     0.074 A 
ATOM     39  C   UNL A   1      41.871  29.253  28.605  1.00  0.00     0.049 A 
ATOM     40  N   UNL A   1      42.393  26.362  27.912  1.00  0.00    -0.248 NA
ATOM     41  C   UNL A   1      40.101  25.959  28.051  1.00  0.00     0.031 C 
ATOM     42  C   UNL A   1      41.656  30.665  28.927  1.00  0.00     0.029 A 
ATOM     43  N   UNL A   1      43.216  29.167  28.357  1.00  0.00    -0.354 N 
ATOM     44  C   UNL A   1      42.145  25.021  27.644  1.00  0.00     0.074 A 
ATOM     45  C   UNL A   1      40.720  24.819  27.777  1.00  0.00     0.031 C 
ATOM     46  C   UNL A   1      42.810  31.329  28.775  1.00  0.00     0.029 A 
ATOM     47  C   UNL A   1      43.858  30.379  28.415  1.00  0.00     0.049 A 
ATOM     48  H   UNL A   1      43.676  28.320  28.158  1.00  0.00     0.167 HD
ATOM     49  C   UNL A   1      43.028  24.050  27.310  1.00  0.00     0.037 A 
ATOM     50  C   UNL A   1      45.150  30.693  28.202  1.00  0.00     0.037 A 
ATOM     51  C   UNL A   1      44.441  24.269  27.149  1.00  0.00     0.049 A 
ATOM     52  C   UNL A   1      46.110  29.596  27.849  1.00  0.00     0.074 A 
ATOM     53  C   UNL A   1      45.427  23.354  26.824  1.00  0.00     0.029 A 
ATOM     54  N   UNL A   1      45.067  25.501  27.287  1.00  0.00    -0.354 N 
ATOM     55  N   UNL A   1      45.866  28.324  27.641  1.00  0.00    -0.248 NA
ATOM     56  C   UNL A   1      47.524  29.968  27.720  1.00  0.00     0.031 C 
ATOM     57  C   UNL A   1      46.654  24.026  26.796  1.00  0.00     0.029 A 
ATOM     58  C   UNL A   1      46.426  25.367  27.066  1.00  0.00     0.049 A 
ATOM     59  H   UNL A   1      44.611  26.344  27.510  1.00  0.00     0.167 HD
ATOM     60  C   UNL A   1      47.094  27.742  27.366  1.00  0.00     0.074 A 
ATOM     61  C   UNL A   1      48.079  28.805  27.403  1.00  0.00     0.031 C 
ATOM     62  C   UNL A   1      47.383  26.442  27.116  1.00  0.00     0.037 A 
BRANCH  49  63
ATOM     63  C   UNL A   1      42.501  22.657  27.116  1.00  0.00     0.057 A 
ATOM     64  C   UNL A   1      42.124  21.850  28.195  1.00  0.00     0.134 A 
ATOM     65  C   UNL A   1      42.318  22.139  25.827  1.00  0.00     0.134 A 
ATOM     66  F   UNL A   1      42.286  22.279  29.455  1.00  0.00    -0.206 F 
ATOM     67  C   UNL A   1      41.594  20.571  28.001  1.00  0.00     0.040 A 
ATOM     68  C   UNL A   1      41.769  20.871  25.619  1.00  0.00     0.040 A 
ATOM     69  F   UNL A   1      42.653  22.861  24.748  1.00  0.00    -0.206 F 
ATOM     70  C   UNL A   1      41.408  20.082  26.709  1.00  0.00     0.006 A 
ENDBRANCH  49  63
BRANCH  50  71
ATOM     71  C   UNL A   1      45.587  32.105  28.318  1.00  0.00     0.057 A 
ATOM     72  C   UNL A   1      45.554  32.966  27.217  1.00  0.00     0.134 A 
ATOM     73  C   UNL A   1      45.983  32.646  29.549  1.00  0.00     0.134 A 
ATOM     74  F   UNL A   1      45.197  32.504  26.009  1.00  0.00    -0.206 F 
ATOM     75  C   UNL A   1      45.892  34.316  27.334  1.00  0.00     0.040 A 
ATOM     76  C   UNL A   1      46.299  33.998  29.687  1.00  0.00     0.040 A 
ATOM     77  F   UNL A   1      46.028  31.873  30.644  1.00  0.00    -0.206 F 
ATOM     78  C   UNL A   1      46.254  34.837  28.576  1.00  0.00     0.006 A 
ENDBRANCH  50  71
BRANCH  62  79
ATOM     79  C   UNL A   1      48.819  26.098  26.869  1.00  0.00     0.057 A 
ATOM     80  C   UNL A   1      49.388  26.220  25.595  1.00  0.00     0.134 A 
ATOM     81  C   UNL A   1      49.653  25.707  27.922  1.00  0.00     0.134 A 
ATOM     82  F   UNL A   1      48.635  26.581  24.546  1.00  0.00    -0.206 F 
ATOM     83  C   UNL A   1      50.740  25.953  25.376  1.00  0.00     0.040 A 
ATOM     84  C   UNL A   1      51.010  25.456  27.719  1.00  0.00     0.040 A 
ATOM     85  F   UNL A   1      49.166  25.583  29.167  1.00  0.00    -0.206 F 
ATOM     86  C   UNL A   1      51.555  25.578  26.442  1.00  0.00     0.006 A 
ENDBRANCH  62  79
ENDBRANCH  36  37
ENDBRANCH  28  31
ENDBRANCH  26  27
ENDBRANCH  25  26
ENDBRANCH   1  25
TORSDOF 13
ENDMDL
MODEL 3
REMARK VINA RESULT:     -11.4      3.358      8.562
REMARK SMILES Cc1cc(Br)c(C)c([C@@H]2[NH2+][C@H](C(=O)NCCCCNC(=O)c3ccc(-c4c5nc(c(-c6c(F)cccc6F)c6ccc([nH]6)c(-c6c(F)cccc6F)c6nc(c(-c7c(F)cccc7F)c7ccc4[nH]7)C=C6)C=C5)cc3)CS2)c1O
REMARK SMILES IDX 16 1 15 2 14 3 12 4 13 5 11 7 9 8 10 9 77 10 76 13 8 14 1 15
REMARK SMILES IDX 2 16 3 17 78 18 4 19 5 20 6 21 7 22 79 23 17 25 18 26 19 27
REMARK SMILES IDX 20 28 21 30 22 31 23 32 75 33 24 34 74 35 25 36 26 37 27 38
REMARK SMILES IDX 68 39 28 40 73 41 67 42 69 43 29 44 72 45 66 46 65 47 30 49
REMARK SMILES IDX 56 50 39 51 55 52 40 53 43 54 54 55 70 56 41 57 42 58 53 60
REMARK SMILES IDX 71 61 44 62 31 63 32 64 37 65 33 66 34 67 36 68 38 69 35 70
REMARK SMILES IDX 57 71 58 72 63 73 59 74 60 75 62 76 64 77 61 78 45 79 46 80
REMARK SMILES IDX 51 81 47 82 48 83 50 84 52 85 49 86
REMARK H PARENT 14 6 10 11 10 12 79 24 19 29 69 48 43 59
REMARK Flexibility Score: inf
ROOT
ATOM      1  C   UNL A   1      36.373  20.442  24.994  1.00  0.00     0.023 C 
ENDROOT
BRANCH   1   2
ATOM      2  C   UNL A   1      34.885  20.778  25.031  1.00  0.00     0.116 C 
BRANCH   2   3
ATOM      3  N   UNL A   1      34.479  21.859  24.162  1.00  0.00    -0.351 N 
ATOM      4  C   UNL A   1      33.799  23.008  24.452  1.00  0.00     0.279 C 
ATOM      5  O   UNL A   1      33.909  23.921  23.620  1.00  0.00    -0.268 OA
ATOM      6  H   UNL A   1      34.730  21.752  23.216  1.00  0.00     0.163 HD
BRANCH   4   7
ATOM      7  C   UNL A   1      32.934  23.255  25.713  1.00  0.00     0.283 C 
ATOM      8  C   UNL A   1      31.655  25.131  26.569  1.00  0.00     0.278 C 
ATOM      9  N   UNL A   1      33.006  24.627  26.271  1.00  0.00    -0.320 N 
ATOM     10  S   UNL A   1      30.487  23.765  26.578  1.00  0.00    -0.087 SA
ATOM     11  H   UNL A   1      33.557  24.612  27.129  1.00  0.00     0.348 HD
ATOM     12  H   UNL A   1      33.444  25.240  25.584  1.00  0.00     0.348 HD
ATOM     13  C   UNL A   1      31.511  22.751  25.497  1.00  0.00     0.151 C 
BRANCH   8  14
ATOM     14  C   UNL A   1      31.352  26.384  25.730  1.00  0.00     0.066 A 
ATOM     15  C   UNL A   1      31.031  27.398  22.010  1.00  0.00     0.048 C 
ATOM     16  C   UNL A   1      31.062  27.463  23.513  1.00  0.00    -0.008 A 
ATOM     17  C   UNL A   1      31.177  28.711  24.121  1.00  0.00     0.023 A 
ATOM     18  C   UNL A   1      31.132  26.318  24.324  1.00  0.00     0.128 A 
ATOM     19  C   UNL A   1      31.425  28.824  25.489  1.00  0.00     0.021 A 
ATOM     20  Br  UNL A   1      31.773  30.590  26.121  1.00  0.00    -0.051 Br
ATOM     21  C   UNL A   1      31.514  27.683  26.317  1.00  0.00    -0.023 A 
ATOM     22  C   UNL A   1      31.927  27.864  27.762  1.00  0.00     0.046 C 
BRANCH  18  23
ATOM     23  O   UNL A   1      31.137  25.090  23.717  1.00  0.00    -0.507 OA
ATOM     24  H   UNL A   1      30.931  24.322  24.213  1.00  0.00     0.293 HD
ENDBRANCH  18  23
ENDBRANCH   8  14
ENDBRANCH   4   7
ENDBRANCH   2   3
ENDBRANCH   1   2
BRANCH   1  25
ATOM     25  C   UNL A   1      37.312  21.649  24.965  1.00  0.00     0.023 C 
BRANCH  25  26
ATOM     26  C   UNL A   1      38.617  21.532  25.753  1.00  0.00     0.116 C 
BRANCH  26  27
ATOM     27  N   UNL A   1      39.364  20.298  25.546  1.00  0.00    -0.352 N 
ATOM     28  C   UNL A   1      40.654  19.993  25.936  1.00  0.00     0.251 C 
ATOM     29  H   UNL A   1      38.886  19.586  25.065  1.00  0.00     0.163 HD
ATOM     30  O   UNL A   1      41.143  18.890  25.716  1.00  0.00    -0.269 OA
BRANCH  28  31
ATOM     31  C   UNL A   1      41.482  21.043  26.560  1.00  0.00     0.039 A 
ATOM     32  C   UNL A   1      41.569  21.140  27.947  1.00  0.00     0.014 A 
ATOM     33  C   UNL A   1      42.057  22.018  25.739  1.00  0.00     0.014 A 
ATOM     34  C   UNL A   1      42.006  22.329  28.509  1.00  0.00     0.010 A 
ATOM     35  C   UNL A   1      42.583  23.177  26.313  1.00  0.00     0.010 A 
ATOM     36  C   UNL A   1      42.476  23.376  27.696  1.00  0.00    -0.014 A 
BRANCH  36  37
ATOM     37  C   UNL A   1      42.760  24.694  28.319  1.00  0.00     0.031 A 
ATOM     38  C   UNL A   1      44.180  25.114  28.594  1.00  0.00     0.074 A 
ATOM     39  C   UNL A   1      41.744  25.553  28.514  1.00  0.00     0.049 A 
ATOM     40  N   UNL A   1      44.627  26.250  29.067  1.00  0.00    -0.248 NA
ATOM     41  C   UNL A   1      45.242  24.136  28.300  1.00  0.00     0.031 C 
ATOM     42  C   UNL A   1      40.335  25.255  28.248  1.00  0.00     0.029 A 
ATOM     43  N   UNL A   1      41.738  26.860  28.925  1.00  0.00    -0.354 N 
ATOM     44  C   UNL A   1      46.008  26.113  29.153  1.00  0.00     0.074 A 
ATOM     45  C   UNL A   1      46.330  24.779  28.699  1.00  0.00     0.031 C 
ATOM     46  C   UNL A   1      39.612  26.370  28.421  1.00  0.00     0.029 A 
ATOM     47  C   UNL A   1      40.494  27.440  28.878  1.00  0.00     0.049 A 
ATOM     48  H   UNL A   1      42.545  27.335  29.226  1.00  0.00     0.167 HD
ATOM     49  C   UNL A   1      46.923  27.023  29.565  1.00  0.00     0.037 A 
ATOM     50  C   UNL A   1      40.105  28.695  29.170  1.00  0.00     0.037 A 
ATOM     51  C   UNL A   1      46.593  28.360  29.983  1.00  0.00     0.049 A 
ATOM     52  C   UNL A   1      41.135  29.679  29.639  1.00  0.00     0.074 A 
ATOM     53  C   UNL A   1      47.440  29.359  30.431  1.00  0.00     0.029 A 
ATOM     54  N   UNL A   1      45.310  28.889  29.990  1.00  0.00    -0.354 N 
ATOM     55  N   UNL A   1      42.432  29.520  29.755  1.00  0.00    -0.248 NA
ATOM     56  C   UNL A   1      40.652  31.006  30.038  1.00  0.00     0.031 C 
ATOM     57  C   UNL A   1      46.665  30.482  30.738  1.00  0.00     0.029 A 
ATOM     58  C   UNL A   1      45.340  30.196  30.445  1.00  0.00     0.049 A 
ATOM     59  H   UNL A   1      44.499  28.406  29.712  1.00  0.00     0.167 HD
ATOM     60  C   UNL A   1      42.920  30.721  30.248  1.00  0.00     0.074 A 
ATOM     61  C   UNL A   1      41.782  31.611  30.380  1.00  0.00     0.031 C 
ATOM     62  C   UNL A   1      44.192  31.055  30.572  1.00  0.00     0.037 A 
BRANCH  49  63
ATOM     63  C   UNL A   1      48.363  26.602  29.605  1.00  0.00     0.057 A 
ATOM     64  C   UNL A   1      49.247  26.884  28.557  1.00  0.00     0.134 A 
ATOM     65  C   UNL A   1      48.885  25.953  30.732  1.00  0.00     0.134 A 
ATOM     66  F   UNL A   1      48.810  27.491  27.443  1.00  0.00    -0.206 F 
ATOM     67  C   UNL A   1      50.597  26.526  28.622  1.00  0.00     0.040 A 
ATOM     68  C   UNL A   1      50.236  25.610  30.819  1.00  0.00     0.040 A 
ATOM     69  F   UNL A   1      48.095  25.657  31.774  1.00  0.00    -0.206 F 
ATOM     70  C   UNL A   1      51.096  25.894  29.760  1.00  0.00     0.006 A 
ENDBRANCH  49  63
BRANCH  50  71
ATOM     71  C   UNL A   1      38.679  29.071  29.017  1.00  0.00     0.057 A 
ATOM     72  C   UNL A   1      37.795  29.012  30.099  1.00  0.00     0.134 A 
ATOM     73  C   UNL A   1      38.181  29.561  27.802  1.00  0.00     0.134 A 
ATOM     74  F   UNL A   1      38.208  28.537  31.284  1.00  0.00    -0.206 F 
ATOM     75  C   UNL A   1      36.469  29.434  29.983  1.00  0.00     0.040 A 
ATOM     76  C   UNL A   1      36.866  30.010  27.678  1.00  0.00     0.040 A 
ATOM     77  F   UNL A   1      38.981  29.650  26.730  1.00  0.00    -0.206 F 
ATOM     78  C   UNL A   1      36.005  29.947  28.772  1.00  0.00     0.006 A 
ENDBRANCH  50  71
BRANCH  62  79
ATOM     79  C   UNL A   1      44.420  32.435  31.105  1.00  0.00     0.057 A 
ATOM     80  C   UNL A   1      44.664  33.515  30.248  1.00  0.00     0.134 A 
ATOM     81  C   UNL A   1      44.329  32.697  32.477  1.00  0.00     0.134 A 
ATOM     82  F   UNL A   1      44.771  33.323  28.925  1.00  0.00    -0.206 F 
ATOM     83  C   UNL A   1      44.821  34.811  30.741  1.00  0.00     0.040 A 
ATOM     84  C   UNL A   1      44.466  33.991  32.979  1.00  0.00     0.040 A 
ATOM     85  F   UNL A   1      44.087  31.703  33.345  1.00  0.00    -0.206 F 
ATOM     86  C   UNL A   1      44.714  35.051  32.109  1.00  0.00     0.006 A 
ENDBRANCH  62  79
ENDBRANCH  36  37
ENDBRANCH  28  31
ENDBRANCH  26  27
ENDBRANCH  25  26
ENDBRANCH   1  25
TORSDOF 13
ENDMDL
