MODEL 1
REMARK VINA RESULT:     -10.8      0.000      0.000
REMARK SMILES C=C(C)CN(CC)c1ccc(F)cc1C(=O)NCCCCNC(=O)c1ccc(-c2c3nc(c(-c4c(F)cccc4F)c4ccc([nH]4)c(-c4c(F)cccc4F)c4nc(c(-c5c(F)cccc5F)c5ccc2[nH]5)C=C4)C=C3)cc1
REMARK SMILES IDX 19 1 18 2 17 3 15 4 16 5 14 7 8 8 9 9 10 10 13 11 11 12
REMARK SMILES IDX 12 13 5 14 4 15 2 16 1 17 3 18 6 19 7 20 20 21 21 22 22 23
REMARK SMILES IDX 23 24 24 26 25 27 26 28 78 29 27 30 77 31 28 32 29 33 30 34
REMARK SMILES IDX 71 35 31 36 76 37 70 38 72 39 32 40 75 41 69 42 68 43 33 45
REMARK SMILES IDX 59 46 42 47 58 48 43 49 46 50 57 51 73 52 44 53 45 54 56 56
REMARK SMILES IDX 74 57 47 58 34 59 35 60 40 61 36 62 37 63 39 64 41 65 38 66
REMARK SMILES IDX 60 67 61 68 66 69 62 70 63 71 65 72 67 73 64 74 48 75 49 76
REMARK SMILES IDX 54 77 50 78 51 79 53 80 55 81 52 82
REMARK H PARENT 17 6 22 25 72 44 46 55
REMARK Flexibility Score: inf
ROOT
ATOM      1  C   UNL A   1      37.050  21.316  24.388  1.00  0.00     0.023 C 
ENDROOT
BRANCH   1   2
ATOM      2  C   UNL A   1      36.690  22.416  25.374  1.00  0.00     0.116 C 
BRANCH   2   3
ATOM      3  N   UNL A   1      35.851  22.074  26.484  1.00  0.00    -0.352 N 
ATOM      4  C   UNL A   1      34.521  21.711  26.454  1.00  0.00     0.253 C 
ATOM      5  O   UNL A   1      34.017  21.373  27.529  1.00  0.00    -0.269 OA
ATOM      6  H   UNL A   1      36.273  22.102  27.373  1.00  0.00     0.163 HD
BRANCH   4   7
ATOM      7  C   UNL A   1      33.630  21.773  25.240  1.00  0.00     0.066 A 
ATOM      8  C   UNL A   1      33.131  22.914  24.551  1.00  0.00     0.050 A 
ATOM      9  C   UNL A   1      32.405  22.690  23.355  1.00  0.00     0.030 A 
ATOM     10  C   UNL A   1      32.139  21.415  22.861  1.00  0.00     0.041 A 
ATOM     11  C   UNL A   1      33.373  20.488  24.703  1.00  0.00     0.055 A 
ATOM     12  C   UNL A   1      32.632  20.322  23.541  1.00  0.00     0.124 A 
ATOM     13  F   UNL A   1      32.408  19.092  23.063  1.00  0.00    -0.207 F 
BRANCH   8  14
ATOM     14  N   UNL A   1      33.349  24.240  24.920  1.00  0.00    -0.367 N 
BRANCH  14  15
ATOM     15  C   UNL A   1      32.671  24.779  26.117  1.00  0.00     0.146 C 
BRANCH  15  16
ATOM     16  C   UNL A   1      31.186  24.549  26.198  1.00  0.00    -0.061 C 
ATOM     17  C   UNL A   1      30.635  23.476  26.789  1.00  0.00     0.009 C 
ATOM     18  C   UNL A   1      30.346  25.559  25.458  1.00  0.00     0.041 C 
ENDBRANCH  15  16
ENDBRANCH  14  15
BRANCH  14  19
ATOM     19  C   UNL A   1      33.854  25.187  23.916  1.00  0.00     0.113 C 
ATOM     20  C   UNL A   1      33.774  26.647  24.344  1.00  0.00     0.027 C 
ENDBRANCH  14  19
ENDBRANCH   8  14
ENDBRANCH   4   7
ENDBRANCH   2   3
ENDBRANCH   1   2
BRANCH   1  21
ATOM     21  C   UNL A   1      37.777  20.099  24.963  1.00  0.00     0.023 C 
BRANCH  21  22
ATOM     22  C   UNL A   1      38.973  20.352  25.882  1.00  0.00     0.116 C 
BRANCH  22  23
ATOM     23  N   UNL A   1      40.026  19.348  25.811  1.00  0.00    -0.352 N 
ATOM     24  C   UNL A   1      41.374  19.422  26.094  1.00  0.00     0.251 C 
ATOM     25  H   UNL A   1      39.723  18.462  25.508  1.00  0.00     0.163 HD
ATOM     26  O   UNL A   1      42.079  18.438  25.919  1.00  0.00    -0.269 OA
BRANCH  24  27
ATOM     27  C   UNL A   1      41.996  20.691  26.551  1.00  0.00     0.039 A 
ATOM     28  C   UNL A   1      42.491  21.571  25.581  1.00  0.00     0.014 A 
ATOM     29  C   UNL A   1      42.105  21.027  27.900  1.00  0.00     0.014 A 
ATOM     30  C   UNL A   1      42.981  22.826  25.961  1.00  0.00     0.010 A 
ATOM     31  C   UNL A   1      42.512  22.310  28.272  1.00  0.00     0.010 A 
ATOM     32  C   UNL A   1      42.936  23.233  27.305  1.00  0.00    -0.014 A 
BRANCH  32  33
ATOM     33  C   UNL A   1      43.268  24.634  27.691  1.00  0.00     0.031 A 
ATOM     34  C   UNL A   1      44.695  25.100  27.785  1.00  0.00     0.074 A 
ATOM     35  C   UNL A   1      42.269  25.482  28.013  1.00  0.00     0.049 A 
ATOM     36  N   UNL A   1      45.156  26.276  28.133  1.00  0.00    -0.248 NA
ATOM     37  C   UNL A   1      45.743  24.118  27.470  1.00  0.00     0.031 C 
ATOM     38  C   UNL A   1      40.844  25.146  28.021  1.00  0.00     0.029 A 
ATOM     39  N   UNL A   1      42.297  26.801  28.399  1.00  0.00    -0.354 N 
ATOM     40  C   UNL A   1      46.541  26.173  28.084  1.00  0.00     0.074 A 
ATOM     41  C   UNL A   1      46.848  24.807  27.721  1.00  0.00     0.031 C 
ATOM     42  C   UNL A   1      40.135  26.234  28.356  1.00  0.00     0.029 A 
ATOM     43  C   UNL A   1      41.052  27.336  28.631  1.00  0.00     0.049 A 
ATOM     44  H   UNL A   1      43.131  27.315  28.501  1.00  0.00     0.167 HD
ATOM     45  C   UNL A   1      47.469  27.136  28.297  1.00  0.00     0.037 A 
ATOM     46  C   UNL A   1      40.682  28.571  29.022  1.00  0.00     0.037 A 
ATOM     47  C   UNL A   1      47.165  28.503  28.634  1.00  0.00     0.049 A 
ATOM     48  C   UNL A   1      41.734  29.619  29.257  1.00  0.00     0.074 A 
ATOM     49  C   UNL A   1      48.044  29.560  28.801  1.00  0.00     0.029 A 
ATOM     50  N   UNL A   1      45.893  29.003  28.856  1.00  0.00    -0.354 N 
ATOM     51  N   UNL A   1      43.036  29.522  29.134  1.00  0.00    -0.248 NA
ATOM     52  C   UNL A   1      41.268  30.948  29.679  1.00  0.00     0.031 C 
ATOM     53  C   UNL A   1      47.309  30.687  29.178  1.00  0.00     0.029 A 
ATOM     54  C   UNL A   1      45.966  30.347  29.187  1.00  0.00     0.049 A 
ATOM     55  H   UNL A   1      45.060  28.481  28.789  1.00  0.00     0.167 HD
ATOM     56  C   UNL A   1      43.541  30.778  29.444  1.00  0.00     0.074 A 
ATOM     57  C   UNL A   1      42.406  31.626  29.740  1.00  0.00     0.031 C 
ATOM     58  C   UNL A   1      44.832  31.187  29.482  1.00  0.00     0.037 A 
BRANCH  45  59
ATOM     59  C   UNL A   1      48.916  26.762  28.154  1.00  0.00     0.057 A 
ATOM     60  C   UNL A   1      49.536  26.762  26.898  1.00  0.00     0.134 A 
ATOM     61  C   UNL A   1      49.669  26.306  29.245  1.00  0.00     0.134 A 
ATOM     62  F   UNL A   1      48.869  27.177  25.810  1.00  0.00    -0.206 F 
ATOM     63  C   UNL A   1      50.844  26.304  26.728  1.00  0.00     0.040 A 
ATOM     64  C   UNL A   1      50.986  25.871  29.092  1.00  0.00     0.040 A 
ATOM     65  F   UNL A   1      49.138  26.288  30.477  1.00  0.00    -0.206 F 
ATOM     66  C   UNL A   1      51.572  25.858  27.828  1.00  0.00     0.006 A 
ENDBRANCH  45  59
BRANCH  46  67
ATOM     67  C   UNL A   1      39.241  28.892  29.192  1.00  0.00     0.057 A 
ATOM     68  C   UNL A   1      38.593  28.722  30.423  1.00  0.00     0.134 A 
ATOM     69  C   UNL A   1      38.474  29.363  28.122  1.00  0.00     0.134 A 
ATOM     70  F   UNL A   1      39.269  28.268  31.488  1.00  0.00    -0.206 F 
ATOM     71  C   UNL A   1      37.232  28.994  30.577  1.00  0.00     0.040 A 
ATOM     72  C   UNL A   1      37.119  29.665  28.267  1.00  0.00     0.040 A 
ATOM     73  F   UNL A   1      39.041  29.566  26.923  1.00  0.00    -0.206 F 
ATOM     74  C   UNL A   1      36.493  29.472  29.497  1.00  0.00     0.006 A 
ENDBRANCH  46  67
BRANCH  58  75
ATOM     75  C   UNL A   1      45.099  32.620  29.841  1.00  0.00     0.057 A 
ATOM     76  C   UNL A   1      45.147  33.610  28.850  1.00  0.00     0.134 A 
ATOM     77  C   UNL A   1      45.375  33.012  31.157  1.00  0.00     0.134 A 
ATOM     78  F   UNL A   1      44.903  33.302  27.568  1.00  0.00    -0.206 F 
ATOM     79  C   UNL A   1      45.472  34.933  29.152  1.00  0.00     0.040 A 
ATOM     80  C   UNL A   1      45.675  34.338  31.477  1.00  0.00     0.040 A 
ATOM     81  F   UNL A   1      45.337  32.117  32.155  1.00  0.00    -0.206 F 
ATOM     82  C   UNL A   1      45.733  35.300  30.471  1.00  0.00     0.006 A 
ENDBRANCH  58  75
ENDBRANCH  32  33
ENDBRANCH  24  27
ENDBRANCH  22  23
ENDBRANCH  21  22
ENDBRANCH   1  21
TORSDOF 15
ENDMDL
MODEL 2
REMARK VINA RESULT:     -10.7      1.011      6.490
REMARK SMILES C=C(C)CN(CC)c1ccc(F)cc1C(=O)NCCCCNC(=O)c1ccc(-c2c3nc(c(-c4c(F)cccc4F)c4ccc([nH]4)c(-c4c(F)cccc4F)c4nc(c(-c5c(F)cccc5F)c5ccc2[nH]5)C=C4)C=C3)cc1
REMARK SMILES IDX 19 1 18 2 17 3 15 4 16 5 14 7 8 8 9 9 10 10 13 11 11 12
REMARK SMILES IDX 12 13 5 14 4 15 2 16 1 17 3 18 6 19 7 20 20 21 21 22 22 23
REMARK SMILES IDX 23 24 24 26 25 27 26 28 78 29 27 30 77 31 28 32 29 33 30 34
REMARK SMILES IDX 71 35 31 36 76 37 70 38 72 39 32 40 75 41 69 42 68 43 33 45
REMARK SMILES IDX 59 46 42 47 58 48 43 49 46 50 57 51 73 52 44 53 45 54 56 56
REMARK SMILES IDX 74 57 47 58 34 59 35 60 40 61 36 62 37 63 39 64 41 65 38 66
REMARK SMILES IDX 60 67 61 68 66 69 62 70 63 71 65 72 67 73 64 74 48 75 49 76
REMARK SMILES IDX 54 77 50 78 51 79 53 80 55 81 52 82
REMARK H PARENT 17 6 22 25 72 44 46 55
REMARK Flexibility Score: inf
ROOT
ATOM      1  C   UNL A   1      37.040  21.305  24.358  1.00  0.00     0.023 C 
ENDROOT
BRANCH   1   2
ATOM      2  C   UNL A   1      36.684  22.458  25.284  1.00  0.00     0.116 C 
BRANCH   2   3
ATOM      3  N   UNL A   1      35.907  22.167  26.452  1.00  0.00    -0.352 N 
ATOM      4  C   UNL A   1      34.601  21.726  26.505  1.00  0.00     0.253 C 
ATOM      5  O   UNL A   1      34.156  21.455  27.625  1.00  0.00    -0.269 OA
ATOM      6  H   UNL A   1      36.357  22.296  27.317  1.00  0.00     0.163 HD
BRANCH   4   7
ATOM      7  C   UNL A   1      33.666  21.631  25.327  1.00  0.00     0.066 A 
ATOM      8  C   UNL A   1      32.994  22.672  24.630  1.00  0.00     0.050 A 
ATOM      9  C   UNL A   1      32.261  22.316  23.470  1.00  0.00     0.030 A 
ATOM     10  C   UNL A   1      32.152  21.002  23.019  1.00  0.00     0.041 A 
ATOM     11  C   UNL A   1      33.566  20.307  24.834  1.00  0.00     0.055 A 
ATOM     12  C   UNL A   1      32.813  20.007  23.707  1.00  0.00     0.124 A 
ATOM     13  F   UNL A   1      32.739  18.744  23.270  1.00  0.00    -0.207 F 
BRANCH   8  14
ATOM     14  N   UNL A   1      33.044  24.027  24.955  1.00  0.00    -0.367 N 
BRANCH  14  15
ATOM     15  C   UNL A   1      34.110  24.870  24.377  1.00  0.00     0.146 C 
BRANCH  15  16
ATOM     16  C   UNL A   1      33.657  26.023  23.524  1.00  0.00    -0.061 C 
ATOM     17  C   UNL A   1      33.644  27.297  23.950  1.00  0.00     0.009 C 
ATOM     18  C   UNL A   1      33.098  25.636  22.178  1.00  0.00     0.041 C 
ENDBRANCH  15  16
ENDBRANCH  14  15
BRANCH  14  19
ATOM     19  C   UNL A   1      32.361  24.496  26.169  1.00  0.00     0.113 C 
ATOM     20  C   UNL A   1      31.045  25.216  25.901  1.00  0.00     0.027 C 
ENDBRANCH  14  19
ENDBRANCH   8  14
ENDBRANCH   4   7
ENDBRANCH   2   3
ENDBRANCH   1   2
BRANCH   1  21
ATOM     21  C   UNL A   1      37.751  20.112  25.001  1.00  0.00     0.023 C 
BRANCH  21  22
ATOM     22  C   UNL A   1      39.033  20.386  25.788  1.00  0.00     0.116 C 
BRANCH  22  23
ATOM     23  N   UNL A   1      40.007  19.303  25.772  1.00  0.00    -0.352 N 
ATOM     24  C   UNL A   1      41.361  19.294  26.035  1.00  0.00     0.251 C 
ATOM     25  H   UNL A   1      39.633  18.425  25.531  1.00  0.00     0.163 HD
ATOM     26  O   UNL A   1      41.988  18.249  25.918  1.00  0.00    -0.269 OA
BRANCH  24  27
ATOM     27  C   UNL A   1      42.082  20.539  26.400  1.00  0.00     0.039 A 
ATOM     28  C   UNL A   1      42.697  21.271  25.378  1.00  0.00     0.014 A 
ATOM     29  C   UNL A   1      42.169  20.994  27.716  1.00  0.00     0.014 A 
ATOM     30  C   UNL A   1      43.290  22.506  25.661  1.00  0.00     0.010 A 
ATOM     31  C   UNL A   1      42.682  22.265  27.984  1.00  0.00     0.010 A 
ATOM     32  C   UNL A   1      43.231  23.046  26.957  1.00  0.00    -0.014 A 
BRANCH  32  33
ATOM     33  C   UNL A   1      43.679  24.442  27.225  1.00  0.00     0.031 A 
ATOM     34  C   UNL A   1      42.705  25.508  27.642  1.00  0.00     0.074 A 
ATOM     35  C   UNL A   1      44.977  24.764  27.037  1.00  0.00     0.049 A 
ATOM     36  N   UNL A   1      42.926  26.777  27.887  1.00  0.00    -0.248 NA
ATOM     37  C   UNL A   1      41.296  25.111  27.783  1.00  0.00     0.031 C 
ATOM     38  C   UNL A   1      46.018  23.842  26.579  1.00  0.00     0.029 A 
ATOM     39  N   UNL A   1      45.642  25.954  27.205  1.00  0.00    -0.354 N 
ATOM     40  C   UNL A   1      41.690  27.326  28.204  1.00  0.00     0.074 A 
ATOM     41  C   UNL A   1      40.713  26.266  28.073  1.00  0.00     0.031 C 
ATOM     42  C   UNL A   1      47.193  24.489  26.537  1.00  0.00     0.029 A 
ATOM     43  C   UNL A   1      46.986  25.882  26.923  1.00  0.00     0.049 A 
ATOM     44  H   UNL A   1      45.198  26.783  27.500  1.00  0.00     0.167 HD
ATOM     45  C   UNL A   1      41.400  28.590  28.594  1.00  0.00     0.037 A 
ATOM     46  C   UNL A   1      47.948  26.824  26.964  1.00  0.00     0.037 A 
ATOM     47  C   UNL A   1      42.374  29.640  28.750  1.00  0.00     0.049 A 
ATOM     48  C   UNL A   1      47.597  28.221  27.395  1.00  0.00     0.074 A 
ATOM     49  C   UNL A   1      42.175  30.932  29.205  1.00  0.00     0.029 A 
ATOM     50  N   UNL A   1      43.722  29.523  28.456  1.00  0.00    -0.354 N 
ATOM     51  N   UNL A   1      46.434  28.703  27.761  1.00  0.00    -0.248 NA
ATOM     52  C   UNL A   1      48.690  29.204  27.424  1.00  0.00     0.031 C 
ATOM     53  C   UNL A   1      43.392  31.614  29.136  1.00  0.00     0.029 A 
ATOM     54  C   UNL A   1      44.362  30.730  28.693  1.00  0.00     0.049 A 
ATOM     55  H   UNL A   1      44.161  28.705  28.127  1.00  0.00     0.167 HD
ATOM     56  C   UNL A   1      46.659  30.035  28.082  1.00  0.00     0.074 A 
ATOM     57  C   UNL A   1      48.072  30.282  27.887  1.00  0.00     0.031 C 
ATOM     58  C   UNL A   1      45.770  30.970  28.497  1.00  0.00     0.037 A 
BRANCH  45  59
ATOM     59  C   UNL A   1      39.969  28.920  28.905  1.00  0.00     0.057 A 
ATOM     60  C   UNL A   1      39.474  28.806  30.210  1.00  0.00     0.134 A 
ATOM     61  C   UNL A   1      39.055  29.254  27.895  1.00  0.00     0.134 A 
ATOM     62  F   UNL A   1      40.293  28.479  31.223  1.00  0.00    -0.206 F 
ATOM     63  C   UNL A   1      38.121  28.992  30.498  1.00  0.00     0.040 A 
ATOM     64  C   UNL A   1      37.705  29.469  28.176  1.00  0.00     0.040 A 
ATOM     65  F   UNL A   1      39.465  29.388  26.625  1.00  0.00    -0.206 F 
ATOM     66  C   UNL A   1      37.232  29.326  29.478  1.00  0.00     0.006 A 
ENDBRANCH  45  59
BRANCH  46  67
ATOM     67  C   UNL A   1      49.347  26.468  26.610  1.00  0.00     0.057 A 
ATOM     68  C   UNL A   1      49.845  26.656  25.314  1.00  0.00     0.134 A 
ATOM     69  C   UNL A   1      50.215  25.919  27.559  1.00  0.00     0.134 A 
ATOM     70  F   UNL A   1      49.062  27.173  24.356  1.00  0.00    -0.206 F 
ATOM     71  C   UNL A   1      51.149  26.294  24.972  1.00  0.00     0.040 A 
ATOM     72  C   UNL A   1      51.530  25.577  27.238  1.00  0.00     0.040 A 
ATOM     73  F   UNL A   1      49.805  25.733  28.822  1.00  0.00    -0.206 F 
ATOM     74  C   UNL A   1      51.996  25.758  25.937  1.00  0.00     0.006 A 
ENDBRANCH  46  67
BRANCH  58  75
ATOM     75  C   UNL A   1      46.291  32.348  28.787  1.00  0.00     0.057 A 
ATOM     76  C   UNL A   1      46.390  33.305  27.768  1.00  0.00     0.134 A 
ATOM     77  C   UNL A   1      46.757  32.708  30.058  1.00  0.00     0.134 A 
ATOM     78  F   UNL A   1      45.971  33.023  26.526  1.00  0.00    -0.206 F 
ATOM     79  C   UNL A   1      46.945  34.564  28.000  1.00  0.00     0.040 A 
ATOM     80  C   UNL A   1      47.289  33.974  30.309  1.00  0.00     0.040 A 
ATOM     81  F   UNL A   1      46.683  31.841  31.080  1.00  0.00    -0.206 F 
ATOM     82  C   UNL A   1      47.392  34.903  29.276  1.00  0.00     0.006 A 
ENDBRANCH  58  75
ENDBRANCH  32  33
ENDBRANCH  24  27
ENDBRANCH  22  23
ENDBRANCH  21  22
ENDBRANCH   1  21
TORSDOF 15
ENDMDL
MODEL 3
REMARK VINA RESULT:     -10.4      1.810      2.812
REMARK SMILES C=C(C)CN(CC)c1ccc(F)cc1C(=O)NCCCCNC(=O)c1ccc(-c2c3nc(c(-c4c(F)cccc4F)c4ccc([nH]4)c(-c4c(F)cccc4F)c4nc(c(-c5c(F)cccc5F)c5ccc2[nH]5)C=C4)C=C3)cc1
REMARK SMILES IDX 19 1 18 2 17 3 15 4 16 5 14 7 8 8 9 9 10 10 13 11 11 12
REMARK SMILES IDX 12 13 5 14 4 15 2 16 1 17 3 18 6 19 7 20 20 21 21 22 22 23
REMARK SMILES IDX 23 24 24 26 25 27 26 28 78 29 27 30 77 31 28 32 29 33 30 34
REMARK SMILES IDX 71 35 31 36 76 37 70 38 72 39 32 40 75 41 69 42 68 43 33 45
REMARK SMILES IDX 59 46 42 47 58 48 43 49 46 50 57 51 73 52 44 53 45 54 56 56
REMARK SMILES IDX 74 57 47 58 34 59 35 60 40 61 36 62 37 63 39 64 41 65 38 66
REMARK SMILES IDX 60 67 61 68 66 69 62 70 63 71 65 72 67 73 64 74 48 75 49 76
REMARK SMILES IDX 54 77 50 78 51 79 53 80 55 81 52 82
REMARK H PARENT 17 6 22 25 72 44 46 55
REMARK Flexibility Score: inf
ROOT
ATOM      1  C   UNL A   1      37.997  23.162  26.008  1.00  0.00     0.023 C 
ENDROOT
BRANCH   1   2
ATOM      2  C   UNL A   1      36.672  23.826  25.669  1.00  0.00     0.116 C 
BRANCH   2   3
ATOM      3  N   UNL A   1      36.145  23.640  24.350  1.00  0.00    -0.352 N 
ATOM      4  C   UNL A   1      34.925  24.059  23.863  1.00  0.00     0.253 C 
ATOM      5  O   UNL A   1      34.713  23.864  22.663  1.00  0.00    -0.269 OA
ATOM      6  H   UNL A   1      36.722  23.156  23.716  1.00  0.00     0.163 HD
BRANCH   4   7
ATOM      7  C   UNL A   1      33.815  24.652  24.693  1.00  0.00     0.066 A 
ATOM      8  C   UNL A   1      32.562  24.083  25.053  1.00  0.00     0.050 A 
ATOM      9  C   UNL A   1      31.746  24.814  25.952  1.00  0.00     0.030 A 
ATOM     10  C   UNL A   1      32.107  26.062  26.456  1.00  0.00     0.041 A 
ATOM     11  C   UNL A   1      34.175  25.908  25.241  1.00  0.00     0.055 A 
ATOM     12  C   UNL A   1      33.326  26.596  26.097  1.00  0.00     0.124 A 
ATOM     13  F   UNL A   1      33.698  27.781  26.596  1.00  0.00    -0.207 F 
BRANCH   8  14
ATOM     14  N   UNL A   1      32.093  22.835  24.645  1.00  0.00    -0.367 N 
BRANCH  14  15
ATOM     15  C   UNL A   1      32.286  21.667  25.529  1.00  0.00     0.146 C 
BRANCH  15  16
ATOM     16  C   UNL A   1      33.687  21.433  26.026  1.00  0.00    -0.061 C 
ATOM     17  C   UNL A   1      34.598  20.710  25.355  1.00  0.00     0.009 C 
ATOM     18  C   UNL A   1      33.969  21.974  27.405  1.00  0.00     0.041 C 
ENDBRANCH  15  16
ENDBRANCH  14  15
BRANCH  14  19
ATOM     19  C   UNL A   1      31.840  22.599  23.217  1.00  0.00     0.113 C 
ATOM     20  C   UNL A   1      32.144  21.178  22.760  1.00  0.00     0.027 C 
ENDBRANCH  14  19
ENDBRANCH   8  14
ENDBRANCH   4   7
ENDBRANCH   2   3
ENDBRANCH   1   2
BRANCH   1  21
ATOM     21  C   UNL A   1      38.334  21.886  25.234  1.00  0.00     0.023 C 
BRANCH  21  22
ATOM     22  C   UNL A   1      38.300  20.560  25.996  1.00  0.00     0.116 C 
BRANCH  22  23
ATOM     23  N   UNL A   1      39.396  19.650  25.695  1.00  0.00    -0.352 N 
ATOM     24  C   UNL A   1      40.753  19.754  25.921  1.00  0.00     0.251 C 
ATOM     25  H   UNL A   1      39.121  18.814  25.253  1.00  0.00     0.163 HD
ATOM     26  O   UNL A   1      41.496  18.860  25.538  1.00  0.00    -0.269 OA
BRANCH  24  27
ATOM     27  C   UNL A   1      41.336  20.957  26.567  1.00  0.00     0.039 A 
ATOM     28  C   UNL A   1      41.981  21.897  25.754  1.00  0.00     0.014 A 
ATOM     29  C   UNL A   1      41.264  21.176  27.943  1.00  0.00     0.014 A 
ATOM     30  C   UNL A   1      42.444  23.097  26.305  1.00  0.00     0.010 A 
ATOM     31  C   UNL A   1      41.647  22.408  28.477  1.00  0.00     0.010 A 
ATOM     32  C   UNL A   1      42.223  23.393  27.660  1.00  0.00    -0.014 A 
BRANCH  32  33
ATOM     33  C   UNL A   1      42.531  24.744  28.209  1.00  0.00     0.031 A 
ATOM     34  C   UNL A   1      43.918  25.102  28.667  1.00  0.00     0.074 A 
ATOM     35  C   UNL A   1      41.533  25.642  28.346  1.00  0.00     0.049 A 
ATOM     36  N   UNL A   1      44.348  26.222  29.194  1.00  0.00    -0.248 NA
ATOM     37  C   UNL A   1      44.954  24.066  28.540  1.00  0.00     0.031 C 
ATOM     38  C   UNL A   1      40.131  25.408  27.995  1.00  0.00     0.029 A 
ATOM     39  N   UNL A   1      41.542  26.934  28.817  1.00  0.00    -0.354 N 
ATOM     40  C   UNL A   1      45.696  26.024  29.464  1.00  0.00     0.074 A 
ATOM     41  C   UNL A   1      46.004  24.661  29.091  1.00  0.00     0.031 C 
ATOM     42  C   UNL A   1      39.425  26.525  28.229  1.00  0.00     0.029 A 
ATOM     43  C   UNL A   1      40.310  27.543  28.786  1.00  0.00     0.049 A 
ATOM     44  H   UNL A   1      42.355  27.381  29.147  1.00  0.00     0.167 HD
ATOM     45  C   UNL A   1      46.600  26.906  29.955  1.00  0.00     0.037 A 
ATOM     46  C   UNL A   1      39.927  28.778  29.163  1.00  0.00     0.037 A 
ATOM     47  C   UNL A   1      46.302  28.271  30.303  1.00  0.00     0.049 A 
ATOM     48  C   UNL A   1      40.951  29.734  29.710  1.00  0.00     0.074 A 
ATOM     49  C   UNL A   1      47.173  29.253  30.745  1.00  0.00     0.029 A 
ATOM     50  N   UNL A   1      45.043  28.847  30.255  1.00  0.00    -0.354 N 
ATOM     51  N   UNL A   1      42.236  29.552  29.889  1.00  0.00    -0.248 NA
ATOM     52  C   UNL A   1      40.473  31.069  30.100  1.00  0.00     0.031 C 
ATOM     53  C   UNL A   1      46.434  30.407  31.015  1.00  0.00     0.029 A 
ATOM     54  C   UNL A   1      45.110  30.164  30.686  1.00  0.00     0.049 A 
ATOM     55  H   UNL A   1      44.222  28.390  29.959  1.00  0.00     0.167 HD
ATOM     56  C   UNL A   1      42.723  30.751  30.394  1.00  0.00     0.074 A 
ATOM     57  C   UNL A   1      41.599  31.660  30.473  1.00  0.00     0.031 C 
ATOM     58  C   UNL A   1      43.988  31.065  30.763  1.00  0.00     0.037 A 
BRANCH  45  59
ATOM     59  C   UNL A   1      48.016  26.439  30.130  1.00  0.00     0.057 A 
ATOM     60  C   UNL A   1      48.933  26.517  29.074  1.00  0.00     0.134 A 
ATOM     61  C   UNL A   1      48.444  25.819  31.312  1.00  0.00     0.134 A 
ATOM     62  F   UNL A   1      48.584  27.089  27.910  1.00  0.00    -0.206 F 
ATOM     63  C   UNL A   1      50.217  25.979  29.179  1.00  0.00     0.040 A 
ATOM     64  C   UNL A   1      49.735  25.302  31.438  1.00  0.00     0.040 A 
ATOM     65  F   UNL A   1      47.619  25.719  32.365  1.00  0.00    -0.206 F 
ATOM     66  C   UNL A   1      50.620  25.371  30.365  1.00  0.00     0.006 A 
ENDBRANCH  45  59
BRANCH  46  67
ATOM     67  C   UNL A   1      38.508  29.190  29.012  1.00  0.00     0.057 A 
ATOM     68  C   UNL A   1      38.006  29.655  27.788  1.00  0.00     0.134 A 
ATOM     69  C   UNL A   1      37.621  29.141  30.092  1.00  0.00     0.134 A 
ATOM     70  F   UNL A   1      38.806  29.733  26.715  1.00  0.00    -0.206 F 
ATOM     71  C   UNL A   1      36.681  30.071  27.652  1.00  0.00     0.040 A 
ATOM     72  C   UNL A   1      36.286  29.529  29.964  1.00  0.00     0.040 A 
ATOM     73  F   UNL A   1      38.035  28.687  31.284  1.00  0.00    -0.206 F 
ATOM     74  C   UNL A   1      35.816  30.004  28.741  1.00  0.00     0.006 A 
ENDBRANCH  46  67
BRANCH  58  75
ATOM     75  C   UNL A   1      44.242  32.454  31.272  1.00  0.00     0.057 A 
ATOM     76  C   UNL A   1      44.587  33.488  30.390  1.00  0.00     0.134 A 
ATOM     77  C   UNL A   1      44.211  32.756  32.640  1.00  0.00     0.134 A 
ATOM     78  F   UNL A   1      44.645  33.265  29.069  1.00  0.00    -0.206 F 
ATOM     79  C   UNL A   1      44.904  34.766  30.852  1.00  0.00     0.040 A 
ATOM     80  C   UNL A   1      44.500  34.038  33.111  1.00  0.00     0.040 A 
ATOM     81  F   UNL A   1      43.880  31.815  33.536  1.00  0.00    -0.206 F 
ATOM     82  C   UNL A   1      44.857  35.045  32.216  1.00  0.00     0.006 A 
ENDBRANCH  58  75
ENDBRANCH  32  33
ENDBRANCH  24  27
ENDBRANCH  22  23
ENDBRANCH  21  22
ENDBRANCH   1  21
TORSDOF 15
ENDMDL
