MODEL 1
REMARK VINA RESULT:     -11.1      0.000      0.000
REMARK SMILES O=C(CC1(C[S@](=O)C[C@H]2Cc3ccccc3S2)CC1)NCCCCNC(=O)c1ccc(-c2c3nc(c(-c4c(F)cccc4F)c4ccc([nH]4)c(-c4c(F)cccc4F)c4nc(c(-c5c(F)cccc5F)c5ccc2[nH]5)C=C4)C=C3)cc1
REMARK SMILES IDX 21 1 20 2 1 3 2 4 3 6 4 7 18 8 19 9 5 10 6 11 7 12 8 13 9 14
REMARK SMILES IDX 10 15 17 16 11 17 16 18 12 19 15 20 13 21 14 22 22 23 23 24
REMARK SMILES IDX 24 25 25 26 26 27 27 29 28 30 29 31 81 32 30 33 80 34 31 35
REMARK SMILES IDX 32 36 33 37 74 38 34 39 79 40 73 41 75 42 35 43 78 44 72 45
REMARK SMILES IDX 71 46 36 48 62 49 45 50 61 51 46 52 49 53 60 54 76 55 47 56
REMARK SMILES IDX 48 57 59 59 77 60 50 61 37 62 38 63 43 64 39 65 40 66 42 67
REMARK SMILES IDX 44 68 41 69 63 70 64 71 69 72 65 73 66 74 68 75 70 76 67 77
REMARK SMILES IDX 51 78 52 79 57 80 53 81 54 82 56 83 58 84 55 85
REMARK H PARENT 20 5 25 28 75 47 49 58
REMARK Flexibility Score: inf
ROOT
ATOM      1  C   UNL A   1      35.059  20.515  25.031  1.00  0.00     0.116 C 
ENDROOT
BRANCH   1   2
ATOM      2  N   UNL A   1      34.105  21.375  24.370  1.00  0.00    -0.356 N 
ATOM      3  O   UNL A   1      32.190  20.310  25.037  1.00  0.00    -0.275 OA
ATOM      4  C   UNL A   1      32.743  21.227  24.434  1.00  0.00     0.220 C 
ATOM      5  H   UNL A   1      34.458  22.122  23.834  1.00  0.00     0.163 HD
BRANCH   4   6
ATOM      6  C   UNL A   1      31.950  22.310  23.703  1.00  0.00     0.108 C 
BRANCH   6   7
ATOM      7  C   UNL A   1      32.127  23.716  24.283  1.00  0.00    -0.009 C 
ATOM      8  C   UNL A   1      30.912  24.242  25.056  1.00  0.00     0.009 C 
ATOM      9  C   UNL A   1      32.136  23.846  25.800  1.00  0.00     0.009 C 
BRANCH   7  10
ATOM     10  C   UNL A   1      32.829  24.786  23.443  1.00  0.00     0.112 C 
BRANCH  10  11
ATOM     11  S   UNL A   1      32.254  25.296  21.832  1.00  0.00     0.023 S 
ATOM     12  O   UNL A   1      33.383  25.645  20.918  1.00  0.00    -0.260 OA
BRANCH  11  13
ATOM     13  C   UNL A   1      31.190  26.735  21.977  1.00  0.00     0.120 C 
BRANCH  13  14
ATOM     14  C   UNL A   1      31.392  27.903  22.929  1.00  0.00     0.068 C 
ATOM     15  C   UNL A   1      30.647  27.776  24.269  1.00  0.00     0.052 C 
ATOM     16  S   UNL A   1      33.096  28.467  23.227  1.00  0.00    -0.121 SA
ATOM     17  C   UNL A   1      31.614  28.065  25.376  1.00  0.00    -0.033 A 
ATOM     18  C   UNL A   1      32.868  28.531  24.978  1.00  0.00     0.011 A 
ATOM     19  C   UNL A   1      31.336  27.865  26.724  1.00  0.00     0.005 A 
ATOM     20  C   UNL A   1      33.841  28.853  25.912  1.00  0.00     0.015 A 
ATOM     21  C   UNL A   1      32.328  28.136  27.668  1.00  0.00     0.000 A 
ATOM     22  C   UNL A   1      33.569  28.642  27.266  1.00  0.00     0.001 A 
ENDBRANCH  13  14
ENDBRANCH  11  13
ENDBRANCH  10  11
ENDBRANCH   7  10
ENDBRANCH   6   7
ENDBRANCH   4   6
ENDBRANCH   1   2
BRANCH   1  23
ATOM     23  C   UNL A   1      36.480  21.082  24.979  1.00  0.00     0.023 C 
BRANCH  23  24
ATOM     24  C   UNL A   1      37.611  20.048  24.966  1.00  0.00     0.023 C 
BRANCH  24  25
ATOM     25  C   UNL A   1      38.823  20.378  25.828  1.00  0.00     0.116 C 
BRANCH  25  26
ATOM     26  N   UNL A   1      39.851  19.349  25.785  1.00  0.00    -0.352 N 
ATOM     27  C   UNL A   1      41.196  19.441  26.056  1.00  0.00     0.251 C 
ATOM     28  H   UNL A   1      39.537  18.454  25.521  1.00  0.00     0.163 HD
ATOM     29  O   UNL A   1      41.933  18.478  25.852  1.00  0.00    -0.269 OA
BRANCH  27  30
ATOM     30  C   UNL A   1      41.779  20.711  26.551  1.00  0.00     0.039 A 
ATOM     31  C   UNL A   1      41.897  20.975  27.918  1.00  0.00     0.014 A 
ATOM     32  C   UNL A   1      42.209  21.661  25.620  1.00  0.00     0.014 A 
ATOM     33  C   UNL A   1      42.280  22.246  28.346  1.00  0.00     0.010 A 
ATOM     34  C   UNL A   1      42.666  22.910  26.054  1.00  0.00     0.010 A 
ATOM     35  C   UNL A   1      42.650  23.236  27.420  1.00  0.00    -0.014 A 
BRANCH  35  36
ATOM     36  C   UNL A   1      42.977  24.610  27.889  1.00  0.00     0.031 A 
ATOM     37  C   UNL A   1      44.411  25.061  28.008  1.00  0.00     0.074 A 
ATOM     38  C   UNL A   1      41.984  25.478  28.167  1.00  0.00     0.049 A 
ATOM     39  N   UNL A   1      44.885  26.226  28.379  1.00  0.00    -0.248 NA
ATOM     40  C   UNL A   1      45.449  24.076  27.670  1.00  0.00     0.031 C 
ATOM     41  C   UNL A   1      40.554  25.177  28.093  1.00  0.00     0.029 A 
ATOM     42  N   UNL A   1      42.027  26.794  28.556  1.00  0.00    -0.354 N 
ATOM     43  C   UNL A   1      46.269  26.108  28.334  1.00  0.00     0.074 A 
ATOM     44  C   UNL A   1      46.560  24.747  27.934  1.00  0.00     0.031 C 
ATOM     45  C   UNL A   1      39.856  26.286  28.386  1.00  0.00     0.029 A 
ATOM     46  C   UNL A   1      40.787  27.359  28.720  1.00  0.00     0.049 A 
ATOM     47  H   UNL A   1      42.868  27.285  28.702  1.00  0.00     0.167 HD
ATOM     48  C   UNL A   1      47.214  27.045  28.587  1.00  0.00     0.037 A 
ATOM     49  C   UNL A   1      40.435  28.599  29.112  1.00  0.00     0.037 A 
ATOM     50  C   UNL A   1      46.934  28.404  28.976  1.00  0.00     0.049 A 
ATOM     51  C   UNL A   1      41.504  29.603  29.440  1.00  0.00     0.074 A 
ATOM     52  C   UNL A   1      47.827  29.434  29.223  1.00  0.00     0.029 A 
ATOM     53  N   UNL A   1      45.665  28.921  29.182  1.00  0.00    -0.354 N 
ATOM     54  N   UNL A   1      42.806  29.483  29.358  1.00  0.00    -0.248 NA
ATOM     55  C   UNL A   1      41.048  30.915  29.922  1.00  0.00     0.031 C 
ATOM     56  C   UNL A   1      47.098  30.562  29.619  1.00  0.00     0.029 A 
ATOM     57  C   UNL A   1      45.750  30.247  29.574  1.00  0.00     0.049 A 
ATOM     58  H   UNL A   1      44.825  28.418  29.066  1.00  0.00     0.167 HD
ATOM     59  C   UNL A   1      43.325  30.708  29.761  1.00  0.00     0.074 A 
ATOM     60  C   UNL A   1      42.195  31.563  30.064  1.00  0.00     0.031 C 
ATOM     61  C   UNL A   1      44.620  31.088  29.874  1.00  0.00     0.037 A 
BRANCH  48  62
ATOM     62  C   UNL A   1      48.652  26.627  28.461  1.00  0.00     0.057 A 
ATOM     63  C   UNL A   1      49.318  26.716  27.231  1.00  0.00     0.134 A 
ATOM     64  C   UNL A   1      49.370  26.111  29.548  1.00  0.00     0.134 A 
ATOM     65  F   UNL A   1      48.688  27.192  26.147  1.00  0.00    -0.206 F 
ATOM     66  C   UNL A   1      50.647  26.311  27.090  1.00  0.00     0.040 A 
ATOM     67  C   UNL A   1      50.707  25.727  29.424  1.00  0.00     0.040 A 
ATOM     68  F   UNL A   1      48.794  26.010  30.755  1.00  0.00    -0.206 F 
ATOM     69  C   UNL A   1      51.348  25.822  28.190  1.00  0.00     0.006 A 
ENDBRANCH  48  62
BRANCH  49  70
ATOM     70  C   UNL A   1      39.001  28.965  29.223  1.00  0.00     0.057 A 
ATOM     71  C   UNL A   1      38.312  28.848  30.436  1.00  0.00     0.134 A 
ATOM     72  C   UNL A   1      38.295  29.465  28.124  1.00  0.00     0.134 A 
ATOM     73  F   UNL A   1      38.933  28.374  31.526  1.00  0.00    -0.206 F 
ATOM     74  C   UNL A   1      36.969  29.209  30.550  1.00  0.00     0.040 A 
ATOM     75  C   UNL A   1      36.960  29.853  28.229  1.00  0.00     0.040 A 
ATOM     76  F   UNL A   1      38.909  29.618  26.941  1.00  0.00    -0.206 F 
ATOM     77  C   UNL A   1      36.291  29.721  29.446  1.00  0.00     0.006 A 
ENDBRANCH  49  70
BRANCH  61  78
ATOM     78  C   UNL A   1      44.880  32.498  30.318  1.00  0.00     0.057 A 
ATOM     79  C   UNL A   1      44.948  33.540  29.385  1.00  0.00     0.134 A 
ATOM     80  C   UNL A   1      45.068  32.825  31.667  1.00  0.00     0.134 A 
ATOM     81  F   UNL A   1      44.782  33.295  28.076  1.00  0.00    -0.206 F 
ATOM     82  C   UNL A   1      45.191  34.857  29.778  1.00  0.00     0.040 A 
ATOM     83  C   UNL A   1      45.285  34.142  32.075  1.00  0.00     0.040 A 
ATOM     84  F   UNL A   1      44.997  31.875  32.613  1.00  0.00    -0.206 F 
ATOM     85  C   UNL A   1      45.353  35.162  31.128  1.00  0.00     0.006 A 
ENDBRANCH  61  78
ENDBRANCH  35  36
ENDBRANCH  27  30
ENDBRANCH  25  26
ENDBRANCH  24  25
ENDBRANCH  23  24
ENDBRANCH   1  23
TORSDOF 16
ENDMDL
MODEL 2
REMARK VINA RESULT:     -11.1      4.478      8.255
REMARK SMILES O=C(CC1(C[S@](=O)C[C@H]2Cc3ccccc3S2)CC1)NCCCCNC(=O)c1ccc(-c2c3nc(c(-c4c(F)cccc4F)c4ccc([nH]4)c(-c4c(F)cccc4F)c4nc(c(-c5c(F)cccc5F)c5ccc2[nH]5)C=C4)C=C3)cc1
REMARK SMILES IDX 21 1 20 2 1 3 2 4 3 6 4 7 18 8 19 9 5 10 6 11 7 12 8 13 9 14
REMARK SMILES IDX 10 15 17 16 11 17 16 18 12 19 15 20 13 21 14 22 22 23 23 24
REMARK SMILES IDX 24 25 25 26 26 27 27 29 28 30 29 31 81 32 30 33 80 34 31 35
REMARK SMILES IDX 32 36 33 37 74 38 34 39 79 40 73 41 75 42 35 43 78 44 72 45
REMARK SMILES IDX 71 46 36 48 62 49 45 50 61 51 46 52 49 53 60 54 76 55 47 56
REMARK SMILES IDX 48 57 59 59 77 60 50 61 37 62 38 63 43 64 39 65 40 66 42 67
REMARK SMILES IDX 44 68 41 69 63 70 64 71 69 72 65 73 66 74 68 75 70 76 67 77
REMARK SMILES IDX 51 78 52 79 57 80 53 81 54 82 56 83 58 84 55 85
REMARK H PARENT 20 5 25 28 75 47 49 58
REMARK Flexibility Score: inf
ROOT
ATOM      1  C   UNL A   1      36.115  21.404  25.602  1.00  0.00     0.116 C 
ENDROOT
BRANCH   1   2
ATOM      2  N   UNL A   1      34.721  21.448  25.225  1.00  0.00    -0.356 N 
ATOM      3  O   UNL A   1      33.814  21.047  27.290  1.00  0.00    -0.275 OA
ATOM      4  C   UNL A   1      33.672  21.288  26.093  1.00  0.00     0.220 C 
ATOM      5  H   UNL A   1      34.509  21.604  24.276  1.00  0.00     0.163 HD
BRANCH   4   6
ATOM      6  C   UNL A   1      32.290  21.448  25.459  1.00  0.00     0.108 C 
BRANCH   6   7
ATOM      7  C   UNL A   1      31.739  22.875  25.509  1.00  0.00    -0.009 C 
ATOM      8  C   UNL A   1      30.656  23.100  26.571  1.00  0.00     0.009 C 
ATOM      9  C   UNL A   1      32.009  23.680  26.774  1.00  0.00     0.009 C 
BRANCH   7  10
ATOM     10  C   UNL A   1      31.475  23.620  24.198  1.00  0.00     0.112 C 
BRANCH  10  11
ATOM     11  S   UNL A   1      32.751  24.465  23.279  1.00  0.00     0.023 S 
ATOM     12  O   UNL A   1      34.110  23.921  23.575  1.00  0.00    -0.260 OA
BRANCH  11  13
ATOM     13  C   UNL A   1      32.752  26.215  23.679  1.00  0.00     0.120 C 
BRANCH  13  14
ATOM     14  C   UNL A   1      32.449  26.821  25.040  1.00  0.00     0.068 C 
ATOM     15  C   UNL A   1      33.681  27.041  25.934  1.00  0.00     0.052 C 
ATOM     16  S   UNL A   1      31.384  28.295  25.091  1.00  0.00    -0.121 SA
ATOM     17  C   UNL A   1      33.635  28.441  26.466  1.00  0.00    -0.033 A 
ATOM     18  C   UNL A   1      32.465  29.151  26.196  1.00  0.00     0.011 A 
ATOM     19  C   UNL A   1      34.678  29.046  27.159  1.00  0.00     0.005 A 
ATOM     20  C   UNL A   1      32.295  30.450  26.655  1.00  0.00     0.015 A 
ATOM     21  C   UNL A   1      34.537  30.369  27.578  1.00  0.00     0.000 A 
ATOM     22  C   UNL A   1      33.345  31.064  27.340  1.00  0.00     0.001 A 
ENDBRANCH  13  14
ENDBRANCH  11  13
ENDBRANCH  10  11
ENDBRANCH   7  10
ENDBRANCH   6   7
ENDBRANCH   4   6
ENDBRANCH   1   2
BRANCH   1  23
ATOM     23  C   UNL A   1      36.994  22.228  24.658  1.00  0.00     0.023 C 
BRANCH  23  24
ATOM     24  C   UNL A   1      37.303  23.659  25.112  1.00  0.00     0.023 C 
BRANCH  24  25
ATOM     25  C   UNL A   1      38.148  23.788  26.373  1.00  0.00     0.116 C 
BRANCH  25  26
ATOM     26  N   UNL A   1      39.572  23.621  26.125  1.00  0.00    -0.352 N 
ATOM     27  C   UNL A   1      40.631  24.398  26.533  1.00  0.00     0.251 C 
ATOM     28  H   UNL A   1      39.813  22.835  25.584  1.00  0.00     0.163 HD
ATOM     29  O   UNL A   1      41.765  24.158  26.125  1.00  0.00    -0.269 OA
BRANCH  27  30
ATOM     30  C   UNL A   1      40.412  25.559  27.429  1.00  0.00     0.039 A 
ATOM     31  C   UNL A   1      41.122  26.750  27.266  1.00  0.00     0.014 A 
ATOM     32  C   UNL A   1      39.477  25.443  28.462  1.00  0.00     0.014 A 
ATOM     33  C   UNL A   1      41.023  27.753  28.230  1.00  0.00     0.010 A 
ATOM     34  C   UNL A   1      39.323  26.482  29.386  1.00  0.00     0.010 A 
ATOM     35  C   UNL A   1      40.138  27.623  29.313  1.00  0.00    -0.014 A 
BRANCH  35  36
ATOM     36  C   UNL A   1      40.104  28.665  30.377  1.00  0.00     0.031 A 
ATOM     37  C   UNL A   1      39.096  29.785  30.324  1.00  0.00     0.074 A 
ATOM     38  C   UNL A   1      40.951  28.583  31.422  1.00  0.00     0.049 A 
ATOM     39  N   UNL A   1      38.905  30.768  31.170  1.00  0.00    -0.248 NA
ATOM     40  C   UNL A   1      38.186  29.808  29.169  1.00  0.00     0.031 C 
ATOM     41  C   UNL A   1      41.974  27.553  31.601  1.00  0.00     0.029 A 
ATOM     42  N   UNL A   1      41.076  29.375  32.536  1.00  0.00    -0.354 N 
ATOM     43  C   UNL A   1      37.869  31.530  30.644  1.00  0.00     0.074 A 
ATOM     44  C   UNL A   1      37.494  30.917  29.387  1.00  0.00     0.031 C 
ATOM     45  C   UNL A   1      42.595  27.751  32.775  1.00  0.00     0.029 A 
ATOM     46  C   UNL A   1      42.051  28.951  33.404  1.00  0.00     0.049 A 
ATOM     47  H   UNL A   1      40.518  30.170  32.698  1.00  0.00     0.167 HD
ATOM     48  C   UNL A   1      37.271  32.631  31.162  1.00  0.00     0.037 A 
ATOM     49  C   UNL A   1      42.475  29.476  34.570  1.00  0.00     0.037 A 
ATOM     50  C   UNL A   1      37.630  33.243  32.416  1.00  0.00     0.049 A 
ATOM     51  C   UNL A   1      41.831  30.729  35.094  1.00  0.00     0.074 A 
ATOM     52  C   UNL A   1      37.059  34.342  33.036  1.00  0.00     0.029 A 
ATOM     53  N   UNL A   1      38.659  32.812  33.238  1.00  0.00    -0.354 N 
ATOM     54  N   UNL A   1      40.831  31.415  34.600  1.00  0.00    -0.248 NA
ATOM     55  C   UNL A   1      42.386  31.282  36.338  1.00  0.00     0.031 C 
ATOM     56  C   UNL A   1      37.771  34.600  34.214  1.00  0.00     0.029 A 
ATOM     57  C   UNL A   1      38.755  33.635  34.349  1.00  0.00     0.049 A 
ATOM     58  H   UNL A   1      39.237  32.035  33.059  1.00  0.00     0.167 HD
ATOM     59  C   UNL A   1      40.624  32.470  35.481  1.00  0.00     0.074 A 
ATOM     60  C   UNL A   1      41.588  32.319  36.551  1.00  0.00     0.031 C 
ATOM     61  C   UNL A   1      39.719  33.476  35.407  1.00  0.00     0.037 A 
BRANCH  48  62
ATOM     62  C   UNL A   1      36.165  33.256  30.360  1.00  0.00     0.057 A 
ATOM     63  C   UNL A   1      36.453  34.083  29.266  1.00  0.00     0.134 A 
ATOM     64  C   UNL A   1      34.815  33.064  30.685  1.00  0.00     0.134 A 
ATOM     65  F   UNL A   1      37.723  34.318  28.905  1.00  0.00    -0.206 F 
ATOM     66  C   UNL A   1      35.439  34.691  28.523  1.00  0.00     0.040 A 
ATOM     67  C   UNL A   1      33.792  33.646  29.934  1.00  0.00     0.040 A 
ATOM     68  F   UNL A   1      34.471  32.275  31.715  1.00  0.00    -0.206 F 
ATOM     69  C   UNL A   1      34.104  34.467  28.852  1.00  0.00     0.006 A 
ENDBRANCH  48  62
BRANCH  49  70
ATOM     70  C   UNL A   1      43.572  28.823  35.326  1.00  0.00     0.057 A 
ATOM     71  C   UNL A   1      44.914  29.140  35.081  1.00  0.00     0.134 A 
ATOM     72  C   UNL A   1      43.302  27.886  36.328  1.00  0.00     0.134 A 
ATOM     73  F   UNL A   1      45.237  30.030  34.132  1.00  0.00    -0.206 F 
ATOM     74  C   UNL A   1      45.948  28.542  35.802  1.00  0.00     0.040 A 
ATOM     75  C   UNL A   1      44.324  27.299  37.074  1.00  0.00     0.040 A 
ATOM     76  F   UNL A   1      42.035  27.557  36.621  1.00  0.00    -0.206 F 
ATOM     77  C   UNL A   1      45.654  27.625  36.808  1.00  0.00     0.006 A 
ENDBRANCH  49  70
BRANCH  61  78
ATOM     78  C   UNL A   1      39.715  34.472  36.530  1.00  0.00     0.057 A 
ATOM     79  C   UNL A   1      40.456  35.658  36.437  1.00  0.00     0.134 A 
ATOM     80  C   UNL A   1      38.984  34.257  37.705  1.00  0.00     0.134 A 
ATOM     81  F   UNL A   1      41.182  35.923  35.340  1.00  0.00    -0.206 F 
ATOM     82  C   UNL A   1      40.467  36.594  37.471  1.00  0.00     0.040 A 
ATOM     83  C   UNL A   1      38.966  35.198  38.735  1.00  0.00     0.040 A 
ATOM     84  F   UNL A   1      38.240  33.150  37.850  1.00  0.00    -0.206 F 
ATOM     85  C   UNL A   1      39.714  36.370  38.622  1.00  0.00     0.006 A 
ENDBRANCH  61  78
ENDBRANCH  35  36
ENDBRANCH  27  30
ENDBRANCH  25  26
ENDBRANCH  24  25
ENDBRANCH  23  24
ENDBRANCH   1  23
TORSDOF 16
ENDMDL
MODEL 3
REMARK VINA RESULT:     -10.8      5.000      9.281
REMARK SMILES O=C(CC1(C[S@](=O)C[C@H]2Cc3ccccc3S2)CC1)NCCCCNC(=O)c1ccc(-c2c3nc(c(-c4c(F)cccc4F)c4ccc([nH]4)c(-c4c(F)cccc4F)c4nc(c(-c5c(F)cccc5F)c5ccc2[nH]5)C=C4)C=C3)cc1
REMARK SMILES IDX 21 1 20 2 1 3 2 4 3 6 4 7 18 8 19 9 5 10 6 11 7 12 8 13 9 14
REMARK SMILES IDX 10 15 17 16 11 17 16 18 12 19 15 20 13 21 14 22 22 23 23 24
REMARK SMILES IDX 24 25 25 26 26 27 27 29 28 30 29 31 81 32 30 33 80 34 31 35
REMARK SMILES IDX 32 36 33 37 74 38 34 39 79 40 73 41 75 42 35 43 78 44 72 45
REMARK SMILES IDX 71 46 36 48 62 49 45 50 61 51 46 52 49 53 60 54 76 55 47 56
REMARK SMILES IDX 48 57 59 59 77 60 50 61 37 62 38 63 43 64 39 65 40 66 42 67
REMARK SMILES IDX 44 68 41 69 63 70 64 71 69 72 65 73 66 74 68 75 70 76 67 77
REMARK SMILES IDX 51 78 52 79 57 80 53 81 54 82 56 83 58 84 55 85
REMARK H PARENT 20 5 25 28 75 47 49 58
REMARK Flexibility Score: inf
ROOT
ATOM      1  C   UNL A   1      31.979  29.647  25.637  1.00  0.00     0.116 C 
ENDROOT
BRANCH   1   2
ATOM      2  N   UNL A   1      32.583  28.381  25.983  1.00  0.00    -0.356 N 
ATOM      3  O   UNL A   1      34.166  28.313  24.328  1.00  0.00    -0.275 OA
ATOM      4  C   UNL A   1      33.642  27.814  25.322  1.00  0.00     0.220 C 
ATOM      5  H   UNL A   1      32.208  27.890  26.750  1.00  0.00     0.163 HD
BRANCH   4   6
ATOM      6  C   UNL A   1      34.143  26.503  25.928  1.00  0.00     0.108 C 
BRANCH   6   7
ATOM      7  C   UNL A   1      33.547  25.248  25.284  1.00  0.00    -0.009 C 
ATOM      8  C   UNL A   1      33.447  24.040  26.223  1.00  0.00     0.009 C 
ATOM      9  C   UNL A   1      32.210  24.759  25.824  1.00  0.00     0.009 C 
BRANCH   7  10
ATOM     10  C   UNL A   1      33.949  24.880  23.853  1.00  0.00     0.112 C 
BRANCH  10  11
ATOM     11  S   UNL A   1      32.772  24.407  22.597  1.00  0.00     0.023 S 
ATOM     12  O   UNL A   1      33.433  23.771  21.419  1.00  0.00    -0.260 OA
BRANCH  11  13
ATOM     13  C   UNL A   1      31.867  25.846  22.019  1.00  0.00     0.120 C 
BRANCH  13  14
ATOM     14  C   UNL A   1      31.245  26.922  22.894  1.00  0.00     0.068 C 
ATOM     15  C   UNL A   1      31.300  28.342  22.303  1.00  0.00     0.052 C 
ATOM     16  S   UNL A   1      29.588  26.605  23.574  1.00  0.00    -0.121 SA
ATOM     17  C   UNL A   1      29.933  28.947  22.400  1.00  0.00    -0.033 A 
ATOM     18  C   UNL A   1      28.994  28.207  23.120  1.00  0.00     0.011 A 
ATOM     19  C   UNL A   1      29.568  30.148  21.799  1.00  0.00     0.005 A 
ATOM     20  C   UNL A   1      27.700  28.673  23.297  1.00  0.00     0.015 A 
ATOM     21  C   UNL A   1      28.254  30.598  21.928  1.00  0.00     0.000 A 
ATOM     22  C   UNL A   1      27.327  29.872  22.685  1.00  0.00     0.001 A 
ENDBRANCH  13  14
ENDBRANCH  11  13
ENDBRANCH  10  11
ENDBRANCH   7  10
ENDBRANCH   6   7
ENDBRANCH   4   6
ENDBRANCH   1   2
BRANCH   1  23
ATOM     23  C   UNL A   1      31.630  30.478  26.875  1.00  0.00     0.023 C 
BRANCH  23  24
ATOM     24  C   UNL A   1      31.583  31.995  26.669  1.00  0.00     0.023 C 
BRANCH  24  25
ATOM     25  C   UNL A   1      32.757  32.780  27.241  1.00  0.00     0.116 C 
BRANCH  25  26
ATOM     26  N   UNL A   1      32.414  34.152  27.582  1.00  0.00    -0.352 N 
ATOM     27  C   UNL A   1      32.963  34.984  28.530  1.00  0.00     0.251 C 
ATOM     28  H   UNL A   1      31.678  34.543  27.057  1.00  0.00     0.163 HD
ATOM     29  O   UNL A   1      32.458  36.082  28.752  1.00  0.00    -0.269 OA
BRANCH  27  30
ATOM     30  C   UNL A   1      34.136  34.549  29.325  1.00  0.00     0.039 A 
ATOM     31  C   UNL A   1      35.428  34.584  28.797  1.00  0.00     0.014 A 
ATOM     32  C   UNL A   1      33.929  34.085  30.628  1.00  0.00     0.014 A 
ATOM     33  C   UNL A   1      36.481  34.001  29.503  1.00  0.00     0.010 A 
ATOM     34  C   UNL A   1      35.001  33.569  31.365  1.00  0.00     0.010 A 
ATOM     35  C   UNL A   1      36.276  33.468  30.787  1.00  0.00    -0.014 A 
BRANCH  35  36
ATOM     36  C   UNL A   1      37.390  32.776  31.492  1.00  0.00     0.031 A 
ATOM     37  C   UNL A   1      38.077  31.589  30.865  1.00  0.00     0.074 A 
ATOM     38  C   UNL A   1      37.822  33.240  32.681  1.00  0.00     0.049 A 
ATOM     39  N   UNL A   1      39.078  30.875  31.322  1.00  0.00    -0.248 NA
ATOM     40  C   UNL A   1      37.575  31.143  29.557  1.00  0.00     0.031 C 
ATOM     41  C   UNL A   1      37.251  34.379  33.401  1.00  0.00     0.029 A 
ATOM     42  N   UNL A   1      38.849  32.818  33.488  1.00  0.00    -0.354 N 
ATOM     43  C   UNL A   1      39.312  29.891  30.368  1.00  0.00     0.074 A 
ATOM     44  C   UNL A   1      38.327  30.077  29.324  1.00  0.00     0.031 C 
ATOM     45  C   UNL A   1      37.960  34.590  34.521  1.00  0.00     0.029 A 
ATOM     46  C   UNL A   1      38.999  33.571  34.626  1.00  0.00     0.049 A 
ATOM     47  H   UNL A   1      39.424  32.049  33.270  1.00  0.00     0.167 HD
ATOM     48  C   UNL A   1      40.266  28.929  30.351  1.00  0.00     0.037 A 
ATOM     49  C   UNL A   1      39.866  33.447  35.649  1.00  0.00     0.037 A 
ATOM     50  C   UNL A   1      41.256  28.742  31.381  1.00  0.00     0.049 A 
ATOM     51  C   UNL A   1      40.878  32.337  35.632  1.00  0.00     0.074 A 
ATOM     52  C   UNL A   1      42.282  27.812  31.435  1.00  0.00     0.029 A 
ATOM     53  N   UNL A   1      41.340  29.493  32.543  1.00  0.00    -0.354 N 
ATOM     54  N   UNL A   1      41.106  31.438  34.707  1.00  0.00    -0.248 NA
ATOM     55  C   UNL A   1      41.750  32.223  36.811  1.00  0.00     0.031 C 
ATOM     56  C   UNL A   1      42.960  27.977  32.649  1.00  0.00     0.029 A 
ATOM     57  C   UNL A   1      42.385  29.037  33.329  1.00  0.00     0.049 A 
ATOM     58  H   UNL A   1      40.743  30.243  32.774  1.00  0.00     0.167 HD
ATOM     59  C   UNL A   1      42.157  30.664  35.182  1.00  0.00     0.074 A 
ATOM     60  C   UNL A   1      42.536  31.214  36.467  1.00  0.00     0.031 C 
ATOM     61  C   UNL A   1      42.752  29.590  34.607  1.00  0.00     0.037 A 
BRANCH  48  62
ATOM     62  C   UNL A   1      40.277  27.989  29.179  1.00  0.00     0.057 A 
ATOM     63  C   UNL A   1      41.032  28.281  28.035  1.00  0.00     0.134 A 
ATOM     64  C   UNL A   1      39.521  26.809  29.169  1.00  0.00     0.134 A 
ATOM     65  F   UNL A   1      41.772  29.398  27.973  1.00  0.00    -0.206 F 
ATOM     66  C   UNL A   1      41.037  27.431  26.927  1.00  0.00     0.040 A 
ATOM     67  C   UNL A   1      39.539  25.939  28.077  1.00  0.00     0.040 A 
ATOM     68  F   UNL A   1      38.785  26.466  30.237  1.00  0.00    -0.206 F 
ATOM     69  C   UNL A   1      40.295  26.252  26.950  1.00  0.00     0.006 A 
ENDBRANCH  48  62
BRANCH  49  70
ATOM     70  C   UNL A   1      39.815  34.399  36.787  1.00  0.00     0.057 A 
ATOM     71  C   UNL A   1      39.076  34.115  37.942  1.00  0.00     0.134 A 
ATOM     72  C   UNL A   1      40.526  35.603  36.754  1.00  0.00     0.134 A 
ATOM     73  F   UNL A   1      38.372  32.977  38.032  1.00  0.00    -0.206 F 
ATOM     74  C   UNL A   1      39.040  34.999  39.021  1.00  0.00     0.040 A 
ATOM     75  C   UNL A   1      40.520  36.484  37.836  1.00  0.00     0.040 A 
ATOM     76  F   UNL A   1      41.268  35.920  35.683  1.00  0.00    -0.206 F 
ATOM     77  C   UNL A   1      39.771  36.184  38.973  1.00  0.00     0.006 A 
ENDBRANCH  49  70
BRANCH  61  78
ATOM     78  C   UNL A   1      43.892  28.962  35.354  1.00  0.00     0.057 A 
ATOM     79  C   UNL A   1      43.661  27.936  36.280  1.00  0.00     0.134 A 
ATOM     80  C   UNL A   1      45.217  29.375  35.163  1.00  0.00     0.134 A 
ATOM     81  F   UNL A   1      42.415  27.498  36.514  1.00  0.00    -0.206 F 
ATOM     82  C   UNL A   1      44.707  27.342  36.987  1.00  0.00     0.040 A 
ATOM     83  C   UNL A   1      46.275  28.770  35.844  1.00  0.00     0.040 A 
ATOM     84  F   UNL A   1      45.507  30.340  34.278  1.00  0.00    -0.206 F 
ATOM     85  C   UNL A   1      46.020  27.753  36.764  1.00  0.00     0.006 A 
ENDBRANCH  61  78
ENDBRANCH  35  36
ENDBRANCH  27  30
ENDBRANCH  25  26
ENDBRANCH  24  25
ENDBRANCH  23  24
ENDBRANCH   1  23
TORSDOF 16
ENDMDL
