MODEL 1
REMARK VINA RESULT:     -11.9      0.000      0.000
REMARK SMILES CC[C@](C)(NC(=O)c1cccc2ncccc12)C(=O)NCCCCNC(=O)c1ccc(-c2c3nc(c(-c4c(F)cccc4F)c4ccc([nH]4)c(-c4c(F)cccc4F)c4nc(c(-c5c(F)cccc5F)c5ccc2[nH]5)C=C4)C=C3)cc1
REMARK SMILES IDX 22 1 21 2 20 3 18 4 19 5 3 7 4 8 2 9 1 10 5 11 6 12 7 14
REMARK SMILES IDX 8 15 9 16 17 17 10 18 12 19 16 20 11 21 13 22 15 23 14 24
REMARK SMILES IDX 23 25 24 26 25 27 26 28 27 30 28 31 29 32 81 33 30 34 80 35
REMARK SMILES IDX 31 36 32 37 33 38 74 39 34 40 79 41 73 42 75 43 35 44 78 45
REMARK SMILES IDX 72 46 71 47 36 49 62 50 45 51 61 52 46 53 49 54 60 55 76 56
REMARK SMILES IDX 47 57 48 58 59 60 77 61 50 62 37 63 38 64 43 65 39 66 40 67
REMARK SMILES IDX 42 68 44 69 41 70 63 71 64 72 69 73 65 74 66 75 68 76 70 77
REMARK SMILES IDX 67 78 51 79 52 80 57 81 53 82 54 83 56 84 58 85 55 86
REMARK H PARENT 20 6 5 13 25 29 75 48 49 59
REMARK Flexibility Score: inf
ROOT
ATOM      1  C   UNL A   1      36.230  20.258  24.993  1.00  0.00     0.023 C 
ENDROOT
BRANCH   1   2
ATOM      2  C   UNL A   1      36.048  21.588  25.725  1.00  0.00     0.116 C 
BRANCH   2   3
ATOM      3  N   UNL A   1      35.122  21.625  26.846  1.00  0.00    -0.354 N 
ATOM      4  C   UNL A   1      33.879  22.171  27.026  1.00  0.00     0.245 C 
ATOM      5  O   UNL A   1      33.292  21.834  28.062  1.00  0.00    -0.272 OA
ATOM      6  H   UNL A   1      35.461  21.160  27.644  1.00  0.00     0.163 HD
BRANCH   4   7
ATOM      7  C   UNL A   1      33.195  23.099  25.982  1.00  0.00     0.116 C 
ATOM      8  C   UNL A   1      33.237  22.519  24.555  1.00  0.00     0.045 C 
BRANCH   7   9
ATOM      9  C   UNL A   1      34.052  24.415  25.975  1.00  0.00     0.035 C 
ATOM     10  C   UNL A   1      34.584  24.833  24.600  1.00  0.00     0.007 C 
ENDBRANCH   7   9
BRANCH   7  11
ATOM     11  N   UNL A   1      31.774  23.429  26.301  1.00  0.00    -0.338 N 
ATOM     12  C   UNL A   1      30.948  24.540  26.177  1.00  0.00     0.252 C 
ATOM     13  H   UNL A   1      31.301  22.664  26.702  1.00  0.00     0.164 HD
ATOM     14  O   UNL A   1      29.932  24.489  26.877  1.00  0.00    -0.269 OA
BRANCH  12  15
ATOM     15  C   UNL A   1      31.126  25.711  25.230  1.00  0.00     0.049 A 
ATOM     16  C   UNL A   1      30.793  25.567  23.886  1.00  0.00     0.014 A 
ATOM     17  C   UNL A   1      31.428  27.043  25.678  1.00  0.00     0.013 A 
ATOM     18  C   UNL A   1      30.818  26.607  22.968  1.00  0.00     0.003 A 
ATOM     19  C   UNL A   1      31.418  28.112  24.735  1.00  0.00     0.071 A 
ATOM     20  C   UNL A   1      31.712  27.443  27.007  1.00  0.00     0.013 A 
ATOM     21  C   UNL A   1      31.140  27.872  23.406  1.00  0.00     0.029 A 
ATOM     22  N   UNL A   1      31.631  29.398  25.041  1.00  0.00    -0.256 NA
ATOM     23  C   UNL A   1      31.913  28.783  27.336  1.00  0.00     0.021 A 
ATOM     24  C   UNL A   1      31.858  29.717  26.325  1.00  0.00     0.112 A 
ENDBRANCH  12  15
ENDBRANCH   7  11
ENDBRANCH   4   7
ENDBRANCH   2   3
ENDBRANCH   1   2
BRANCH   1  25
ATOM     25  C   UNL A   1      37.650  19.760  24.733  1.00  0.00     0.023 C 
BRANCH  25  26
ATOM     26  C   UNL A   1      38.709  20.212  25.720  1.00  0.00     0.116 C 
BRANCH  26  27
ATOM     27  N   UNL A   1      39.849  19.315  25.759  1.00  0.00    -0.352 N 
ATOM     28  C   UNL A   1      41.154  19.597  26.067  1.00  0.00     0.251 C 
ATOM     29  H   UNL A   1      39.659  18.375  25.532  1.00  0.00     0.163 HD
ATOM     30  O   UNL A   1      42.025  18.743  25.882  1.00  0.00    -0.269 OA
BRANCH  28  31
ATOM     31  C   UNL A   1      41.527  20.923  26.601  1.00  0.00     0.039 A 
ATOM     32  C   UNL A   1      41.458  21.140  27.981  1.00  0.00     0.014 A 
ATOM     33  C   UNL A   1      41.926  21.959  25.750  1.00  0.00     0.014 A 
ATOM     34  C   UNL A   1      41.825  22.380  28.508  1.00  0.00     0.010 A 
ATOM     35  C   UNL A   1      42.363  23.168  26.283  1.00  0.00     0.010 A 
ATOM     36  C   UNL A   1      42.301  23.397  27.665  1.00  0.00    -0.014 A 
BRANCH  36  37
ATOM     37  C   UNL A   1      42.697  24.722  28.205  1.00  0.00     0.031 A 
ATOM     38  C   UNL A   1      41.654  25.785  28.425  1.00  0.00     0.074 A 
ATOM     39  C   UNL A   1      43.996  24.988  28.443  1.00  0.00     0.049 A 
ATOM     40  N   UNL A   1      41.806  27.023  28.820  1.00  0.00    -0.248 NA
ATOM     41  C   UNL A   1      40.260  25.414  28.134  1.00  0.00     0.031 C 
ATOM     42  C   UNL A   1      45.105  24.058  28.228  1.00  0.00     0.029 A 
ATOM     43  N   UNL A   1      44.602  26.127  28.910  1.00  0.00    -0.354 N 
ATOM     44  C   UNL A   1      40.533  27.582  28.804  1.00  0.00     0.074 A 
ATOM     45  C   UNL A   1      39.630  26.565  28.313  1.00  0.00     0.031 C 
ATOM     46  C   UNL A   1      46.254  24.655  28.584  1.00  0.00     0.029 A 
ATOM     47  C   UNL A   1      45.968  26.019  29.018  1.00  0.00     0.049 A 
ATOM     48  H   UNL A   1      44.106  26.944  29.145  1.00  0.00     0.167 HD
ATOM     49  C   UNL A   1      40.149  28.823  29.185  1.00  0.00     0.037 A 
ATOM     50  C   UNL A   1      46.883  26.921  29.419  1.00  0.00     0.037 A 
ATOM     51  C   UNL A   1      41.045  29.820  29.709  1.00  0.00     0.049 A 
ATOM     52  C   UNL A   1      46.429  28.289  29.845  1.00  0.00     0.074 A 
ATOM     53  C   UNL A   1      40.743  31.083  30.188  1.00  0.00     0.029 A 
ATOM     54  N   UNL A   1      42.417  29.664  29.825  1.00  0.00    -0.354 N 
ATOM     55  N   UNL A   1      45.215  28.782  29.887  1.00  0.00    -0.248 NA
ATOM     56  C   UNL A   1      47.474  29.226  30.284  1.00  0.00     0.031 C 
ATOM     57  C   UNL A   1      41.939  31.706  30.559  1.00  0.00     0.029 A 
ATOM     58  C   UNL A   1      42.979  30.815  30.350  1.00  0.00     0.049 A 
ATOM     59  H   UNL A   1      42.917  28.855  29.570  1.00  0.00     0.167 HD
ATOM     60  C   UNL A   1      45.345  30.073  30.383  1.00  0.00     0.074 A 
ATOM     61  C   UNL A   1      46.756  30.283  30.640  1.00  0.00     0.031 C 
ATOM     62  C   UNL A   1      44.384  31.001  30.608  1.00  0.00     0.037 A 
BRANCH  49  63
ATOM     63  C   UNL A   1      38.694  29.170  29.053  1.00  0.00     0.057 A 
ATOM     64  C   UNL A   1      37.817  29.100  30.143  1.00  0.00     0.134 A 
ATOM     65  C   UNL A   1      38.171  29.610  27.831  1.00  0.00     0.134 A 
ATOM     66  F   UNL A   1      38.251  28.673  31.339  1.00  0.00    -0.206 F 
ATOM     67  C   UNL A   1      36.467  29.431  30.017  1.00  0.00     0.040 A 
ATOM     68  C   UNL A   1      36.829  29.970  27.698  1.00  0.00     0.040 A 
ATOM     69  F   UNL A   1      38.958  29.705  26.749  1.00  0.00    -0.206 F 
ATOM     70  C   UNL A   1      35.971  29.875  28.792  1.00  0.00     0.006 A 
ENDBRANCH  49  63
BRANCH  50  71
ATOM     71  C   UNL A   1      48.321  26.552  29.465  1.00  0.00     0.057 A 
ATOM     72  C   UNL A   1      49.171  26.837  28.390  1.00  0.00     0.134 A 
ATOM     73  C   UNL A   1      48.877  25.901  30.572  1.00  0.00     0.134 A 
ATOM     74  F   UNL A   1      48.692  27.443  27.293  1.00  0.00    -0.206 F 
ATOM     75  C   UNL A   1      50.517  26.471  28.406  1.00  0.00     0.040 A 
ATOM     76  C   UNL A   1      50.226  25.550  30.611  1.00  0.00     0.040 A 
ATOM     77  F   UNL A   1      48.115  25.605  31.636  1.00  0.00    -0.206 F 
ATOM     78  C   UNL A   1      51.050  25.829  29.522  1.00  0.00     0.006 A 
ENDBRANCH  50  71
BRANCH  62  79
ATOM     79  C   UNL A   1      44.820  32.313  31.190  1.00  0.00     0.057 A 
ATOM     80  C   UNL A   1      45.149  33.408  30.382  1.00  0.00     0.134 A 
ATOM     81  C   UNL A   1      44.873  32.492  32.579  1.00  0.00     0.134 A 
ATOM     82  F   UNL A   1      45.131  33.295  29.045  1.00  0.00    -0.206 F 
ATOM     83  C   UNL A   1      45.535  34.630  30.934  1.00  0.00     0.040 A 
ATOM     84  C   UNL A   1      45.233  33.717  33.143  1.00  0.00     0.040 A 
ATOM     85  F   UNL A   1      44.561  31.485  33.409  1.00  0.00    -0.206 F 
ATOM     86  C   UNL A   1      45.570  34.789  32.318  1.00  0.00     0.006 A 
ENDBRANCH  62  79
ENDBRANCH  36  37
ENDBRANCH  28  31
ENDBRANCH  26  27
ENDBRANCH  25  26
ENDBRANCH   1  25
TORSDOF 14
ENDMDL
MODEL 2
REMARK VINA RESULT:     -11.7      4.135      9.237
REMARK SMILES CC[C@](C)(NC(=O)c1cccc2ncccc12)C(=O)NCCCCNC(=O)c1ccc(-c2c3nc(c(-c4c(F)cccc4F)c4ccc([nH]4)c(-c4c(F)cccc4F)c4nc(c(-c5c(F)cccc5F)c5ccc2[nH]5)C=C4)C=C3)cc1
REMARK SMILES IDX 22 1 21 2 20 3 18 4 19 5 3 7 4 8 2 9 1 10 5 11 6 12 7 14
REMARK SMILES IDX 8 15 9 16 17 17 10 18 12 19 16 20 11 21 13 22 15 23 14 24
REMARK SMILES IDX 23 25 24 26 25 27 26 28 27 30 28 31 29 32 81 33 30 34 80 35
REMARK SMILES IDX 31 36 32 37 33 38 74 39 34 40 79 41 73 42 75 43 35 44 78 45
REMARK SMILES IDX 72 46 71 47 36 49 62 50 45 51 61 52 46 53 49 54 60 55 76 56
REMARK SMILES IDX 47 57 48 58 59 60 77 61 50 62 37 63 38 64 43 65 39 66 40 67
REMARK SMILES IDX 42 68 44 69 41 70 63 71 64 72 69 73 65 74 66 75 68 76 70 77
REMARK SMILES IDX 67 78 51 79 52 80 57 81 53 82 54 83 56 84 58 85 55 86
REMARK H PARENT 20 6 5 13 25 29 75 48 49 59
REMARK Flexibility Score: inf
ROOT
ATOM      1  C   UNL A   1      31.399  30.406  25.586  1.00  0.00     0.023 C 
ENDROOT
BRANCH   1   2
ATOM      2  C   UNL A   1      32.760  29.707  25.590  1.00  0.00     0.116 C 
BRANCH   2   3
ATOM      3  N   UNL A   1      33.428  29.516  24.313  1.00  0.00    -0.354 N 
ATOM      4  C   UNL A   1      33.502  28.469  23.433  1.00  0.00     0.245 C 
ATOM      5  O   UNL A   1      34.006  28.729  22.334  1.00  0.00    -0.272 OA
ATOM      6  H   UNL A   1      33.935  30.307  24.018  1.00  0.00     0.163 HD
BRANCH   4   7
ATOM      7  C   UNL A   1      32.935  27.054  23.742  1.00  0.00     0.116 C 
ATOM      8  C   UNL A   1      31.520  27.102  24.350  1.00  0.00     0.045 C 
BRANCH   7   9
ATOM      9  C   UNL A   1      33.891  26.455  24.833  1.00  0.00     0.035 C 
ATOM     10  C   UNL A   1      33.201  26.020  26.130  1.00  0.00     0.007 C 
ENDBRANCH   7   9
BRANCH   7  11
ATOM     11  N   UNL A   1      32.893  26.144  22.558  1.00  0.00    -0.338 N 
ATOM     12  C   UNL A   1      33.154  24.801  22.313  1.00  0.00     0.252 C 
ATOM     13  H   UNL A   1      32.610  26.617  21.742  1.00  0.00     0.164 HD
ATOM     14  O   UNL A   1      33.320  24.534  21.119  1.00  0.00    -0.269 OA
BRANCH  12  15
ATOM     15  C   UNL A   1      33.156  23.671  23.324  1.00  0.00     0.049 A 
ATOM     16  C   UNL A   1      31.949  23.105  23.727  1.00  0.00     0.014 A 
ATOM     17  C   UNL A   1      34.354  22.998  23.744  1.00  0.00     0.013 A 
ATOM     18  C   UNL A   1      31.855  22.000  24.561  1.00  0.00     0.003 A 
ATOM     19  C   UNL A   1      34.247  21.842  24.574  1.00  0.00     0.071 A 
ATOM     20  C   UNL A   1      35.683  23.338  23.391  1.00  0.00     0.013 A 
ATOM     21  C   UNL A   1      33.012  21.385  24.981  1.00  0.00     0.029 A 
ATOM     22  N   UNL A   1      35.285  21.103  24.985  1.00  0.00    -0.256 NA
ATOM     23  C   UNL A   1      36.766  22.560  23.799  1.00  0.00     0.021 A 
ATOM     24  C   UNL A   1      36.516  21.457  24.585  1.00  0.00     0.112 A 
ENDBRANCH  12  15
ENDBRANCH   7  11
ENDBRANCH   4   7
ENDBRANCH   2   3
ENDBRANCH   1   2
BRANCH   1  25
ATOM     25  C   UNL A   1      31.267  31.744  26.310  1.00  0.00     0.023 C 
BRANCH  25  26
ATOM     26  C   UNL A   1      32.531  32.286  26.950  1.00  0.00     0.116 C 
BRANCH  26  27
ATOM     27  N   UNL A   1      32.399  33.676  27.346  1.00  0.00    -0.352 N 
ATOM     28  C   UNL A   1      33.102  34.368  28.296  1.00  0.00     0.251 C 
ATOM     29  H   UNL A   1      31.710  34.191  26.866  1.00  0.00     0.163 HD
ATOM     30  O   UNL A   1      32.738  35.502  28.622  1.00  0.00    -0.269 OA
BRANCH  28  31
ATOM     31  C   UNL A   1      34.279  33.759  28.949  1.00  0.00     0.039 A 
ATOM     32  C   UNL A   1      34.081  32.730  29.874  1.00  0.00     0.014 A 
ATOM     33  C   UNL A   1      35.574  34.208  28.669  1.00  0.00     0.014 A 
ATOM     34  C   UNL A   1      35.181  32.127  30.488  1.00  0.00     0.010 A 
ATOM     35  C   UNL A   1      36.672  33.556  29.224  1.00  0.00     0.010 A 
ATOM     36  C   UNL A   1      36.486  32.521  30.153  1.00  0.00    -0.014 A 
BRANCH  36  37
ATOM     37  C   UNL A   1      37.669  31.893  30.792  1.00  0.00     0.031 A 
ATOM     38  C   UNL A   1      38.428  30.814  30.067  1.00  0.00     0.074 A 
ATOM     39  C   UNL A   1      38.025  32.248  32.042  1.00  0.00     0.049 A 
ATOM     40  N   UNL A   1      39.441  30.095  30.480  1.00  0.00    -0.248 NA
ATOM     41  C   UNL A   1      37.969  30.480  28.709  1.00  0.00     0.031 C 
ATOM     42  C   UNL A   1      37.343  33.248  32.865  1.00  0.00     0.029 A 
ATOM     43  N   UNL A   1      39.046  31.799  32.840  1.00  0.00    -0.354 N 
ATOM     44  C   UNL A   1      39.723  29.212  29.444  1.00  0.00     0.074 A 
ATOM     45  C   UNL A   1      38.746  29.452  28.404  1.00  0.00     0.031 C 
ATOM     46  C   UNL A   1      37.979  33.353  34.044  1.00  0.00     0.029 A 
ATOM     47  C   UNL A   1      39.089  32.405  34.073  1.00  0.00     0.049 A 
ATOM     48  H   UNL A   1      39.688  31.108  32.557  1.00  0.00     0.167 HD
ATOM     49  C   UNL A   1      40.721  28.301  29.356  1.00  0.00     0.037 A 
ATOM     50  C   UNL A   1      39.928  32.214  35.108  1.00  0.00     0.037 A 
ATOM     51  C   UNL A   1      41.714  28.092  30.376  1.00  0.00     0.049 A 
ATOM     52  C   UNL A   1      41.032  31.202  34.982  1.00  0.00     0.074 A 
ATOM     53  C   UNL A   1      42.807  27.242  30.353  1.00  0.00     0.029 A 
ATOM     54  N   UNL A   1      41.737  28.742  31.600  1.00  0.00    -0.354 N 
ATOM     55  N   UNL A   1      41.328  30.422  33.971  1.00  0.00    -0.248 NA
ATOM     56  C   UNL A   1      41.922  31.047  36.142  1.00  0.00     0.031 C 
ATOM     57  C   UNL A   1      43.469  27.351  31.581  1.00  0.00     0.029 A 
ATOM     58  C   UNL A   1      42.813  28.299  32.349  1.00  0.00     0.049 A 
ATOM     59  H   UNL A   1      41.084  29.418  31.893  1.00  0.00     0.167 HD
ATOM     60  C   UNL A   1      42.453  29.706  34.359  1.00  0.00     0.074 A 
ATOM     61  C   UNL A   1      42.794  30.154  35.694  1.00  0.00     0.031 C 
ATOM     62  C   UNL A   1      43.143  28.764  33.672  1.00  0.00     0.037 A 
BRANCH  49  63
ATOM     63  C   UNL A   1      40.789  27.465  28.111  1.00  0.00     0.057 A 
ATOM     64  C   UNL A   1      41.521  27.871  26.988  1.00  0.00     0.134 A 
ATOM     65  C   UNL A   1      40.144  26.223  28.047  1.00  0.00     0.134 A 
ATOM     66  F   UNL A   1      42.151  29.056  26.979  1.00  0.00    -0.206 F 
ATOM     67  C   UNL A   1      41.587  27.086  25.836  1.00  0.00     0.040 A 
ATOM     68  C   UNL A   1      40.225  25.417  26.911  1.00  0.00     0.040 A 
ATOM     69  F   UNL A   1      39.431  25.772  29.090  1.00  0.00    -0.206 F 
ATOM     70  C   UNL A   1      40.944  25.850  25.798  1.00  0.00     0.006 A 
ENDBRANCH  49  63
BRANCH  50  71
ATOM     71  C   UNL A   1      39.775  33.018  36.347  1.00  0.00     0.057 A 
ATOM     72  C   UNL A   1      40.526  34.182  36.547  1.00  0.00     0.134 A 
ATOM     73  C   UNL A   1      38.888  32.640  37.362  1.00  0.00     0.134 A 
ATOM     74  F   UNL A   1      41.406  34.585  35.618  1.00  0.00    -0.206 F 
ATOM     75  C   UNL A   1      40.415  34.931  37.718  1.00  0.00     0.040 A 
ATOM     76  C   UNL A   1      38.750  33.393  38.528  1.00  0.00     0.040 A 
ATOM     77  F   UNL A   1      38.136  31.538  37.228  1.00  0.00    -0.206 F 
ATOM     78  C   UNL A   1      39.521  34.539  38.713  1.00  0.00     0.006 A 
ENDBRANCH  50  71
BRANCH  62  79
ATOM     79  C   UNL A   1      44.354  28.180  34.336  1.00  0.00     0.057 A 
ATOM     80  C   UNL A   1      44.287  27.008  35.099  1.00  0.00     0.134 A 
ATOM     81  C   UNL A   1      45.611  28.779  34.177  1.00  0.00     0.134 A 
ATOM     82  F   UNL A   1      43.111  26.395  35.300  1.00  0.00    -0.206 F 
ATOM     83  C   UNL A   1      45.423  26.462  35.697  1.00  0.00     0.040 A 
ATOM     84  C   UNL A   1      46.759  28.229  34.749  1.00  0.00     0.040 A 
ATOM     85  F   UNL A   1      45.745  29.899  33.451  1.00  0.00    -0.206 F 
ATOM     86  C   UNL A   1      46.665  27.070  35.517  1.00  0.00     0.006 A 
ENDBRANCH  62  79
ENDBRANCH  36  37
ENDBRANCH  28  31
ENDBRANCH  26  27
ENDBRANCH  25  26
ENDBRANCH   1  25
TORSDOF 14
ENDMDL
MODEL 3
REMARK VINA RESULT:     -11.7      1.131      1.732
REMARK SMILES CC[C@](C)(NC(=O)c1cccc2ncccc12)C(=O)NCCCCNC(=O)c1ccc(-c2c3nc(c(-c4c(F)cccc4F)c4ccc([nH]4)c(-c4c(F)cccc4F)c4nc(c(-c5c(F)cccc5F)c5ccc2[nH]5)C=C4)C=C3)cc1
REMARK SMILES IDX 22 1 21 2 20 3 18 4 19 5 3 7 4 8 2 9 1 10 5 11 6 12 7 14
REMARK SMILES IDX 8 15 9 16 17 17 10 18 12 19 16 20 11 21 13 22 15 23 14 24
REMARK SMILES IDX 23 25 24 26 25 27 26 28 27 30 28 31 29 32 81 33 30 34 80 35
REMARK SMILES IDX 31 36 32 37 33 38 74 39 34 40 79 41 73 42 75 43 35 44 78 45
REMARK SMILES IDX 72 46 71 47 36 49 62 50 45 51 61 52 46 53 49 54 60 55 76 56
REMARK SMILES IDX 47 57 48 58 59 60 77 61 50 62 37 63 38 64 43 65 39 66 40 67
REMARK SMILES IDX 42 68 44 69 41 70 63 71 64 72 69 73 65 74 66 75 68 76 70 77
REMARK SMILES IDX 67 78 51 79 52 80 57 81 53 82 54 83 56 84 58 85 55 86
REMARK H PARENT 20 6 5 13 25 29 75 48 49 59
REMARK Flexibility Score: inf
ROOT
ATOM      1  C   UNL A   1      36.500  20.612  24.629  1.00  0.00     0.023 C 
ENDROOT
BRANCH   1   2
ATOM      2  C   UNL A   1      35.547  21.083  25.728  1.00  0.00     0.116 C 
BRANCH   2   3
ATOM      3  N   UNL A   1      34.175  20.600  25.691  1.00  0.00    -0.354 N 
ATOM      4  C   UNL A   1      32.964  21.212  25.507  1.00  0.00     0.245 C 
ATOM      5  O   UNL A   1      32.002  20.453  25.337  1.00  0.00    -0.272 OA
ATOM      6  H   UNL A   1      34.103  19.628  25.826  1.00  0.00     0.163 HD
BRANCH   4   7
ATOM      7  C   UNL A   1      32.789  22.756  25.444  1.00  0.00     0.116 C 
ATOM      8  C   UNL A   1      33.206  23.455  26.752  1.00  0.00     0.045 C 
BRANCH   7   9
ATOM      9  C   UNL A   1      31.247  22.991  25.262  1.00  0.00     0.035 C 
ATOM     10  C   UNL A   1      30.582  23.811  26.373  1.00  0.00     0.007 C 
ENDBRANCH   7   9
BRANCH   7  11
ATOM     11  N   UNL A   1      33.530  23.406  24.321  1.00  0.00    -0.338 N 
ATOM     12  C   UNL A   1      33.319  24.482  23.467  1.00  0.00     0.252 C 
ATOM     13  H   UNL A   1      34.387  22.956  24.139  1.00  0.00     0.164 HD
ATOM     14  O   UNL A   1      34.030  24.467  22.458  1.00  0.00    -0.269 OA
BRANCH  12  15
ATOM     15  C   UNL A   1      32.403  25.668  23.700  1.00  0.00     0.049 A 
ATOM     16  C   UNL A   1      31.156  25.707  23.082  1.00  0.00     0.014 A 
ATOM     17  C   UNL A   1      32.659  26.672  24.696  1.00  0.00     0.013 A 
ATOM     18  C   UNL A   1      30.207  26.692  23.318  1.00  0.00     0.003 A 
ATOM     19  C   UNL A   1      31.664  27.661  24.957  1.00  0.00     0.071 A 
ATOM     20  C   UNL A   1      33.814  26.782  25.509  1.00  0.00     0.013 A 
ATOM     21  C   UNL A   1      30.479  27.666  24.252  1.00  0.00     0.029 A 
ATOM     22  N   UNL A   1      31.765  28.613  25.893  1.00  0.00    -0.256 NA
ATOM     23  C   UNL A   1      33.915  27.757  26.501  1.00  0.00     0.021 A 
ATOM     24  C   UNL A   1      32.870  28.639  26.656  1.00  0.00     0.112 A 
ENDBRANCH  12  15
ENDBRANCH   7  11
ENDBRANCH   4   7
ENDBRANCH   2   3
ENDBRANCH   1   2
BRANCH   1  25
ATOM     25  C   UNL A   1      37.611  19.631  25.001  1.00  0.00     0.023 C 
BRANCH  25  26
ATOM     26  C   UNL A   1      38.845  20.232  25.646  1.00  0.00     0.116 C 
BRANCH  26  27
ATOM     27  N   UNL A   1      39.928  19.273  25.767  1.00  0.00    -0.352 N 
ATOM     28  C   UNL A   1      41.235  19.494  26.114  1.00  0.00     0.251 C 
ATOM     29  H   UNL A   1      39.691  18.337  25.574  1.00  0.00     0.163 HD
ATOM     30  O   UNL A   1      42.061  18.584  25.998  1.00  0.00    -0.269 OA
BRANCH  28  31
ATOM     31  C   UNL A   1      41.666  20.819  26.605  1.00  0.00     0.039 A 
ATOM     32  C   UNL A   1      42.127  21.764  25.682  1.00  0.00     0.014 A 
ATOM     33  C   UNL A   1      41.637  21.130  27.968  1.00  0.00     0.014 A 
ATOM     34  C   UNL A   1      42.521  23.029  26.122  1.00  0.00     0.010 A 
ATOM     35  C   UNL A   1      41.957  22.415  28.396  1.00  0.00     0.010 A 
ATOM     36  C   UNL A   1      42.420  23.372  27.480  1.00  0.00    -0.014 A 
BRANCH  36  37
ATOM     37  C   UNL A   1      42.832  24.712  27.968  1.00  0.00     0.031 A 
ATOM     38  C   UNL A   1      41.790  25.765  28.236  1.00  0.00     0.074 A 
ATOM     39  C   UNL A   1      44.139  25.000  28.116  1.00  0.00     0.049 A 
ATOM     40  N   UNL A   1      41.949  27.013  28.598  1.00  0.00    -0.248 NA
ATOM     41  C   UNL A   1      40.385  25.370  28.044  1.00  0.00     0.031 C 
ATOM     42  C   UNL A   1      45.246  24.081  27.846  1.00  0.00     0.029 A 
ATOM     43  N   UNL A   1      44.757  26.156  28.521  1.00  0.00    -0.354 N 
ATOM     44  C   UNL A   1      40.670  27.554  28.654  1.00  0.00     0.074 A 
ATOM     45  C   UNL A   1      39.751  26.515  28.243  1.00  0.00     0.031 C 
ATOM     46  C   UNL A   1      46.407  24.700  28.115  1.00  0.00     0.029 A 
ATOM     47  C   UNL A   1      46.129  26.068  28.542  1.00  0.00     0.049 A 
ATOM     48  H   UNL A   1      44.266  26.971  28.773  1.00  0.00     0.167 HD
ATOM     49  C   UNL A   1      40.293  28.797  29.037  1.00  0.00     0.037 A 
ATOM     50  C   UNL A   1      47.055  26.990  28.865  1.00  0.00     0.037 A 
ATOM     51  C   UNL A   1      41.207  29.816  29.483  1.00  0.00     0.049 A 
ATOM     52  C   UNL A   1      46.610  28.360  29.294  1.00  0.00     0.074 A 
ATOM     53  C   UNL A   1      40.918  31.084  29.958  1.00  0.00     0.029 A 
ATOM     54  N   UNL A   1      42.586  29.681  29.512  1.00  0.00    -0.354 N 
ATOM     55  N   UNL A   1      45.394  28.837  29.407  1.00  0.00    -0.248 NA
ATOM     56  C   UNL A   1      47.668  29.319  29.646  1.00  0.00     0.031 C 
ATOM     57  C   UNL A   1      42.127  31.730  30.238  1.00  0.00     0.029 A 
ATOM     58  C   UNL A   1      43.164  30.848  29.977  1.00  0.00     0.049 A 
ATOM     59  H   UNL A   1      43.080  28.873  29.240  1.00  0.00     0.167 HD
ATOM     60  C   UNL A   1      45.538  30.139  29.869  1.00  0.00     0.074 A 
ATOM     61  C   UNL A   1      46.959  30.372  30.029  1.00  0.00     0.031 C 
ATOM     62  C   UNL A   1      44.580  31.058  30.139  1.00  0.00     0.037 A 
BRANCH  49  63
ATOM     63  C   UNL A   1      38.828  29.122  28.995  1.00  0.00     0.057 A 
ATOM     64  C   UNL A   1      38.015  29.017  30.131  1.00  0.00     0.134 A 
ATOM     65  C   UNL A   1      38.230  29.576  27.813  1.00  0.00     0.134 A 
ATOM     66  F   UNL A   1      38.524  28.576  31.292  1.00  0.00    -0.206 F 
ATOM     67  C   UNL A   1      36.656  29.328  30.088  1.00  0.00     0.040 A 
ATOM     68  C   UNL A   1      36.877  29.915  27.763  1.00  0.00     0.040 A 
ATOM     69  F   UNL A   1      38.952  29.703  26.690  1.00  0.00    -0.206 F 
ATOM     70  C   UNL A   1      36.084  29.786  28.902  1.00  0.00     0.006 A 
ENDBRANCH  49  63
BRANCH  50  71
ATOM     71  C   UNL A   1      48.498  26.641  28.823  1.00  0.00     0.057 A 
ATOM     72  C   UNL A   1      49.270  26.908  27.686  1.00  0.00     0.134 A 
ATOM     73  C   UNL A   1      49.137  26.028  29.907  1.00  0.00     0.134 A 
ATOM     74  F   UNL A   1      48.709  27.477  26.608  1.00  0.00    -0.206 F 
ATOM     75  C   UNL A   1      50.619  26.560  27.620  1.00  0.00     0.040 A 
ATOM     76  C   UNL A   1      50.491  25.696  29.864  1.00  0.00     0.040 A 
ATOM     77  F   UNL A   1      48.453  25.751  31.027  1.00  0.00    -0.206 F 
ATOM     78  C   UNL A   1      51.236  25.955  28.715  1.00  0.00     0.006 A 
ENDBRANCH  50  71
BRANCH  62  79
ATOM     79  C   UNL A   1      45.034  32.387  30.668  1.00  0.00     0.057 A 
ATOM     80  C   UNL A   1      45.216  32.615  32.037  1.00  0.00     0.134 A 
ATOM     81  C   UNL A   1      45.329  33.438  29.790  1.00  0.00     0.134 A 
ATOM     82  F   UNL A   1      44.938  31.653  32.929  1.00  0.00    -0.206 F 
ATOM     83  C   UNL A   1      45.657  33.849  32.517  1.00  0.00     0.040 A 
ATOM     84  C   UNL A   1      45.794  34.668  30.255  1.00  0.00     0.040 A 
ATOM     85  F   UNL A   1      45.184  33.282  28.465  1.00  0.00    -0.206 F 
ATOM     86  C   UNL A   1      45.954  34.878  31.624  1.00  0.00     0.006 A 
ENDBRANCH  62  79
ENDBRANCH  36  37
ENDBRANCH  28  31
ENDBRANCH  26  27
ENDBRANCH  25  26
ENDBRANCH   1  25
TORSDOF 14
ENDMDL
