MODEL 1
REMARK VINA RESULT:     -12.9      0.000      0.000
REMARK SMILES O=C(NCCCCNC(=O)[C@H]1[C@@H]2CC[C@@H](C2)[C@@H]1C(=O)Nc1ccc([N+](=O)[O-])cc1)c1ccc(-c2c3nc(c(-c4c(F)cccc4F)c4ccc([nH]4)c(-c4c(F)cccc4F)c4nc(c(-c5c(F)cccc5F)c5ccc2[nH]5)C=C4)C=C3)cc1
REMARK SMILES IDX 6 1 5 2 4 3 3 4 1 5 2 6 30 8 31 9 83 10 32 11 82 12 33 13
REMARK SMILES IDX 34 14 35 15 76 16 36 17 81 18 75 19 77 20 37 21 80 22 74 23
REMARK SMILES IDX 73 24 38 26 64 27 47 28 63 29 48 30 51 31 62 32 78 33 49 34
REMARK SMILES IDX 50 35 61 37 79 38 52 39 39 40 40 41 45 42 41 43 42 44 44 45
REMARK SMILES IDX 46 46 43 47 65 48 66 49 71 50 67 51 68 52 70 53 72 54 69 55
REMARK SMILES IDX 53 56 54 57 59 58 55 59 56 60 58 61 60 62 57 63 7 64 8 65
REMARK SMILES IDX 9 66 10 68 11 69 12 70 17 71 13 72 16 73 15 74 14 75 18 76
REMARK SMILES IDX 19 77 20 78 21 80 22 81 29 82 23 83 28 84 24 85 25 86 26 87
REMARK SMILES IDX 27 88
REMARK H PARENT 3 7 77 25 51 36 8 67 20 79
REMARK Flexibility Score: inf
ROOT
ATOM      1  C   UNL A   1      31.438  27.423  25.802  1.00  0.00     0.023 C 
ENDROOT
BRANCH   1   2
ATOM      2  C   UNL A   1      32.413  27.802  24.689  1.00  0.00     0.023 C 
BRANCH   2   3
ATOM      3  C   UNL A   1      33.323  28.971  25.025  1.00  0.00     0.116 C 
BRANCH   3   4
ATOM      4  N   UNL A   1      32.592  30.120  25.537  1.00  0.00    -0.352 N 
ATOM      5  O   UNL A   1      32.041  31.735  27.012  1.00  0.00    -0.269 OA
ATOM      6  C   UNL A   1      32.860  30.902  26.636  1.00  0.00     0.251 C 
ATOM      7  H   UNL A   1      31.790  30.374  25.024  1.00  0.00     0.163 HD
BRANCH   6   8
ATOM      8  C   UNL A   1      34.130  30.725  27.376  1.00  0.00     0.039 A 
ATOM      9  C   UNL A   1      34.520  29.460  27.817  1.00  0.00     0.014 A 
ATOM     10  C   UNL A   1      34.945  31.834  27.626  1.00  0.00     0.014 A 
ATOM     11  C   UNL A   1      35.631  29.329  28.637  1.00  0.00     0.010 A 
ATOM     12  C   UNL A   1      36.128  31.681  28.358  1.00  0.00     0.010 A 
ATOM     13  C   UNL A   1      36.468  30.429  28.890  1.00  0.00    -0.014 A 
BRANCH  13  14
ATOM     14  C   UNL A   1      37.732  30.189  29.630  1.00  0.00     0.031 A 
ATOM     15  C   UNL A   1      37.926  30.663  31.041  1.00  0.00     0.074 A 
ATOM     16  C   UNL A   1      38.687  29.456  29.022  1.00  0.00     0.049 A 
ATOM     17  N   UNL A   1      38.942  30.459  31.841  1.00  0.00    -0.248 NA
ATOM     18  C   UNL A   1      36.854  31.478  31.632  1.00  0.00     0.031 C 
ATOM     19  C   UNL A   1      38.615  28.967  27.640  1.00  0.00     0.029 A 
ATOM     20  N   UNL A   1      39.873  28.955  29.488  1.00  0.00    -0.354 N 
ATOM     21  C   UNL A   1      38.642  31.127  33.021  1.00  0.00     0.074 A 
ATOM     22  C   UNL A   1      37.357  31.767  32.825  1.00  0.00     0.031 C 
ATOM     23  C   UNL A   1      39.666  28.172  27.400  1.00  0.00     0.029 A 
ATOM     24  C   UNL A   1      40.520  28.153  28.580  1.00  0.00     0.049 A 
ATOM     25  H   UNL A   1      40.226  29.151  30.385  1.00  0.00     0.167 HD
ATOM     26  C   UNL A   1      39.368  31.191  34.162  1.00  0.00     0.037 A 
ATOM     27  C   UNL A   1      41.680  27.478  28.679  1.00  0.00     0.037 A 
ATOM     28  C   UNL A   1      40.640  30.538  34.354  1.00  0.00     0.049 A 
ATOM     29  C   UNL A   1      42.450  27.554  29.962  1.00  0.00     0.074 A 
ATOM     30  C   UNL A   1      41.454  30.543  35.474  1.00  0.00     0.029 A 
ATOM     31  N   UNL A   1      41.277  29.754  33.403  1.00  0.00    -0.354 N 
ATOM     32  N   UNL A   1      42.148  28.190  31.067  1.00  0.00    -0.248 NA
ATOM     33  C   UNL A   1      43.723  26.825  30.010  1.00  0.00     0.031 C 
ATOM     34  C   UNL A   1      42.597  29.787  35.190  1.00  0.00     0.029 A 
ATOM     35  C   UNL A   1      42.476  29.279  33.908  1.00  0.00     0.049 A 
ATOM     36  H   UNL A   1      40.927  29.564  32.502  1.00  0.00     0.167 HD
ATOM     37  C   UNL A   1      43.196  27.945  31.942  1.00  0.00     0.074 A 
ATOM     38  C   UNL A   1      44.120  27.067  31.251  1.00  0.00     0.031 C 
ATOM     39  C   UNL A   1      43.387  28.417  33.198  1.00  0.00     0.037 A 
BRANCH  26  40
ATOM     40  C   UNL A   1      38.814  32.002  35.298  1.00  0.00     0.057 A 
ATOM     41  C   UNL A   1      38.157  31.403  36.379  1.00  0.00     0.134 A 
ATOM     42  C   UNL A   1      38.992  33.392  35.340  1.00  0.00     0.134 A 
ATOM     43  F   UNL A   1      37.946  30.078  36.397  1.00  0.00    -0.206 F 
ATOM     44  C   UNL A   1      37.684  32.158  37.455  1.00  0.00     0.040 A 
ATOM     45  C   UNL A   1      38.545  34.154  36.421  1.00  0.00     0.040 A 
ATOM     46  F   UNL A   1      39.620  34.029  34.339  1.00  0.00    -0.206 F 
ATOM     47  C   UNL A   1      37.885  33.536  37.482  1.00  0.00     0.006 A 
ENDBRANCH  26  40
BRANCH  27  48
ATOM     48  C   UNL A   1      42.178  26.692  27.524  1.00  0.00     0.057 A 
ATOM     49  C   UNL A   1      42.950  27.283  26.519  1.00  0.00     0.134 A 
ATOM     50  C   UNL A   1      41.905  25.324  27.407  1.00  0.00     0.134 A 
ATOM     51  F   UNL A   1      43.233  28.594  26.566  1.00  0.00    -0.206 F 
ATOM     52  C   UNL A   1      43.420  26.546  25.430  1.00  0.00     0.040 A 
ATOM     53  C   UNL A   1      42.393  24.568  26.342  1.00  0.00     0.040 A 
ATOM     54  F   UNL A   1      41.180  24.696  28.345  1.00  0.00    -0.206 F 
ATOM     55  C   UNL A   1      43.147  25.182  25.344  1.00  0.00     0.006 A 
ENDBRANCH  27  48
BRANCH  39  56
ATOM     56  C   UNL A   1      44.643  27.986  33.889  1.00  0.00     0.057 A 
ATOM     57  C   UNL A   1      45.817  28.750  33.819  1.00  0.00     0.134 A 
ATOM     58  C   UNL A   1      44.686  26.797  34.625  1.00  0.00     0.134 A 
ATOM     59  F   UNL A   1      45.844  29.891  33.114  1.00  0.00    -0.206 F 
ATOM     60  C   UNL A   1      46.996  28.327  34.431  1.00  0.00     0.040 A 
ATOM     61  C   UNL A   1      45.853  26.376  35.262  1.00  0.00     0.040 A 
ATOM     62  F   UNL A   1      43.594  26.024  34.734  1.00  0.00    -0.206 F 
ATOM     63  C   UNL A   1      47.016  27.138  35.158  1.00  0.00     0.006 A 
ENDBRANCH  39  56
ENDBRANCH  13  14
ENDBRANCH   6   8
ENDBRANCH   3   4
ENDBRANCH   2   3
ENDBRANCH   1   2
BRANCH   1  64
ATOM     64  C   UNL A   1      30.482  26.278  25.469  1.00  0.00     0.116 C 
BRANCH  64  65
ATOM     65  N   UNL A   1      30.560  25.167  26.409  1.00  0.00    -0.356 N 
ATOM     66  C   UNL A   1      31.466  24.156  26.528  1.00  0.00     0.224 C 
ATOM     67  H   UNL A   1      29.831  25.142  27.070  1.00  0.00     0.163 HD
ATOM     68  O   UNL A   1      31.331  23.369  27.466  1.00  0.00    -0.275 OA
BRANCH  66  69
ATOM     69  C   UNL A   1      32.546  23.979  25.483  1.00  0.00     0.094 C 
ATOM     70  C   UNL A   1      33.941  24.445  26.009  1.00  0.00     0.002 C 
ATOM     71  C   UNL A   1      32.805  22.494  25.154  1.00  0.00     0.094 C 
ATOM     72  C   UNL A   1      34.781  24.825  24.784  1.00  0.00     0.005 C 
ATOM     73  C   UNL A   1      34.646  23.148  26.428  1.00  0.00     0.009 C 
ATOM     74  C   UNL A   1      34.355  22.454  25.094  1.00  0.00     0.002 C 
ATOM     75  C   UNL A   1      34.979  23.464  24.099  1.00  0.00     0.005 C 
BRANCH  71  76
ATOM     76  C   UNL A   1      32.095  21.997  23.916  1.00  0.00     0.228 C 
ATOM     77  O   UNL A   1      31.408  22.758  23.226  1.00  0.00    -0.274 OA
ATOM     78  N   UNL A   1      32.164  20.702  23.491  1.00  0.00    -0.326 N 
ATOM     79  H   UNL A   1      31.833  20.604  22.568  1.00  0.00     0.169 HD
BRANCH  78  80
ATOM     80  C   UNL A   1      32.584  19.465  24.027  1.00  0.00     0.041 A 
ATOM     81  C   UNL A   1      32.927  18.478  23.084  1.00  0.00     0.033 A 
ATOM     82  C   UNL A   1      32.583  19.103  25.373  1.00  0.00     0.033 A 
ATOM     83  C   UNL A   1      33.209  17.161  23.470  1.00  0.00     0.088 A 
ATOM     84  C   UNL A   1      32.860  17.789  25.777  1.00  0.00     0.088 A 
ATOM     85  C   UNL A   1      33.152  16.818  24.821  1.00  0.00     0.269 A 
BRANCH  85  86
ATOM     86  N   UNL A   1      33.345  15.427  25.236  1.00  0.00     0.062 N 
ATOM     87  O   UNL A   1      32.333  14.744  25.446  1.00  0.00    -0.258 OA
ATOM     88  O   UNL A   1      34.510  15.028  25.375  1.00  0.00    -0.258 OA
ENDBRANCH  85  86
ENDBRANCH  78  80
ENDBRANCH  71  76
ENDBRANCH  66  69
ENDBRANCH  64  65
ENDBRANCH   1  64
TORSDOF 14
ENDMDL
MODEL 2
REMARK VINA RESULT:     -12.9      3.304      6.796
REMARK SMILES O=C(NCCCCNC(=O)[C@H]1[C@@H]2CC[C@@H](C2)[C@@H]1C(=O)Nc1ccc([N+](=O)[O-])cc1)c1ccc(-c2c3nc(c(-c4c(F)cccc4F)c4ccc([nH]4)c(-c4c(F)cccc4F)c4nc(c(-c5c(F)cccc5F)c5ccc2[nH]5)C=C4)C=C3)cc1
REMARK SMILES IDX 6 1 5 2 4 3 3 4 1 5 2 6 30 8 31 9 83 10 32 11 82 12 33 13
REMARK SMILES IDX 34 14 35 15 76 16 36 17 81 18 75 19 77 20 37 21 80 22 74 23
REMARK SMILES IDX 73 24 38 26 64 27 47 28 63 29 48 30 51 31 62 32 78 33 49 34
REMARK SMILES IDX 50 35 61 37 79 38 52 39 39 40 40 41 45 42 41 43 42 44 44 45
REMARK SMILES IDX 46 46 43 47 65 48 66 49 71 50 67 51 68 52 70 53 72 54 69 55
REMARK SMILES IDX 53 56 54 57 59 58 55 59 56 60 58 61 60 62 57 63 7 64 8 65
REMARK SMILES IDX 9 66 10 68 11 69 12 70 17 71 13 72 16 73 15 74 14 75 18 76
REMARK SMILES IDX 19 77 20 78 21 80 22 81 29 82 23 83 28 84 24 85 25 86 26 87
REMARK SMILES IDX 27 88
REMARK H PARENT 3 7 77 25 51 36 8 67 20 79
REMARK Flexibility Score: inf
ROOT
ATOM      1  C   UNL A   1      31.892  27.022  26.745  1.00  0.00     0.023 C 
ENDROOT
BRANCH   1   2
ATOM      2  C   UNL A   1      32.971  27.675  25.884  1.00  0.00     0.023 C 
BRANCH   2   3
ATOM      3  C   UNL A   1      34.155  28.217  26.668  1.00  0.00     0.116 C 
BRANCH   3   4
ATOM      4  N   UNL A   1      33.922  29.560  27.173  1.00  0.00    -0.352 N 
ATOM      5  O   UNL A   1      34.317  31.405  28.410  1.00  0.00    -0.269 OA
ATOM      6  C   UNL A   1      34.745  30.357  27.936  1.00  0.00     0.251 C 
ATOM      7  H   UNL A   1      33.051  29.956  26.938  1.00  0.00     0.163 HD
BRANCH   6   8
ATOM      8  C   UNL A   1      36.140  29.938  28.200  1.00  0.00     0.039 A 
ATOM      9  C   UNL A   1      37.127  30.122  27.232  1.00  0.00     0.014 A 
ATOM     10  C   UNL A   1      36.467  29.364  29.433  1.00  0.00     0.014 A 
ATOM     11  C   UNL A   1      38.393  29.592  27.431  1.00  0.00     0.010 A 
ATOM     12  C   UNL A   1      37.776  28.932  29.676  1.00  0.00     0.010 A 
ATOM     13  C   UNL A   1      38.744  29.021  28.667  1.00  0.00    -0.014 A 
BRANCH  13  14
ATOM     14  C   UNL A   1      40.160  28.628  28.877  1.00  0.00     0.031 A 
ATOM     15  C   UNL A   1      40.686  27.292  28.439  1.00  0.00     0.074 A 
ATOM     16  C   UNL A   1      40.994  29.545  29.410  1.00  0.00     0.049 A 
ATOM     17  N   UNL A   1      41.914  26.840  28.483  1.00  0.00    -0.248 NA
ATOM     18  C   UNL A   1      39.715  26.334  27.889  1.00  0.00     0.031 C 
ATOM     19  C   UNL A   1      40.585  30.867  29.898  1.00  0.00     0.029 A 
ATOM     20  N   UNL A   1      42.352  29.533  29.589  1.00  0.00    -0.354 N 
ATOM     21  C   UNL A   1      41.865  25.546  27.983  1.00  0.00     0.074 A 
ATOM     22  C   UNL A   1      40.478  25.272  27.664  1.00  0.00     0.031 C 
ATOM     23  C   UNL A   1      41.674  31.565  30.243  1.00  0.00     0.029 A 
ATOM     24  C   UNL A   1      42.848  30.721  30.070  1.00  0.00     0.049 A 
ATOM     25  H   UNL A   1      42.915  28.751  29.393  1.00  0.00     0.167 HD
ATOM     26  C   UNL A   1      42.884  24.673  27.801  1.00  0.00     0.037 A 
ATOM     27  C   UNL A   1      44.110  31.091  30.351  1.00  0.00     0.037 A 
ATOM     28  C   UNL A   1      44.264  24.959  28.108  1.00  0.00     0.049 A 
ATOM     29  C   UNL A   1      45.219  30.108  30.119  1.00  0.00     0.074 A 
ATOM     30  C   UNL A   1      45.371  24.141  27.959  1.00  0.00     0.029 A 
ATOM     31  N   UNL A   1      44.726  26.164  28.618  1.00  0.00    -0.354 N 
ATOM     32  N   UNL A   1      45.151  28.889  29.644  1.00  0.00    -0.248 NA
ATOM     33  C   UNL A   1      46.573  30.549  30.469  1.00  0.00     0.031 C 
ATOM     34  C   UNL A   1      46.497  24.839  28.407  1.00  0.00     0.029 A 
ATOM     35  C   UNL A   1      46.099  26.106  28.797  1.00  0.00     0.049 A 
ATOM     36  H   UNL A   1      44.162  26.944  28.822  1.00  0.00     0.167 HD
ATOM     37  C   UNL A   1      46.453  28.412  29.644  1.00  0.00     0.074 A 
ATOM     38  C   UNL A   1      47.293  29.491  30.126  1.00  0.00     0.031 C 
ATOM     39  C   UNL A   1      46.913  27.188  29.291  1.00  0.00     0.037 A 
BRANCH  26  40
ATOM     40  C   UNL A   1      42.551  23.316  27.250  1.00  0.00     0.057 A 
ATOM     41  C   UNL A   1      42.638  23.036  25.881  1.00  0.00     0.134 A 
ATOM     42  C   UNL A   1      42.198  22.263  28.104  1.00  0.00     0.134 A 
ATOM     43  F   UNL A   1      42.962  24.001  25.009  1.00  0.00    -0.206 F 
ATOM     44  C   UNL A   1      42.372  21.759  25.379  1.00  0.00     0.040 A 
ATOM     45  C   UNL A   1      41.952  20.978  27.617  1.00  0.00     0.040 A 
ATOM     46  F   UNL A   1      42.104  22.461  29.428  1.00  0.00    -0.206 F 
ATOM     47  C   UNL A   1      42.036  20.724  26.250  1.00  0.00     0.006 A 
ENDBRANCH  26  40
BRANCH  27  48
ATOM     48  C   UNL A   1      44.380  32.445  30.893  1.00  0.00     0.057 A 
ATOM     49  C   UNL A   1      44.590  33.540  30.048  1.00  0.00     0.134 A 
ATOM     50  C   UNL A   1      44.418  32.679  32.273  1.00  0.00     0.134 A 
ATOM     51  F   UNL A   1      44.580  33.377  28.716  1.00  0.00    -0.206 F 
ATOM     52  C   UNL A   1      44.844  34.815  30.555  1.00  0.00     0.040 A 
ATOM     53  C   UNL A   1      44.640  33.953  32.794  1.00  0.00     0.040 A 
ATOM     54  F   UNL A   1      44.212  31.672  33.135  1.00  0.00    -0.206 F 
ATOM     55  C   UNL A   1      44.862  35.025  31.933  1.00  0.00     0.006 A 
ENDBRANCH  27  48
BRANCH  39  56
ATOM     56  C   UNL A   1      48.388  26.965  29.421  1.00  0.00     0.057 A 
ATOM     57  C   UNL A   1      48.945  26.406  30.580  1.00  0.00     0.134 A 
ATOM     58  C   UNL A   1      49.261  27.317  28.386  1.00  0.00     0.134 A 
ATOM     59  F   UNL A   1      48.162  26.065  31.615  1.00  0.00    -0.206 F 
ATOM     60  C   UNL A   1      50.323  26.236  30.715  1.00  0.00     0.040 A 
ATOM     61  C   UNL A   1      50.638  27.128  28.499  1.00  0.00     0.040 A 
ATOM     62  F   UNL A   1      48.789  27.852  27.249  1.00  0.00    -0.206 F 
ATOM     63  C   UNL A   1      51.174  26.595  29.671  1.00  0.00     0.006 A 
ENDBRANCH  39  56
ENDBRANCH  13  14
ENDBRANCH   6   8
ENDBRANCH   3   4
ENDBRANCH   2   3
ENDBRANCH   1   2
BRANCH   1  64
ATOM     64  C   UNL A   1      31.155  25.853  26.092  1.00  0.00     0.116 C 
BRANCH  64  65
ATOM     65  N   UNL A   1      31.215  24.624  26.871  1.00  0.00    -0.356 N 
ATOM     66  C   UNL A   1      32.034  23.539  26.773  1.00  0.00     0.224 C 
ATOM     67  H   UNL A   1      30.546  24.566  27.592  1.00  0.00     0.163 HD
ATOM     68  O   UNL A   1      31.911  22.645  27.613  1.00  0.00    -0.275 OA
BRANCH  66  69
ATOM     69  C   UNL A   1      32.999  23.420  25.614  1.00  0.00     0.094 C 
ATOM     70  C   UNL A   1      34.467  23.725  26.050  1.00  0.00     0.002 C 
ATOM     71  C   UNL A   1      33.113  21.973  25.090  1.00  0.00     0.094 C 
ATOM     72  C   UNL A   1      35.222  24.197  24.802  1.00  0.00     0.005 C 
ATOM     73  C   UNL A   1      35.105  22.342  26.244  1.00  0.00     0.009 C 
ATOM     74  C   UNL A   1      34.643  21.839  24.874  1.00  0.00     0.002 C 
ATOM     75  C   UNL A   1      35.252  22.921  23.947  1.00  0.00     0.005 C 
BRANCH  71  76
ATOM     76  C   UNL A   1      32.258  21.681  23.878  1.00  0.00     0.228 C 
ATOM     77  O   UNL A   1      31.586  22.568  23.343  1.00  0.00    -0.274 OA
ATOM     78  N   UNL A   1      32.176  20.442  23.310  1.00  0.00    -0.326 N 
ATOM     79  H   UNL A   1      31.760  20.479  22.418  1.00  0.00     0.169 HD
BRANCH  78  80
ATOM     80  C   UNL A   1      32.528  19.123  23.667  1.00  0.00     0.041 A 
ATOM     81  C   UNL A   1      32.450  18.822  25.040  1.00  0.00     0.033 A 
ATOM     82  C   UNL A   1      33.043  18.144  22.818  1.00  0.00     0.033 A 
ATOM     83  C   UNL A   1      32.918  17.605  25.553  1.00  0.00     0.088 A 
ATOM     84  C   UNL A   1      33.518  16.921  23.314  1.00  0.00     0.088 A 
ATOM     85  C   UNL A   1      33.472  16.666  24.683  1.00  0.00     0.269 A 
BRANCH  85  86
ATOM     86  N   UNL A   1      34.057  15.431  25.210  1.00  0.00     0.062 N 
ATOM     87  O   UNL A   1      33.287  14.498  25.476  1.00  0.00    -0.258 OA
ATOM     88  O   UNL A   1      35.284  15.407  25.380  1.00  0.00    -0.258 OA
ENDBRANCH  85  86
ENDBRANCH  78  80
ENDBRANCH  71  76
ENDBRANCH  66  69
ENDBRANCH  64  65
ENDBRANCH   1  64
TORSDOF 14
ENDMDL
MODEL 3
REMARK VINA RESULT:     -12.8      2.842      3.806
REMARK SMILES O=C(NCCCCNC(=O)[C@H]1[C@@H]2CC[C@@H](C2)[C@@H]1C(=O)Nc1ccc([N+](=O)[O-])cc1)c1ccc(-c2c3nc(c(-c4c(F)cccc4F)c4ccc([nH]4)c(-c4c(F)cccc4F)c4nc(c(-c5c(F)cccc5F)c5ccc2[nH]5)C=C4)C=C3)cc1
REMARK SMILES IDX 6 1 5 2 4 3 3 4 1 5 2 6 30 8 31 9 83 10 32 11 82 12 33 13
REMARK SMILES IDX 34 14 35 15 76 16 36 17 81 18 75 19 77 20 37 21 80 22 74 23
REMARK SMILES IDX 73 24 38 26 64 27 47 28 63 29 48 30 51 31 62 32 78 33 49 34
REMARK SMILES IDX 50 35 61 37 79 38 52 39 39 40 40 41 45 42 41 43 42 44 44 45
REMARK SMILES IDX 46 46 43 47 65 48 66 49 71 50 67 51 68 52 70 53 72 54 69 55
REMARK SMILES IDX 53 56 54 57 59 58 55 59 56 60 58 61 60 62 57 63 7 64 8 65
REMARK SMILES IDX 9 66 10 68 11 69 12 70 17 71 13 72 16 73 15 74 14 75 18 76
REMARK SMILES IDX 19 77 20 78 21 80 22 81 29 82 23 83 28 84 24 85 25 86 26 87
REMARK SMILES IDX 27 88
REMARK H PARENT 3 7 77 25 51 36 8 67 20 79
REMARK Flexibility Score: inf
ROOT
ATOM      1  C   UNL A   1      31.952  26.980  26.716  1.00  0.00     0.023 C 
ENDROOT
BRANCH   1   2
ATOM      2  C   UNL A   1      33.039  27.607  25.846  1.00  0.00     0.023 C 
BRANCH   2   3
ATOM      3  C   UNL A   1      34.192  28.217  26.627  1.00  0.00     0.116 C 
BRANCH   3   4
ATOM      4  N   UNL A   1      33.872  29.533  27.158  1.00  0.00    -0.352 N 
ATOM      5  O   UNL A   1      34.142  31.372  28.436  1.00  0.00    -0.269 OA
ATOM      6  C   UNL A   1      34.637  30.361  27.945  1.00  0.00     0.251 C 
ATOM      7  H   UNL A   1      32.981  29.879  26.922  1.00  0.00     0.163 HD
BRANCH   6   8
ATOM      8  C   UNL A   1      36.053  30.024  28.215  1.00  0.00     0.039 A 
ATOM      9  C   UNL A   1      37.032  30.261  27.250  1.00  0.00     0.014 A 
ATOM     10  C   UNL A   1      36.408  29.472  29.450  1.00  0.00     0.014 A 
ATOM     11  C   UNL A   1      38.325  29.805  27.454  1.00  0.00     0.010 A 
ATOM     12  C   UNL A   1      37.739  29.115  29.698  1.00  0.00     0.010 A 
ATOM     13  C   UNL A   1      38.704  29.257  28.692  1.00  0.00    -0.014 A 
BRANCH  13  14
ATOM     14  C   UNL A   1      40.139  28.946  28.908  1.00  0.00     0.031 A 
ATOM     15  C   UNL A   1      41.039  29.858  29.690  1.00  0.00     0.074 A 
ATOM     16  C   UNL A   1      40.603  27.768  28.444  1.00  0.00     0.049 A 
ATOM     17  N   UNL A   1      42.291  29.681  30.029  1.00  0.00    -0.248 NA
ATOM     18  C   UNL A   1      40.472  31.137  30.144  1.00  0.00     0.031 C 
ATOM     19  C   UNL A   1      39.823  26.815  27.646  1.00  0.00     0.029 A 
ATOM     20  N   UNL A   1      41.813  27.146  28.609  1.00  0.00    -0.354 N 
ATOM     21  C   UNL A   1      42.667  30.824  30.721  1.00  0.00     0.074 A 
ATOM     22  C   UNL A   1      41.517  31.704  30.733  1.00  0.00     0.031 C 
ATOM     23  C   UNL A   1      40.543  25.701  27.463  1.00  0.00     0.029 A 
ATOM     24  C   UNL A   1      41.857  25.886  28.064  1.00  0.00     0.049 A 
ATOM     25  H   UNL A   1      42.575  27.562  29.073  1.00  0.00     0.167 HD
ATOM     26  C   UNL A   1      43.859  31.107  31.299  1.00  0.00     0.037 A 
ATOM     27  C   UNL A   1      42.848  24.977  28.042  1.00  0.00     0.037 A 
ATOM     28  C   UNL A   1      44.995  30.217  31.295  1.00  0.00     0.049 A 
ATOM     29  C   UNL A   1      44.149  25.312  28.707  1.00  0.00     0.074 A 
ATOM     30  C   UNL A   1      46.248  30.412  31.853  1.00  0.00     0.029 A 
ATOM     31  N   UNL A   1      45.011  28.959  30.711  1.00  0.00    -0.354 N 
ATOM     32  N   UNL A   1      44.484  26.399  29.358  1.00  0.00    -0.248 NA
ATOM     33  C   UNL A   1      45.209  24.301  28.630  1.00  0.00     0.031 C 
ATOM     34  C   UNL A   1      47.030  29.285  31.580  1.00  0.00     0.029 A 
ATOM     35  C   UNL A   1      46.254  28.371  30.888  1.00  0.00     0.049 A 
ATOM     36  H   UNL A   1      44.252  28.545  30.241  1.00  0.00     0.167 HD
ATOM     37  C   UNL A   1      45.796  26.207  29.763  1.00  0.00     0.074 A 
ATOM     38  C   UNL A   1      46.180  24.881  29.320  1.00  0.00     0.031 C 
ATOM     39  C   UNL A   1      46.617  27.056  30.427  1.00  0.00     0.037 A 
BRANCH  26  40
ATOM     40  C   UNL A   1      44.007  32.436  31.980  1.00  0.00     0.057 A 
ATOM     41  C   UNL A   1      43.686  32.610  33.332  1.00  0.00     0.134 A 
ATOM     42  C   UNL A   1      44.532  33.539  31.294  1.00  0.00     0.134 A 
ATOM     43  F   UNL A   1      43.171  31.597  34.045  1.00  0.00    -0.206 F 
ATOM     44  C   UNL A   1      43.869  33.838  33.973  1.00  0.00     0.040 A 
ATOM     45  C   UNL A   1      44.741  34.764  31.929  1.00  0.00     0.040 A 
ATOM     46  F   UNL A   1      44.868  33.439  29.998  1.00  0.00    -0.206 F 
ATOM     47  C   UNL A   1      44.406  34.917  33.274  1.00  0.00     0.006 A 
ENDBRANCH  26  40
BRANCH  27  48
ATOM     48  C   UNL A   1      42.645  23.679  27.353  1.00  0.00     0.057 A 
ATOM     49  C   UNL A   1      42.897  23.532  25.986  1.00  0.00     0.134 A 
ATOM     50  C   UNL A   1      42.207  22.549  28.054  1.00  0.00     0.134 A 
ATOM     51  F   UNL A   1      43.304  24.582  25.257  1.00  0.00    -0.206 F 
ATOM     52  C   UNL A   1      42.706  22.312  25.335  1.00  0.00     0.040 A 
ATOM     53  C   UNL A   1      42.041  21.316  27.424  1.00  0.00     0.040 A 
ATOM     54  F   UNL A   1      41.959  22.622  29.370  1.00  0.00    -0.206 F 
ATOM     55  C   UNL A   1      42.283  21.197  26.057  1.00  0.00     0.006 A 
ENDBRANCH  27  48
BRANCH  39  56
ATOM     56  C   UNL A   1      48.004  26.563  30.704  1.00  0.00     0.057 A 
ATOM     57  C   UNL A   1      49.057  26.796  29.809  1.00  0.00     0.134 A 
ATOM     58  C   UNL A   1      48.290  25.845  31.871  1.00  0.00     0.134 A 
ATOM     59  F   UNL A   1      48.842  27.463  28.665  1.00  0.00    -0.206 F 
ATOM     60  C   UNL A   1      50.339  26.303  30.051  1.00  0.00     0.040 A 
ATOM     61  C   UNL A   1      49.574  25.368  32.135  1.00  0.00     0.040 A 
ATOM     62  F   UNL A   1      47.326  25.593  32.770  1.00  0.00    -0.206 F 
ATOM     63  C   UNL A   1      50.601  25.589  31.219  1.00  0.00     0.006 A 
ENDBRANCH  39  56
ENDBRANCH  13  14
ENDBRANCH   6   8
ENDBRANCH   3   4
ENDBRANCH   2   3
ENDBRANCH   1   2
BRANCH   1  64
ATOM     64  C   UNL A   1      31.265  25.753  26.117  1.00  0.00     0.116 C 
BRANCH  64  65
ATOM     65  N   UNL A   1      31.402  24.556  26.936  1.00  0.00    -0.356 N 
ATOM     66  C   UNL A   1      32.254  23.496  26.839  1.00  0.00     0.224 C 
ATOM     67  H   UNL A   1      30.769  24.503  27.688  1.00  0.00     0.163 HD
ATOM     68  O   UNL A   1      32.200  22.630  27.714  1.00  0.00    -0.275 OA
BRANCH  66  69
ATOM     69  C   UNL A   1      33.169  23.366  25.641  1.00  0.00     0.094 C 
ATOM     70  C   UNL A   1      34.657  23.656  26.017  1.00  0.00     0.002 C 
ATOM     71  C   UNL A   1      33.246  21.918  25.114  1.00  0.00     0.094 C 
ATOM     72  C   UNL A   1      35.365  24.119  24.739  1.00  0.00     0.005 C 
ATOM     73  C   UNL A   1      35.288  22.266  26.186  1.00  0.00     0.009 C 
ATOM     74  C   UNL A   1      34.764  21.768  24.836  1.00  0.00     0.002 C 
ATOM     75  C   UNL A   1      35.347  22.842  23.884  1.00  0.00     0.005 C 
BRANCH  71  76
ATOM     76  C   UNL A   1      32.340  21.635  23.939  1.00  0.00     0.228 C 
ATOM     77  O   UNL A   1      31.657  22.529  23.429  1.00  0.00    -0.274 OA
ATOM     78  N   UNL A   1      32.218  20.396  23.378  1.00  0.00    -0.326 N 
ATOM     79  H   UNL A   1      31.767  20.436  22.503  1.00  0.00     0.169 HD
BRANCH  78  80
ATOM     80  C   UNL A   1      32.568  19.073  23.723  1.00  0.00     0.041 A 
ATOM     81  C   UNL A   1      32.526  18.771  25.097  1.00  0.00     0.033 A 
ATOM     82  C   UNL A   1      33.048  18.090  22.859  1.00  0.00     0.033 A 
ATOM     83  C   UNL A   1      32.996  17.549  25.596  1.00  0.00     0.088 A 
ATOM     84  C   UNL A   1      33.525  16.862  23.341  1.00  0.00     0.088 A 
ATOM     85  C   UNL A   1      33.516  16.605  24.710  1.00  0.00     0.269 A 
BRANCH  85  86
ATOM     86  N   UNL A   1      34.104  15.364  25.219  1.00  0.00     0.062 N 
ATOM     87  O   UNL A   1      33.333  14.436  25.500  1.00  0.00    -0.258 OA
ATOM     88  O   UNL A   1      35.334  15.331  25.360  1.00  0.00    -0.258 OA
ENDBRANCH  85  86
ENDBRANCH  78  80
ENDBRANCH  71  76
ENDBRANCH  66  69
ENDBRANCH  64  65
ENDBRANCH   1  64
TORSDOF 14
ENDMDL
