MODEL 1
REMARK VINA RESULT:     -10.3      0.000      0.000
REMARK SMILES [NH3+]CCOCC(=O)N[C@H](C(=O)NCCCCNC(=O)c1ccc(-c2c3nc(c(-c4c(F)cccc4F)c4ccc([nH]4)c(-c4c(F)cccc4F)c4nc(c(-c5c(F)cccc5F)c5ccc2[nH]5)C=C4)C=C3)cc1)C1CCCCC1
REMARK SMILES IDX 10 1 11 2 12 3 9 5 8 6 6 7 7 8 5 10 4 11 3 12 2 13 1 14
REMARK SMILES IDX 74 18 75 19 79 20 76 21 78 22 77 23 13 24 14 25 15 26 16 27
REMARK SMILES IDX 17 28 18 29 19 31 20 32 21 33 73 34 22 35 72 36 23 37 24 38
REMARK SMILES IDX 25 39 66 40 26 41 71 42 65 43 67 44 27 45 70 46 64 47 63 48
REMARK SMILES IDX 28 50 54 51 37 52 53 53 38 54 41 55 52 56 68 57 39 58 40 59
REMARK SMILES IDX 51 61 69 62 42 63 29 64 30 65 35 66 31 67 32 68 34 69 36 70
REMARK SMILES IDX 33 71 55 72 56 73 61 74 57 75 58 76 60 77 62 78 59 79 43 80
REMARK SMILES IDX 44 81 49 82 45 83 46 84 48 85 50 86 47 87
REMARK H PARENT 12 4 8 9 1 15 1 16 1 17 17 30 67 49 41 60
REMARK Flexibility Score: inf
ROOT
ATOM      1  C   UNL A   1      33.647  28.548  24.385  1.00  0.00     0.242 C 
ATOM      2  O   UNL A   1      34.445  28.585  23.447  1.00  0.00    -0.273 OA
ATOM      3  N   UNL A   1      33.541  29.654  25.189  1.00  0.00    -0.354 N 
ATOM      4  H   UNL A   1      34.167  30.385  24.983  1.00  0.00     0.163 HD
ENDROOT
BRANCH   1   5
ATOM      5  C   UNL A   1      32.644  27.389  24.581  1.00  0.00     0.174 C 
BRANCH   5   6
ATOM      6  N   UNL A   1      32.074  27.181  23.225  1.00  0.00    -0.342 N 
ATOM      7  C   UNL A   1      31.042  27.694  22.508  1.00  0.00     0.246 C 
ATOM      8  O   UNL A   1      30.608  26.985  21.590  1.00  0.00    -0.272 OA
ATOM      9  H   UNL A   1      32.571  26.498  22.719  1.00  0.00     0.164 HD
BRANCH   7  10
ATOM     10  C   UNL A   1      30.478  29.118  22.687  1.00  0.00     0.260 C 
BRANCH  10  11
ATOM     11  O   UNL A   1      29.923  29.883  21.640  1.00  0.00    -0.366 OA
BRANCH  11  12
ATOM     12  C   UNL A   1      28.499  29.979  21.637  1.00  0.00     0.222 C 
BRANCH  12  13
ATOM     13  C   UNL A   1      27.940  30.066  23.062  1.00  0.00     0.287 C 
BRANCH  13  14
ATOM     14  N   UNL A   1      27.562  31.423  23.461  1.00  0.00    -0.356 N 
ATOM     15  H   UNL A   1      26.625  31.411  23.863  1.00  0.00     0.344 HD
ATOM     16  H   UNL A   1      27.573  32.033  22.643  1.00  0.00     0.344 HD
ATOM     17  H   UNL A   1      28.225  31.771  24.154  1.00  0.00     0.344 HD
ENDBRANCH  13  14
ENDBRANCH  12  13
ENDBRANCH  11  12
ENDBRANCH  10  11
ENDBRANCH   7  10
ENDBRANCH   5   6
BRANCH   5  18
ATOM     18  C   UNL A   1      33.230  26.168  25.293  1.00  0.00     0.021 C 
ATOM     19  C   UNL A   1      32.223  25.186  25.915  1.00  0.00     0.006 C 
ATOM     20  C   UNL A   1      34.130  25.378  24.327  1.00  0.00     0.006 C 
ATOM     21  C   UNL A   1      32.982  24.111  26.705  1.00  0.00     0.000 C 
ATOM     22  C   UNL A   1      34.923  24.316  25.078  1.00  0.00     0.000 C 
ATOM     23  C   UNL A   1      34.003  23.369  25.843  1.00  0.00     0.000 C 
ENDBRANCH   5  18
ENDBRANCH   1   5
BRANCH   3  24
ATOM     24  C   UNL A   1      32.639  29.906  26.301  1.00  0.00     0.116 C 
BRANCH  24  25
ATOM     25  C   UNL A   1      31.491  30.834  25.909  1.00  0.00     0.023 C 
BRANCH  25  26
ATOM     26  C   UNL A   1      31.314  32.048  26.827  1.00  0.00     0.023 C 
BRANCH  26  27
ATOM     27  C   UNL A   1      32.580  32.856  27.101  1.00  0.00     0.116 C 
BRANCH  27  28
ATOM     28  N   UNL A   1      32.308  34.197  27.594  1.00  0.00    -0.352 N 
ATOM     29  C   UNL A   1      32.967  34.921  28.555  1.00  0.00     0.251 C 
ATOM     30  H   UNL A   1      31.540  34.650  27.177  1.00  0.00     0.163 HD
ATOM     31  O   UNL A   1      32.510  36.001  28.924  1.00  0.00    -0.269 OA
BRANCH  29  32
ATOM     32  C   UNL A   1      34.202  34.395  29.175  1.00  0.00     0.039 A 
ATOM     33  C   UNL A   1      34.090  33.622  30.334  1.00  0.00     0.014 A 
ATOM     34  C   UNL A   1      35.462  34.656  28.629  1.00  0.00     0.014 A 
ATOM     35  C   UNL A   1      35.233  33.066  30.910  1.00  0.00     0.010 A 
ATOM     36  C   UNL A   1      36.592  34.037  29.159  1.00  0.00     0.010 A 
ATOM     37  C   UNL A   1      36.491  33.239  30.307  1.00  0.00    -0.014 A 
BRANCH  37  38
ATOM     38  C   UNL A   1      37.695  32.572  30.868  1.00  0.00     0.031 A 
ATOM     39  C   UNL A   1      38.320  33.061  32.146  1.00  0.00     0.074 A 
ATOM     40  C   UNL A   1      38.245  31.537  30.204  1.00  0.00     0.049 A 
ATOM     41  N   UNL A   1      39.357  32.589  32.791  1.00  0.00    -0.248 NA
ATOM     42  C   UNL A   1      37.718  34.250  32.770  1.00  0.00     0.031 C 
ATOM     43  C   UNL A   1      37.771  31.006  28.924  1.00  0.00     0.029 A 
ATOM     44  N   UNL A   1      39.321  30.743  30.514  1.00  0.00    -0.354 N 
ATOM     45  C   UNL A   1      39.532  33.422  33.888  1.00  0.00     0.074 A 
ATOM     46  C   UNL A   1      38.535  34.465  33.789  1.00  0.00     0.031 C 
ATOM     47  C   UNL A   1      38.527  29.952  28.578  1.00  0.00     0.029 A 
ATOM     48  C   UNL A   1      39.558  29.752  29.591  1.00  0.00     0.049 A 
ATOM     49  H   UNL A   1      39.870  30.870  31.321  1.00  0.00     0.167 HD
ATOM     50  C   UNL A   1      40.426  33.313  34.901  1.00  0.00     0.037 A 
ATOM     51  C   UNL A   1      40.498  28.789  29.565  1.00  0.00     0.037 A 
ATOM     52  C   UNL A   1      41.409  32.266  35.005  1.00  0.00     0.049 A 
ATOM     53  C   UNL A   1      41.478  28.690  30.702  1.00  0.00     0.074 A 
ATOM     54  C   UNL A   1      42.321  32.036  36.020  1.00  0.00     0.029 A 
ATOM     55  N   UNL A   1      41.615  31.278  34.054  1.00  0.00    -0.354 N 
ATOM     56  N   UNL A   1      41.577  29.435  31.776  1.00  0.00    -0.248 NA
ATOM     57  C   UNL A   1      42.468  27.607  30.626  1.00  0.00     0.031 C 
ATOM     58  C   UNL A   1      43.113  30.941  35.660  1.00  0.00     0.029 A 
ATOM     59  C   UNL A   1      42.655  30.451  34.447  1.00  0.00     0.049 A 
ATOM     60  H   UNL A   1      41.098  31.178  33.222  1.00  0.00     0.167 HD
ATOM     61  C   UNL A   1      42.620  28.895  32.517  1.00  0.00     0.074 A 
ATOM     62  C   UNL A   1      43.106  27.747  31.779  1.00  0.00     0.031 C 
ATOM     63  C   UNL A   1      43.130  29.311  33.703  1.00  0.00     0.037 A 
BRANCH  50  64
ATOM     64  C   UNL A   1      40.376  34.354  35.984  1.00  0.00     0.057 A 
ATOM     65  C   UNL A   1      39.587  34.192  37.132  1.00  0.00     0.134 A 
ATOM     66  C   UNL A   1      41.154  35.516  35.898  1.00  0.00     0.134 A 
ATOM     67  F   UNL A   1      38.809  33.108  37.273  1.00  0.00    -0.206 F 
ATOM     68  C   UNL A   1      39.551  35.159  38.138  1.00  0.00     0.040 A 
ATOM     69  C   UNL A   1      41.150  36.476  36.912  1.00  0.00     0.040 A 
ATOM     70  F   UNL A   1      41.938  35.733  34.832  1.00  0.00    -0.206 F 
ATOM     71  C   UNL A   1      40.341  36.302  38.033  1.00  0.00     0.006 A 
ENDBRANCH  50  64
BRANCH  51  72
ATOM     72  C   UNL A   1      40.538  27.820  28.441  1.00  0.00     0.057 A 
ATOM     73  C   UNL A   1      39.862  26.596  28.515  1.00  0.00     0.134 A 
ATOM     74  C   UNL A   1      41.262  28.085  27.272  1.00  0.00     0.134 A 
ATOM     75  F   UNL A   1      39.165  26.276  29.616  1.00  0.00    -0.206 F 
ATOM     76  C   UNL A   1      39.921  25.663  27.479  1.00  0.00     0.040 A 
ATOM     77  C   UNL A   1      41.305  27.174  26.216  1.00  0.00     0.040 A 
ATOM     78  F   UNL A   1      41.924  29.243  27.134  1.00  0.00    -0.206 F 
ATOM     79  C   UNL A   1      40.641  25.954  26.322  1.00  0.00     0.006 A 
ENDBRANCH  51  72
BRANCH  63  80
ATOM     80  C   UNL A   1      44.248  28.498  34.291  1.00  0.00     0.057 A 
ATOM     81  C   UNL A   1      45.593  28.774  34.014  1.00  0.00     0.134 A 
ATOM     82  C   UNL A   1      43.973  27.435  35.162  1.00  0.00     0.134 A 
ATOM     83  F   UNL A   1      45.924  29.771  33.179  1.00  0.00    -0.206 F 
ATOM     84  C   UNL A   1      46.623  28.001  34.554  1.00  0.00     0.040 A 
ATOM     85  C   UNL A   1      44.995  26.675  35.732  1.00  0.00     0.040 A 
ATOM     86  F   UNL A   1      42.707  27.122  35.478  1.00  0.00    -0.206 F 
ATOM     87  C   UNL A   1      46.324  26.952  35.421  1.00  0.00     0.006 A 
ENDBRANCH  63  80
ENDBRANCH  37  38
ENDBRANCH  29  32
ENDBRANCH  27  28
ENDBRANCH  26  27
ENDBRANCH  25  26
ENDBRANCH  24  25
ENDBRANCH   3  24
TORSDOF 18
ENDMDL
MODEL 2
REMARK VINA RESULT:     -10.3      3.990      8.311
REMARK SMILES [NH3+]CCOCC(=O)N[C@H](C(=O)NCCCCNC(=O)c1ccc(-c2c3nc(c(-c4c(F)cccc4F)c4ccc([nH]4)c(-c4c(F)cccc4F)c4nc(c(-c5c(F)cccc5F)c5ccc2[nH]5)C=C4)C=C3)cc1)C1CCCCC1
REMARK SMILES IDX 10 1 11 2 12 3 9 5 8 6 6 7 7 8 5 10 4 11 3 12 2 13 1 14
REMARK SMILES IDX 74 18 75 19 79 20 76 21 78 22 77 23 13 24 14 25 15 26 16 27
REMARK SMILES IDX 17 28 18 29 19 31 20 32 21 33 73 34 22 35 72 36 23 37 24 38
REMARK SMILES IDX 25 39 66 40 26 41 71 42 65 43 67 44 27 45 70 46 64 47 63 48
REMARK SMILES IDX 28 50 54 51 37 52 53 53 38 54 41 55 52 56 68 57 39 58 40 59
REMARK SMILES IDX 51 61 69 62 42 63 29 64 30 65 35 66 31 67 32 68 34 69 36 70
REMARK SMILES IDX 33 71 55 72 56 73 61 74 57 75 58 76 60 77 62 78 59 79 43 80
REMARK SMILES IDX 44 81 49 82 45 83 46 84 48 85 50 86 47 87
REMARK H PARENT 12 4 8 9 1 15 1 16 1 17 17 30 67 49 41 60
REMARK Flexibility Score: inf
ROOT
ATOM      1  C   UNL A   1      33.636  25.813  22.816  1.00  0.00     0.242 C 
ATOM      2  O   UNL A   1      33.473  25.734  21.597  1.00  0.00    -0.273 OA
ATOM      3  N   UNL A   1      33.607  27.057  23.394  1.00  0.00    -0.354 N 
ATOM      4  H   UNL A   1      33.513  27.810  22.766  1.00  0.00     0.163 HD
ENDROOT
BRANCH   1   5
ATOM      5  C   UNL A   1      33.693  24.570  23.732  1.00  0.00     0.174 C 
BRANCH   5   6
ATOM      6  N   UNL A   1      32.880  23.561  23.008  1.00  0.00    -0.342 N 
ATOM      7  C   UNL A   1      32.352  22.343  23.291  1.00  0.00     0.246 C 
ATOM      8  O   UNL A   1      32.106  21.614  22.321  1.00  0.00    -0.272 OA
ATOM      9  H   UNL A   1      32.671  23.848  22.089  1.00  0.00     0.164 HD
BRANCH   7  10
ATOM     10  C   UNL A   1      31.939  21.877  24.702  1.00  0.00     0.260 C 
BRANCH  10  11
ATOM     11  O   UNL A   1      32.836  21.753  25.784  1.00  0.00    -0.366 OA
BRANCH  11  12
ATOM     12  C   UNL A   1      33.695  20.614  25.742  1.00  0.00     0.222 C 
BRANCH  12  13
ATOM     13  C   UNL A   1      32.923  19.343  25.371  1.00  0.00     0.287 C 
BRANCH  13  14
ATOM     14  N   UNL A   1      32.747  18.417  26.491  1.00  0.00    -0.356 N 
ATOM     15  H   UNL A   1      33.413  17.648  26.406  1.00  0.00     0.344 HD
ATOM     16  H   UNL A   1      31.797  18.045  26.478  1.00  0.00     0.344 HD
ATOM     17  H   UNL A   1      32.908  18.909  27.369  1.00  0.00     0.344 HD
ENDBRANCH  13  14
ENDBRANCH  12  13
ENDBRANCH  11  12
ENDBRANCH  10  11
ENDBRANCH   7  10
ENDBRANCH   5   6
BRANCH   5  18
ATOM     18  C   UNL A   1      35.108  24.166  24.152  1.00  0.00     0.021 C 
ATOM     19  C   UNL A   1      35.362  24.023  25.663  1.00  0.00     0.006 C 
ATOM     20  C   UNL A   1      35.497  22.839  23.477  1.00  0.00     0.006 C 
ATOM     21  C   UNL A   1      36.853  23.758  25.905  1.00  0.00     0.000 C 
ATOM     22  C   UNL A   1      36.980  22.552  23.671  1.00  0.00     0.000 C 
ATOM     23  C   UNL A   1      37.355  22.527  25.150  1.00  0.00     0.000 C 
ENDBRANCH   5  18
ENDBRANCH   1   5
BRANCH   3  24
ATOM     24  C   UNL A   1      33.695  27.427  24.797  1.00  0.00     0.116 C 
BRANCH  24  25
ATOM     25  C   UNL A   1      32.320  27.707  25.402  1.00  0.00     0.023 C 
BRANCH  25  26
ATOM     26  C   UNL A   1      32.352  28.169  26.863  1.00  0.00     0.023 C 
BRANCH  26  27
ATOM     27  C   UNL A   1      33.707  28.655  27.371  1.00  0.00     0.116 C 
BRANCH  27  28
ATOM     28  N   UNL A   1      33.683  30.030  27.841  1.00  0.00    -0.352 N 
ATOM     29  C   UNL A   1      34.676  30.762  28.440  1.00  0.00     0.251 C 
ATOM     30  H   UNL A   1      32.830  30.505  27.710  1.00  0.00     0.163 HD
ATOM     31  O   UNL A   1      34.426  31.883  28.880  1.00  0.00    -0.269 OA
BRANCH  29  32
ATOM     32  C   UNL A   1      36.035  30.200  28.591  1.00  0.00     0.039 A 
ATOM     33  C   UNL A   1      36.907  30.260  27.500  1.00  0.00     0.014 A 
ATOM     34  C   UNL A   1      36.456  29.614  29.789  1.00  0.00     0.014 A 
ATOM     35  C   UNL A   1      38.213  29.787  27.629  1.00  0.00     0.010 A 
ATOM     36  C   UNL A   1      37.782  29.215  29.940  1.00  0.00     0.010 A 
ATOM     37  C   UNL A   1      38.674  29.293  28.861  1.00  0.00    -0.014 A 
BRANCH  37  38
ATOM     38  C   UNL A   1      40.090  28.874  29.025  1.00  0.00     0.031 A 
ATOM     39  C   UNL A   1      40.533  27.490  28.638  1.00  0.00     0.074 A 
ATOM     40  C   UNL A   1      40.977  29.740  29.554  1.00  0.00     0.049 A 
ATOM     41  N   UNL A   1      41.729  26.961  28.692  1.00  0.00    -0.248 NA
ATOM     42  C   UNL A   1      39.493  26.570  28.150  1.00  0.00     0.031 C 
ATOM     43  C   UNL A   1      40.662  31.090  30.026  1.00  0.00     0.029 A 
ATOM     44  N   UNL A   1      42.325  29.616  29.782  1.00  0.00    -0.354 N 
ATOM     45  C   UNL A   1      41.585  25.651  28.250  1.00  0.00     0.074 A 
ATOM     46  C   UNL A   1      40.176  25.447  27.991  1.00  0.00     0.031 C 
ATOM     47  C   UNL A   1      41.789  31.682  30.449  1.00  0.00     0.029 A 
ATOM     48  C   UNL A   1      42.900  30.746  30.313  1.00  0.00     0.049 A 
ATOM     49  H   UNL A   1      42.832  28.796  29.582  1.00  0.00     0.167 HD
ATOM     50  C   UNL A   1      42.542  24.713  28.052  1.00  0.00     0.037 A 
ATOM     51  C   UNL A   1      44.179  31.001  30.648  1.00  0.00     0.037 A 
ATOM     52  C   UNL A   1      43.945  24.923  28.297  1.00  0.00     0.049 A 
ATOM     53  C   UNL A   1      45.222  29.941  30.418  1.00  0.00     0.074 A 
ATOM     54  C   UNL A   1      45.000  24.055  28.075  1.00  0.00     0.029 A 
ATOM     55  N   UNL A   1      44.490  26.082  28.829  1.00  0.00    -0.354 N 
ATOM     56  N   UNL A   1      45.082  28.737  29.920  1.00  0.00    -0.248 NA
ATOM     57  C   UNL A   1      46.602  30.285  30.786  1.00  0.00     0.031 C 
ATOM     58  C   UNL A   1      46.175  24.668  28.520  1.00  0.00     0.029 A 
ATOM     59  C   UNL A   1      45.862  25.942  28.965  1.00  0.00     0.049 A 
ATOM     60  H   UNL A   1      43.978  26.886  29.074  1.00  0.00     0.167 HD
ATOM     61  C   UNL A   1      46.358  28.189  29.888  1.00  0.00     0.074 A 
ATOM     62  C   UNL A   1      47.260  29.202  30.398  1.00  0.00     0.031 C 
ATOM     63  C   UNL A   1      46.749  26.958  29.474  1.00  0.00     0.037 A 
BRANCH  50  64
ATOM     64  C   UNL A   1      42.101  23.371  27.538  1.00  0.00     0.057 A 
ATOM     65  C   UNL A   1      41.797  22.310  28.402  1.00  0.00     0.134 A 
ATOM     66  C   UNL A   1      41.941  23.147  26.164  1.00  0.00     0.134 A 
ATOM     67  F   UNL A   1      41.939  22.453  29.729  1.00  0.00    -0.206 F 
ATOM     68  C   UNL A   1      41.379  21.069  27.919  1.00  0.00     0.040 A 
ATOM     69  C   UNL A   1      41.495  21.920  25.670  1.00  0.00     0.040 A 
ATOM     70  F   UNL A   1      42.207  24.120  25.280  1.00  0.00    -0.206 F 
ATOM     71  C   UNL A   1      41.220  20.874  26.549  1.00  0.00     0.006 A 
ENDBRANCH  50  64
BRANCH  51  72
ATOM     72  C   UNL A   1      44.551  32.325  31.206  1.00  0.00     0.057 A 
ATOM     73  C   UNL A   1      44.510  32.568  32.584  1.00  0.00     0.134 A 
ATOM     74  C   UNL A   1      44.946  33.383  30.378  1.00  0.00     0.134 A 
ATOM     75  F   UNL A   1      44.123  31.599  33.428  1.00  0.00    -0.206 F 
ATOM     76  C   UNL A   1      44.825  33.818  33.117  1.00  0.00     0.040 A 
ATOM     77  C   UNL A   1      45.292  34.630  30.900  1.00  0.00     0.040 A 
ATOM     78  F   UNL A   1      45.016  33.213  29.050  1.00  0.00    -0.206 F 
ATOM     79  C   UNL A   1      45.223  34.853  32.274  1.00  0.00     0.006 A 
ENDBRANCH  51  72
BRANCH  63  80
ATOM     80  C   UNL A   1      48.219  26.655  29.522  1.00  0.00     0.057 A 
ATOM     81  C   UNL A   1      48.811  26.013  30.618  1.00  0.00     0.134 A 
ATOM     82  C   UNL A   1      49.051  26.993  28.446  1.00  0.00     0.134 A 
ATOM     83  F   UNL A   1      48.072  25.673  31.686  1.00  0.00    -0.206 F 
ATOM     84  C   UNL A   1      50.181  25.751  30.658  1.00  0.00     0.040 A 
ATOM     85  C   UNL A   1      50.418  26.707  28.461  1.00  0.00     0.040 A 
ATOM     86  F   UNL A   1      48.549  27.600  27.360  1.00  0.00    -0.206 F 
ATOM     87  C   UNL A   1      50.987  26.093  29.574  1.00  0.00     0.006 A 
ENDBRANCH  63  80
ENDBRANCH  37  38
ENDBRANCH  29  32
ENDBRANCH  27  28
ENDBRANCH  26  27
ENDBRANCH  25  26
ENDBRANCH  24  25
ENDBRANCH   3  24
TORSDOF 18
ENDMDL
MODEL 3
REMARK VINA RESULT:     -10.3      3.794      5.814
REMARK SMILES [NH3+]CCOCC(=O)N[C@H](C(=O)NCCCCNC(=O)c1ccc(-c2c3nc(c(-c4c(F)cccc4F)c4ccc([nH]4)c(-c4c(F)cccc4F)c4nc(c(-c5c(F)cccc5F)c5ccc2[nH]5)C=C4)C=C3)cc1)C1CCCCC1
REMARK SMILES IDX 10 1 11 2 12 3 9 5 8 6 6 7 7 8 5 10 4 11 3 12 2 13 1 14
REMARK SMILES IDX 74 18 75 19 79 20 76 21 78 22 77 23 13 24 14 25 15 26 16 27
REMARK SMILES IDX 17 28 18 29 19 31 20 32 21 33 73 34 22 35 72 36 23 37 24 38
REMARK SMILES IDX 25 39 66 40 26 41 71 42 65 43 67 44 27 45 70 46 64 47 63 48
REMARK SMILES IDX 28 50 54 51 37 52 53 53 38 54 41 55 52 56 68 57 39 58 40 59
REMARK SMILES IDX 51 61 69 62 42 63 29 64 30 65 35 66 31 67 32 68 34 69 36 70
REMARK SMILES IDX 33 71 55 72 56 73 61 74 57 75 58 76 60 77 62 78 59 79 43 80
REMARK SMILES IDX 44 81 49 82 45 83 46 84 48 85 50 86 47 87
REMARK H PARENT 12 4 8 9 1 15 1 16 1 17 17 30 67 49 41 60
REMARK Flexibility Score: inf
ROOT
ATOM      1  C   UNL A   1      33.696  25.675  22.696  1.00  0.00     0.242 C 
ATOM      2  O   UNL A   1      33.560  25.571  21.476  1.00  0.00    -0.273 OA
ATOM      3  N   UNL A   1      33.627  26.928  23.251  1.00  0.00    -0.354 N 
ATOM      4  H   UNL A   1      33.531  27.668  22.608  1.00  0.00     0.163 HD
ENDROOT
BRANCH   1   5
ATOM      5  C   UNL A   1      33.759  24.450  23.635  1.00  0.00     0.174 C 
BRANCH   5   6
ATOM      6  N   UNL A   1      32.980  23.412  22.915  1.00  0.00    -0.342 N 
ATOM      7  C   UNL A   1      32.393  22.231  23.235  1.00  0.00     0.246 C 
ATOM      8  O   UNL A   1      32.207  21.441  22.299  1.00  0.00    -0.272 OA
ATOM      9  H   UNL A   1      32.859  23.638  21.964  1.00  0.00     0.164 HD
BRANCH   7  10
ATOM     10  C   UNL A   1      31.848  21.878  24.633  1.00  0.00     0.260 C 
BRANCH  10  11
ATOM     11  O   UNL A   1      32.580  22.041  25.828  1.00  0.00    -0.366 OA
BRANCH  11  12
ATOM     12  C   UNL A   1      33.312  20.895  26.262  1.00  0.00     0.222 C 
BRANCH  12  13
ATOM     13  C   UNL A   1      32.800  19.616  25.590  1.00  0.00     0.287 C 
BRANCH  13  14
ATOM     14  N   UNL A   1      32.914  18.425  26.434  1.00  0.00    -0.356 N 
ATOM     15  H   UNL A   1      32.396  17.655  26.009  1.00  0.00     0.344 HD
ATOM     16  H   UNL A   1      32.529  18.625  27.358  1.00  0.00     0.344 HD
ATOM     17  H   UNL A   1      33.896  18.164  26.524  1.00  0.00     0.344 HD
ENDBRANCH  13  14
ENDBRANCH  12  13
ENDBRANCH  11  12
ENDBRANCH  10  11
ENDBRANCH   7  10
ENDBRANCH   5   6
BRANCH   5  18
ATOM     18  C   UNL A   1      35.174  24.082  24.089  1.00  0.00     0.021 C 
ATOM     19  C   UNL A   1      35.423  24.050  25.607  1.00  0.00     0.006 C 
ATOM     20  C   UNL A   1      35.569  22.710  23.513  1.00  0.00     0.006 C 
ATOM     21  C   UNL A   1      36.914  23.807  25.873  1.00  0.00     0.000 C 
ATOM     22  C   UNL A   1      37.052  22.442  23.734  1.00  0.00     0.000 C 
ATOM     23  C   UNL A   1      37.421  22.526  25.212  1.00  0.00     0.000 C 
ENDBRANCH   5  18
ENDBRANCH   1   5
BRANCH   3  24
ATOM     24  C   UNL A   1      33.677  27.324  24.649  1.00  0.00     0.116 C 
BRANCH  24  25
ATOM     25  C   UNL A   1      32.285  27.607  25.213  1.00  0.00     0.023 C 
BRANCH  25  26
ATOM     26  C   UNL A   1      32.266  27.972  26.701  1.00  0.00     0.023 C 
BRANCH  26  27
ATOM     27  C   UNL A   1      33.587  28.483  27.271  1.00  0.00     0.116 C 
BRANCH  27  28
ATOM     28  N   UNL A   1      33.534  29.877  27.678  1.00  0.00    -0.352 N 
ATOM     29  C   UNL A   1      34.511  30.656  28.246  1.00  0.00     0.251 C 
ATOM     30  H   UNL A   1      32.672  30.328  27.524  1.00  0.00     0.163 HD
ATOM     31  O   UNL A   1      34.236  31.790  28.634  1.00  0.00    -0.269 OA
BRANCH  29  32
ATOM     32  C   UNL A   1      35.880  30.128  28.425  1.00  0.00     0.039 A 
ATOM     33  C   UNL A   1      36.751  30.150  27.332  1.00  0.00     0.014 A 
ATOM     34  C   UNL A   1      36.310  29.612  29.651  1.00  0.00     0.014 A 
ATOM     35  C   UNL A   1      38.067  29.709  27.485  1.00  0.00     0.010 A 
ATOM     36  C   UNL A   1      37.644  29.247  29.823  1.00  0.00     0.010 A 
ATOM     37  C   UNL A   1      38.535  29.288  28.741  1.00  0.00    -0.014 A 
BRANCH  37  38
ATOM     38  C   UNL A   1      39.959  28.905  28.926  1.00  0.00     0.031 A 
ATOM     39  C   UNL A   1      40.940  29.865  29.541  1.00  0.00     0.074 A 
ATOM     40  C   UNL A   1      40.376  27.693  28.509  1.00  0.00     0.049 A 
ATOM     41  N   UNL A   1      42.212  29.693  29.799  1.00  0.00    -0.248 NA
ATOM     42  C   UNL A   1      40.434  31.201  29.892  1.00  0.00     0.031 C 
ATOM     43  C   UNL A   1      39.538  26.694  27.841  1.00  0.00     0.029 A 
ATOM     44  N   UNL A   1      41.608  27.094  28.586  1.00  0.00    -0.354 N 
ATOM     45  C   UNL A   1      42.657  30.895  30.335  1.00  0.00     0.074 A 
ATOM     46  C   UNL A   1      41.535  31.808  30.309  1.00  0.00     0.031 C 
ATOM     47  C   UNL A   1      40.269  25.594  27.606  1.00  0.00     0.029 A 
ATOM     48  C   UNL A   1      41.633  25.818  28.073  1.00  0.00     0.049 A 
ATOM     49  H   UNL A   1      42.399  27.534  28.974  1.00  0.00     0.167 HD
ATOM     50  C   UNL A   1      43.881  31.202  30.829  1.00  0.00     0.037 A 
ATOM     51  C   UNL A   1      42.640  24.929  27.992  1.00  0.00     0.037 A 
ATOM     52  C   UNL A   1      44.992  30.288  30.866  1.00  0.00     0.049 A 
ATOM     53  C   UNL A   1      43.989  25.295  28.548  1.00  0.00     0.074 A 
ATOM     54  C   UNL A   1      46.255  30.485  31.397  1.00  0.00     0.029 A 
ATOM     55  N   UNL A   1      44.977  29.004  30.342  1.00  0.00    -0.354 N 
ATOM     56  N   UNL A   1      44.370  26.407  29.128  1.00  0.00    -0.248 NA
ATOM     57  C   UNL A   1      45.042  24.276  28.446  1.00  0.00     0.031 C 
ATOM     58  C   UNL A   1      47.020  29.341  31.149  1.00  0.00     0.029 A 
ATOM     59  C   UNL A   1      46.216  28.406  30.516  1.00  0.00     0.049 A 
ATOM     60  H   UNL A   1      44.201  28.579  29.911  1.00  0.00     0.167 HD
ATOM     61  C   UNL A   1      45.698  26.211  29.487  1.00  0.00     0.074 A 
ATOM     62  C   UNL A   1      46.047  24.867  29.077  1.00  0.00     0.031 C 
ATOM     63  C   UNL A   1      46.551  27.067  30.102  1.00  0.00     0.037 A 
BRANCH  50  64
ATOM     64  C   UNL A   1      44.079  32.588  31.376  1.00  0.00     0.057 A 
ATOM     65  C   UNL A   1      44.519  33.647  30.570  1.00  0.00     0.134 A 
ATOM     66  C   UNL A   1      43.790  32.877  32.716  1.00  0.00     0.134 A 
ATOM     67  F   UNL A   1      44.824  33.437  29.280  1.00  0.00    -0.206 F 
ATOM     68  C   UNL A   1      44.693  34.934  31.082  1.00  0.00     0.040 A 
ATOM     69  C   UNL A   1      43.930  34.167  33.233  1.00  0.00     0.040 A 
ATOM     70  F   UNL A   1      43.358  31.915  33.544  1.00  0.00    -0.206 F 
ATOM     71  C   UNL A   1      44.391  35.198  32.417  1.00  0.00     0.006 A 
ENDBRANCH  50  64
BRANCH  51  72
ATOM     72  C   UNL A   1      42.404  23.592  27.389  1.00  0.00     0.057 A 
ATOM     73  C   UNL A   1      42.558  23.381  26.013  1.00  0.00     0.134 A 
ATOM     74  C   UNL A   1      42.009  22.498  28.167  1.00  0.00     0.134 A 
ATOM     75  F   UNL A   1      42.917  24.395  25.211  1.00  0.00    -0.206 F 
ATOM     76  C   UNL A   1      42.306  22.139  25.431  1.00  0.00     0.040 A 
ATOM     77  C   UNL A   1      41.783  21.242  27.603  1.00  0.00     0.040 A 
ATOM     78  F   UNL A   1      41.854  22.631  29.493  1.00  0.00    -0.206 F 
ATOM     79  C   UNL A   1      41.922  21.062  26.228  1.00  0.00     0.006 A 
ENDBRANCH  51  72
BRANCH  63  80
ATOM     80  C   UNL A   1      47.934  26.560  30.399  1.00  0.00     0.057 A 
ATOM     81  C   UNL A   1      48.984  26.683  29.480  1.00  0.00     0.134 A 
ATOM     82  C   UNL A   1      48.221  25.957  31.631  1.00  0.00     0.134 A 
ATOM     83  F   UNL A   1      48.773  27.241  28.277  1.00  0.00    -0.206 F 
ATOM     84  C   UNL A   1      50.261  26.194  29.761  1.00  0.00     0.040 A 
ATOM     85  C   UNL A   1      49.502  25.492  31.935  1.00  0.00     0.040 A 
ATOM     86  F   UNL A   1      47.265  25.816  32.561  1.00  0.00    -0.206 F 
ATOM     87  C   UNL A   1      50.523  25.602  30.995  1.00  0.00     0.006 A 
ENDBRANCH  63  80
ENDBRANCH  37  38
ENDBRANCH  29  32
ENDBRANCH  27  28
ENDBRANCH  26  27
ENDBRANCH  25  26
ENDBRANCH  24  25
ENDBRANCH   3  24
TORSDOF 18
ENDMDL
