MODEL 1
REMARK VINA RESULT:     -10.4      0.000      0.000
REMARK SMILES O=C(NCCCCNC(=O)c1ccc(N2C(=O)/C(=C\C3=Cc4ccccc4OC3)SC2=S)cc1)c1ccc(-c2c3nc(c(-c4c(F)cccc4F)c4ccc([nH]4)c(-c4c(F)cccc4F)c4nc(c(-c5c(F)cccc5F)c5ccc2[nH]5)C=C4)C=C3)cc1
REMARK SMILES IDX 5 1 4 2 3 3 1 4 2 5 35 7 36 8 88 9 37 10 87 11 38 12 39 13
REMARK SMILES IDX 40 14 81 15 41 16 86 17 80 18 82 19 42 20 85 21 79 22 78 23
REMARK SMILES IDX 43 25 69 26 52 27 68 28 53 29 56 30 67 31 83 32 54 33 55 34
REMARK SMILES IDX 66 36 84 37 57 38 44 39 45 40 50 41 46 42 47 43 49 44 51 45
REMARK SMILES IDX 48 46 70 47 71 48 76 49 72 50 73 51 75 52 77 53 74 54 58 55
REMARK SMILES IDX 59 56 64 57 60 58 61 59 63 60 65 61 62 62 6 63 7 64 8 65
REMARK SMILES IDX 9 66 10 68 11 69 12 70 34 71 13 72 33 73 14 74 15 75 16 76
REMARK SMILES IDX 31 77 17 78 18 79 30 80 32 81 19 82 20 83 21 84 29 85 22 86
REMARK SMILES IDX 28 87 23 88 27 89 24 90 26 91 25 92
REMARK H PARENT 3 6 82 24 56 35 8 67
REMARK Flexibility Score: inf
ROOT
ATOM      1  C   UNL A   1      35.560  33.611  28.842  1.00  0.00     0.023 C 
ENDROOT
BRANCH   1   2
ATOM      2  C   UNL A   1      34.833  32.523  29.624  1.00  0.00     0.116 C 
BRANCH   2   3
ATOM      3  N   UNL A   1      34.143  31.577  28.764  1.00  0.00    -0.352 N 
ATOM      4  O   UNL A   1      33.925  29.881  27.300  1.00  0.00    -0.269 OA
ATOM      5  C   UNL A   1      34.636  30.479  28.101  1.00  0.00     0.251 C 
ATOM      6  H   UNL A   1      33.180  31.748  28.638  1.00  0.00     0.163 HD
BRANCH   5   7
ATOM      7  C   UNL A   1      36.027  30.021  28.332  1.00  0.00     0.039 A 
ATOM      8  C   UNL A   1      37.010  30.172  27.351  1.00  0.00     0.014 A 
ATOM      9  C   UNL A   1      36.363  29.478  29.577  1.00  0.00     0.014 A 
ATOM     10  C   UNL A   1      38.298  29.691  27.576  1.00  0.00     0.010 A 
ATOM     11  C   UNL A   1      37.673  29.058  29.828  1.00  0.00     0.010 A 
ATOM     12  C   UNL A   1      38.648  29.150  28.824  1.00  0.00    -0.014 A 
BRANCH  12  13
ATOM     13  C   UNL A   1      40.065  28.796  29.095  1.00  0.00     0.031 A 
ATOM     14  C   UNL A   1      40.997  29.753  29.782  1.00  0.00     0.074 A 
ATOM     15  C   UNL A   1      40.507  27.585  28.702  1.00  0.00     0.049 A 
ATOM     16  N   UNL A   1      42.260  29.591  30.086  1.00  0.00    -0.248 NA
ATOM     17  C   UNL A   1      40.449  31.060  30.173  1.00  0.00     0.031 C 
ATOM     18  C   UNL A   1      39.700  26.583  27.999  1.00  0.00     0.029 A 
ATOM     19  N   UNL A   1      41.733  26.988  28.836  1.00  0.00    -0.354 N 
ATOM     20  C   UNL A   1      42.664  30.775  30.687  1.00  0.00     0.074 A 
ATOM     21  C   UNL A   1      41.515  31.656  30.693  1.00  0.00     0.031 C 
ATOM     22  C   UNL A   1      40.446  25.491  27.784  1.00  0.00     0.029 A 
ATOM     23  C   UNL A   1      41.793  25.731  28.285  1.00  0.00     0.049 A 
ATOM     24  H   UNL A   1      42.497  27.419  29.283  1.00  0.00     0.167 HD
ATOM     25  C   UNL A   1      43.881  31.091  31.193  1.00  0.00     0.037 A 
ATOM     26  C   UNL A   1      42.825  24.874  28.172  1.00  0.00     0.037 A 
ATOM     27  C   UNL A   1      45.013  30.199  31.208  1.00  0.00     0.049 A 
ATOM     28  C   UNL A   1      44.164  25.263  28.723  1.00  0.00     0.074 A 
ATOM     29  C   UNL A   1      46.259  30.401  31.778  1.00  0.00     0.029 A 
ATOM     30  N   UNL A   1      45.043  28.947  30.617  1.00  0.00    -0.354 N 
ATOM     31  N   UNL A   1      44.508  26.359  29.354  1.00  0.00    -0.248 NA
ATOM     32  C   UNL A   1      45.260  24.303  28.538  1.00  0.00     0.031 C 
ATOM     33  C   UNL A   1      47.058  29.290  31.492  1.00  0.00     0.029 A 
ATOM     34  C   UNL A   1      46.297  28.380  30.775  1.00  0.00     0.049 A 
ATOM     35  H   UNL A   1      44.285  28.522  30.155  1.00  0.00     0.167 HD
ATOM     36  C   UNL A   1      45.857  26.221  29.643  1.00  0.00     0.074 A 
ATOM     37  C   UNL A   1      46.264  24.922  29.145  1.00  0.00     0.031 C 
ATOM     38  C   UNL A   1      46.689  27.095  30.260  1.00  0.00     0.037 A 
BRANCH  25  39
ATOM     39  C   UNL A   1      44.072  32.461  31.772  1.00  0.00     0.057 A 
ATOM     40  C   UNL A   1      44.331  33.573  30.965  1.00  0.00     0.134 A 
ATOM     41  C   UNL A   1      43.893  32.682  33.144  1.00  0.00     0.134 A 
ATOM     42  F   UNL A   1      44.516  33.427  29.644  1.00  0.00    -0.206 F 
ATOM     43  C   UNL A   1      44.408  34.861  31.502  1.00  0.00     0.040 A 
ATOM     44  C   UNL A   1      43.952  33.965  33.690  1.00  0.00     0.040 A 
ATOM     45  F   UNL A   1      43.634  31.657  33.971  1.00  0.00    -0.206 F 
ATOM     46  C   UNL A   1      44.209  35.060  32.867  1.00  0.00     0.006 A 
ENDBRANCH  25  39
BRANCH  26  47
ATOM     47  C   UNL A   1      42.634  23.577  27.478  1.00  0.00     0.057 A 
ATOM     48  C   UNL A   1      42.302  22.416  28.185  1.00  0.00     0.134 A 
ATOM     49  C   UNL A   1      42.787  23.469  26.090  1.00  0.00     0.134 A 
ATOM     50  F   UNL A   1      42.161  22.455  29.518  1.00  0.00    -0.206 F 
ATOM     51  C   UNL A   1      42.143  21.190  27.538  1.00  0.00     0.040 A 
ATOM     52  C   UNL A   1      42.605  22.255  25.428  1.00  0.00     0.040 A 
ATOM     53  F   UNL A   1      43.101  24.547  25.357  1.00  0.00    -0.206 F 
ATOM     54  C   UNL A   1      42.289  21.109  26.154  1.00  0.00     0.006 A 
ENDBRANCH  26  47
BRANCH  38  55
ATOM     55  C   UNL A   1      48.117  26.672  30.419  1.00  0.00     0.057 A 
ATOM     56  C   UNL A   1      49.092  27.030  29.480  1.00  0.00     0.134 A 
ATOM     57  C   UNL A   1      48.525  25.922  31.528  1.00  0.00     0.134 A 
ATOM     58  F   UNL A   1      48.759  27.734  28.387  1.00  0.00    -0.206 F 
ATOM     59  C   UNL A   1      50.423  26.638  29.629  1.00  0.00     0.040 A 
ATOM     60  C   UNL A   1      49.858  25.544  31.699  1.00  0.00     0.040 A 
ATOM     61  F   UNL A   1      47.640  25.552  32.465  1.00  0.00    -0.206 F 
ATOM     62  C   UNL A   1      50.810  25.898  30.745  1.00  0.00     0.006 A 
ENDBRANCH  38  55
ENDBRANCH  12  13
ENDBRANCH   5   7
ENDBRANCH   2   3
ENDBRANCH   1   2
BRANCH   1  63
ATOM     63  C   UNL A   1      37.088  33.538  28.870  1.00  0.00     0.023 C 
BRANCH  63  64
ATOM     64  C   UNL A   1      37.741  33.705  30.242  1.00  0.00     0.116 C 
BRANCH  64  65
ATOM     65  N   UNL A   1      36.979  34.564  31.130  1.00  0.00    -0.352 N 
ATOM     66  C   UNL A   1      37.016  34.699  32.495  1.00  0.00     0.251 C 
ATOM     67  H   UNL A   1      36.326  35.146  30.679  1.00  0.00     0.163 HD
ATOM     68  O   UNL A   1      36.178  35.403  33.050  1.00  0.00    -0.269 OA
BRANCH  66  69
ATOM     69  C   UNL A   1      38.028  33.993  33.315  1.00  0.00     0.039 A 
ATOM     70  C   UNL A   1      37.595  33.290  34.439  1.00  0.00     0.016 A 
ATOM     71  C   UNL A   1      39.392  34.056  33.035  1.00  0.00     0.016 A 
ATOM     72  C   UNL A   1      38.516  32.601  35.241  1.00  0.00     0.027 A 
ATOM     73  C   UNL A   1      40.306  33.352  33.834  1.00  0.00     0.027 A 
ATOM     74  C   UNL A   1      39.890  32.611  34.955  1.00  0.00     0.051 A 
BRANCH  74  75
ATOM     75  N   UNL A   1      40.825  31.818  35.707  1.00  0.00    -0.261 N 
ATOM     76  C   UNL A   1      40.790  30.424  35.635  1.00  0.00     0.270 C 
ATOM     77  C   UNL A   1      41.787  32.315  36.580  1.00  0.00     0.152 C 
ATOM     78  O   UNL A   1      39.830  29.702  35.420  1.00  0.00    -0.268 OA
ATOM     79  C   UNL A   1      42.118  29.882  36.038  1.00  0.00     0.081 C 
ATOM     80  S   UNL A   1      42.817  30.990  37.159  1.00  0.00    -0.054 SA
ATOM     81  S   UNL A   1      42.017  33.860  37.185  1.00  0.00    -0.051 S 
ATOM     82  C   UNL A   1      42.831  28.872  35.513  1.00  0.00     0.028 C 
BRANCH  82  83
ATOM     83  C   UNL A   1      42.611  28.112  34.276  1.00  0.00    -0.009 C 
ATOM     84  C   UNL A   1      43.557  27.387  33.647  1.00  0.00     0.019 C 
ATOM     85  C   UNL A   1      41.256  27.410  34.295  1.00  0.00     0.265 C 
ATOM     86  C   UNL A   1      43.575  25.986  34.163  1.00  0.00     0.017 A 
ATOM     87  O   UNL A   1      41.327  26.216  35.102  1.00  0.00    -0.488 OA
ATOM     88  C   UNL A   1      44.719  25.200  34.007  1.00  0.00     0.012 A 
ATOM     89  C   UNL A   1      42.487  25.494  34.910  1.00  0.00     0.127 A 
ATOM     90  C   UNL A   1      44.800  23.960  34.642  1.00  0.00     0.001 A 
ATOM     91  C   UNL A   1      42.578  24.264  35.555  1.00  0.00     0.047 A 
ATOM     92  C   UNL A   1      43.739  23.502  35.426  1.00  0.00     0.004 A 
ENDBRANCH  82  83
ENDBRANCH  74  75
ENDBRANCH  66  69
ENDBRANCH  64  65
ENDBRANCH  63  64
ENDBRANCH   1  63
TORSDOF 13
ENDMDL
MODEL 2
REMARK VINA RESULT:     -10.2      5.300     12.303
REMARK SMILES O=C(NCCCCNC(=O)c1ccc(N2C(=O)/C(=C\C3=Cc4ccccc4OC3)SC2=S)cc1)c1ccc(-c2c3nc(c(-c4c(F)cccc4F)c4ccc([nH]4)c(-c4c(F)cccc4F)c4nc(c(-c5c(F)cccc5F)c5ccc2[nH]5)C=C4)C=C3)cc1
REMARK SMILES IDX 5 1 4 2 3 3 1 4 2 5 35 7 36 8 88 9 37 10 87 11 38 12 39 13
REMARK SMILES IDX 40 14 81 15 41 16 86 17 80 18 82 19 42 20 85 21 79 22 78 23
REMARK SMILES IDX 43 25 69 26 52 27 68 28 53 29 56 30 67 31 83 32 54 33 55 34
REMARK SMILES IDX 66 36 84 37 57 38 44 39 45 40 50 41 46 42 47 43 49 44 51 45
REMARK SMILES IDX 48 46 70 47 71 48 76 49 72 50 73 51 75 52 77 53 74 54 58 55
REMARK SMILES IDX 59 56 64 57 60 58 61 59 63 60 65 61 62 62 6 63 7 64 8 65
REMARK SMILES IDX 9 66 10 68 11 69 12 70 34 71 13 72 33 73 14 74 15 75 16 76
REMARK SMILES IDX 31 77 17 78 18 79 30 80 32 81 19 82 20 83 21 84 29 85 22 86
REMARK SMILES IDX 28 87 23 88 27 89 24 90 26 91 25 92
REMARK H PARENT 3 6 82 24 56 35 8 67
REMARK Flexibility Score: inf
ROOT
ATOM      1  C   UNL A   1      41.038  22.466  26.773  1.00  0.00     0.023 C 
ENDROOT
BRANCH   1   2
ATOM      2  C   UNL A   1      42.188  23.449  26.956  1.00  0.00     0.116 C 
BRANCH   2   3
ATOM      3  N   UNL A   1      42.367  24.326  25.812  1.00  0.00    -0.352 N 
ATOM      4  O   UNL A   1      42.258  26.237  24.626  1.00  0.00    -0.269 OA
ATOM      5  C   UNL A   1      42.201  25.688  25.722  1.00  0.00     0.251 C 
ATOM      6  H   UNL A   1      42.648  23.881  24.980  1.00  0.00     0.163 HD
BRANCH   5   7
ATOM      7  C   UNL A   1      41.935  26.496  26.935  1.00  0.00     0.039 A 
ATOM      8  C   UNL A   1      42.663  27.658  27.205  1.00  0.00     0.014 A 
ATOM      9  C   UNL A   1      40.897  26.112  27.791  1.00  0.00     0.014 A 
ATOM     10  C   UNL A   1      42.425  28.375  28.375  1.00  0.00     0.010 A 
ATOM     11  C   UNL A   1      40.611  26.870  28.931  1.00  0.00     0.010 A 
ATOM     12  C   UNL A   1      41.382  28.001  29.238  1.00  0.00    -0.014 A 
BRANCH  12  13
ATOM     13  C   UNL A   1      41.041  28.873  30.391  1.00  0.00     0.031 A 
ATOM     14  C   UNL A   1      39.900  29.847  30.330  1.00  0.00     0.074 A 
ATOM     15  C   UNL A   1      41.789  28.775  31.508  1.00  0.00     0.049 A 
ATOM     16  N   UNL A   1      39.480  30.678  31.251  1.00  0.00    -0.248 NA
ATOM     17  C   UNL A   1      39.134  29.906  29.076  1.00  0.00     0.031 C 
ATOM     18  C   UNL A   1      42.942  27.885  31.673  1.00  0.00     0.029 A 
ATOM     19  N   UNL A   1      41.697  29.424  32.712  1.00  0.00    -0.354 N 
ATOM     20  C   UNL A   1      38.416  31.367  30.689  1.00  0.00     0.074 A 
ATOM     21  C   UNL A   1      38.260  30.871  29.337  1.00  0.00     0.031 C 
ATOM     22  C   UNL A   1      43.433  28.028  32.912  1.00  0.00     0.029 A 
ATOM     23  C   UNL A   1      42.668  29.053  33.610  1.00  0.00     0.049 A 
ATOM     24  H   UNL A   1      41.002  30.092  32.913  1.00  0.00     0.167 HD
ATOM     25  C   UNL A   1      37.638  32.323  31.253  1.00  0.00     0.037 A 
ATOM     26  C   UNL A   1      42.930  29.504  34.851  1.00  0.00     0.037 A 
ATOM     27  C   UNL A   1      37.781  32.794  32.608  1.00  0.00     0.049 A 
ATOM     28  C   UNL A   1      42.063  30.577  35.438  1.00  0.00     0.074 A 
ATOM     29  C   UNL A   1      36.984  33.695  33.294  1.00  0.00     0.029 A 
ATOM     30  N   UNL A   1      38.792  32.414  33.476  1.00  0.00    -0.354 N 
ATOM     31  N   UNL A   1      41.015  31.166  34.917  1.00  0.00    -0.248 NA
ATOM     32  C   UNL A   1      42.420  31.055  36.780  1.00  0.00     0.031 C 
ATOM     33  C   UNL A   1      37.539  33.896  34.561  1.00  0.00     0.029 A 
ATOM     34  C   UNL A   1      38.662  33.091  34.677  1.00  0.00     0.049 A 
ATOM     35  H   UNL A   1      39.498  31.760  33.270  1.00  0.00     0.167 HD
ATOM     36  C   UNL A   1      40.586  32.083  35.866  1.00  0.00     0.074 A 
ATOM     37  C   UNL A   1      41.469  31.951  37.007  1.00  0.00     0.031 C 
ATOM     38  C   UNL A   1      39.557  32.961  35.795  1.00  0.00     0.037 A 
BRANCH  25  39
ATOM     39  C   UNL A   1      36.557  32.940  30.417  1.00  0.00     0.057 A 
ATOM     40  C   UNL A   1      35.204  32.655  30.633  1.00  0.00     0.134 A 
ATOM     41  C   UNL A   1      36.871  33.907  29.453  1.00  0.00     0.134 A 
ATOM     42  F   UNL A   1      34.839  31.737  31.540  1.00  0.00    -0.206 F 
ATOM     43  C   UNL A   1      34.200  33.310  29.917  1.00  0.00     0.040 A 
ATOM     44  C   UNL A   1      35.876  34.579  28.742  1.00  0.00     0.040 A 
ATOM     45  F   UNL A   1      38.150  34.231  29.205  1.00  0.00    -0.206 F 
ATOM     46  C   UNL A   1      34.534  34.282  28.975  1.00  0.00     0.006 A 
ENDBRANCH  25  39
BRANCH  26  47
ATOM     47  C   UNL A   1      44.087  28.962  35.604  1.00  0.00     0.057 A 
ATOM     48  C   UNL A   1      45.370  29.498  35.449  1.00  0.00     0.134 A 
ATOM     49  C   UNL A   1      43.936  27.889  36.492  1.00  0.00     0.134 A 
ATOM     50  F   UNL A   1      45.580  30.513  34.598  1.00  0.00    -0.206 F 
ATOM     51  C   UNL A   1      46.465  28.977  36.140  1.00  0.00     0.040 A 
ATOM     52  C   UNL A   1      45.017  27.376  37.208  1.00  0.00     0.040 A 
ATOM     53  F   UNL A   1      42.730  27.336  36.686  1.00  0.00    -0.206 F 
ATOM     54  C   UNL A   1      46.289  27.916  37.027  1.00  0.00     0.006 A 
ENDBRANCH  26  47
BRANCH  38  55
ATOM     55  C   UNL A   1      39.342  33.847  36.984  1.00  0.00     0.057 A 
ATOM     56  C   UNL A   1      39.858  35.148  37.027  1.00  0.00     0.134 A 
ATOM     57  C   UNL A   1      38.596  33.407  38.084  1.00  0.00     0.134 A 
ATOM     58  F   UNL A   1      40.596  35.621  36.010  1.00  0.00    -0.206 F 
ATOM     59  C   UNL A   1      39.657  35.975  38.132  1.00  0.00     0.040 A 
ATOM     60  C   UNL A   1      38.368  34.233  39.185  1.00  0.00     0.040 A 
ATOM     61  F   UNL A   1      38.071  32.173  38.102  1.00  0.00    -0.206 F 
ATOM     62  C   UNL A   1      38.904  35.519  39.213  1.00  0.00     0.006 A 
ENDBRANCH  38  55
ENDBRANCH  12  13
ENDBRANCH   5   7
ENDBRANCH   2   3
ENDBRANCH   1   2
BRANCH   1  63
ATOM     63  C   UNL A   1      39.665  22.959  27.231  1.00  0.00     0.023 C 
BRANCH  63  64
ATOM     64  C   UNL A   1      38.640  23.209  26.123  1.00  0.00     0.116 C 
BRANCH  64  65
ATOM     65  N   UNL A   1      38.253  21.995  25.427  1.00  0.00    -0.352 N 
ATOM     66  C   UNL A   1      37.013  21.502  25.109  1.00  0.00     0.251 C 
ATOM     67  H   UNL A   1      39.006  21.431  25.136  1.00  0.00     0.163 HD
ATOM     68  O   UNL A   1      36.923  20.377  24.626  1.00  0.00    -0.269 OA
BRANCH  66  69
ATOM     69  C   UNL A   1      35.782  22.285  25.359  1.00  0.00     0.039 A 
ATOM     70  C   UNL A   1      35.211  22.980  24.292  1.00  0.00     0.016 A 
ATOM     71  C   UNL A   1      35.212  22.397  26.626  1.00  0.00     0.016 A 
ATOM     72  C   UNL A   1      34.041  23.729  24.479  1.00  0.00     0.027 A 
ATOM     73  C   UNL A   1      34.033  23.137  26.803  1.00  0.00     0.027 A 
ATOM     74  C   UNL A   1      33.422  23.820  25.735  1.00  0.00     0.051 A 
BRANCH  74  75
ATOM     75  N   UNL A   1      32.164  24.496  25.911  1.00  0.00    -0.261 N 
ATOM     76  C   UNL A   1      32.103  25.891  25.905  1.00  0.00     0.270 C 
ATOM     77  C   UNL A   1      30.940  23.878  26.141  1.00  0.00     0.152 C 
ATOM     78  O   UNL A   1      32.965  26.687  26.241  1.00  0.00    -0.268 OA
ATOM     79  C   UNL A   1      30.714  26.316  25.571  1.00  0.00     0.081 C 
ATOM     80  S   UNL A   1      29.642  25.089  26.133  1.00  0.00    -0.054 SA
ATOM     81  S   UNL A   1      30.574  22.282  26.496  1.00  0.00    -0.051 S 
ATOM     82  C   UNL A   1      30.286  27.312  24.778  1.00  0.00     0.028 C 
BRANCH  82  83
ATOM     83  C   UNL A   1      31.043  28.170  23.858  1.00  0.00    -0.009 C 
ATOM     84  C   UNL A   1      30.642  28.495  22.613  1.00  0.00     0.019 C 
ATOM     85  C   UNL A   1      31.670  29.350  24.594  1.00  0.00     0.265 C 
ATOM     86  C   UNL A   1      29.817  29.740  22.636  1.00  0.00     0.017 A 
ATOM     87  O   UNL A   1      30.676  30.367  24.840  1.00  0.00    -0.488 OA
ATOM     88  C   UNL A   1      28.939  30.015  21.585  1.00  0.00     0.012 A 
ATOM     89  C   UNL A   1      29.834  30.578  23.768  1.00  0.00     0.127 A 
ATOM     90  C   UNL A   1      28.044  31.081  21.690  1.00  0.00     0.001 A 
ATOM     91  C   UNL A   1      28.928  31.630  23.876  1.00  0.00     0.047 A 
ATOM     92  C   UNL A   1      28.029  31.874  22.839  1.00  0.00     0.004 A 
ENDBRANCH  82  83
ENDBRANCH  74  75
ENDBRANCH  66  69
ENDBRANCH  64  65
ENDBRANCH  63  64
ENDBRANCH   1  63
TORSDOF 13
ENDMDL
MODEL 3
REMARK VINA RESULT:     -10.2      5.231     12.281
REMARK SMILES O=C(NCCCCNC(=O)c1ccc(N2C(=O)/C(=C\C3=Cc4ccccc4OC3)SC2=S)cc1)c1ccc(-c2c3nc(c(-c4c(F)cccc4F)c4ccc([nH]4)c(-c4c(F)cccc4F)c4nc(c(-c5c(F)cccc5F)c5ccc2[nH]5)C=C4)C=C3)cc1
REMARK SMILES IDX 5 1 4 2 3 3 1 4 2 5 35 7 36 8 88 9 37 10 87 11 38 12 39 13
REMARK SMILES IDX 40 14 81 15 41 16 86 17 80 18 82 19 42 20 85 21 79 22 78 23
REMARK SMILES IDX 43 25 69 26 52 27 68 28 53 29 56 30 67 31 83 32 54 33 55 34
REMARK SMILES IDX 66 36 84 37 57 38 44 39 45 40 50 41 46 42 47 43 49 44 51 45
REMARK SMILES IDX 48 46 70 47 71 48 76 49 72 50 73 51 75 52 77 53 74 54 58 55
REMARK SMILES IDX 59 56 64 57 60 58 61 59 63 60 65 61 62 62 6 63 7 64 8 65
REMARK SMILES IDX 9 66 10 68 11 69 12 70 34 71 13 72 33 73 14 74 15 75 16 76
REMARK SMILES IDX 31 77 17 78 18 79 30 80 32 81 19 82 20 83 21 84 29 85 22 86
REMARK SMILES IDX 28 87 23 88 27 89 24 90 26 91 25 92
REMARK H PARENT 3 6 82 24 56 35 8 67
REMARK Flexibility Score: inf
ROOT
ATOM      1  C   UNL A   1      41.373  22.546  26.653  1.00  0.00     0.023 C 
ENDROOT
BRANCH   1   2
ATOM      2  C   UNL A   1      42.546  23.503  26.828  1.00  0.00     0.116 C 
BRANCH   2   3
ATOM      3  N   UNL A   1      42.692  24.424  25.714  1.00  0.00    -0.352 N 
ATOM      4  O   UNL A   1      42.542  26.376  24.602  1.00  0.00    -0.269 OA
ATOM      5  C   UNL A   1      42.514  25.786  25.678  1.00  0.00     0.251 C 
ATOM      6  H   UNL A   1      42.958  24.012  24.859  1.00  0.00     0.163 HD
BRANCH   5   7
ATOM      7  C   UNL A   1      42.270  26.548  26.926  1.00  0.00     0.039 A 
ATOM      8  C   UNL A   1      43.187  27.495  27.387  1.00  0.00     0.014 A 
ATOM      9  C   UNL A   1      41.071  26.346  27.618  1.00  0.00     0.014 A 
ATOM     10  C   UNL A   1      42.956  28.164  28.586  1.00  0.00     0.010 A 
ATOM     11  C   UNL A   1      40.807  27.067  28.787  1.00  0.00     0.010 A 
ATOM     12  C   UNL A   1      41.753  27.973  29.287  1.00  0.00    -0.014 A 
BRANCH  12  13
ATOM     13  C   UNL A   1      41.458  28.817  30.473  1.00  0.00     0.031 A 
ATOM     14  C   UNL A   1      42.264  28.709  31.735  1.00  0.00     0.074 A 
ATOM     15  C   UNL A   1      40.433  29.689  30.396  1.00  0.00     0.049 A 
ATOM     16  N   UNL A   1      42.127  29.374  32.855  1.00  0.00    -0.248 NA
ATOM     17  C   UNL A   1      43.360  27.728  31.750  1.00  0.00     0.031 C 
ATOM     18  C   UNL A   1      39.560  29.860  29.232  1.00  0.00     0.029 A 
ATOM     19  N   UNL A   1      39.952  30.594  31.306  1.00  0.00    -0.354 N 
ATOM     20  C   UNL A   1      43.103  28.885  33.712  1.00  0.00     0.074 A 
ATOM     21  C   UNL A   1      43.820  27.855  32.989  1.00  0.00     0.031 C 
ATOM     22  C   UNL A   1      38.667  30.826  29.490  1.00  0.00     0.029 A 
ATOM     23  C   UNL A   1      38.868  31.305  30.852  1.00  0.00     0.049 A 
ATOM     24  H   UNL A   1      40.345  30.722  32.200  1.00  0.00     0.167 HD
ATOM     25  C   UNL A   1      43.378  29.269  34.982  1.00  0.00     0.037 A 
ATOM     26  C   UNL A   1      38.103  32.224  31.470  1.00  0.00     0.037 A 
ATOM     27  C   UNL A   1      42.678  30.313  35.687  1.00  0.00     0.049 A 
ATOM     28  C   UNL A   1      38.420  32.609  32.883  1.00  0.00     0.074 A 
ATOM     29  C   UNL A   1      42.944  30.830  36.944  1.00  0.00     0.029 A 
ATOM     30  N   UNL A   1      41.570  30.990  35.204  1.00  0.00    -0.354 N 
ATOM     31  N   UNL A   1      39.393  32.189  33.653  1.00  0.00    -0.248 NA
ATOM     32  C   UNL A   1      37.529  33.590  33.518  1.00  0.00     0.031 C 
ATOM     33  C   UNL A   1      41.969  31.786  37.241  1.00  0.00     0.029 A 
ATOM     34  C   UNL A   1      41.117  31.892  36.152  1.00  0.00     0.049 A 
ATOM     35  H   UNL A   1      41.165  30.851  34.318  1.00  0.00     0.167 HD
ATOM     36  C   UNL A   1      39.234  32.851  34.861  1.00  0.00     0.074 A 
ATOM     37  C   UNL A   1      38.088  33.726  34.713  1.00  0.00     0.031 C 
ATOM     38  C   UNL A   1      39.967  32.741  35.995  1.00  0.00     0.037 A 
BRANCH  25  39
ATOM     39  C   UNL A   1      44.478  28.559  35.713  1.00  0.00     0.057 A 
ATOM     40  C   UNL A   1      45.803  29.006  35.666  1.00  0.00     0.134 A 
ATOM     41  C   UNL A   1      44.188  27.475  36.553  1.00  0.00     0.134 A 
ATOM     42  F   UNL A   1      46.146  30.036  34.877  1.00  0.00    -0.206 F 
ATOM     43  C   UNL A   1      46.803  28.399  36.429  1.00  0.00     0.040 A 
ATOM     44  C   UNL A   1      45.176  26.871  37.332  1.00  0.00     0.040 A 
ATOM     45  F   UNL A   1      42.935  27.005  36.649  1.00  0.00    -0.206 F 
ATOM     46  C   UNL A   1      46.489  27.334  37.272  1.00  0.00     0.006 A 
ENDBRANCH  25  39
BRANCH  26  47
ATOM     47  C   UNL A   1      36.942  32.814  30.761  1.00  0.00     0.057 A 
ATOM     48  C   UNL A   1      37.105  33.852  29.838  1.00  0.00     0.134 A 
ATOM     49  C   UNL A   1      35.639  32.356  30.998  1.00  0.00     0.134 A 
ATOM     50  F   UNL A   1      38.327  34.345  29.585  1.00  0.00    -0.206 F 
ATOM     51  C   UNL A   1      36.012  34.425  29.185  1.00  0.00     0.040 A 
ATOM     52  C   UNL A   1      34.541  32.902  30.332  1.00  0.00     0.040 A 
ATOM     53  F   UNL A   1      35.419  31.360  31.868  1.00  0.00    -0.206 F 
ATOM     54  C   UNL A   1      34.726  33.945  29.428  1.00  0.00     0.006 A 
ENDBRANCH  26  47
BRANCH  38  55
ATOM     55  C   UNL A   1      39.542  33.582  37.159  1.00  0.00     0.057 A 
ATOM     56  C   UNL A   1      38.663  33.090  38.132  1.00  0.00     0.134 A 
ATOM     57  C   UNL A   1      40.029  34.884  37.323  1.00  0.00     0.134 A 
ATOM     58  F   UNL A   1      38.148  31.855  38.021  1.00  0.00    -0.206 F 
ATOM     59  C   UNL A   1      38.267  33.871  39.218  1.00  0.00     0.040 A 
ATOM     60  C   UNL A   1      39.659  35.667  38.417  1.00  0.00     0.040 A 
ATOM     61  F   UNL A   1      40.877  35.412  36.428  1.00  0.00    -0.206 F 
ATOM     62  C   UNL A   1      38.771  35.163  39.366  1.00  0.00     0.006 A 
ENDBRANCH  38  55
ENDBRANCH  12  13
ENDBRANCH   5   7
ENDBRANCH   2   3
ENDBRANCH   1   2
BRANCH   1  63
ATOM     63  C   UNL A   1      40.086  22.933  27.384  1.00  0.00     0.023 C 
BRANCH  63  64
ATOM     64  C   UNL A   1      38.884  23.257  26.496  1.00  0.00     0.116 C 
BRANCH  64  65
ATOM     65  N   UNL A   1      38.599  22.213  25.529  1.00  0.00    -0.352 N 
ATOM     66  C   UNL A   1      37.411  21.805  24.976  1.00  0.00     0.251 C 
ATOM     67  H   UNL A   1      39.388  21.713  25.218  1.00  0.00     0.163 HD
ATOM     68  O   UNL A   1      37.393  20.802  24.269  1.00  0.00    -0.269 OA
BRANCH  66  69
ATOM     69  C   UNL A   1      36.147  22.531  25.236  1.00  0.00     0.039 A 
ATOM     70  C   UNL A   1      35.599  23.295  24.206  1.00  0.00     0.016 A 
ATOM     71  C   UNL A   1      35.523  22.522  26.483  1.00  0.00     0.016 A 
ATOM     72  C   UNL A   1      34.400  23.995  24.403  1.00  0.00     0.027 A 
ATOM     73  C   UNL A   1      34.315  23.213  26.669  1.00  0.00     0.027 A 
ATOM     74  C   UNL A   1      33.728  23.965  25.635  1.00  0.00     0.051 A 
BRANCH  74  75
ATOM     75  N   UNL A   1      32.444  24.589  25.811  1.00  0.00    -0.261 N 
ATOM     76  C   UNL A   1      32.337  25.979  25.884  1.00  0.00     0.270 C 
ATOM     77  C   UNL A   1      31.235  23.921  25.966  1.00  0.00     0.152 C 
ATOM     78  O   UNL A   1      33.162  26.781  26.292  1.00  0.00    -0.268 OA
ATOM     79  C   UNL A   1      30.945  26.380  25.532  1.00  0.00     0.081 C 
ATOM     80  S   UNL A   1      29.899  25.089  25.990  1.00  0.00    -0.054 SA
ATOM     81  S   UNL A   1      30.911  22.296  26.217  1.00  0.00    -0.051 S 
ATOM     82  C   UNL A   1      30.507  27.407  24.786  1.00  0.00     0.028 C 
BRANCH  82  83
ATOM     83  C   UNL A   1      31.262  28.342  23.941  1.00  0.00    -0.009 C 
ATOM     84  C   UNL A   1      30.936  28.657  22.672  1.00  0.00     0.019 C 
ATOM     85  C   UNL A   1      31.729  29.554  24.741  1.00  0.00     0.265 C 
ATOM     86  C   UNL A   1      30.012  29.830  22.644  1.00  0.00     0.017 A 
ATOM     87  O   UNL A   1      30.638  30.482  24.918  1.00  0.00    -0.488 OA
ATOM     88  C   UNL A   1      29.201  30.052  21.528  1.00  0.00     0.012 A 
ATOM     89  C   UNL A   1      29.870  30.645  23.784  1.00  0.00     0.127 A 
ATOM     90  C   UNL A   1      28.215  31.040  21.574  1.00  0.00     0.001 A 
ATOM     91  C   UNL A   1      28.874  31.617  23.831  1.00  0.00     0.047 A 
ATOM     92  C   UNL A   1      28.043  31.807  22.727  1.00  0.00     0.004 A 
ENDBRANCH  82  83
ENDBRANCH  74  75
ENDBRANCH  66  69
ENDBRANCH  64  65
ENDBRANCH  63  64
ENDBRANCH   1  63
TORSDOF 13
ENDMDL
