MODEL 1
REMARK VINA RESULT:     -11.7      0.000      0.000
REMARK SMILES C=CCN1C(=O)/C(=C/c2ccc(OCc3cccc(C(=O)NCCCCNC(=O)c4ccc(-c5c6nc(c(-c7c(F)cccc7F)c7ccc([nH]7)c(-c7c(F)cccc7F)c7nc(c(-c8c(F)cccc8F)c8ccc5[nH]8)C=C7)C=C6)cc4)c3)cc2)C(=O)NC1=S
REMARK SMILES IDX 20 1 21 2 22 3 19 5 15 6 16 7 84 8 17 9 18 10 14 11 13 12
REMARK SMILES IDX 12 13 9 14 10 15 86 16 11 17 85 18 8 19 4 20 5 21 90 22 6 23
REMARK SMILES IDX 7 24 89 25 91 26 87 27 88 29 3 30 2 31 1 32 23 33 24 34
REMARK SMILES IDX 25 35 26 36 27 37 28 38 29 40 30 41 31 42 83 43 32 44 82 45
REMARK SMILES IDX 33 46 34 47 35 48 76 49 36 50 81 51 75 52 77 53 37 54 80 55
REMARK SMILES IDX 74 56 73 57 38 59 64 60 47 61 63 62 48 63 51 64 62 65 78 66
REMARK SMILES IDX 49 67 50 68 61 70 79 71 52 72 39 73 40 74 45 75 41 76 42 77
REMARK SMILES IDX 44 78 46 79 43 80 65 81 66 82 71 83 67 84 68 85 70 86 72 87
REMARK SMILES IDX 69 88 53 89 54 90 59 91 55 92 56 93 58 94 60 95 57 96
REMARK H PARENT 22 4 89 28 27 39 77 58 51 69
REMARK Flexibility Score: inf
ROOT
ATOM      1  C   UNL A   1      33.204  35.068  32.256  1.00  0.00     0.251 C 
ATOM      2  O   UNL A   1      31.999  35.001  32.504  1.00  0.00    -0.269 OA
ATOM      3  N   UNL A   1      34.071  35.024  33.323  1.00  0.00    -0.352 N 
ATOM      4  H   UNL A   1      33.624  34.996  34.201  1.00  0.00     0.163 HD
ENDROOT
BRANCH   1   5
ATOM      5  C   UNL A   1      33.648  35.144  30.832  1.00  0.00     0.040 A 
ATOM      6  C   UNL A   1      34.706  34.252  28.815  1.00  0.00    -0.010 A 
ATOM      7  C   UNL A   1      34.299  35.387  28.105  1.00  0.00     0.007 A 
ATOM      8  C   UNL A   1      34.430  34.178  30.193  1.00  0.00     0.021 A 
ATOM      9  C   UNL A   1      33.598  36.404  28.750  1.00  0.00     0.001 A 
ATOM     10  C   UNL A   1      33.260  36.275  30.100  1.00  0.00     0.014 A 
BRANCH   6  11
ATOM     11  C   UNL A   1      35.380  33.093  28.111  1.00  0.00     0.265 C 
BRANCH  11  12
ATOM     12  O   UNL A   1      35.075  31.816  28.689  1.00  0.00    -0.489 OA
BRANCH  12  13
ATOM     13  C   UNL A   1      34.371  30.909  27.945  1.00  0.00     0.119 A 
ATOM     14  C   UNL A   1      32.646  29.153  26.588  1.00  0.00    -0.024 A 
ATOM     15  C   UNL A   1      32.246  30.464  26.867  1.00  0.00     0.012 A 
ATOM     16  C   UNL A   1      33.936  28.749  26.922  1.00  0.00     0.012 A 
ATOM     17  C   UNL A   1      33.104  31.334  27.544  1.00  0.00     0.047 A 
ATOM     18  C   UNL A   1      34.800  29.633  27.581  1.00  0.00     0.047 A 
BRANCH  14  19
ATOM     19  C   UNL A   1      31.683  28.253  25.951  1.00  0.00     0.027 C 
ATOM     20  N   UNL A   1      31.352  25.765  23.425  1.00  0.00    -0.281 N 
ATOM     21  C   UNL A   1      30.848  26.652  24.379  1.00  0.00     0.265 C 
ATOM     22  C   UNL A   1      32.324  26.119  22.497  1.00  0.00     0.183 C 
ATOM     23  O   UNL A   1      29.787  26.491  24.979  1.00  0.00    -0.268 OA
ATOM     24  C   UNL A   1      31.729  27.807  24.679  1.00  0.00     0.106 C 
ATOM     25  N   UNL A   1      32.878  27.365  22.637  1.00  0.00    -0.298 N 
ATOM     26  S   UNL A   1      32.892  25.191  21.221  1.00  0.00    -0.040 S 
ATOM     27  C   UNL A   1      32.679  28.267  23.648  1.00  0.00     0.263 C 
ATOM     28  H   UNL A   1      33.494  27.646  21.922  1.00  0.00     0.172 HD
ATOM     29  O   UNL A   1      33.232  29.352  23.641  1.00  0.00    -0.269 OA
BRANCH  20  30
ATOM     30  C   UNL A   1      30.789  24.413  23.487  1.00  0.00     0.155 C 
BRANCH  30  31
ATOM     31  C   UNL A   1      31.608  23.639  24.491  1.00  0.00    -0.013 C 
ATOM     32  C   UNL A   1      31.101  22.768  25.376  1.00  0.00     0.006 C 
ENDBRANCH  30  31
ENDBRANCH  20  30
ENDBRANCH  14  19
ENDBRANCH  12  13
ENDBRANCH  11  12
ENDBRANCH   6  11
ENDBRANCH   1   5
BRANCH   3  33
ATOM     33  C   UNL A   1      35.517  35.012  33.395  1.00  0.00     0.116 C 
BRANCH  33  34
ATOM     34  C   UNL A   1      36.022  33.697  33.995  1.00  0.00     0.023 C 
BRANCH  34  35
ATOM     35  C   UNL A   1      37.281  33.147  33.321  1.00  0.00     0.023 C 
BRANCH  35  36
ATOM     36  C   UNL A   1      37.090  32.712  31.872  1.00  0.00     0.116 C 
BRANCH  36  37
ATOM     37  N   UNL A   1      36.299  31.498  31.732  1.00  0.00    -0.352 N 
ATOM     38  C   UNL A   1      36.659  30.311  31.138  1.00  0.00     0.251 C 
ATOM     39  H   UNL A   1      35.391  31.530  32.110  1.00  0.00     0.163 HD
ATOM     40  O   UNL A   1      35.844  29.403  31.015  1.00  0.00    -0.269 OA
BRANCH  38  41
ATOM     41  C   UNL A   1      38.028  30.159  30.604  1.00  0.00     0.039 A 
ATOM     42  C   UNL A   1      39.042  29.739  31.467  1.00  0.00     0.014 A 
ATOM     43  C   UNL A   1      38.294  30.379  29.251  1.00  0.00     0.014 A 
ATOM     44  C   UNL A   1      40.311  29.464  30.955  1.00  0.00     0.010 A 
ATOM     45  C   UNL A   1      39.539  30.043  28.731  1.00  0.00     0.010 A 
ATOM     46  C   UNL A   1      40.557  29.575  29.577  1.00  0.00    -0.014 A 
BRANCH  46  47
ATOM     47  C   UNL A   1      41.865  29.188  28.997  1.00  0.00     0.031 A 
ATOM     48  C   UNL A   1      42.095  27.780  28.525  1.00  0.00     0.074 A 
ATOM     49  C   UNL A   1      42.870  30.084  28.967  1.00  0.00     0.049 A 
ATOM     50  N   UNL A   1      43.190  27.232  28.064  1.00  0.00    -0.248 NA
ATOM     51  C   UNL A   1      40.951  26.860  28.610  1.00  0.00     0.031 C 
ATOM     52  C   UNL A   1      42.788  31.466  29.446  1.00  0.00     0.029 A 
ATOM     53  N   UNL A   1      44.163  29.963  28.525  1.00  0.00    -0.354 N 
ATOM     54  C   UNL A   1      42.872  25.903  27.819  1.00  0.00     0.074 A 
ATOM     55  C   UNL A   1      41.497  25.714  28.229  1.00  0.00     0.031 C 
ATOM     56  C   UNL A   1      43.972  32.069  29.254  1.00  0.00     0.029 A 
ATOM     57  C   UNL A   1      44.904  31.111  28.670  1.00  0.00     0.049 A 
ATOM     58  H   UNL A   1      44.526  29.132  28.141  1.00  0.00     0.167 HD
ATOM     59  C   UNL A   1      43.650  24.933  27.283  1.00  0.00     0.037 A 
ATOM     60  C   UNL A   1      46.193  31.360  28.369  1.00  0.00     0.037 A 
ATOM     61  C   UNL A   1      45.007  25.130  26.849  1.00  0.00     0.049 A 
ATOM     62  C   UNL A   1      47.031  30.270  27.762  1.00  0.00     0.074 A 
ATOM     63  C   UNL A   1      45.856  24.226  26.233  1.00  0.00     0.029 A 
ATOM     64  N   UNL A   1      45.714  26.315  26.983  1.00  0.00    -0.354 N 
ATOM     65  N   UNL A   1      46.696  29.034  27.475  1.00  0.00    -0.248 NA
ATOM     66  C   UNL A   1      48.422  30.608  27.433  1.00  0.00     0.031 C 
ATOM     67  C   UNL A   1      47.088  24.856  26.026  1.00  0.00     0.029 A 
ATOM     68  C   UNL A   1      46.993  26.163  26.476  1.00  0.00     0.049 A 
ATOM     69  H   UNL A   1      45.358  27.143  27.380  1.00  0.00     0.167 HD
ATOM     70  C   UNL A   1      47.825  28.459  26.907  1.00  0.00     0.074 A 
ATOM     71  C   UNL A   1      48.850  29.482  26.880  1.00  0.00     0.031 C 
ATOM     72  C   UNL A   1      47.997  27.194  26.448  1.00  0.00     0.037 A 
BRANCH  59  73
ATOM     73  C   UNL A   1      43.042  23.570  27.128  1.00  0.00     0.057 A 
ATOM     74  C   UNL A   1      42.589  23.103  25.887  1.00  0.00     0.134 A 
ATOM     75  C   UNL A   1      42.935  22.705  28.223  1.00  0.00     0.134 A 
ATOM     76  F   UNL A   1      42.651  23.888  24.801  1.00  0.00    -0.206 F 
ATOM     77  C   UNL A   1      42.028  21.833  25.746  1.00  0.00     0.040 A 
ATOM     78  C   UNL A   1      42.399  21.423  28.091  1.00  0.00     0.040 A 
ATOM     79  F   UNL A   1      43.354  23.088  29.439  1.00  0.00    -0.206 F 
ATOM     80  C   UNL A   1      41.938  20.986  26.850  1.00  0.00     0.006 A 
ENDBRANCH  59  73
BRANCH  60  81
ATOM     81  C   UNL A   1      46.765  32.707  28.610  1.00  0.00     0.057 A 
ATOM     82  C   UNL A   1      47.345  33.033  29.841  1.00  0.00     0.134 A 
ATOM     83  C   UNL A   1      46.744  33.699  27.623  1.00  0.00     0.134 A 
ATOM     84  F   UNL A   1      47.377  32.128  30.831  1.00  0.00    -0.206 F 
ATOM     85  C   UNL A   1      47.866  34.303  30.092  1.00  0.00     0.040 A 
ATOM     86  C   UNL A   1      47.282  34.968  27.851  1.00  0.00     0.040 A 
ATOM     87  F   UNL A   1      46.209  33.446  26.419  1.00  0.00    -0.206 F 
ATOM     88  C   UNL A   1      47.839  35.273  29.091  1.00  0.00     0.006 A 
ENDBRANCH  60  81
BRANCH  72  89
ATOM     89  C   UNL A   1      49.330  26.859  25.849  1.00  0.00     0.057 A 
ATOM     90  C   UNL A   1      49.577  26.995  24.478  1.00  0.00     0.134 A 
ATOM     91  C   UNL A   1      50.388  26.435  26.662  1.00  0.00     0.134 A 
ATOM     92  F   UNL A   1      48.599  27.384  23.645  1.00  0.00    -0.206 F 
ATOM     93  C   UNL A   1      50.827  26.701  23.932  1.00  0.00     0.040 A 
ATOM     94  C   UNL A   1      51.649  26.160  26.131  1.00  0.00     0.040 A 
ATOM     95  F   UNL A   1      50.217  26.293  27.985  1.00  0.00    -0.206 F 
ATOM     96  C   UNL A   1      51.870  26.289  24.761  1.00  0.00     0.006 A 
ENDBRANCH  72  89
ENDBRANCH  46  47
ENDBRANCH  38  41
ENDBRANCH  36  37
ENDBRANCH  35  36
ENDBRANCH  34  35
ENDBRANCH  33  34
ENDBRANCH   3  33
TORSDOF 17
ENDMDL
MODEL 2
REMARK VINA RESULT:     -11.6      5.246     10.299
REMARK SMILES C=CCN1C(=O)/C(=C/c2ccc(OCc3cccc(C(=O)NCCCCNC(=O)c4ccc(-c5c6nc(c(-c7c(F)cccc7F)c7ccc([nH]7)c(-c7c(F)cccc7F)c7nc(c(-c8c(F)cccc8F)c8ccc5[nH]8)C=C7)C=C6)cc4)c3)cc2)C(=O)NC1=S
REMARK SMILES IDX 20 1 21 2 22 3 19 5 15 6 16 7 84 8 17 9 18 10 14 11 13 12
REMARK SMILES IDX 12 13 9 14 10 15 86 16 11 17 85 18 8 19 4 20 5 21 90 22 6 23
REMARK SMILES IDX 7 24 89 25 91 26 87 27 88 29 3 30 2 31 1 32 23 33 24 34
REMARK SMILES IDX 25 35 26 36 27 37 28 38 29 40 30 41 31 42 83 43 32 44 82 45
REMARK SMILES IDX 33 46 34 47 35 48 76 49 36 50 81 51 75 52 77 53 37 54 80 55
REMARK SMILES IDX 74 56 73 57 38 59 64 60 47 61 63 62 48 63 51 64 62 65 78 66
REMARK SMILES IDX 49 67 50 68 61 70 79 71 52 72 39 73 40 74 45 75 41 76 42 77
REMARK SMILES IDX 44 78 46 79 43 80 65 81 66 82 71 83 67 84 68 85 70 86 72 87
REMARK SMILES IDX 69 88 53 89 54 90 59 91 55 92 56 93 58 94 60 95 57 96
REMARK H PARENT 22 4 89 28 27 39 77 58 51 69
REMARK Flexibility Score: inf
ROOT
ATOM      1  C   UNL A   1      35.209  29.762  27.629  1.00  0.00     0.251 C 
ATOM      2  O   UNL A   1      36.238  29.119  27.839  1.00  0.00    -0.269 OA
ATOM      3  N   UNL A   1      35.256  31.119  27.851  1.00  0.00    -0.352 N 
ATOM      4  H   UNL A   1      36.115  31.435  28.216  1.00  0.00     0.163 HD
ENDROOT
BRANCH   1   5
ATOM      5  C   UNL A   1      34.004  29.051  27.107  1.00  0.00     0.040 A 
ATOM      6  C   UNL A   1      32.876  27.335  25.778  1.00  0.00    -0.010 A 
ATOM      7  C   UNL A   1      31.647  27.730  26.319  1.00  0.00     0.007 A 
ATOM      8  C   UNL A   1      34.035  28.050  26.132  1.00  0.00     0.021 A 
ATOM      9  C   UNL A   1      31.587  28.790  27.221  1.00  0.00     0.001 A 
ATOM     10  C   UNL A   1      32.760  29.434  27.626  1.00  0.00     0.014 A 
BRANCH   6  11
ATOM     11  C   UNL A   1      32.975  26.124  24.873  1.00  0.00     0.265 C 
BRANCH  11  12
ATOM     12  O   UNL A   1      32.886  24.876  25.574  1.00  0.00    -0.489 OA
BRANCH  12  13
ATOM     13  C   UNL A   1      34.021  24.129  25.734  1.00  0.00     0.119 A 
ATOM     14  C   UNL A   1      36.345  22.547  25.719  1.00  0.00    -0.024 A 
ATOM     15  C   UNL A   1      36.127  23.496  24.715  1.00  0.00     0.012 A 
ATOM     16  C   UNL A   1      35.435  22.446  26.769  1.00  0.00     0.012 A 
ATOM     17  C   UNL A   1      34.971  24.278  24.723  1.00  0.00     0.047 A 
ATOM     18  C   UNL A   1      34.288  23.250  26.783  1.00  0.00     0.047 A 
BRANCH  14  19
ATOM     19  C   UNL A   1      37.530  21.693  25.625  1.00  0.00     0.027 C 
ATOM     20  N   UNL A   1      40.691  21.033  27.126  1.00  0.00    -0.281 N 
ATOM     21  C   UNL A   1      39.727  20.885  26.126  1.00  0.00     0.265 C 
ATOM     22  C   UNL A   1      41.062  22.267  27.647  1.00  0.00     0.183 C 
ATOM     23  O   UNL A   1      39.611  19.884  25.422  1.00  0.00    -0.268 OA
ATOM     24  C   UNL A   1      38.782  22.022  26.001  1.00  0.00     0.106 C 
ATOM     25  N   UNL A   1      40.339  23.352  27.223  1.00  0.00    -0.298 N 
ATOM     26  S   UNL A   1      42.302  22.577  28.733  1.00  0.00    -0.040 S 
ATOM     27  C   UNL A   1      39.217  23.362  26.438  1.00  0.00     0.263 C 
ATOM     28  H   UNL A   1      40.667  24.232  27.520  1.00  0.00     0.172 HD
ATOM     29  O   UNL A   1      38.676  24.409  26.127  1.00  0.00    -0.269 OA
BRANCH  20  30
ATOM     30  C   UNL A   1      41.274  19.778  27.606  1.00  0.00     0.155 C 
BRANCH  30  31
ATOM     31  C   UNL A   1      42.412  19.434  26.676  1.00  0.00    -0.013 C 
ATOM     32  C   UNL A   1      42.899  18.198  26.494  1.00  0.00     0.006 C 
ENDBRANCH  30  31
ENDBRANCH  20  30
ENDBRANCH  14  19
ENDBRANCH  12  13
ENDBRANCH  11  12
ENDBRANCH   6  11
ENDBRANCH   1   5
BRANCH   3  33
ATOM     33  C   UNL A   1      34.278  32.167  27.650  1.00  0.00     0.116 C 
BRANCH  33  34
ATOM     34  C   UNL A   1      34.332  33.190  28.788  1.00  0.00     0.023 C 
BRANCH  34  35
ATOM     35  C   UNL A   1      33.213  34.233  28.743  1.00  0.00     0.023 C 
BRANCH  35  36
ATOM     36  C   UNL A   1      33.566  35.572  29.383  1.00  0.00     0.116 C 
BRANCH  36  37
ATOM     37  N   UNL A   1      32.616  35.994  30.402  1.00  0.00    -0.352 N 
ATOM     38  C   UNL A   1      32.670  35.777  31.759  1.00  0.00     0.251 C 
ATOM     39  H   UNL A   1      31.835  36.499  30.079  1.00  0.00     0.163 HD
ATOM     40  O   UNL A   1      31.740  36.116  32.482  1.00  0.00    -0.269 OA
BRANCH  38  41
ATOM     41  C   UNL A   1      33.843  35.084  32.331  1.00  0.00     0.039 A 
ATOM     42  C   UNL A   1      33.681  33.788  32.825  1.00  0.00     0.014 A 
ATOM     43  C   UNL A   1      35.100  35.692  32.332  1.00  0.00     0.014 A 
ATOM     44  C   UNL A   1      34.800  33.070  33.251  1.00  0.00     0.010 A 
ATOM     45  C   UNL A   1      36.221  34.953  32.694  1.00  0.00     0.010 A 
ATOM     46  C   UNL A   1      36.082  33.633  33.149  1.00  0.00    -0.014 A 
BRANCH  46  47
ATOM     47  C   UNL A   1      37.293  32.851  33.495  1.00  0.00     0.031 A 
ATOM     48  C   UNL A   1      38.025  33.122  34.779  1.00  0.00     0.074 A 
ATOM     49  C   UNL A   1      37.777  31.952  32.617  1.00  0.00     0.049 A 
ATOM     50  N   UNL A   1      39.142  32.600  35.219  1.00  0.00    -0.248 NA
ATOM     51  C   UNL A   1      37.440  34.133  35.673  1.00  0.00     0.031 C 
ATOM     52  C   UNL A   1      37.188  31.638  31.313  1.00  0.00     0.029 A 
ATOM     53  N   UNL A   1      38.884  31.144  32.683  1.00  0.00    -0.354 N 
ATOM     54  C   UNL A   1      39.400  33.230  36.428  1.00  0.00     0.074 A 
ATOM     55  C   UNL A   1      38.351  34.206  36.631  1.00  0.00     0.031 C 
ATOM     56  C   UNL A   1      37.929  30.693  30.712  1.00  0.00     0.029 A 
ATOM     57  C   UNL A   1      39.059  30.357  31.571  1.00  0.00     0.049 A 
ATOM     58  H   UNL A   1      39.496  31.130  33.454  1.00  0.00     0.167 HD
ATOM     59  C   UNL A   1      40.410  33.000  37.302  1.00  0.00     0.037 A 
ATOM     60  C   UNL A   1      40.026  29.468  31.275  1.00  0.00     0.037 A 
ATOM     61  C   UNL A   1      41.435  32.009  37.114  1.00  0.00     0.049 A 
ATOM     62  C   UNL A   1      41.128  29.221  32.268  1.00  0.00     0.074 A 
ATOM     63  C   UNL A   1      42.462  31.657  37.971  1.00  0.00     0.029 A 
ATOM     64  N   UNL A   1      41.561  31.209  35.988  1.00  0.00    -0.354 N 
ATOM     65  N   UNL A   1      41.323  29.777  33.439  1.00  0.00    -0.248 NA
ATOM     66  C   UNL A   1      42.140  28.222  31.900  1.00  0.00     0.031 C 
ATOM     67  C   UNL A   1      43.230  30.666  37.349  1.00  0.00     0.029 A 
ATOM     68  C   UNL A   1      42.657  30.375  36.121  1.00  0.00     0.049 A 
ATOM     69  H   UNL A   1      40.959  31.231  35.209  1.00  0.00     0.167 HD
ATOM     70  C   UNL A   1      42.461  29.177  33.959  1.00  0.00     0.074 A 
ATOM     71  C   UNL A   1      42.907  28.206  32.981  1.00  0.00     0.031 C 
ATOM     72  C   UNL A   1      43.081  29.408  35.142  1.00  0.00     0.037 A 
BRANCH  59  73
ATOM     73  C   UNL A   1      40.445  33.835  38.549  1.00  0.00     0.057 A 
ATOM     74  C   UNL A   1      39.708  33.487  39.688  1.00  0.00     0.134 A 
ATOM     75  C   UNL A   1      41.245  34.981  38.621  1.00  0.00     0.134 A 
ATOM     76  F   UNL A   1      38.911  32.408  39.679  1.00  0.00    -0.206 F 
ATOM     77  C   UNL A   1      39.746  34.264  40.847  1.00  0.00     0.040 A 
ATOM     78  C   UNL A   1      41.312  35.752  39.782  1.00  0.00     0.040 A 
ATOM     79  F   UNL A   1      41.980  35.368  37.567  1.00  0.00    -0.206 F 
ATOM     80  C   UNL A   1      40.556  35.397  40.898  1.00  0.00     0.006 A 
ENDBRANCH  59  73
BRANCH  60  81
ATOM     81  C   UNL A   1      39.982  28.720  29.994  1.00  0.00     0.057 A 
ATOM     82  C   UNL A   1      39.280  27.515  29.889  1.00  0.00     0.134 A 
ATOM     83  C   UNL A   1      40.640  29.187  28.851  1.00  0.00     0.134 A 
ATOM     84  F   UNL A   1      38.645  27.009  30.957  1.00  0.00    -0.206 F 
ATOM     85  C   UNL A   1      39.248  26.787  28.699  1.00  0.00     0.040 A 
ATOM     86  C   UNL A   1      40.598  28.482  27.646  1.00  0.00     0.040 A 
ATOM     87  F   UNL A   1      41.323  30.341  28.885  1.00  0.00    -0.206 F 
ATOM     88  C   UNL A   1      39.906  27.275  27.571  1.00  0.00     0.006 A 
ENDBRANCH  60  81
BRANCH  72  89
ATOM     89  C   UNL A   1      44.288  28.575  35.457  1.00  0.00     0.057 A 
ATOM     90  C   UNL A   1      44.185  27.352  36.128  1.00  0.00     0.134 A 
ATOM     91  C   UNL A   1      45.562  28.986  35.045  1.00  0.00     0.134 A 
ATOM     92  F   UNL A   1      42.993  26.910  36.560  1.00  0.00    -0.206 F 
ATOM     93  C   UNL A   1      45.311  26.573  36.398  1.00  0.00     0.040 A 
ATOM     94  C   UNL A   1      46.693  28.205  35.289  1.00  0.00     0.040 A 
ATOM     95  F   UNL A   1      45.726  30.145  34.391  1.00  0.00    -0.206 F 
ATOM     96  C   UNL A   1      46.569  26.997  35.971  1.00  0.00     0.006 A 
ENDBRANCH  72  89
ENDBRANCH  46  47
ENDBRANCH  38  41
ENDBRANCH  36  37
ENDBRANCH  35  36
ENDBRANCH  34  35
ENDBRANCH  33  34
ENDBRANCH   3  33
TORSDOF 17
ENDMDL
MODEL 3
REMARK VINA RESULT:     -11.6      5.478      9.961
REMARK SMILES C=CCN1C(=O)/C(=C/c2ccc(OCc3cccc(C(=O)NCCCCNC(=O)c4ccc(-c5c6nc(c(-c7c(F)cccc7F)c7ccc([nH]7)c(-c7c(F)cccc7F)c7nc(c(-c8c(F)cccc8F)c8ccc5[nH]8)C=C7)C=C6)cc4)c3)cc2)C(=O)NC1=S
REMARK SMILES IDX 20 1 21 2 22 3 19 5 15 6 16 7 84 8 17 9 18 10 14 11 13 12
REMARK SMILES IDX 12 13 9 14 10 15 86 16 11 17 85 18 8 19 4 20 5 21 90 22 6 23
REMARK SMILES IDX 7 24 89 25 91 26 87 27 88 29 3 30 2 31 1 32 23 33 24 34
REMARK SMILES IDX 25 35 26 36 27 37 28 38 29 40 30 41 31 42 83 43 32 44 82 45
REMARK SMILES IDX 33 46 34 47 35 48 76 49 36 50 81 51 75 52 77 53 37 54 80 55
REMARK SMILES IDX 74 56 73 57 38 59 64 60 47 61 63 62 48 63 51 64 62 65 78 66
REMARK SMILES IDX 49 67 50 68 61 70 79 71 52 72 39 73 40 74 45 75 41 76 42 77
REMARK SMILES IDX 44 78 46 79 43 80 65 81 66 82 71 83 67 84 68 85 70 86 72 87
REMARK SMILES IDX 69 88 53 89 54 90 59 91 55 92 56 93 58 94 60 95 57 96
REMARK H PARENT 22 4 89 28 27 39 77 58 51 69
REMARK Flexibility Score: inf
ROOT
ATOM      1  C   UNL A   1      35.233  30.164  27.792  1.00  0.00     0.251 C 
ATOM      2  O   UNL A   1      35.933  29.224  28.169  1.00  0.00    -0.269 OA
ATOM      3  N   UNL A   1      35.594  31.425  28.207  1.00  0.00    -0.352 N 
ATOM      4  H   UNL A   1      36.363  31.439  28.822  1.00  0.00     0.163 HD
ENDROOT
BRANCH   1   5
ATOM      5  C   UNL A   1      34.081  29.890  26.882  1.00  0.00     0.040 A 
ATOM      6  C   UNL A   1      32.980  28.742  25.024  1.00  0.00    -0.010 A 
ATOM      7  C   UNL A   1      31.782  29.392  25.337  1.00  0.00     0.007 A 
ATOM      8  C   UNL A   1      34.136  29.053  25.764  1.00  0.00     0.021 A 
ATOM      9  C   UNL A   1      31.733  30.302  26.391  1.00  0.00     0.001 A 
ATOM     10  C   UNL A   1      32.871  30.536  27.169  1.00  0.00     0.014 A 
BRANCH   6  11
ATOM     11  C   UNL A   1      33.030  27.678  23.947  1.00  0.00     0.265 C 
BRANCH  11  12
ATOM     12  O   UNL A   1      32.429  26.436  24.341  1.00  0.00    -0.489 OA
BRANCH  12  13
ATOM     13  C   UNL A   1      33.216  25.320  24.420  1.00  0.00     0.119 A 
ATOM     14  C   UNL A   1      34.547  22.846  24.522  1.00  0.00    -0.024 A 
ATOM     15  C   UNL A   1      33.549  23.075  23.568  1.00  0.00     0.012 A 
ATOM     16  C   UNL A   1      34.927  23.882  25.372  1.00  0.00     0.012 A 
ATOM     17  C   UNL A   1      32.888  24.304  23.521  1.00  0.00     0.047 A 
ATOM     18  C   UNL A   1      34.275  25.120  25.305  1.00  0.00     0.047 A 
BRANCH  14  19
ATOM     19  C   UNL A   1      35.154  21.516  24.587  1.00  0.00     0.027 C 
ATOM     20  N   UNL A   1      34.391  18.048  24.855  1.00  0.00    -0.281 N 
ATOM     21  C   UNL A   1      35.264  19.138  24.845  1.00  0.00     0.265 C 
ATOM     22  C   UNL A   1      33.197  18.036  25.567  1.00  0.00     0.183 C 
ATOM     23  O   UNL A   1      36.446  19.072  24.516  1.00  0.00    -0.268 OA
ATOM     24  C   UNL A   1      34.642  20.435  25.209  1.00  0.00     0.106 C 
ATOM     25  N   UNL A   1      32.836  19.212  26.173  1.00  0.00    -0.298 N 
ATOM     26  S   UNL A   1      32.152  16.741  25.772  1.00  0.00    -0.040 S 
ATOM     27  C   UNL A   1      33.444  20.434  26.070  1.00  0.00     0.263 C 
ATOM     28  H   UNL A   1      32.042  19.172  26.753  1.00  0.00     0.172 HD
ATOM     29  O   UNL A   1      33.019  21.401  26.677  1.00  0.00    -0.269 OA
BRANCH  20  30
ATOM     30  C   UNL A   1      34.819  16.912  24.035  1.00  0.00     0.155 C 
BRANCH  30  31
ATOM     31  C   UNL A   1      34.028  16.969  22.751  1.00  0.00    -0.013 C 
ATOM     32  C   UNL A   1      32.992  17.791  22.532  1.00  0.00     0.006 C 
ENDBRANCH  30  31
ENDBRANCH  20  30
ENDBRANCH  14  19
ENDBRANCH  12  13
ENDBRANCH  11  12
ENDBRANCH   6  11
ENDBRANCH   1   5
BRANCH   3  33
ATOM     33  C   UNL A   1      35.051  32.733  27.909  1.00  0.00     0.116 C 
BRANCH  33  34
ATOM     34  C   UNL A   1      34.489  33.392  29.172  1.00  0.00     0.023 C 
BRANCH  34  35
ATOM     35  C   UNL A   1      33.333  34.360  28.910  1.00  0.00     0.023 C 
BRANCH  35  36
ATOM     36  C   UNL A   1      33.519  35.751  29.509  1.00  0.00     0.116 C 
BRANCH  36  37
ATOM     37  N   UNL A   1      32.528  36.082  30.521  1.00  0.00    -0.352 N 
ATOM     38  C   UNL A   1      32.548  35.785  31.863  1.00  0.00     0.251 C 
ATOM     39  H   UNL A   1      31.741  36.583  30.204  1.00  0.00     0.163 HD
ATOM     40  O   UNL A   1      31.587  36.053  32.576  1.00  0.00    -0.269 OA
BRANCH  38  41
ATOM     41  C   UNL A   1      33.724  35.094  32.430  1.00  0.00     0.039 A 
ATOM     42  C   UNL A   1      33.579  33.777  32.872  1.00  0.00     0.014 A 
ATOM     43  C   UNL A   1      34.969  35.724  32.475  1.00  0.00     0.014 A 
ATOM     44  C   UNL A   1      34.704  33.064  33.290  1.00  0.00     0.010 A 
ATOM     45  C   UNL A   1      36.098  34.993  32.829  1.00  0.00     0.010 A 
ATOM     46  C   UNL A   1      35.977  33.654  33.232  1.00  0.00    -0.014 A 
BRANCH  46  47
ATOM     47  C   UNL A   1      37.197  32.883  33.570  1.00  0.00     0.031 A 
ATOM     48  C   UNL A   1      37.941  33.167  34.844  1.00  0.00     0.074 A 
ATOM     49  C   UNL A   1      37.678  31.982  32.692  1.00  0.00     0.049 A 
ATOM     50  N   UNL A   1      39.066  32.655  35.275  1.00  0.00    -0.248 NA
ATOM     51  C   UNL A   1      37.358  34.178  35.738  1.00  0.00     0.031 C 
ATOM     52  C   UNL A   1      37.078  31.657  31.396  1.00  0.00     0.029 A 
ATOM     53  N   UNL A   1      38.792  31.183  32.751  1.00  0.00    -0.354 N 
ATOM     54  C   UNL A   1      39.332  33.294  36.479  1.00  0.00     0.074 A 
ATOM     55  C   UNL A   1      38.278  34.263  36.687  1.00  0.00     0.031 C 
ATOM     56  C   UNL A   1      37.819  30.713  30.793  1.00  0.00     0.029 A 
ATOM     57  C   UNL A   1      38.960  30.390  31.642  1.00  0.00     0.049 A 
ATOM     58  H   UNL A   1      39.412  31.177  33.516  1.00  0.00     0.167 HD
ATOM     59  C   UNL A   1      40.352  33.076  37.344  1.00  0.00     0.037 A 
ATOM     60  C   UNL A   1      39.930  29.506  31.341  1.00  0.00     0.037 A 
ATOM     61  C   UNL A   1      41.382  32.091  37.150  1.00  0.00     0.049 A 
ATOM     62  C   UNL A   1      41.044  29.273  32.324  1.00  0.00     0.074 A 
ATOM     63  C   UNL A   1      42.421  31.751  37.999  1.00  0.00     0.029 A 
ATOM     64  N   UNL A   1      41.502  31.285  36.027  1.00  0.00    -0.354 N 
ATOM     65  N   UNL A   1      41.247  29.837  33.490  1.00  0.00    -0.248 NA
ATOM     66  C   UNL A   1      42.059  28.279  31.951  1.00  0.00     0.031 C 
ATOM     67  C   UNL A   1      43.189  30.762  37.375  1.00  0.00     0.029 A 
ATOM     68  C   UNL A   1      42.605  30.459  36.154  1.00  0.00     0.049 A 
ATOM     69  H   UNL A   1      40.891  31.299  35.255  1.00  0.00     0.167 HD
ATOM     70  C   UNL A   1      42.395  29.247  34.002  1.00  0.00     0.074 A 
ATOM     71  C   UNL A   1      42.838  28.274  33.025  1.00  0.00     0.031 C 
ATOM     72  C   UNL A   1      43.026  29.490  35.177  1.00  0.00     0.037 A 
BRANCH  59  73
ATOM     73  C   UNL A   1      40.395  33.918  38.585  1.00  0.00     0.057 A 
ATOM     74  C   UNL A   1      39.686  33.563  39.739  1.00  0.00     0.134 A 
ATOM     75  C   UNL A   1      41.173  35.080  38.636  1.00  0.00     0.134 A 
ATOM     76  F   UNL A   1      38.909  32.468  39.751  1.00  0.00    -0.206 F 
ATOM     77  C   UNL A   1      39.730  34.347  40.894  1.00  0.00     0.040 A 
ATOM     78  C   UNL A   1      41.247  35.859  39.792  1.00  0.00     0.040 A 
ATOM     79  F   UNL A   1      41.881  35.475  37.566  1.00  0.00    -0.206 F 
ATOM     80  C   UNL A   1      40.519  35.496  40.924  1.00  0.00     0.006 A 
ENDBRANCH  59  73
BRANCH  60  81
ATOM     81  C   UNL A   1      39.878  28.751  30.065  1.00  0.00     0.057 A 
ATOM     82  C   UNL A   1      40.535  29.223  28.923  1.00  0.00     0.134 A 
ATOM     83  C   UNL A   1      39.173  27.548  29.954  1.00  0.00     0.134 A 
ATOM     84  F   UNL A   1      41.212  30.380  28.965  1.00  0.00    -0.206 F 
ATOM     85  C   UNL A   1      40.477  28.537  27.709  1.00  0.00     0.040 A 
ATOM     86  C   UNL A   1      39.124  26.838  28.752  1.00  0.00     0.040 A 
ATOM     87  F   UNL A   1      38.529  27.038  31.015  1.00  0.00    -0.206 F 
ATOM     88  C   UNL A   1      39.772  27.337  27.624  1.00  0.00     0.006 A 
ENDBRANCH  60  81
BRANCH  72  89
ATOM     89  C   UNL A   1      44.241  28.667  35.483  1.00  0.00     0.057 A 
ATOM     90  C   UNL A   1      45.519  29.055  35.066  1.00  0.00     0.134 A 
ATOM     91  C   UNL A   1      44.133  27.494  36.240  1.00  0.00     0.134 A 
ATOM     92  F   UNL A   1      45.686  30.162  34.326  1.00  0.00    -0.206 F 
ATOM     93  C   UNL A   1      46.647  28.294  35.374  1.00  0.00     0.040 A 
ATOM     94  C   UNL A   1      45.256  26.736  36.574  1.00  0.00     0.040 A 
ATOM     95  F   UNL A   1      42.937  27.071  36.676  1.00  0.00    -0.206 F 
ATOM     96  C   UNL A   1      46.518  27.134  36.137  1.00  0.00     0.006 A 
ENDBRANCH  72  89
ENDBRANCH  46  47
ENDBRANCH  38  41
ENDBRANCH  36  37
ENDBRANCH  35  36
ENDBRANCH  34  35
ENDBRANCH  33  34
ENDBRANCH   3  33
TORSDOF 17
ENDMDL
