MODEL 1
REMARK VINA RESULT:     -11.2      0.000      0.000
REMARK SMILES O=C(CNc1ccccc1)N[C@@H]1C=C[C@H](C(=O)NCCCCNC(=O)c2ccc(-c3c4nc(c(-c5c(F)cccc5F)c5ccc([nH]5)c(-c5c(F)cccc5F)c5nc(c(-c6c(F)cccc6F)c6ccc3[nH]6)C=C5)C=C4)cc2)C1
REMARK SMILES IDX 19 1 18 2 16 3 17 4 15 6 12 7 13 8 80 9 14 10 11 11 1 12
REMARK SMILES IDX 2 13 3 15 4 16 5 18 6 19 10 20 7 21 9 22 8 23 20 24 21 25
REMARK SMILES IDX 22 26 23 27 24 28 25 30 26 31 27 32 79 33 28 34 78 35 29 36
REMARK SMILES IDX 30 37 31 38 72 39 32 40 77 41 71 42 73 43 33 44 76 45 70 46
REMARK SMILES IDX 69 47 34 49 60 50 43 51 59 52 44 53 47 54 58 55 74 56 45 57
REMARK SMILES IDX 46 58 57 60 75 61 48 62 35 63 36 64 41 65 37 66 38 67 40 68
REMARK SMILES IDX 42 69 39 70 61 71 62 72 67 73 63 74 64 75 66 76 68 77 65 78
REMARK SMILES IDX 49 79 50 80 55 81 51 82 52 83 54 84 56 85 53 86
REMARK H PARENT 18 5 11 14 4 17 23 29 73 48 47 59
REMARK Flexibility Score: inf
ROOT
ATOM      1  C   UNL A   1      34.175  31.769  28.256  1.00  0.00     0.116 C 
ENDROOT
BRANCH   1   2
ATOM      2  N   UNL A   1      33.097  31.680  27.291  1.00  0.00    -0.356 N 
ATOM      3  C   UNL A   1      32.477  30.569  26.787  1.00  0.00     0.227 C 
ATOM      4  O   UNL A   1      31.535  30.734  26.010  1.00  0.00    -0.274 OA
ATOM      5  H   UNL A   1      32.764  32.541  26.947  1.00  0.00     0.163 HD
BRANCH   3   6
ATOM      6  C   UNL A   1      32.953  29.191  27.256  1.00  0.00     0.103 C 
ATOM      7  C   UNL A   1      32.396  27.428  25.648  1.00  0.00     0.106 C 
ATOM      8  C   UNL A   1      31.543  27.347  26.877  1.00  0.00    -0.006 C 
ATOM      9  C   UNL A   1      33.533  28.345  26.114  1.00  0.00     0.047 C 
ATOM     10  C   UNL A   1      31.836  28.320  27.750  1.00  0.00    -0.016 C 
BRANCH   7  11
ATOM     11  N   UNL A   1      31.526  27.857  24.578  1.00  0.00    -0.348 N 
ATOM     12  O   UNL A   1      30.944  25.876  23.514  1.00  0.00    -0.273 OA
ATOM     13  C   UNL A   1      30.880  27.096  23.624  1.00  0.00     0.239 C 
ATOM     14  H   UNL A   1      31.369  28.827  24.522  1.00  0.00     0.164 HD
BRANCH  13  15
ATOM     15  C   UNL A   1      29.993  27.962  22.712  1.00  0.00     0.213 C 
BRANCH  15  16
ATOM     16  N   UNL A   1      29.828  29.264  23.355  1.00  0.00    -0.376 N 
ATOM     17  H   UNL A   1      30.191  29.364  24.265  1.00  0.00     0.161 HD
BRANCH  16  18
ATOM     18  C   UNL A   1      29.211  30.361  22.802  1.00  0.00     0.034 A 
ATOM     19  C   UNL A   1      29.101  31.524  23.578  1.00  0.00     0.026 A 
ATOM     20  C   UNL A   1      28.774  30.420  21.475  1.00  0.00     0.026 A 
ATOM     21  C   UNL A   1      28.575  32.706  23.052  1.00  0.00     0.002 A 
ATOM     22  C   UNL A   1      28.232  31.597  20.947  1.00  0.00     0.002 A 
ATOM     23  C   UNL A   1      28.139  32.742  21.733  1.00  0.00     0.000 A 
ENDBRANCH  16  18
ENDBRANCH  15  16
ENDBRANCH  13  15
ENDBRANCH   7  11
ENDBRANCH   3   6
ENDBRANCH   1   2
BRANCH   1  24
ATOM     24  C   UNL A   1      34.438  33.205  28.705  1.00  0.00     0.023 C 
BRANCH  24  25
ATOM     25  C   UNL A   1      33.225  34.136  28.657  1.00  0.00     0.023 C 
BRANCH  25  26
ATOM     26  C   UNL A   1      33.478  35.570  29.112  1.00  0.00     0.116 C 
BRANCH  26  27
ATOM     27  N   UNL A   1      32.611  35.982  30.205  1.00  0.00    -0.352 N 
ATOM     28  C   UNL A   1      32.710  35.712  31.549  1.00  0.00     0.251 C 
ATOM     29  H   UNL A   1      31.840  36.536  29.945  1.00  0.00     0.163 HD
ATOM     30  O   UNL A   1      31.802  36.036  32.309  1.00  0.00    -0.269 OA
BRANCH  28  31
ATOM     31  C   UNL A   1      33.894  35.001  32.081  1.00  0.00     0.039 A 
ATOM     32  C   UNL A   1      33.756  33.669  32.485  1.00  0.00     0.014 A 
ATOM     33  C   UNL A   1      35.134  35.636  32.181  1.00  0.00     0.014 A 
ATOM     34  C   UNL A   1      34.876  32.955  32.916  1.00  0.00     0.010 A 
ATOM     35  C   UNL A   1      36.262  34.901  32.535  1.00  0.00     0.010 A 
ATOM     36  C   UNL A   1      36.147  33.553  32.906  1.00  0.00    -0.014 A 
BRANCH  36  37
ATOM     37  C   UNL A   1      37.366  32.784  33.273  1.00  0.00     0.031 A 
ATOM     38  C   UNL A   1      38.100  33.087  34.550  1.00  0.00     0.074 A 
ATOM     39  C   UNL A   1      37.853  31.859  32.422  1.00  0.00     0.049 A 
ATOM     40  N   UNL A   1      39.214  32.574  35.007  1.00  0.00    -0.248 NA
ATOM     41  C   UNL A   1      37.516  34.122  35.417  1.00  0.00     0.031 C 
ATOM     42  C   UNL A   1      37.262  31.501  31.132  1.00  0.00     0.029 A 
ATOM     43  N   UNL A   1      38.963  31.056  32.513  1.00  0.00    -0.354 N 
ATOM     44  C   UNL A   1      39.472  33.231  36.203  1.00  0.00     0.074 A 
ATOM     45  C   UNL A   1      38.429  34.220  36.373  1.00  0.00     0.031 C 
ATOM     46  C   UNL A   1      38.001  30.534  30.564  1.00  0.00     0.029 A 
ATOM     47  C   UNL A   1      39.139  30.234  31.426  1.00  0.00     0.049 A 
ATOM     48  H   UNL A   1      39.576  31.070  33.283  1.00  0.00     0.167 HD
ATOM     49  C   UNL A   1      40.471  33.016  37.091  1.00  0.00     0.037 A 
ATOM     50  C   UNL A   1      40.113  29.346  31.149  1.00  0.00     0.037 A 
ATOM     51  C   UNL A   1      41.501  32.023  36.928  1.00  0.00     0.049 A 
ATOM     52  C   UNL A   1      41.228  29.144  32.139  1.00  0.00     0.074 A 
ATOM     53  C   UNL A   1      42.525  31.692  37.797  1.00  0.00     0.029 A 
ATOM     54  N   UNL A   1      41.642  31.207  35.814  1.00  0.00    -0.354 N 
ATOM     55  N   UNL A   1      41.421  29.723  33.299  1.00  0.00    -0.248 NA
ATOM     56  C   UNL A   1      42.258  28.159  31.782  1.00  0.00     0.031 C 
ATOM     57  C   UNL A   1      43.319  30.715  37.186  1.00  0.00     0.029 A 
ATOM     58  C   UNL A   1      42.754  30.393  35.963  1.00  0.00     0.049 A 
ATOM     59  H   UNL A   1      41.042  31.207  35.035  1.00  0.00     0.167 HD
ATOM     60  C   UNL A   1      42.574  29.152  33.824  1.00  0.00     0.074 A 
ATOM     61  C   UNL A   1      43.029  28.171  32.860  1.00  0.00     0.031 C 
ATOM     62  C   UNL A   1      43.195  29.416  34.999  1.00  0.00     0.037 A 
BRANCH  49  63
ATOM     63  C   UNL A   1      40.498  33.879  38.321  1.00  0.00     0.057 A 
ATOM     64  C   UNL A   1      39.754  33.562  39.468  1.00  0.00     0.134 A 
ATOM     65  C   UNL A   1      41.292  35.033  38.370  1.00  0.00     0.134 A 
ATOM     66  F   UNL A   1      38.964  32.478  39.486  1.00  0.00    -0.206 F 
ATOM     67  C   UNL A   1      39.770  34.379  40.600  1.00  0.00     0.040 A 
ATOM     68  C   UNL A   1      41.341  35.839  39.508  1.00  0.00     0.040 A 
ATOM     69  F   UNL A   1      42.036  35.392  37.314  1.00  0.00    -0.206 F 
ATOM     70  C   UNL A   1      40.570  35.518  40.624  1.00  0.00     0.006 A 
ENDBRANCH  49  63
BRANCH  50  71
ATOM     71  C   UNL A   1      40.066  28.562  29.890  1.00  0.00     0.057 A 
ATOM     72  C   UNL A   1      39.346  27.363  29.812  1.00  0.00     0.134 A 
ATOM     73  C   UNL A   1      40.736  28.986  28.736  1.00  0.00     0.134 A 
ATOM     74  F   UNL A   1      38.700  26.895  30.890  1.00  0.00    -0.206 F 
ATOM     75  C   UNL A   1      39.310  26.606  28.640  1.00  0.00     0.040 A 
ATOM     76  C   UNL A   1      40.686  28.253  27.549  1.00  0.00     0.040 A 
ATOM     77  F   UNL A   1      41.438  30.129  28.741  1.00  0.00    -0.206 F 
ATOM     78  C   UNL A   1      39.977  27.054  27.502  1.00  0.00     0.006 A 
ENDBRANCH  50  71
BRANCH  62  79
ATOM     79  C   UNL A   1      44.415  28.604  35.331  1.00  0.00     0.057 A 
ATOM     80  C   UNL A   1      45.706  29.026  34.987  1.00  0.00     0.134 A 
ATOM     81  C   UNL A   1      44.297  27.401  36.039  1.00  0.00     0.134 A 
ATOM     82  F   UNL A   1      45.890  30.161  34.297  1.00  0.00    -0.206 F 
ATOM     83  C   UNL A   1      46.832  28.269  35.315  1.00  0.00     0.040 A 
ATOM     84  C   UNL A   1      45.417  26.650  36.398  1.00  0.00     0.040 A 
ATOM     85  F   UNL A   1      43.091  26.943  36.408  1.00  0.00    -0.206 F 
ATOM     86  C   UNL A   1      46.689  27.080  36.030  1.00  0.00     0.006 A 
ENDBRANCH  62  79
ENDBRANCH  36  37
ENDBRANCH  28  31
ENDBRANCH  26  27
ENDBRANCH  25  26
ENDBRANCH  24  25
ENDBRANCH   1  24
TORSDOF 15
ENDMDL
MODEL 2
REMARK VINA RESULT:     -11.1      5.219     10.034
REMARK SMILES O=C(CNc1ccccc1)N[C@@H]1C=C[C@H](C(=O)NCCCCNC(=O)c2ccc(-c3c4nc(c(-c5c(F)cccc5F)c5ccc([nH]5)c(-c5c(F)cccc5F)c5nc(c(-c6c(F)cccc6F)c6ccc3[nH]6)C=C5)C=C4)cc2)C1
REMARK SMILES IDX 19 1 18 2 16 3 17 4 15 6 12 7 13 8 80 9 14 10 11 11 1 12
REMARK SMILES IDX 2 13 3 15 4 16 5 18 6 19 10 20 7 21 9 22 8 23 20 24 21 25
REMARK SMILES IDX 22 26 23 27 24 28 25 30 26 31 27 32 79 33 28 34 78 35 29 36
REMARK SMILES IDX 30 37 31 38 72 39 32 40 77 41 71 42 73 43 33 44 76 45 70 46
REMARK SMILES IDX 69 47 34 49 60 50 43 51 59 52 44 53 47 54 58 55 74 56 45 57
REMARK SMILES IDX 46 58 57 60 75 61 48 62 35 63 36 64 41 65 37 66 38 67 40 68
REMARK SMILES IDX 42 69 39 70 61 71 62 72 67 73 63 74 64 75 66 76 68 77 65 78
REMARK SMILES IDX 49 79 50 80 55 81 51 82 52 83 54 84 56 85 53 86
REMARK H PARENT 18 5 11 14 4 17 23 29 73 48 47 59
REMARK Flexibility Score: inf
ROOT
ATOM      1  C   UNL A   1      36.220  21.463  25.736  1.00  0.00     0.116 C 
ENDROOT
BRANCH   1   2
ATOM      2  N   UNL A   1      35.864  22.867  25.686  1.00  0.00    -0.356 N 
ATOM      3  C   UNL A   1      34.899  23.489  24.938  1.00  0.00     0.227 C 
ATOM      4  O   UNL A   1      34.732  24.699  25.100  1.00  0.00    -0.274 OA
ATOM      5  H   UNL A   1      36.389  23.459  26.271  1.00  0.00     0.163 HD
BRANCH   3   6
ATOM      6  C   UNL A   1      34.053  22.639  23.985  1.00  0.00     0.103 C 
ATOM      7  C   UNL A   1      32.526  24.006  22.644  1.00  0.00     0.106 C 
ATOM      8  C   UNL A   1      31.795  23.226  23.693  1.00  0.00    -0.006 C 
ATOM      9  C   UNL A   1      33.882  23.290  22.607  1.00  0.00     0.047 C 
ATOM     10  C   UNL A   1      32.631  22.491  24.438  1.00  0.00    -0.016 C 
BRANCH   7  11
ATOM     11  N   UNL A   1      32.460  25.390  23.049  1.00  0.00    -0.348 N 
ATOM     12  O   UNL A   1      33.597  26.513  21.363  1.00  0.00    -0.273 OA
ATOM     13  C   UNL A   1      32.969  26.508  22.416  1.00  0.00     0.239 C 
ATOM     14  H   UNL A   1      31.984  25.563  23.892  1.00  0.00     0.164 HD
BRANCH  13  15
ATOM     15  C   UNL A   1      32.608  27.800  23.169  1.00  0.00     0.213 C 
BRANCH  15  16
ATOM     16  N   UNL A   1      31.797  28.625  22.275  1.00  0.00    -0.376 N 
ATOM     17  H   UNL A   1      32.264  29.082  21.539  1.00  0.00     0.161 HD
BRANCH  16  18
ATOM     18  C   UNL A   1      30.439  28.820  22.373  1.00  0.00     0.034 A 
ATOM     19  C   UNL A   1      29.683  27.884  23.094  1.00  0.00     0.026 A 
ATOM     20  C   UNL A   1      29.779  29.950  21.883  1.00  0.00     0.026 A 
ATOM     21  C   UNL A   1      28.317  28.065  23.318  1.00  0.00     0.002 A 
ATOM     22  C   UNL A   1      28.407  30.130  22.091  1.00  0.00     0.002 A 
ATOM     23  C   UNL A   1      27.677  29.191  22.815  1.00  0.00     0.000 A 
ENDBRANCH  16  18
ENDBRANCH  15  16
ENDBRANCH  13  15
ENDBRANCH   7  11
ENDBRANCH   3   6
ENDBRANCH   1   2
BRANCH   1  24
ATOM     24  C   UNL A   1      37.081  21.037  24.549  1.00  0.00     0.023 C 
BRANCH  24  25
ATOM     25  C   UNL A   1      38.064  19.899  24.832  1.00  0.00     0.023 C 
BRANCH  25  26
ATOM     26  C   UNL A   1      39.132  20.197  25.879  1.00  0.00     0.116 C 
BRANCH  26  27
ATOM     27  N   UNL A   1      40.270  19.293  25.806  1.00  0.00    -0.352 N 
ATOM     28  C   UNL A   1      41.601  19.541  26.042  1.00  0.00     0.251 C 
ATOM     29  H   UNL A   1      40.056  18.367  25.549  1.00  0.00     0.163 HD
ATOM     30  O   UNL A   1      42.439  18.678  25.797  1.00  0.00    -0.269 OA
BRANCH  28  31
ATOM     31  C   UNL A   1      42.033  20.858  26.560  1.00  0.00     0.039 A 
ATOM     32  C   UNL A   1      42.471  21.829  25.655  1.00  0.00     0.014 A 
ATOM     33  C   UNL A   1      42.006  21.141  27.928  1.00  0.00     0.014 A 
ATOM     34  C   UNL A   1      42.808  23.104  26.113  1.00  0.00     0.010 A 
ATOM     35  C   UNL A   1      42.266  22.434  28.374  1.00  0.00     0.010 A 
ATOM     36  C   UNL A   1      42.670  23.431  27.472  1.00  0.00    -0.014 A 
BRANCH  36  37
ATOM     37  C   UNL A   1      42.935  24.807  27.968  1.00  0.00     0.031 A 
ATOM     38  C   UNL A   1      44.329  25.222  28.350  1.00  0.00     0.074 A 
ATOM     39  C   UNL A   1      41.909  25.664  28.140  1.00  0.00     0.049 A 
ATOM     40  N   UNL A   1      44.746  26.351  28.864  1.00  0.00    -0.248 NA
ATOM     41  C   UNL A   1      45.392  24.225  28.150  1.00  0.00     0.031 C 
ATOM     42  C   UNL A   1      40.505  25.373  27.850  1.00  0.00     0.029 A 
ATOM     43  N   UNL A   1      41.890  26.954  28.610  1.00  0.00    -0.354 N 
ATOM     44  C   UNL A   1      46.112  26.196  29.062  1.00  0.00     0.074 A 
ATOM     45  C   UNL A   1      46.444  24.844  28.666  1.00  0.00     0.031 C 
ATOM     46  C   UNL A   1      39.765  26.459  28.124  1.00  0.00     0.029 A 
ATOM     47  C   UNL A   1      40.633  27.507  28.649  1.00  0.00     0.049 A 
ATOM     48  H   UNL A   1      42.700  27.436  28.893  1.00  0.00     0.167 HD
ATOM     49  C   UNL A   1      47.013  27.103  29.509  1.00  0.00     0.037 A 
ATOM     50  C   UNL A   1      40.223  28.719  29.071  1.00  0.00     0.037 A 
ATOM     51  C   UNL A   1      46.683  28.452  29.891  1.00  0.00     0.049 A 
ATOM     52  C   UNL A   1      41.239  29.700  29.589  1.00  0.00     0.074 A 
ATOM     53  C   UNL A   1      47.533  29.462  30.306  1.00  0.00     0.029 A 
ATOM     54  N   UNL A   1      45.399  28.976  29.913  1.00  0.00    -0.354 N 
ATOM     55  N   UNL A   1      42.537  29.565  29.706  1.00  0.00    -0.248 NA
ATOM     56  C   UNL A   1      40.731  31.007  30.030  1.00  0.00     0.031 C 
ATOM     57  C   UNL A   1      46.757  30.580  30.632  1.00  0.00     0.029 A 
ATOM     58  C   UNL A   1      45.430  30.287  30.362  1.00  0.00     0.049 A 
ATOM     59  H   UNL A   1      44.586  28.488  29.650  1.00  0.00     0.167 HD
ATOM     60  C   UNL A   1      43.005  30.775  30.203  1.00  0.00     0.074 A 
ATOM     61  C   UNL A   1      41.851  31.637  30.353  1.00  0.00     0.031 C 
ATOM     62  C   UNL A   1      44.276  31.138  30.503  1.00  0.00     0.037 A 
BRANCH  49  63
ATOM     63  C   UNL A   1      48.445  26.658  29.614  1.00  0.00     0.057 A 
ATOM     64  C   UNL A   1      48.962  26.092  30.789  1.00  0.00     0.134 A 
ATOM     65  C   UNL A   1      49.315  26.780  28.523  1.00  0.00     0.134 A 
ATOM     66  F   UNL A   1      48.187  25.955  31.876  1.00  0.00    -0.206 F 
ATOM     67  C   UNL A   1      50.298  25.698  30.885  1.00  0.00     0.040 A 
ATOM     68  C   UNL A   1      50.644  26.360  28.597  1.00  0.00     0.040 A 
ATOM     69  F   UNL A   1      48.886  27.304  27.365  1.00  0.00    -0.206 F 
ATOM     70  C   UNL A   1      51.141  25.826  29.784  1.00  0.00     0.006 A 
ENDBRANCH  49  63
BRANCH  50  71
ATOM     71  C   UNL A   1      38.786  29.083  28.998  1.00  0.00     0.057 A 
ATOM     72  C   UNL A   1      37.957  28.976  30.122  1.00  0.00     0.134 A 
ATOM     73  C   UNL A   1      38.205  29.544  27.811  1.00  0.00     0.134 A 
ATOM     74  F   UNL A   1      38.451  28.523  31.283  1.00  0.00    -0.206 F 
ATOM     75  C   UNL A   1      36.600  29.297  30.063  1.00  0.00     0.040 A 
ATOM     76  C   UNL A   1      36.855  29.894  27.745  1.00  0.00     0.040 A 
ATOM     77  F   UNL A   1      38.945  29.675  26.700  1.00  0.00    -0.206 F 
ATOM     78  C   UNL A   1      36.047  29.763  28.872  1.00  0.00     0.006 A 
ENDBRANCH  50  71
BRANCH  62  79
ATOM     79  C   UNL A   1      44.494  32.543  30.988  1.00  0.00     0.057 A 
ATOM     80  C   UNL A   1      44.713  33.609  30.104  1.00  0.00     0.134 A 
ATOM     81  C   UNL A   1      44.446  32.839  32.356  1.00  0.00     0.134 A 
ATOM     82  F   UNL A   1      44.784  33.393  28.782  1.00  0.00    -0.206 F 
ATOM     83  C   UNL A   1      44.899  34.913  30.566  1.00  0.00     0.040 A 
ATOM     84  C   UNL A   1      44.601  34.143  32.828  1.00  0.00     0.040 A 
ATOM     85  F   UNL A   1      44.231  31.868  33.257  1.00  0.00    -0.206 F 
ATOM     86  C   UNL A   1      44.835  35.184  31.932  1.00  0.00     0.006 A 
ENDBRANCH  62  79
ENDBRANCH  36  37
ENDBRANCH  28  31
ENDBRANCH  26  27
ENDBRANCH  25  26
ENDBRANCH  24  25
ENDBRANCH   1  24
TORSDOF 15
ENDMDL
MODEL 3
REMARK VINA RESULT:     -11.0      6.166     10.579
REMARK SMILES O=C(CNc1ccccc1)N[C@@H]1C=C[C@H](C(=O)NCCCCNC(=O)c2ccc(-c3c4nc(c(-c5c(F)cccc5F)c5ccc([nH]5)c(-c5c(F)cccc5F)c5nc(c(-c6c(F)cccc6F)c6ccc3[nH]6)C=C5)C=C4)cc2)C1
REMARK SMILES IDX 19 1 18 2 16 3 17 4 15 6 12 7 13 8 80 9 14 10 11 11 1 12
REMARK SMILES IDX 2 13 3 15 4 16 5 18 6 19 10 20 7 21 9 22 8 23 20 24 21 25
REMARK SMILES IDX 22 26 23 27 24 28 25 30 26 31 27 32 79 33 28 34 78 35 29 36
REMARK SMILES IDX 30 37 31 38 72 39 32 40 77 41 71 42 73 43 33 44 76 45 70 46
REMARK SMILES IDX 69 47 34 49 60 50 43 51 59 52 44 53 47 54 58 55 74 56 45 57
REMARK SMILES IDX 46 58 57 60 75 61 48 62 35 63 36 64 41 65 37 66 38 67 40 68
REMARK SMILES IDX 42 69 39 70 61 71 62 72 67 73 63 74 64 75 66 76 68 77 65 78
REMARK SMILES IDX 49 79 50 80 55 81 51 82 52 83 54 84 56 85 53 86
REMARK H PARENT 18 5 11 14 4 17 23 29 73 48 47 59
REMARK Flexibility Score: inf
ROOT
ATOM      1  C   UNL A   1      36.145  21.462  25.788  1.00  0.00     0.116 C 
ENDROOT
BRANCH   1   2
ATOM      2  N   UNL A   1      35.801  22.870  25.773  1.00  0.00    -0.356 N 
ATOM      3  C   UNL A   1      34.799  23.509  25.093  1.00  0.00     0.227 C 
ATOM      4  O   UNL A   1      34.655  24.719  25.277  1.00  0.00    -0.274 OA
ATOM      5  H   UNL A   1      36.368  23.451  26.331  1.00  0.00     0.163 HD
BRANCH   3   6
ATOM      6  C   UNL A   1      33.886  22.678  24.186  1.00  0.00     0.103 C 
ATOM      7  C   UNL A   1      32.421  24.085  22.818  1.00  0.00     0.106 C 
ATOM      8  C   UNL A   1      31.663  23.391  23.907  1.00  0.00    -0.006 C 
ATOM      9  C   UNL A   1      33.730  23.288  22.787  1.00  0.00     0.047 C 
ATOM     10  C   UNL A   1      32.465  22.634  24.666  1.00  0.00    -0.016 C 
BRANCH   7  11
ATOM     11  N   UNL A   1      32.446  25.485  23.171  1.00  0.00    -0.348 N 
ATOM     12  O   UNL A   1      33.650  26.468  21.446  1.00  0.00    -0.273 OA
ATOM     13  C   UNL A   1      33.026  26.543  22.498  1.00  0.00     0.239 C 
ATOM     14  H   UNL A   1      31.983  25.720  24.007  1.00  0.00     0.164 HD
BRANCH  13  15
ATOM     15  C   UNL A   1      32.750  27.883  23.202  1.00  0.00     0.213 C 
BRANCH  15  16
ATOM     16  N   UNL A   1      31.938  28.701  22.303  1.00  0.00    -0.376 N 
ATOM     17  H   UNL A   1      32.408  29.176  21.580  1.00  0.00     0.161 HD
BRANCH  16  18
ATOM     18  C   UNL A   1      30.575  28.865  22.378  1.00  0.00     0.034 A 
ATOM     19  C   UNL A   1      29.812  27.842  22.958  1.00  0.00     0.026 A 
ATOM     20  C   UNL A   1      29.912  30.037  22.002  1.00  0.00     0.026 A 
ATOM     21  C   UNL A   1      28.437  27.978  23.157  1.00  0.00     0.002 A 
ATOM     22  C   UNL A   1      28.531  30.174  22.184  1.00  0.00     0.002 A 
ATOM     23  C   UNL A   1      27.794  29.148  22.768  1.00  0.00     0.000 A 
ENDBRANCH  16  18
ENDBRANCH  15  16
ENDBRANCH  13  15
ENDBRANCH   7  11
ENDBRANCH   3   6
ENDBRANCH   1   2
BRANCH   1  24
ATOM     24  C   UNL A   1      37.051  21.071  24.623  1.00  0.00     0.023 C 
BRANCH  24  25
ATOM     25  C   UNL A   1      37.994  19.898  24.896  1.00  0.00     0.023 C 
BRANCH  25  26
ATOM     26  C   UNL A   1      39.178  20.204  25.807  1.00  0.00     0.116 C 
BRANCH  26  27
ATOM     27  N   UNL A   1      40.171  19.140  25.828  1.00  0.00    -0.352 N 
ATOM     28  C   UNL A   1      41.530  19.216  26.019  1.00  0.00     0.251 C 
ATOM     29  H   UNL A   1      39.818  18.233  25.683  1.00  0.00     0.163 HD
ATOM     30  O   UNL A   1      42.228  18.217  25.869  1.00  0.00    -0.269 OA
BRANCH  28  31
ATOM     31  C   UNL A   1      42.162  20.505  26.376  1.00  0.00     0.039 A 
ATOM     32  C   UNL A   1      42.789  21.250  25.372  1.00  0.00     0.014 A 
ATOM     33  C   UNL A   1      42.136  20.985  27.687  1.00  0.00     0.014 A 
ATOM     34  C   UNL A   1      43.323  22.505  25.670  1.00  0.00     0.010 A 
ATOM     35  C   UNL A   1      42.597  22.269  27.966  1.00  0.00     0.010 A 
ATOM     36  C   UNL A   1      43.195  23.044  26.960  1.00  0.00    -0.014 A 
BRANCH  36  37
ATOM     37  C   UNL A   1      43.674  24.416  27.276  1.00  0.00     0.031 A 
ATOM     38  C   UNL A   1      42.704  25.477  27.717  1.00  0.00     0.074 A 
ATOM     39  C   UNL A   1      44.973  24.727  27.099  1.00  0.00     0.049 A 
ATOM     40  N   UNL A   1      42.919  26.743  27.970  1.00  0.00    -0.248 NA
ATOM     41  C   UNL A   1      41.300  25.065  27.869  1.00  0.00     0.031 C 
ATOM     42  C   UNL A   1      46.009  23.803  26.634  1.00  0.00     0.029 A 
ATOM     43  N   UNL A   1      45.643  25.911  27.282  1.00  0.00    -0.354 N 
ATOM     44  C   UNL A   1      41.681  27.281  28.296  1.00  0.00     0.074 A 
ATOM     45  C   UNL A   1      40.710  26.217  28.154  1.00  0.00     0.031 C 
ATOM     46  C   UNL A   1      47.186  24.448  26.593  1.00  0.00     0.029 A 
ATOM     47  C   UNL A   1      46.983  25.838  26.984  1.00  0.00     0.049 A 
ATOM     48  H   UNL A   1      45.205  26.735  27.595  1.00  0.00     0.167 HD
ATOM     49  C   UNL A   1      41.382  28.538  28.702  1.00  0.00     0.037 A 
ATOM     50  C   UNL A   1      47.938  26.787  27.013  1.00  0.00     0.037 A 
ATOM     51  C   UNL A   1      42.351  29.592  28.855  1.00  0.00     0.049 A 
ATOM     52  C   UNL A   1      47.576  28.184  27.440  1.00  0.00     0.074 A 
ATOM     53  C   UNL A   1      42.155  30.883  29.311  1.00  0.00     0.029 A 
ATOM     54  N   UNL A   1      43.699  29.477  28.548  1.00  0.00    -0.354 N 
ATOM     55  N   UNL A   1      46.414  28.661  27.814  1.00  0.00    -0.248 NA
ATOM     56  C   UNL A   1      48.663  29.173  27.455  1.00  0.00     0.031 C 
ATOM     57  C   UNL A   1      43.373  31.567  29.227  1.00  0.00     0.029 A 
ATOM     58  C   UNL A   1      44.341  30.684  28.777  1.00  0.00     0.049 A 
ATOM     59  H   UNL A   1      44.134  28.660  28.215  1.00  0.00     0.167 HD
ATOM     60  C   UNL A   1      46.634  29.994  28.137  1.00  0.00     0.074 A 
ATOM     61  C   UNL A   1      48.045  30.246  27.928  1.00  0.00     0.031 C 
ATOM     62  C   UNL A   1      45.747  30.923  28.570  1.00  0.00     0.037 A 
BRANCH  49  63
ATOM     63  C   UNL A   1      39.941  28.841  29.002  1.00  0.00     0.057 A 
ATOM     64  C   UNL A   1      39.044  29.249  28.004  1.00  0.00     0.134 A 
ATOM     65  C   UNL A   1      39.436  28.704  30.302  1.00  0.00     0.134 A 
ATOM     66  F   UNL A   1      39.463  29.410  26.739  1.00  0.00    -0.206 F 
ATOM     67  C   UNL A   1      37.711  29.547  28.293  1.00  0.00     0.040 A 
ATOM     68  C   UNL A   1      38.097  28.967  30.597  1.00  0.00     0.040 A 
ATOM     69  F   UNL A   1      40.233  28.309  31.305  1.00  0.00    -0.206 F 
ATOM     70  C   UNL A   1      37.233  29.399  29.593  1.00  0.00     0.006 A 
ENDBRANCH  49  63
BRANCH  50  71
ATOM     71  C   UNL A   1      49.336  26.444  26.649  1.00  0.00     0.057 A 
ATOM     72  C   UNL A   1      49.817  26.661  25.352  1.00  0.00     0.134 A 
ATOM     73  C   UNL A   1      50.223  25.893  27.582  1.00  0.00     0.134 A 
ATOM     74  F   UNL A   1      49.010  27.168  24.410  1.00  0.00    -0.206 F 
ATOM     75  C   UNL A   1      51.123  26.325  24.991  1.00  0.00     0.040 A 
ATOM     76  C   UNL A   1      51.540  25.578  27.241  1.00  0.00     0.040 A 
ATOM     77  F   UNL A   1      49.826  25.667  28.843  1.00  0.00    -0.206 F 
ATOM     78  C   UNL A   1      51.990  25.787  25.939  1.00  0.00     0.006 A 
ENDBRANCH  50  71
BRANCH  62  79
ATOM     79  C   UNL A   1      46.282  32.290  28.889  1.00  0.00     0.057 A 
ATOM     80  C   UNL A   1      46.314  33.317  27.935  1.00  0.00     0.134 A 
ATOM     81  C   UNL A   1      46.733  32.594  30.180  1.00  0.00     0.134 A 
ATOM     82  F   UNL A   1      45.909  33.089  26.677  1.00  0.00    -0.206 F 
ATOM     83  C   UNL A   1      46.800  34.587  28.248  1.00  0.00     0.040 A 
ATOM     84  C   UNL A   1      47.193  33.869  30.512  1.00  0.00     0.040 A 
ATOM     85  F   UNL A   1      46.721  31.661  31.143  1.00  0.00    -0.206 F 
ATOM     86  C   UNL A   1      47.234  34.868  29.543  1.00  0.00     0.006 A 
ENDBRANCH  62  79
ENDBRANCH  36  37
ENDBRANCH  28  31
ENDBRANCH  26  27
ENDBRANCH  25  26
ENDBRANCH  24  25
ENDBRANCH   1  24
TORSDOF 15
ENDMDL
