MODEL 1
REMARK VINA RESULT:     -12.5      0.000      0.000
REMARK SMILES CC1=C(C)C[C@@H](C(=O)NCc2cccnc2)[C@H](C(=O)NCCCCNC(=O)c2ccc(-c3c4nc(c(-c5c(F)cccc5F)c5ccc([nH]5)c(-c5c(F)cccc5F)c5nc(c(-c6c(F)cccc6F)c6ccc3[nH]6)C=C5)C=C4)cc2)C1
REMARK SMILES IDX 22 1 21 2 20 3 18 4 19 5 17 7 1 8 2 9 3 10 82 11 4 12 5 13
REMARK SMILES IDX 6 14 7 15 8 16 9 17 10 19 11 20 12 21 16 22 13 23 15 24
REMARK SMILES IDX 14 25 23 26 24 27 25 28 26 29 27 31 28 32 29 33 81 34 30 35
REMARK SMILES IDX 80 36 31 37 32 38 33 39 74 40 34 41 79 42 73 43 75 44 35 45
REMARK SMILES IDX 78 46 72 47 71 48 36 50 62 51 45 52 61 53 46 54 49 55 60 56
REMARK SMILES IDX 76 57 47 58 48 59 59 61 77 62 50 63 37 64 38 65 43 66 39 67
REMARK SMILES IDX 40 68 42 69 44 70 41 71 63 72 64 73 69 74 65 75 66 76 68 77
REMARK SMILES IDX 70 78 67 79 51 80 52 81 57 82 53 83 54 84 56 85 58 86 55 87
REMARK H PARENT 20 6 9 18 25 30 75 49 49 60
REMARK Flexibility Score: inf
ROOT
ATOM      1  C   UNL A   1      37.044  21.660  24.473  1.00  0.00     0.023 C 
ENDROOT
BRANCH   1   2
ATOM      2  C   UNL A   1      37.153  22.818  25.457  1.00  0.00     0.116 C 
BRANCH   2   3
ATOM      3  N   UNL A   1      36.196  22.728  26.535  1.00  0.00    -0.356 N 
ATOM      4  C   UNL A   1      34.903  23.146  26.607  1.00  0.00     0.224 C 
ATOM      5  O   UNL A   1      34.284  22.865  27.638  1.00  0.00    -0.275 OA
ATOM      6  H   UNL A   1      36.535  22.292  27.350  1.00  0.00     0.163 HD
BRANCH   4   7
ATOM      7  C   UNL A   1      34.221  23.950  25.492  1.00  0.00     0.095 C 
ATOM      8  C   UNL A   1      33.807  27.809  26.085  1.00  0.00     0.039 C 
ATOM      9  C   UNL A   1      33.347  26.388  25.862  1.00  0.00    -0.074 C 
ATOM     10  C   UNL A   1      32.066  25.964  25.934  1.00  0.00    -0.074 C 
ATOM     11  C   UNL A   1      34.508  25.450  25.598  1.00  0.00     0.045 C 
ATOM     12  C   UNL A   1      30.881  26.828  26.292  1.00  0.00     0.039 C 
ATOM     13  C   UNL A   1      31.670  24.522  25.705  1.00  0.00     0.045 C 
ATOM     14  C   UNL A   1      32.761  23.522  25.315  1.00  0.00     0.095 C 
BRANCH  14  15
ATOM     15  C   UNL A   1      32.515  22.904  23.938  1.00  0.00     0.224 C 
ATOM     16  O   UNL A   1      32.544  23.619  22.931  1.00  0.00    -0.275 OA
ATOM     17  N   UNL A   1      32.254  21.589  23.737  1.00  0.00    -0.352 N 
ATOM     18  H   UNL A   1      32.049  21.362  22.802  1.00  0.00     0.163 HD
BRANCH  17  19
ATOM     19  C   UNL A   1      32.218  20.455  24.635  1.00  0.00     0.153 C 
BRANCH  19  20
ATOM     20  C   UNL A   1      32.869  19.208  24.114  1.00  0.00    -0.010 A 
ATOM     21  C   UNL A   1      34.087  18.785  24.664  1.00  0.00     0.009 A 
ATOM     22  C   UNL A   1      32.355  18.446  23.070  1.00  0.00     0.116 A 
ATOM     23  C   UNL A   1      34.719  17.646  24.175  1.00  0.00     0.020 A 
ATOM     24  N   UNL A   1      32.949  17.336  22.573  1.00  0.00    -0.264 NA
ATOM     25  C   UNL A   1      34.115  16.961  23.136  1.00  0.00     0.111 A 
ENDBRANCH  19  20
ENDBRANCH  17  19
ENDBRANCH  14  15
ENDBRANCH   4   7
ENDBRANCH   2   3
ENDBRANCH   1   2
BRANCH   1  26
ATOM     26  C   UNL A   1      37.762  20.389  24.917  1.00  0.00     0.023 C 
BRANCH  26  27
ATOM     27  C   UNL A   1      38.999  20.612  25.782  1.00  0.00     0.116 C 
BRANCH  27  28
ATOM     28  N   UNL A   1      39.954  19.512  25.748  1.00  0.00    -0.352 N 
ATOM     29  C   UNL A   1      41.284  19.542  26.103  1.00  0.00     0.251 C 
ATOM     30  H   UNL A   1      39.608  18.646  25.433  1.00  0.00     0.163 HD
ATOM     31  O   UNL A   1      42.001  18.558  25.960  1.00  0.00    -0.269 OA
BRANCH  29  32
ATOM     32  C   UNL A   1      41.840  20.806  26.623  1.00  0.00     0.039 A 
ATOM     33  C   UNL A   1      42.329  21.751  25.719  1.00  0.00     0.014 A 
ATOM     34  C   UNL A   1      41.771  21.089  27.988  1.00  0.00     0.014 A 
ATOM     35  C   UNL A   1      42.676  23.021  26.180  1.00  0.00     0.010 A 
ATOM     36  C   UNL A   1      42.045  22.375  28.433  1.00  0.00     0.010 A 
ATOM     37  C   UNL A   1      42.493  23.355  27.532  1.00  0.00    -0.014 A 
BRANCH  37  38
ATOM     38  C   UNL A   1      42.757  24.726  28.032  1.00  0.00     0.031 A 
ATOM     39  C   UNL A   1      44.145  25.111  28.456  1.00  0.00     0.074 A 
ATOM     40  C   UNL A   1      41.737  25.591  28.186  1.00  0.00     0.049 A 
ATOM     41  N   UNL A   1      44.564  26.222  29.007  1.00  0.00    -0.248 NA
ATOM     42  C   UNL A   1      45.196  24.100  28.267  1.00  0.00     0.031 C 
ATOM     43  C   UNL A   1      40.334  25.316  27.864  1.00  0.00     0.029 A 
ATOM     44  N   UNL A   1      41.721  26.876  28.665  1.00  0.00    -0.354 N 
ATOM     45  C   UNL A   1      45.917  26.033  29.250  1.00  0.00     0.074 A 
ATOM     46  C   UNL A   1      46.239  24.684  28.836  1.00  0.00     0.031 C 
ATOM     47  C   UNL A   1      39.600  26.408  28.133  1.00  0.00     0.029 A 
ATOM     48  C   UNL A   1      40.471  27.446  28.675  1.00  0.00     0.049 A 
ATOM     49  H   UNL A   1      42.529  27.346  28.973  1.00  0.00     0.167 HD
ATOM     50  C   UNL A   1      46.816  26.911  29.752  1.00  0.00     0.037 A 
ATOM     51  C   UNL A   1      40.074  28.667  29.079  1.00  0.00     0.037 A 
ATOM     52  C   UNL A   1      46.502  28.263  30.129  1.00  0.00     0.049 A 
ATOM     53  C   UNL A   1      41.093  29.632  29.615  1.00  0.00     0.074 A 
ATOM     54  C   UNL A   1      47.355  29.254  30.580  1.00  0.00     0.029 A 
ATOM     55  N   UNL A   1      45.230  28.813  30.094  1.00  0.00    -0.354 N 
ATOM     56  N   UNL A   1      42.383  29.463  29.778  1.00  0.00    -0.248 NA
ATOM     57  C   UNL A   1      40.603  30.957  30.018  1.00  0.00     0.031 C 
ATOM     58  C   UNL A   1      46.593  30.396  30.850  1.00  0.00     0.029 A 
ATOM     59  C   UNL A   1      45.272  30.127  30.530  1.00  0.00     0.049 A 
ATOM     60  H   UNL A   1      44.417  28.341  29.803  1.00  0.00     0.167 HD
ATOM     61  C   UNL A   1      42.864  30.666  30.278  1.00  0.00     0.074 A 
ATOM     62  C   UNL A   1      41.728  31.560  30.382  1.00  0.00     0.031 C 
ATOM     63  C   UNL A   1      44.132  31.003  30.619  1.00  0.00     0.037 A 
BRANCH  50  64
ATOM     64  C   UNL A   1      48.228  26.429  29.911  1.00  0.00     0.057 A 
ATOM     65  C   UNL A   1      49.175  26.572  28.888  1.00  0.00     0.134 A 
ATOM     66  C   UNL A   1      48.647  25.820  31.099  1.00  0.00     0.134 A 
ATOM     67  F   UNL A   1      48.832  27.133  27.718  1.00  0.00    -0.206 F 
ATOM     68  C   UNL A   1      50.479  26.097  29.028  1.00  0.00     0.040 A 
ATOM     69  C   UNL A   1      49.957  25.364  31.262  1.00  0.00     0.040 A 
ATOM     70  F   UNL A   1      47.792  25.655  32.119  1.00  0.00    -0.206 F 
ATOM     71  C   UNL A   1      50.874  25.495  30.222  1.00  0.00     0.006 A 
ENDBRANCH  50  64
BRANCH  51  72
ATOM     72  C   UNL A   1      38.649  29.061  28.955  1.00  0.00     0.057 A 
ATOM     73  C   UNL A   1      37.782  28.969  30.050  1.00  0.00     0.134 A 
ATOM     74  C   UNL A   1      38.122  29.541  27.751  1.00  0.00     0.134 A 
ATOM     75  F   UNL A   1      38.228  28.501  31.225  1.00  0.00    -0.206 F 
ATOM     76  C   UNL A   1      36.437  29.327  29.949  1.00  0.00     0.040 A 
ATOM     77  C   UNL A   1      36.782  29.920  27.641  1.00  0.00     0.040 A 
ATOM     78  F   UNL A   1      38.903  29.659  26.668  1.00  0.00    -0.206 F 
ATOM     79  C   UNL A   1      35.935  29.808  28.742  1.00  0.00     0.006 A 
ENDBRANCH  51  72
BRANCH  63  80
ATOM     80  C   UNL A   1      44.362  32.402  31.103  1.00  0.00     0.057 A 
ATOM     81  C   UNL A   1      44.330  32.725  32.465  1.00  0.00     0.134 A 
ATOM     82  C   UNL A   1      44.664  33.428  30.199  1.00  0.00     0.134 A 
ATOM     83  F   UNL A   1      44.033  31.789  33.379  1.00  0.00    -0.206 F 
ATOM     84  C   UNL A   1      44.575  34.025  32.909  1.00  0.00     0.040 A 
ATOM     85  C   UNL A   1      44.932  34.726  30.633  1.00  0.00     0.040 A 
ATOM     86  F   UNL A   1      44.716  33.180  28.881  1.00  0.00    -0.206 F 
ATOM     87  C   UNL A   1      44.883  35.028  31.992  1.00  0.00     0.006 A 
ENDBRANCH  63  80
ENDBRANCH  37  38
ENDBRANCH  29  32
ENDBRANCH  27  28
ENDBRANCH  26  27
ENDBRANCH   1  26
TORSDOF 14
ENDMDL
MODEL 2
REMARK VINA RESULT:     -12.3      1.143      1.821
REMARK SMILES CC1=C(C)C[C@@H](C(=O)NCc2cccnc2)[C@H](C(=O)NCCCCNC(=O)c2ccc(-c3c4nc(c(-c5c(F)cccc5F)c5ccc([nH]5)c(-c5c(F)cccc5F)c5nc(c(-c6c(F)cccc6F)c6ccc3[nH]6)C=C5)C=C4)cc2)C1
REMARK SMILES IDX 22 1 21 2 20 3 18 4 19 5 17 7 1 8 2 9 3 10 82 11 4 12 5 13
REMARK SMILES IDX 6 14 7 15 8 16 9 17 10 19 11 20 12 21 16 22 13 23 15 24
REMARK SMILES IDX 14 25 23 26 24 27 25 28 26 29 27 31 28 32 29 33 81 34 30 35
REMARK SMILES IDX 80 36 31 37 32 38 33 39 74 40 34 41 79 42 73 43 75 44 35 45
REMARK SMILES IDX 78 46 72 47 71 48 36 50 62 51 45 52 61 53 46 54 49 55 60 56
REMARK SMILES IDX 76 57 47 58 48 59 59 61 77 62 50 63 37 64 38 65 43 66 39 67
REMARK SMILES IDX 40 68 42 69 44 70 41 71 63 72 64 73 69 74 65 75 66 76 68 77
REMARK SMILES IDX 70 78 67 79 51 80 52 81 57 82 53 83 54 84 56 85 58 86 55 87
REMARK H PARENT 20 6 9 18 25 30 75 49 49 60
REMARK Flexibility Score: inf
ROOT
ATOM      1  C   UNL A   1      37.065  21.347  24.518  1.00  0.00     0.023 C 
ENDROOT
BRANCH   1   2
ATOM      2  C   UNL A   1      37.233  22.546  25.443  1.00  0.00     0.116 C 
BRANCH   2   3
ATOM      3  N   UNL A   1      36.272  22.561  26.520  1.00  0.00    -0.356 N 
ATOM      4  C   UNL A   1      35.013  23.073  26.575  1.00  0.00     0.224 C 
ATOM      5  O   UNL A   1      34.374  22.871  27.613  1.00  0.00    -0.275 OA
ATOM      6  H   UNL A   1      36.577  22.128  27.350  1.00  0.00     0.163 HD
BRANCH   4   7
ATOM      7  C   UNL A   1      34.390  23.887  25.433  1.00  0.00     0.095 C 
ATOM      8  C   UNL A   1      33.560  27.651  26.183  1.00  0.00     0.039 C 
ATOM      9  C   UNL A   1      33.260  26.213  25.829  1.00  0.00    -0.074 C 
ATOM     10  C   UNL A   1      32.024  25.678  25.725  1.00  0.00    -0.074 C 
ATOM     11  C   UNL A   1      34.525  25.396  25.654  1.00  0.00     0.045 C 
ATOM     12  C   UNL A   1      30.731  26.413  25.986  1.00  0.00     0.039 C 
ATOM     13  C   UNL A   1      31.790  24.225  25.371  1.00  0.00     0.045 C 
ATOM     14  C   UNL A   1      33.006  23.349  25.059  1.00  0.00     0.095 C 
BRANCH  14  15
ATOM     15  C   UNL A   1      32.976  22.804  23.631  1.00  0.00     0.224 C 
ATOM     16  O   UNL A   1      33.348  23.518  22.694  1.00  0.00    -0.275 OA
ATOM     17  N   UNL A   1      32.551  21.557  23.308  1.00  0.00    -0.352 N 
ATOM     18  H   UNL A   1      32.527  21.383  22.340  1.00  0.00     0.163 HD
BRANCH  17  19
ATOM     19  C   UNL A   1      32.127  20.434  24.115  1.00  0.00     0.153 C 
BRANCH  19  20
ATOM     20  C   UNL A   1      32.867  19.153  23.864  1.00  0.00    -0.010 A 
ATOM     21  C   UNL A   1      34.051  18.891  24.568  1.00  0.00     0.009 A 
ATOM     22  C   UNL A   1      32.470  18.202  22.929  1.00  0.00     0.116 A 
ATOM     23  C   UNL A   1      34.764  17.720  24.327  1.00  0.00     0.020 A 
ATOM     24  N   UNL A   1      33.146  17.058  22.673  1.00  0.00    -0.264 NA
ATOM     25  C   UNL A   1      34.275  16.842  23.378  1.00  0.00     0.111 A 
ENDBRANCH  19  20
ENDBRANCH  17  19
ENDBRANCH  14  15
ENDBRANCH   4   7
ENDBRANCH   2   3
ENDBRANCH   1   2
BRANCH   1  26
ATOM     26  C   UNL A   1      37.825  20.100  24.961  1.00  0.00     0.023 C 
BRANCH  26  27
ATOM     27  C   UNL A   1      39.108  20.366  25.741  1.00  0.00     0.116 C 
BRANCH  27  28
ATOM     28  N   UNL A   1      40.013  19.226  25.804  1.00  0.00    -0.352 N 
ATOM     29  C   UNL A   1      41.356  19.234  26.106  1.00  0.00     0.251 C 
ATOM     30  H   UNL A   1      39.618  18.347  25.607  1.00  0.00     0.163 HD
ATOM     31  O   UNL A   1      42.024  18.207  26.055  1.00  0.00    -0.269 OA
BRANCH  29  32
ATOM     32  C   UNL A   1      41.987  20.522  26.451  1.00  0.00     0.039 A 
ATOM     33  C   UNL A   1      42.379  21.380  25.423  1.00  0.00     0.014 A 
ATOM     34  C   UNL A   1      42.084  20.914  27.788  1.00  0.00     0.014 A 
ATOM     35  C   UNL A   1      42.795  22.674  25.734  1.00  0.00     0.010 A 
ATOM     36  C   UNL A   1      42.426  22.226  28.091  1.00  0.00     0.010 A 
ATOM     37  C   UNL A   1      42.778  23.120  27.066  1.00  0.00    -0.014 A 
BRANCH  37  38
ATOM     38  C   UNL A   1      43.118  24.519  27.418  1.00  0.00     0.031 A 
ATOM     39  C   UNL A   1      44.553  24.959  27.428  1.00  0.00     0.074 A 
ATOM     40  C   UNL A   1      42.147  25.366  27.810  1.00  0.00     0.049 A 
ATOM     41  N   UNL A   1      45.066  26.105  27.797  1.00  0.00    -0.248 NA
ATOM     42  C   UNL A   1      45.550  23.965  27.000  1.00  0.00     0.031 C 
ATOM     43  C   UNL A   1      40.721  25.042  27.897  1.00  0.00     0.029 A 
ATOM     44  N   UNL A   1      42.215  26.673  28.222  1.00  0.00    -0.354 N 
ATOM     45  C   UNL A   1      46.440  25.961  27.668  1.00  0.00     0.074 A 
ATOM     46  C   UNL A   1      46.686  24.602  27.237  1.00  0.00     0.031 C 
ATOM     47  C   UNL A   1      40.049  26.128  28.312  1.00  0.00     0.029 A 
ATOM     48  C   UNL A   1      40.996  27.212  28.551  1.00  0.00     0.049 A 
ATOM     49  H   UNL A   1      43.059  27.177  28.277  1.00  0.00     0.167 HD
ATOM     50  C   UNL A   1      47.409  26.885  27.867  1.00  0.00     0.037 A 
ATOM     51  C   UNL A   1      40.679  28.442  28.998  1.00  0.00     0.037 A 
ATOM     52  C   UNL A   1      47.160  28.245  28.259  1.00  0.00     0.049 A 
ATOM     53  C   UNL A   1      41.770  29.457  29.194  1.00  0.00     0.074 A 
ATOM     54  C   UNL A   1      48.067  29.277  28.419  1.00  0.00     0.029 A 
ATOM     55  N   UNL A   1      45.907  28.763  28.553  1.00  0.00    -0.354 N 
ATOM     56  N   UNL A   1      43.061  29.327  29.004  1.00  0.00    -0.248 NA
ATOM     57  C   UNL A   1      41.360  30.788  29.661  1.00  0.00     0.031 C 
ATOM     58  C   UNL A   1      47.367  30.413  28.839  1.00  0.00     0.029 A 
ATOM     59  C   UNL A   1      46.019  30.097  28.906  1.00  0.00     0.049 A 
ATOM     60  H   UNL A   1      45.064  28.257  28.515  1.00  0.00     0.167 HD
ATOM     61  C   UNL A   1      43.615  30.565  29.302  1.00  0.00     0.074 A 
ATOM     62  C   UNL A   1      42.519  31.435  29.678  1.00  0.00     0.031 C 
ATOM     63  C   UNL A   1      44.915  30.948  29.268  1.00  0.00     0.037 A 
BRANCH  50  64
ATOM     64  C   UNL A   1      48.827  26.445  27.652  1.00  0.00     0.057 A 
ATOM     65  C   UNL A   1      49.616  25.959  28.703  1.00  0.00     0.134 A 
ATOM     66  C   UNL A   1      49.409  26.502  26.380  1.00  0.00     0.134 A 
ATOM     67  F   UNL A   1      49.122  25.893  29.949  1.00  0.00    -0.206 F 
ATOM     68  C   UNL A   1      50.943  25.577  28.505  1.00  0.00     0.040 A 
ATOM     69  C   UNL A   1      50.728  26.097  26.164  1.00  0.00     0.040 A 
ATOM     70  F   UNL A   1      48.709  26.954  25.329  1.00  0.00    -0.206 F 
ATOM     71  C   UNL A   1      51.501  25.641  27.229  1.00  0.00     0.006 A 
ENDBRANCH  50  64
BRANCH  51  72
ATOM     72  C   UNL A   1      39.261  28.795  29.254  1.00  0.00     0.057 A 
ATOM     73  C   UNL A   1      38.690  28.597  30.516  1.00  0.00     0.134 A 
ATOM     74  C   UNL A   1      38.448  29.340  28.254  1.00  0.00     0.134 A 
ATOM     75  F   UNL A   1      39.417  28.063  31.508  1.00  0.00    -0.206 F 
ATOM     76  C   UNL A   1      37.355  28.915  30.772  1.00  0.00     0.040 A 
ATOM     77  C   UNL A   1      37.117  29.680  28.501  1.00  0.00     0.040 A 
ATOM     78  F   UNL A   1      38.939  29.561  27.026  1.00  0.00    -0.206 F 
ATOM     79  C   UNL A   1      36.566  29.463  29.763  1.00  0.00     0.006 A 
ENDBRANCH  51  72
BRANCH  63  80
ATOM     80  C   UNL A   1      45.217  32.375  29.613  1.00  0.00     0.057 A 
ATOM     81  C   UNL A   1      45.182  33.389  28.648  1.00  0.00     0.134 A 
ATOM     82  C   UNL A   1      45.501  32.744  30.933  1.00  0.00     0.134 A 
ATOM     83  F   UNL A   1      44.929  33.097  27.364  1.00  0.00    -0.206 F 
ATOM     84  C   UNL A   1      45.437  34.720  28.984  1.00  0.00     0.040 A 
ATOM     85  C   UNL A   1      45.735  34.073  31.284  1.00  0.00     0.040 A 
ATOM     86  F   UNL A   1      45.542  31.819  31.905  1.00  0.00    -0.206 F 
ATOM     87  C   UNL A   1      45.707  35.065  30.306  1.00  0.00     0.006 A 
ENDBRANCH  63  80
ENDBRANCH  37  38
ENDBRANCH  29  32
ENDBRANCH  27  28
ENDBRANCH  26  27
ENDBRANCH   1  26
TORSDOF 14
ENDMDL
MODEL 3
REMARK VINA RESULT:     -12.2      1.606      6.398
REMARK SMILES CC1=C(C)C[C@@H](C(=O)NCc2cccnc2)[C@H](C(=O)NCCCCNC(=O)c2ccc(-c3c4nc(c(-c5c(F)cccc5F)c5ccc([nH]5)c(-c5c(F)cccc5F)c5nc(c(-c6c(F)cccc6F)c6ccc3[nH]6)C=C5)C=C4)cc2)C1
REMARK SMILES IDX 22 1 21 2 20 3 18 4 19 5 17 7 1 8 2 9 3 10 82 11 4 12 5 13
REMARK SMILES IDX 6 14 7 15 8 16 9 17 10 19 11 20 12 21 16 22 13 23 15 24
REMARK SMILES IDX 14 25 23 26 24 27 25 28 26 29 27 31 28 32 29 33 81 34 30 35
REMARK SMILES IDX 80 36 31 37 32 38 33 39 74 40 34 41 79 42 73 43 75 44 35 45
REMARK SMILES IDX 78 46 72 47 71 48 36 50 62 51 45 52 61 53 46 54 49 55 60 56
REMARK SMILES IDX 76 57 47 58 48 59 59 61 77 62 50 63 37 64 38 65 43 66 39 67
REMARK SMILES IDX 40 68 42 69 44 70 41 71 63 72 64 73 69 74 65 75 66 76 68 77
REMARK SMILES IDX 70 78 67 79 51 80 52 81 57 82 53 83 54 84 56 85 58 86 55 87
REMARK H PARENT 20 6 9 18 25 30 75 49 49 60
REMARK Flexibility Score: inf
ROOT
ATOM      1  C   UNL A   1      37.249  21.555  24.547  1.00  0.00     0.023 C 
ENDROOT
BRANCH   1   2
ATOM      2  C   UNL A   1      37.183  22.792  25.435  1.00  0.00     0.116 C 
BRANCH   2   3
ATOM      3  N   UNL A   1      36.225  22.660  26.507  1.00  0.00    -0.356 N 
ATOM      4  C   UNL A   1      34.923  23.048  26.583  1.00  0.00     0.224 C 
ATOM      5  O   UNL A   1      34.307  22.733  27.606  1.00  0.00    -0.275 OA
ATOM      6  H   UNL A   1      36.570  22.215  27.315  1.00  0.00     0.163 HD
BRANCH   4   7
ATOM      7  C   UNL A   1      34.226  23.859  25.482  1.00  0.00     0.095 C 
ATOM      8  C   UNL A   1      33.925  27.732  26.048  1.00  0.00     0.039 C 
ATOM      9  C   UNL A   1      33.424  26.321  25.854  1.00  0.00    -0.074 C 
ATOM     10  C   UNL A   1      32.136  25.929  25.969  1.00  0.00    -0.074 C 
ATOM     11  C   UNL A   1      34.553  25.352  25.564  1.00  0.00     0.045 C 
ATOM     12  C   UNL A   1      30.984  26.825  26.354  1.00  0.00     0.039 C 
ATOM     13  C   UNL A   1      31.697  24.495  25.766  1.00  0.00     0.045 C 
ATOM     14  C   UNL A   1      32.751  23.465  25.353  1.00  0.00     0.095 C 
BRANCH  14  15
ATOM     15  C   UNL A   1      32.448  22.840  23.991  1.00  0.00     0.224 C 
ATOM     16  O   UNL A   1      32.408  23.555  22.984  1.00  0.00    -0.275 OA
ATOM     17  N   UNL A   1      32.206  21.520  23.803  1.00  0.00    -0.352 N 
ATOM     18  H   UNL A   1      31.958  21.288  22.879  1.00  0.00     0.163 HD
BRANCH  17  19
ATOM     19  C   UNL A   1      32.243  20.387  24.701  1.00  0.00     0.153 C 
BRANCH  19  20
ATOM     20  C   UNL A   1      32.894  19.153  24.146  1.00  0.00    -0.010 A 
ATOM     21  C   UNL A   1      34.111  18.715  24.685  1.00  0.00     0.009 A 
ATOM     22  C   UNL A   1      32.379  18.421  23.081  1.00  0.00     0.116 A 
ATOM     23  C   UNL A   1      34.743  17.589  24.164  1.00  0.00     0.020 A 
ATOM     24  N   UNL A   1      32.973  17.325  22.554  1.00  0.00    -0.264 NA
ATOM     25  C   UNL A   1      34.139  16.933  23.107  1.00  0.00     0.111 A 
ENDBRANCH  19  20
ENDBRANCH  17  19
ENDBRANCH  14  15
ENDBRANCH   4   7
ENDBRANCH   2   3
ENDBRANCH   1   2
BRANCH   1  26
ATOM     26  C   UNL A   1      37.877  20.336  25.214  1.00  0.00     0.023 C 
BRANCH  26  27
ATOM     27  C   UNL A   1      39.291  20.545  25.747  1.00  0.00     0.116 C 
BRANCH  27  28
ATOM     28  N   UNL A   1      40.093  19.330  25.800  1.00  0.00    -0.352 N 
ATOM     29  C   UNL A   1      41.432  19.217  26.100  1.00  0.00     0.251 C 
ATOM     30  H   UNL A   1      39.621  18.490  25.598  1.00  0.00     0.163 HD
ATOM     31  O   UNL A   1      42.006  18.136  26.041  1.00  0.00    -0.269 OA
BRANCH  29  32
ATOM     32  C   UNL A   1      42.173  20.442  26.453  1.00  0.00     0.039 A 
ATOM     33  C   UNL A   1      42.775  21.186  25.436  1.00  0.00     0.014 A 
ATOM     34  C   UNL A   1      42.173  20.902  27.771  1.00  0.00     0.014 A 
ATOM     35  C   UNL A   1      43.309  22.439  25.730  1.00  0.00     0.010 A 
ATOM     36  C   UNL A   1      42.637  22.181  28.048  1.00  0.00     0.010 A 
ATOM     37  C   UNL A   1      43.204  22.964  27.029  1.00  0.00    -0.014 A 
BRANCH  37  38
ATOM     38  C   UNL A   1      43.671  24.334  27.350  1.00  0.00     0.031 A 
ATOM     39  C   UNL A   1      42.683  25.380  27.777  1.00  0.00     0.074 A 
ATOM     40  C   UNL A   1      44.967  24.658  27.174  1.00  0.00     0.049 A 
ATOM     41  N   UNL A   1      42.873  26.654  28.009  1.00  0.00    -0.248 NA
ATOM     42  C   UNL A   1      41.286  24.943  27.928  1.00  0.00     0.031 C 
ATOM     43  C   UNL A   1      46.015  23.746  26.709  1.00  0.00     0.029 A 
ATOM     44  N   UNL A   1      45.621  25.850  27.355  1.00  0.00    -0.354 N 
ATOM     45  C   UNL A   1      41.621  27.171  28.310  1.00  0.00     0.074 A 
ATOM     46  C   UNL A   1      40.670  26.088  28.181  1.00  0.00     0.031 C 
ATOM     47  C   UNL A   1      47.183  24.407  26.665  1.00  0.00     0.029 A 
ATOM     48  C   UNL A   1      46.962  25.792  27.065  1.00  0.00     0.049 A 
ATOM     49  H   UNL A   1      45.172  26.670  27.663  1.00  0.00     0.167 HD
ATOM     50  C   UNL A   1      41.294  28.431  28.684  1.00  0.00     0.037 A 
ATOM     51  C   UNL A   1      47.906  26.752  27.115  1.00  0.00     0.037 A 
ATOM     52  C   UNL A   1      42.246  29.497  28.848  1.00  0.00     0.049 A 
ATOM     53  C   UNL A   1      47.524  28.138  27.551  1.00  0.00     0.074 A 
ATOM     54  C   UNL A   1      42.026  30.788  29.291  1.00  0.00     0.029 A 
ATOM     55  N   UNL A   1      43.601  29.391  28.575  1.00  0.00    -0.354 N 
ATOM     56  N   UNL A   1      46.346  28.598  27.897  1.00  0.00    -0.248 NA
ATOM     57  C   UNL A   1      48.601  29.135  27.607  1.00  0.00     0.031 C 
ATOM     58  C   UNL A   1      43.244  31.475  29.256  1.00  0.00     0.029 A 
ATOM     59  C   UNL A   1      44.228  30.599  28.828  1.00  0.00     0.049 A 
ATOM     60  H   UNL A   1      44.050  28.577  28.250  1.00  0.00     0.167 HD
ATOM     61  C   UNL A   1      46.544  29.930  28.237  1.00  0.00     0.074 A 
ATOM     62  C   UNL A   1      47.956  30.201  28.064  1.00  0.00     0.031 C 
ATOM     63  C   UNL A   1      45.637  30.846  28.657  1.00  0.00     0.037 A 
BRANCH  50  64
ATOM     64  C   UNL A   1      39.845  28.711  28.948  1.00  0.00     0.057 A 
ATOM     65  C   UNL A   1      39.276  28.521  30.215  1.00  0.00     0.134 A 
ATOM     66  C   UNL A   1      39.009  29.181  27.928  1.00  0.00     0.134 A 
ATOM     67  F   UNL A   1      40.020  28.058  31.231  1.00  0.00    -0.206 F 
ATOM     68  C   UNL A   1      37.921  28.757  30.450  1.00  0.00     0.040 A 
ATOM     69  C   UNL A   1      37.657  29.446  28.158  1.00  0.00     0.040 A 
ATOM     70  F   UNL A   1      39.490  29.387  26.693  1.00  0.00    -0.206 F 
ATOM     71  C   UNL A   1      37.109  29.226  29.419  1.00  0.00     0.006 A 
ENDBRANCH  50  64
BRANCH  51  72
ATOM     72  C   UNL A   1      49.314  26.424  26.779  1.00  0.00     0.057 A 
ATOM     73  C   UNL A   1      49.820  26.667  25.497  1.00  0.00     0.134 A 
ATOM     74  C   UNL A   1      50.184  25.868  27.723  1.00  0.00     0.134 A 
ATOM     75  F   UNL A   1      49.027  27.183  24.546  1.00  0.00    -0.206 F 
ATOM     76  C   UNL A   1      51.138  26.357  25.160  1.00  0.00     0.040 A 
ATOM     77  C   UNL A   1      51.511  25.571  27.406  1.00  0.00     0.040 A 
ATOM     78  F   UNL A   1      49.761  25.618  28.971  1.00  0.00    -0.206 F 
ATOM     79  C   UNL A   1      51.989  25.811  26.119  1.00  0.00     0.006 A 
ENDBRANCH  51  72
BRANCH  63  80
ATOM     80  C   UNL A   1      46.151  32.214  28.988  1.00  0.00     0.057 A 
ATOM     81  C   UNL A   1      46.251  33.219  28.019  1.00  0.00     0.134 A 
ATOM     82  C   UNL A   1      46.507  32.542  30.303  1.00  0.00     0.134 A 
ATOM     83  F   UNL A   1      45.938  32.963  26.740  1.00  0.00    -0.206 F 
ATOM     84  C   UNL A   1      46.703  34.499  28.343  1.00  0.00     0.040 A 
ATOM     85  C   UNL A   1      46.938  33.824  30.643  1.00  0.00     0.040 A 
ATOM     86  F   UNL A   1      46.426  31.624  31.279  1.00  0.00    -0.206 F 
ATOM     87  C   UNL A   1      47.042  34.806  29.659  1.00  0.00     0.006 A 
ENDBRANCH  63  80
ENDBRANCH  37  38
ENDBRANCH  29  32
ENDBRANCH  27  28
ENDBRANCH  26  27
ENDBRANCH   1  26
TORSDOF 14
ENDMDL
