MODEL 1
REMARK VINA RESULT:     -11.6      0.000      0.000
REMARK SMILES C[NH+](C)[C@@H]1CC[N@@H+](Cc2ccc(C(=O)NCCCCNC(=O)c3ccc(-c4c5nc(c(-c6c(F)cccc6F)c6ccc([nH]6)c(-c6c(F)cccc6F)c6nc(c(-c7c(F)cccc7F)c7ccc4[nH]7)C=C6)C=C5)cc3)cn2)C1
REMARK SMILES IDX 17 1 16 2 15 3 13 4 14 5 12 7 9 8 10 9 78 10 11 11 77 12
REMARK SMILES IDX 8 13 7 14 4 15 5 16 79 17 6 18 2 20 1 21 3 22 18 24 19 25
REMARK SMILES IDX 20 26 21 27 22 29 23 30 24 31 76 32 25 33 75 34 26 35 27 36
REMARK SMILES IDX 28 37 69 38 29 39 74 40 68 41 70 42 30 43 73 44 67 45 66 46
REMARK SMILES IDX 31 48 57 49 40 50 56 51 41 52 44 53 55 54 71 55 42 56 43 57
REMARK SMILES IDX 54 59 72 60 45 61 32 62 33 63 38 64 34 65 35 66 37 67 39 68
REMARK SMILES IDX 36 69 58 70 59 71 64 72 60 73 61 74 63 75 65 76 62 77 46 78
REMARK SMILES IDX 47 79 52 80 48 81 49 82 51 83 53 84 50 85
REMARK H PARENT 15 6 7 19 2 23 20 28 70 47 44 58
REMARK Flexibility Score: inf
ROOT
ATOM      1  C   UNL A   1      31.980  30.055  26.597  1.00  0.00     0.023 C 
ENDROOT
BRANCH   1   2
ATOM      2  C   UNL A   1      31.474  29.428  25.297  1.00  0.00     0.116 C 
BRANCH   2   3
ATOM      3  N   UNL A   1      32.483  29.516  24.256  1.00  0.00    -0.352 N 
ATOM      4  C   UNL A   1      33.345  28.575  23.752  1.00  0.00     0.252 C 
ATOM      5  O   UNL A   1      34.073  28.895  22.814  1.00  0.00    -0.269 OA
ATOM      6  H   UNL A   1      32.562  30.405  23.841  1.00  0.00     0.163 HD
BRANCH   4   7
ATOM      7  C   UNL A   1      33.376  27.179  24.243  1.00  0.00     0.058 A 
ATOM      8  C   UNL A   1      33.110  24.531  24.973  1.00  0.00     0.095 A 
ATOM      9  C   UNL A   1      33.542  25.452  25.920  1.00  0.00     0.030 A 
ATOM     10  N   UNL A   1      32.918  24.871  23.673  1.00  0.00    -0.255 NA
ATOM     11  C   UNL A   1      33.695  26.783  25.540  1.00  0.00     0.017 A 
ATOM     12  C   UNL A   1      33.054  26.178  23.339  1.00  0.00     0.125 A 
BRANCH   8  13
ATOM     13  C   UNL A   1      32.727  23.126  25.394  1.00  0.00     0.319 C 
BRANCH  13  14
ATOM     14  N   UNL A   1      33.601  22.027  24.946  1.00  0.00    -0.325 N 
ATOM     15  C   UNL A   1      32.929  19.690  25.307  1.00  0.00     0.245 C 
ATOM     16  C   UNL A   1      32.408  20.205  23.954  1.00  0.00     0.132 C 
ATOM     17  C   UNL A   1      33.745  20.895  25.867  1.00  0.00     0.328 C 
ATOM     18  C   UNL A   1      33.232  21.447  23.657  1.00  0.00     0.269 C 
ATOM     19  H   UNL A   1      34.487  22.530  24.890  1.00  0.00     0.348 HD
BRANCH  15  20
ATOM     20  N   UNL A   1      33.498  18.323  25.382  1.00  0.00    -0.333 N 
ATOM     21  C   UNL A   1      32.567  17.259  25.739  1.00  0.00     0.332 C 
ATOM     22  C   UNL A   1      34.324  17.917  24.251  1.00  0.00     0.332 C 
ATOM     23  H   UNL A   1      34.124  18.442  26.179  1.00  0.00     0.348 HD
ENDBRANCH  15  20
ENDBRANCH  13  14
ENDBRANCH   8  13
ENDBRANCH   4   7
ENDBRANCH   2   3
ENDBRANCH   1   2
BRANCH   1  24
ATOM     24  C   UNL A   1      31.703  31.553  26.727  1.00  0.00     0.023 C 
BRANCH  24  25
ATOM     25  C   UNL A   1      32.876  32.383  27.230  1.00  0.00     0.116 C 
BRANCH  25  26
ATOM     26  N   UNL A   1      32.512  33.754  27.555  1.00  0.00    -0.352 N 
ATOM     27  C   UNL A   1      33.062  34.591  28.497  1.00  0.00     0.251 C 
ATOM     28  H   UNL A   1      31.772  34.135  27.028  1.00  0.00     0.163 HD
ATOM     29  O   UNL A   1      32.567  35.686  28.719  1.00  0.00    -0.269 OA
BRANCH  27  30
ATOM     30  C   UNL A   1      34.232  34.130  29.273  1.00  0.00     0.039 A 
ATOM     31  C   UNL A   1      34.017  33.363  30.421  1.00  0.00     0.014 A 
ATOM     32  C   UNL A   1      35.530  34.420  28.847  1.00  0.00     0.014 A 
ATOM     33  C   UNL A   1      35.108  32.822  31.100  1.00  0.00     0.010 A 
ATOM     34  C   UNL A   1      36.613  33.821  29.483  1.00  0.00     0.010 A 
ATOM     35  C   UNL A   1      36.411  33.014  30.612  1.00  0.00    -0.014 A 
BRANCH  35  36
ATOM     36  C   UNL A   1      37.575  32.358  31.254  1.00  0.00     0.031 A 
ATOM     37  C   UNL A   1      38.266  31.211  30.577  1.00  0.00     0.074 A 
ATOM     38  C   UNL A   1      37.950  32.739  32.491  1.00  0.00     0.049 A 
ATOM     39  N   UNL A   1      39.250  30.465  31.013  1.00  0.00    -0.248 NA
ATOM     40  C   UNL A   1      37.763  30.829  29.248  1.00  0.00     0.031 C 
ATOM     41  C   UNL A   1      37.310  33.791  33.283  1.00  0.00     0.029 A 
ATOM     42  N   UNL A   1      38.947  32.268  33.306  1.00  0.00    -0.354 N 
ATOM     43  C   UNL A   1      39.469  29.517  30.023  1.00  0.00     0.074 A 
ATOM     44  C   UNL A   1      38.485  29.750  28.989  1.00  0.00     0.031 C 
ATOM     45  C   UNL A   1      37.935  33.891  34.466  1.00  0.00     0.029 A 
ATOM     46  C   UNL A   1      38.999  32.894  34.527  1.00  0.00     0.049 A 
ATOM     47  H   UNL A   1      39.566  31.550  33.041  1.00  0.00     0.167 HD
ATOM     48  C   UNL A   1      40.419  28.553  29.972  1.00  0.00     0.037 A 
ATOM     49  C   UNL A   1      39.807  32.683  35.582  1.00  0.00     0.037 A 
ATOM     50  C   UNL A   1      41.413  28.342  30.991  1.00  0.00     0.049 A 
ATOM     51  C   UNL A   1      40.873  31.629  35.494  1.00  0.00     0.074 A 
ATOM     52  C   UNL A   1      42.474  27.454  30.993  1.00  0.00     0.029 A 
ATOM     53  N   UNL A   1      41.463  29.027  32.197  1.00  0.00    -0.354 N 
ATOM     54  N   UNL A   1      41.133  30.800  34.511  1.00  0.00    -0.248 NA
ATOM     55  C   UNL A   1      41.764  31.486  36.653  1.00  0.00     0.031 C 
ATOM     56  C   UNL A   1      43.141  27.570  32.217  1.00  0.00     0.029 A 
ATOM     57  C   UNL A   1      42.522  28.561  32.962  1.00  0.00     0.049 A 
ATOM     58  H   UNL A   1      40.839  29.737  32.469  1.00  0.00     0.167 HD
ATOM     59  C   UNL A   1      42.224  30.048  34.926  1.00  0.00     0.074 A 
ATOM     60  C   UNL A   1      42.589  30.532  36.242  1.00  0.00     0.031 C 
ATOM     61  C   UNL A   1      42.865  29.047  34.275  1.00  0.00     0.037 A 
BRANCH  48  62
ATOM     62  C   UNL A   1      40.420  27.655  28.769  1.00  0.00     0.057 A 
ATOM     63  C   UNL A   1      39.654  26.484  28.719  1.00  0.00     0.134 A 
ATOM     64  C   UNL A   1      41.194  27.969  27.645  1.00  0.00     0.134 A 
ATOM     65  F   UNL A   1      38.900  26.119  29.767  1.00  0.00    -0.206 F 
ATOM     66  C   UNL A   1      39.685  25.637  27.609  1.00  0.00     0.040 A 
ATOM     67  C   UNL A   1      41.212  27.145  26.518  1.00  0.00     0.040 A 
ATOM     68  F   UNL A   1      41.948  29.080  27.623  1.00  0.00    -0.206 F 
ATOM     69  C   UNL A   1      40.463  25.970  26.503  1.00  0.00     0.006 A 
ENDBRANCH  48  62
BRANCH  49  70
ATOM     70  C   UNL A   1      39.646  33.508  36.805  1.00  0.00     0.057 A 
ATOM     71  C   UNL A   1      40.328  34.719  36.953  1.00  0.00     0.134 A 
ATOM     72  C   UNL A   1      38.782  33.120  37.836  1.00  0.00     0.134 A 
ATOM     73  F   UNL A   1      41.180  35.135  36.006  1.00  0.00    -0.206 F 
ATOM     74  C   UNL A   1      40.166  35.514  38.090  1.00  0.00     0.040 A 
ATOM     75  C   UNL A   1      38.594  33.913  38.968  1.00  0.00     0.040 A 
ATOM     76  F   UNL A   1      38.092  31.973  37.746  1.00  0.00    -0.206 F 
ATOM     77  C   UNL A   1      39.290  35.113  39.099  1.00  0.00     0.006 A 
ENDBRANCH  49  70
BRANCH  61  78
ATOM     78  C   UNL A   1      44.032  28.415  34.972  1.00  0.00     0.057 A 
ATOM     79  C   UNL A   1      43.882  27.277  35.775  1.00  0.00     0.134 A 
ATOM     80  C   UNL A   1      45.326  28.926  34.807  1.00  0.00     0.134 A 
ATOM     81  F   UNL A   1      42.667  26.748  35.982  1.00  0.00    -0.206 F 
ATOM     82  C   UNL A   1      44.976  26.680  36.404  1.00  0.00     0.040 A 
ATOM     83  C   UNL A   1      46.430  28.325  35.412  1.00  0.00     0.040 A 
ATOM     84  F   UNL A   1      45.538  30.010  34.046  1.00  0.00    -0.206 F 
ATOM     85  C   UNL A   1      46.255  27.200  36.217  1.00  0.00     0.006 A 
ENDBRANCH  61  78
ENDBRANCH  35  36
ENDBRANCH  27  30
ENDBRANCH  25  26
ENDBRANCH  24  25
ENDBRANCH   1  24
TORSDOF 14
ENDMDL
MODEL 2
REMARK VINA RESULT:     -11.5      5.430     10.653
REMARK SMILES C[NH+](C)[C@@H]1CC[N@@H+](Cc2ccc(C(=O)NCCCCNC(=O)c3ccc(-c4c5nc(c(-c6c(F)cccc6F)c6ccc([nH]6)c(-c6c(F)cccc6F)c6nc(c(-c7c(F)cccc7F)c7ccc4[nH]7)C=C6)C=C5)cc3)cn2)C1
REMARK SMILES IDX 17 1 16 2 15 3 13 4 14 5 12 7 9 8 10 9 78 10 11 11 77 12
REMARK SMILES IDX 8 13 7 14 4 15 5 16 79 17 6 18 2 20 1 21 3 22 18 24 19 25
REMARK SMILES IDX 20 26 21 27 22 29 23 30 24 31 76 32 25 33 75 34 26 35 27 36
REMARK SMILES IDX 28 37 69 38 29 39 74 40 68 41 70 42 30 43 73 44 67 45 66 46
REMARK SMILES IDX 31 48 57 49 40 50 56 51 41 52 44 53 55 54 71 55 42 56 43 57
REMARK SMILES IDX 54 59 72 60 45 61 32 62 33 63 38 64 34 65 35 66 37 67 39 68
REMARK SMILES IDX 36 69 58 70 59 71 64 72 60 73 61 74 63 75 65 76 62 77 46 78
REMARK SMILES IDX 47 79 52 80 48 81 49 82 51 83 53 84 50 85
REMARK H PARENT 15 6 7 19 2 23 20 28 70 47 44 58
REMARK Flexibility Score: inf
ROOT
ATOM      1  C   UNL A   1      37.106  21.243  24.763  1.00  0.00     0.023 C 
ENDROOT
BRANCH   1   2
ATOM      2  C   UNL A   1      35.853  21.239  25.641  1.00  0.00     0.116 C 
BRANCH   2   3
ATOM      3  N   UNL A   1      34.967  20.152  25.269  1.00  0.00    -0.352 N 
ATOM      4  C   UNL A   1      33.707  20.158  24.723  1.00  0.00     0.252 C 
ATOM      5  O   UNL A   1      33.188  19.080  24.442  1.00  0.00    -0.269 OA
ATOM      6  H   UNL A   1      35.332  19.253  25.438  1.00  0.00     0.163 HD
BRANCH   4   7
ATOM      7  C   UNL A   1      32.990  21.410  24.393  1.00  0.00     0.058 A 
ATOM      8  C   UNL A   1      31.335  23.547  23.832  1.00  0.00     0.095 A 
ATOM      9  C   UNL A   1      32.463  23.343  23.048  1.00  0.00     0.030 A 
ATOM     10  N   UNL A   1      31.077  22.795  24.933  1.00  0.00    -0.255 NA
ATOM     11  C   UNL A   1      33.306  22.275  23.348  1.00  0.00     0.017 A 
ATOM     12  C   UNL A   1      31.904  21.750  25.186  1.00  0.00     0.125 A 
BRANCH   8  13
ATOM     13  C   UNL A   1      30.285  24.557  23.412  1.00  0.00     0.319 C 
BRANCH  13  14
ATOM     14  N   UNL A   1      29.868  25.550  24.417  1.00  0.00    -0.325 N 
ATOM     15  C   UNL A   1      31.196  27.591  24.761  1.00  0.00     0.245 C 
ATOM     16  C   UNL A   1      30.121  27.814  23.682  1.00  0.00     0.132 C 
ATOM     17  C   UNL A   1      30.934  26.130  25.241  1.00  0.00     0.328 C 
ATOM     18  C   UNL A   1      29.123  26.685  23.875  1.00  0.00     0.269 C 
ATOM     19  H   UNL A   1      29.276  24.960  25.001  1.00  0.00     0.348 HD
BRANCH  15  20
ATOM     20  N   UNL A   1      31.436  28.657  25.764  1.00  0.00    -0.333 N 
ATOM     21  C   UNL A   1      31.755  28.208  27.114  1.00  0.00     0.332 C 
ATOM     22  C   UNL A   1      32.346  29.720  25.353  1.00  0.00     0.332 C 
ATOM     23  H   UNL A   1      30.502  29.065  25.806  1.00  0.00     0.348 HD
ENDBRANCH  15  20
ENDBRANCH  13  14
ENDBRANCH   8  13
ENDBRANCH   4   7
ENDBRANCH   2   3
ENDBRANCH   1   2
BRANCH   1  24
ATOM     24  C   UNL A   1      38.029  20.044  24.973  1.00  0.00     0.023 C 
BRANCH  24  25
ATOM     25  C   UNL A   1      39.285  20.331  25.783  1.00  0.00     0.116 C 
BRANCH  25  26
ATOM     26  N   UNL A   1      40.201  19.202  25.844  1.00  0.00    -0.352 N 
ATOM     27  C   UNL A   1      41.547  19.200  26.124  1.00  0.00     0.251 C 
ATOM     28  H   UNL A   1      39.803  18.320  25.660  1.00  0.00     0.163 HD
ATOM     29  O   UNL A   1      42.199  18.170  26.030  1.00  0.00    -0.269 OA
BRANCH  27  30
ATOM     30  C   UNL A   1      42.208  20.468  26.495  1.00  0.00     0.039 A 
ATOM     31  C   UNL A   1      42.800  21.236  25.490  1.00  0.00     0.014 A 
ATOM     32  C   UNL A   1      42.205  20.914  27.819  1.00  0.00     0.014 A 
ATOM     33  C   UNL A   1      43.325  22.490  25.801  1.00  0.00     0.010 A 
ATOM     34  C   UNL A   1      42.664  22.194  28.114  1.00  0.00     0.010 A 
ATOM     35  C   UNL A   1      43.224  22.995  27.108  1.00  0.00    -0.014 A 
BRANCH  35  36
ATOM     36  C   UNL A   1      43.675  24.367  27.438  1.00  0.00     0.031 A 
ATOM     37  C   UNL A   1      42.679  25.416  27.838  1.00  0.00     0.074 A 
ATOM     38  C   UNL A   1      44.974  24.691  27.287  1.00  0.00     0.049 A 
ATOM     39  N   UNL A   1      42.872  26.686  28.091  1.00  0.00    -0.248 NA
ATOM     40  C   UNL A   1      41.274  24.990  27.934  1.00  0.00     0.031 C 
ATOM     41  C   UNL A   1      46.026  23.779  26.833  1.00  0.00     0.029 A 
ATOM     42  N   UNL A   1      45.626  25.882  27.478  1.00  0.00    -0.354 N 
ATOM     43  C   UNL A   1      41.615  27.212  28.356  1.00  0.00     0.074 A 
ATOM     44  C   UNL A   1      40.663  26.137  28.183  1.00  0.00     0.031 C 
ATOM     45  C   UNL A   1      47.192  24.442  26.789  1.00  0.00     0.029 A 
ATOM     46  C   UNL A   1      46.966  25.828  27.183  1.00  0.00     0.049 A 
ATOM     47  H   UNL A   1      45.176  26.698  27.797  1.00  0.00     0.167 HD
ATOM     48  C   UNL A   1      41.288  28.472  28.729  1.00  0.00     0.037 A 
ATOM     49  C   UNL A   1      47.906  26.791  27.217  1.00  0.00     0.037 A 
ATOM     50  C   UNL A   1      42.242  29.531  28.925  1.00  0.00     0.049 A 
ATOM     51  C   UNL A   1      47.528  28.174  27.662  1.00  0.00     0.074 A 
ATOM     52  C   UNL A   1      42.024  30.816  29.390  1.00  0.00     0.029 A 
ATOM     53  N   UNL A   1      43.600  29.428  28.658  1.00  0.00    -0.354 N 
ATOM     54  N   UNL A   1      46.348  28.637  28.002  1.00  0.00    -0.248 NA
ATOM     55  C   UNL A   1      48.608  29.166  27.738  1.00  0.00     0.031 C 
ATOM     56  C   UNL A   1      43.242  31.504  29.364  1.00  0.00     0.029 A 
ATOM     57  C   UNL A   1      44.227  30.635  28.924  1.00  0.00     0.049 A 
ATOM     58  H   UNL A   1      44.051  28.618  28.329  1.00  0.00     0.167 HD
ATOM     59  C   UNL A   1      46.547  29.967  28.346  1.00  0.00     0.074 A 
ATOM     60  C   UNL A   1      47.963  30.233  28.191  1.00  0.00     0.031 C 
ATOM     61  C   UNL A   1      45.637  30.886  28.754  1.00  0.00     0.037 A 
BRANCH  48  62
ATOM     62  C   UNL A   1      39.832  28.765  28.947  1.00  0.00     0.057 A 
ATOM     63  C   UNL A   1      39.219  28.576  30.192  1.00  0.00     0.134 A 
ATOM     64  C   UNL A   1      39.036  29.247  27.901  1.00  0.00     0.134 A 
ATOM     65  F   UNL A   1      39.922  28.105  31.233  1.00  0.00    -0.206 F 
ATOM     66  C   UNL A   1      37.856  28.821  30.380  1.00  0.00     0.040 A 
ATOM     67  C   UNL A   1      37.679  29.521  28.083  1.00  0.00     0.040 A 
ATOM     68  F   UNL A   1      39.561  29.456  26.684  1.00  0.00    -0.206 F 
ATOM     69  C   UNL A   1      37.084  29.298  29.324  1.00  0.00     0.006 A 
ENDBRANCH  48  62
BRANCH  49  70
ATOM     70  C   UNL A   1      49.302  26.464  26.835  1.00  0.00     0.057 A 
ATOM     71  C   UNL A   1      50.197  25.927  27.765  1.00  0.00     0.134 A 
ATOM     72  C   UNL A   1      49.761  26.652  25.527  1.00  0.00     0.134 A 
ATOM     73  F   UNL A   1      49.818  25.739  29.037  1.00  0.00    -0.206 F 
ATOM     74  C   UNL A   1      51.506  25.595  27.410  1.00  0.00     0.040 A 
ATOM     75  C   UNL A   1      51.060  26.306  25.153  1.00  0.00     0.040 A 
ATOM     76  F   UNL A   1      48.946  27.154  24.588  1.00  0.00    -0.206 F 
ATOM     77  C   UNL A   1      51.938  25.779  26.097  1.00  0.00     0.006 A 
ENDBRANCH  49  70
BRANCH  61  78
ATOM     78  C   UNL A   1      46.147  32.260  29.070  1.00  0.00     0.057 A 
ATOM     79  C   UNL A   1      46.591  32.602  30.353  1.00  0.00     0.134 A 
ATOM     80  C   UNL A   1      46.232  33.238  28.071  1.00  0.00     0.134 A 
ATOM     81  F   UNL A   1      46.523  31.713  31.355  1.00  0.00    -0.206 F 
ATOM     82  C   UNL A   1      47.086  33.876  30.636  1.00  0.00     0.040 A 
ATOM     83  C   UNL A   1      46.746  34.508  28.337  1.00  0.00     0.040 A 
ATOM     84  F   UNL A   1      45.828  32.972  26.820  1.00  0.00    -0.206 F 
ATOM     85  C   UNL A   1      47.171  34.831  29.625  1.00  0.00     0.006 A 
ENDBRANCH  61  78
ENDBRANCH  35  36
ENDBRANCH  27  30
ENDBRANCH  25  26
ENDBRANCH  24  25
ENDBRANCH   1  24
TORSDOF 14
ENDMDL
MODEL 3
REMARK VINA RESULT:     -11.5      3.841      7.709
REMARK SMILES C[NH+](C)[C@@H]1CC[N@@H+](Cc2ccc(C(=O)NCCCCNC(=O)c3ccc(-c4c5nc(c(-c6c(F)cccc6F)c6ccc([nH]6)c(-c6c(F)cccc6F)c6nc(c(-c7c(F)cccc7F)c7ccc4[nH]7)C=C6)C=C5)cc3)cn2)C1
REMARK SMILES IDX 17 1 16 2 15 3 13 4 14 5 12 7 9 8 10 9 78 10 11 11 77 12
REMARK SMILES IDX 8 13 7 14 4 15 5 16 79 17 6 18 2 20 1 21 3 22 18 24 19 25
REMARK SMILES IDX 20 26 21 27 22 29 23 30 24 31 76 32 25 33 75 34 26 35 27 36
REMARK SMILES IDX 28 37 69 38 29 39 74 40 68 41 70 42 30 43 73 44 67 45 66 46
REMARK SMILES IDX 31 48 57 49 40 50 56 51 41 52 44 53 55 54 71 55 42 56 43 57
REMARK SMILES IDX 54 59 72 60 45 61 32 62 33 63 38 64 34 65 35 66 37 67 39 68
REMARK SMILES IDX 36 69 58 70 59 71 64 72 60 73 61 74 63 75 65 76 62 77 46 78
REMARK SMILES IDX 47 79 52 80 48 81 49 82 51 83 53 84 50 85
REMARK H PARENT 15 6 7 19 2 23 20 28 70 47 44 58
REMARK Flexibility Score: inf
ROOT
ATOM      1  C   UNL A   1      32.941  29.548  25.046  1.00  0.00     0.023 C 
ENDROOT
BRANCH   1   2
ATOM      2  C   UNL A   1      31.447  29.232  25.143  1.00  0.00     0.116 C 
BRANCH   2   3
ATOM      3  N   UNL A   1      30.883  29.002  23.826  1.00  0.00    -0.352 N 
ATOM      4  C   UNL A   1      30.964  27.921  22.983  1.00  0.00     0.252 C 
ATOM      5  O   UNL A   1      30.333  27.956  21.928  1.00  0.00    -0.269 OA
ATOM      6  H   UNL A   1      30.350  29.752  23.475  1.00  0.00     0.163 HD
BRANCH   4   7
ATOM      7  C   UNL A   1      31.717  26.696  23.331  1.00  0.00     0.058 A 
ATOM      8  C   UNL A   1      33.017  24.478  24.337  1.00  0.00     0.095 A 
ATOM      9  C   UNL A   1      33.646  25.246  23.365  1.00  0.00     0.030 A 
ATOM     10  N   UNL A   1      31.739  24.718  24.729  1.00  0.00    -0.255 NA
ATOM     11  C   UNL A   1      32.977  26.352  22.846  1.00  0.00     0.017 A 
ATOM     12  C   UNL A   1      31.122  25.815  24.222  1.00  0.00     0.125 A 
BRANCH   8  13
ATOM     13  C   UNL A   1      33.787  23.403  25.077  1.00  0.00     0.319 C 
BRANCH  13  14
ATOM     14  N   UNL A   1      33.995  22.122  24.378  1.00  0.00    -0.325 N 
ATOM     15  C   UNL A   1      33.420  20.004  25.485  1.00  0.00     0.245 C 
ATOM     16  C   UNL A   1      32.214  20.557  24.705  1.00  0.00     0.132 C 
ATOM     17  C   UNL A   1      34.555  21.028  25.178  1.00  0.00     0.328 C 
ATOM     18  C   UNL A   1      32.797  21.577  23.742  1.00  0.00     0.269 C 
ATOM     19  H   UNL A   1      34.683  22.419  23.686  1.00  0.00     0.348 HD
BRANCH  15  20
ATOM     20  N   UNL A   1      33.709  18.551  25.420  1.00  0.00    -0.333 N 
ATOM     21  C   UNL A   1      32.551  17.665  25.450  1.00  0.00     0.332 C 
ATOM     22  C   UNL A   1      34.641  18.135  24.379  1.00  0.00     0.332 C 
ATOM     23  H   UNL A   1      34.189  18.432  26.313  1.00  0.00     0.348 HD
ENDBRANCH  15  20
ENDBRANCH  13  14
ENDBRANCH   8  13
ENDBRANCH   4   7
ENDBRANCH   2   3
ENDBRANCH   1   2
BRANCH   1  24
ATOM     24  C   UNL A   1      33.846  28.566  25.790  1.00  0.00     0.023 C 
BRANCH  24  25
ATOM     25  C   UNL A   1      33.794  28.665  27.308  1.00  0.00     0.116 C 
BRANCH  25  26
ATOM     26  N   UNL A   1      33.773  30.036  27.794  1.00  0.00    -0.352 N 
ATOM     27  C   UNL A   1      34.778  30.748  28.406  1.00  0.00     0.251 C 
ATOM     28  H   UNL A   1      32.924  30.520  27.668  1.00  0.00     0.163 HD
ATOM     29  O   UNL A   1      34.564  31.865  28.853  1.00  0.00    -0.269 OA
BRANCH  27  30
ATOM     30  C   UNL A   1      36.110  30.127  28.557  1.00  0.00     0.039 A 
ATOM     31  C   UNL A   1      37.008  30.196  27.489  1.00  0.00     0.014 A 
ATOM     32  C   UNL A   1      36.483  29.520  29.759  1.00  0.00     0.014 A 
ATOM     33  C   UNL A   1      38.309  29.721  27.653  1.00  0.00     0.010 A 
ATOM     34  C   UNL A   1      37.800  29.112  29.943  1.00  0.00     0.010 A 
ATOM     35  C   UNL A   1      38.725  29.212  28.894  1.00  0.00    -0.014 A 
BRANCH  35  36
ATOM     36  C   UNL A   1      40.131  28.803  29.123  1.00  0.00     0.031 A 
ATOM     37  C   UNL A   1      41.115  29.771  29.714  1.00  0.00     0.074 A 
ATOM     38  C   UNL A   1      40.543  27.588  28.712  1.00  0.00     0.049 A 
ATOM     39  N   UNL A   1      42.399  29.623  29.919  1.00  0.00    -0.248 NA
ATOM     40  C   UNL A   1      40.593  31.093  30.092  1.00  0.00     0.031 C 
ATOM     41  C   UNL A   1      39.699  26.586  28.057  1.00  0.00     0.029 A 
ATOM     42  N   UNL A   1      41.779  26.998  28.765  1.00  0.00    -0.354 N 
ATOM     43  C   UNL A   1      42.840  30.835  30.432  1.00  0.00     0.074 A 
ATOM     44  C   UNL A   1      41.699  31.723  30.457  1.00  0.00     0.031 C 
ATOM     45  C   UNL A   1      40.441  25.504  27.777  1.00  0.00     0.029 A 
ATOM     46  C   UNL A   1      41.815  25.745  28.206  1.00  0.00     0.049 A 
ATOM     47  H   UNL A   1      42.567  27.432  29.167  1.00  0.00     0.167 HD
ATOM     48  C   UNL A   1      44.080  31.170  30.860  1.00  0.00     0.037 A 
ATOM     49  C   UNL A   1      42.841  24.889  28.047  1.00  0.00     0.037 A 
ATOM     50  C   UNL A   1      45.207  30.275  30.858  1.00  0.00     0.049 A 
ATOM     51  C   UNL A   1      44.202  25.268  28.556  1.00  0.00     0.074 A 
ATOM     52  C   UNL A   1      46.481  30.487  31.354  1.00  0.00     0.029 A 
ATOM     53  N   UNL A   1      45.194  28.994  30.322  1.00  0.00    -0.354 N 
ATOM     54  N   UNL A   1      44.586  26.385  29.127  1.00  0.00    -0.248 NA
ATOM     55  C   UNL A   1      45.268  24.269  28.410  1.00  0.00     0.031 C 
ATOM     56  C   UNL A   1      47.252  29.351  31.082  1.00  0.00     0.029 A 
ATOM     57  C   UNL A   1      46.447  28.415  30.453  1.00  0.00     0.049 A 
ATOM     58  H   UNL A   1      44.412  28.562  29.911  1.00  0.00     0.167 HD
ATOM     59  C   UNL A   1      45.933  26.217  29.420  1.00  0.00     0.074 A 
ATOM     60  C   UNL A   1      46.294  24.884  28.982  1.00  0.00     0.031 C 
ATOM     61  C   UNL A   1      46.792  27.090  30.001  1.00  0.00     0.037 A 
BRANCH  48  62
ATOM     62  C   UNL A   1      44.275  32.569  31.368  1.00  0.00     0.057 A 
ATOM     63  C   UNL A   1      44.068  32.904  32.712  1.00  0.00     0.134 A 
ATOM     64  C   UNL A   1      44.678  33.593  30.502  1.00  0.00     0.134 A 
ATOM     65  F   UNL A   1      43.669  31.973  33.592  1.00  0.00    -0.206 F 
ATOM     66  C   UNL A   1      44.220  34.214  33.171  1.00  0.00     0.040 A 
ATOM     67  C   UNL A   1      44.860  34.902  30.954  1.00  0.00     0.040 A 
ATOM     68  F   UNL A   1      44.899  33.341  29.203  1.00  0.00    -0.206 F 
ATOM     69  C   UNL A   1      44.621  35.216  32.290  1.00  0.00     0.006 A 
ENDBRANCH  48  62
BRANCH  49  70
ATOM     70  C   UNL A   1      42.606  23.579  27.392  1.00  0.00     0.057 A 
ATOM     71  C   UNL A   1      42.754  23.426  26.009  1.00  0.00     0.134 A 
ATOM     72  C   UNL A   1      42.261  22.445  28.136  1.00  0.00     0.134 A 
ATOM     73  F   UNL A   1      43.069  24.480  25.244  1.00  0.00    -0.206 F 
ATOM     74  C   UNL A   1      42.557  22.192  25.387  1.00  0.00     0.040 A 
ATOM     75  C   UNL A   1      42.081  21.201  27.529  1.00  0.00     0.040 A 
ATOM     76  F   UNL A   1      42.115  22.526  29.466  1.00  0.00    -0.206 F 
ATOM     77  C   UNL A   1      42.226  21.073  26.150  1.00  0.00     0.006 A 
ENDBRANCH  49  70
BRANCH  61  78
ATOM     78  C   UNL A   1      48.204  26.627  30.205  1.00  0.00     0.057 A 
ATOM     79  C   UNL A   1      49.214  26.917  29.279  1.00  0.00     0.134 A 
ATOM     80  C   UNL A   1      48.564  25.918  31.357  1.00  0.00     0.134 A 
ATOM     81  F   UNL A   1      48.929  27.582  28.150  1.00  0.00    -0.206 F 
ATOM     82  C   UNL A   1      50.531  26.503  29.485  1.00  0.00     0.040 A 
ATOM     83  C   UNL A   1      49.882  25.518  31.585  1.00  0.00     0.040 A 
ATOM     84  F   UNL A   1      47.645  25.613  32.286  1.00  0.00    -0.206 F 
ATOM     85  C   UNL A   1      50.869  25.807  30.644  1.00  0.00     0.006 A 
ENDBRANCH  61  78
ENDBRANCH  35  36
ENDBRANCH  27  30
ENDBRANCH  25  26
ENDBRANCH  24  25
ENDBRANCH   1  24
TORSDOF 14
ENDMDL
