MODEL 1
REMARK VINA RESULT:     -12.2      0.000      0.000
REMARK SMILES COc1cccc(C(=O)N2[C@@H](C(=O)NCCCCNC(=O)c3ccc(-c4c5nc(c(-c6c(F)cccc6F)c6ccc([nH]6)c(-c6c(F)cccc6F)c6nc(c(-c7c(F)cccc7F)c7ccc4[nH]7)C=C6)C=C5)cc3)CS[C@@H]2c2ccccc2Cl)c1
REMARK SMILES IDX 16 1 15 2 14 3 12 4 13 5 11 7 10 8 78 9 76 10 77 11 8 12
REMARK SMILES IDX 9 13 7 14 3 15 4 16 86 17 5 18 6 19 2 20 1 21 79 22 80 23
REMARK SMILES IDX 84 24 81 25 83 26 85 27 82 28 17 29 18 30 19 31 20 32 21 34
REMARK SMILES IDX 22 35 23 36 75 37 24 38 74 39 25 40 26 41 27 42 68 43 28 44
REMARK SMILES IDX 73 45 67 46 69 47 29 48 72 49 66 50 65 51 30 53 56 54 39 55
REMARK SMILES IDX 55 56 40 57 43 58 54 59 70 60 41 61 42 62 53 64 71 65 44 66
REMARK SMILES IDX 31 67 32 68 37 69 33 70 34 71 36 72 38 73 35 74 57 75 58 76
REMARK SMILES IDX 63 77 59 78 60 79 62 80 64 81 61 82 45 83 46 84 51 85 47 86
REMARK SMILES IDX 48 87 50 88 52 89 49 90
REMARK H PARENT 14 6 19 33 69 52 43 63
REMARK Flexibility Score: inf
ROOT
ATOM      1  C   UNL A   1      32.242  30.167  26.981  1.00  0.00     0.023 C 
ENDROOT
BRANCH   1   2
ATOM      2  C   UNL A   1      33.347  29.721  26.027  1.00  0.00     0.116 C 
BRANCH   2   3
ATOM      3  N   UNL A   1      32.836  29.785  24.671  1.00  0.00    -0.354 N 
ATOM      4  C   UNL A   1      32.654  28.725  23.820  1.00  0.00     0.243 C 
ATOM      5  O   UNL A   1      32.791  28.939  22.614  1.00  0.00    -0.273 OA
ATOM      6  H   UNL A   1      32.595  30.677  24.329  1.00  0.00     0.163 HD
BRANCH   4   7
ATOM      7  C   UNL A   1      32.296  27.329  24.395  1.00  0.00     0.186 C 
ATOM      8  N   UNL A   1      32.391  26.189  23.444  1.00  0.00    -0.310 N 
ATOM      9  C   UNL A   1      31.197  25.371  23.346  1.00  0.00     0.176 C 
ATOM     10  C   UNL A   1      30.839  27.428  24.893  1.00  0.00     0.107 C 
ATOM     11  S   UNL A   1      29.858  26.579  23.632  1.00  0.00    -0.129 SA
BRANCH   8  12
ATOM     12  C   UNL A   1      33.594  25.695  22.979  1.00  0.00     0.255 C 
ATOM     13  O   UNL A   1      34.001  25.908  21.841  1.00  0.00    -0.269 OA
BRANCH  12  14
ATOM     14  C   UNL A   1      34.325  24.686  23.824  1.00  0.00     0.043 A 
ATOM     15  C   UNL A   1      34.620  23.485  25.917  1.00  0.00     0.119 A 
ATOM     16  C   UNL A   1      35.297  22.471  25.233  1.00  0.00     0.046 A 
ATOM     17  C   UNL A   1      34.130  24.592  25.213  1.00  0.00     0.060 A 
ATOM     18  C   UNL A   1      35.495  22.553  23.858  1.00  0.00     0.005 A 
ATOM     19  C   UNL A   1      35.018  23.660  23.157  1.00  0.00     0.014 A 
BRANCH  15  20
ATOM     20  O   UNL A   1      34.484  23.258  27.260  1.00  0.00    -0.497 OA
ATOM     21  C   UNL A   1      34.118  21.944  27.663  1.00  0.00     0.278 C 
ENDBRANCH  15  20
ENDBRANCH  12  14
ENDBRANCH   8  12
BRANCH   9  22
ATOM     22  C   UNL A   1      30.997  24.178  24.295  1.00  0.00     0.003 A 
ATOM     23  C   UNL A   1      30.494  24.530  25.578  1.00  0.00     0.008 A 
ATOM     24  C   UNL A   1      31.335  22.821  24.118  1.00  0.00     0.047 A 
ATOM     25  C   UNL A   1      30.380  23.609  26.624  1.00  0.00     0.001 A 
ATOM     26  C   UNL A   1      31.200  21.897  25.172  1.00  0.00     0.021 A 
ATOM     27  Cl  UNL A   1      31.979  22.107  22.691  1.00  0.00    -0.084 Cl
ATOM     28  C   UNL A   1      30.740  22.289  26.422  1.00  0.00     0.002 A 
ENDBRANCH   9  22
ENDBRANCH   4   7
ENDBRANCH   2   3
ENDBRANCH   1   2
BRANCH   1  29
ATOM     29  C   UNL A   1      31.847  31.628  26.881  1.00  0.00     0.023 C 
BRANCH  29  30
ATOM     30  C   UNL A   1      32.954  32.565  27.318  1.00  0.00     0.116 C 
BRANCH  30  31
ATOM     31  N   UNL A   1      32.494  33.915  27.633  1.00  0.00    -0.352 N 
ATOM     32  C   UNL A   1      33.033  34.804  28.534  1.00  0.00     0.251 C 
ATOM     33  H   UNL A   1      31.702  34.227  27.138  1.00  0.00     0.163 HD
ATOM     34  O   UNL A   1      32.507  35.882  28.760  1.00  0.00    -0.269 OA
BRANCH  32  35
ATOM     35  C   UNL A   1      34.241  34.385  29.272  1.00  0.00     0.039 A 
ATOM     36  C   UNL A   1      34.090  33.664  30.456  1.00  0.00     0.014 A 
ATOM     37  C   UNL A   1      35.502  34.587  28.709  1.00  0.00     0.014 A 
ATOM     38  C   UNL A   1      35.208  33.060  31.030  1.00  0.00     0.010 A 
ATOM     39  C   UNL A   1      36.589  33.895  29.218  1.00  0.00     0.010 A 
ATOM     40  C   UNL A   1      36.454  33.128  30.385  1.00  0.00    -0.014 A 
BRANCH  40  41
ATOM     41  C   UNL A   1      37.643  32.418  30.913  1.00  0.00     0.031 A 
ATOM     42  C   UNL A   1      38.311  32.927  32.158  1.00  0.00     0.074 A 
ATOM     43  C   UNL A   1      38.167  31.383  30.231  1.00  0.00     0.049 A 
ATOM     44  N   UNL A   1      39.422  32.529  32.723  1.00  0.00    -0.248 NA
ATOM     45  C   UNL A   1      37.668  34.066  32.835  1.00  0.00     0.031 C 
ATOM     46  C   UNL A   1      37.646  30.835  28.976  1.00  0.00     0.029 A 
ATOM     47  N   UNL A   1      39.267  30.607  30.497  1.00  0.00    -0.354 N 
ATOM     48  C   UNL A   1      39.622  33.386  33.796  1.00  0.00     0.074 A 
ATOM     49  C   UNL A   1      38.557  34.363  33.767  1.00  0.00     0.031 C 
ATOM     50  C   UNL A   1      38.402  29.790  28.604  1.00  0.00     0.029 A 
ATOM     51  C   UNL A   1      39.481  29.616  29.570  1.00  0.00     0.049 A 
ATOM     52  H   UNL A   1      39.849  30.748  31.279  1.00  0.00     0.167 HD
ATOM     53  C   UNL A   1      40.589  33.345  34.743  1.00  0.00     0.037 A 
ATOM     54  C   UNL A   1      40.440  28.673  29.514  1.00  0.00     0.037 A 
ATOM     55  C   UNL A   1      41.616  32.341  34.798  1.00  0.00     0.049 A 
ATOM     56  C   UNL A   1      41.484  28.627  30.592  1.00  0.00     0.074 A 
ATOM     57  C   UNL A   1      42.603  32.167  35.750  1.00  0.00     0.029 A 
ATOM     58  N   UNL A   1      41.776  31.331  33.862  1.00  0.00    -0.354 N 
ATOM     59  N   UNL A   1      41.632  29.410  31.634  1.00  0.00    -0.248 NA
ATOM     60  C   UNL A   1      42.495  27.566  30.489  1.00  0.00     0.031 C 
ATOM     61  C   UNL A   1      43.378  31.063  35.376  1.00  0.00     0.029 A 
ATOM     62  C   UNL A   1      42.851  30.532  34.210  1.00  0.00     0.049 A 
ATOM     63  H   UNL A   1      41.209  31.201  33.067  1.00  0.00     0.167 HD
ATOM     64  C   UNL A   1      42.731  28.919  32.326  1.00  0.00     0.074 A 
ATOM     65  C   UNL A   1      43.208  27.766  31.589  1.00  0.00     0.031 C 
ATOM     66  C   UNL A   1      43.296  29.382  33.467  1.00  0.00     0.037 A 
BRANCH  53  67
ATOM     67  C   UNL A   1      40.558  34.411  35.797  1.00  0.00     0.057 A 
ATOM     68  C   UNL A   1      41.268  35.611  35.652  1.00  0.00     0.134 A 
ATOM     69  C   UNL A   1      39.817  34.237  36.972  1.00  0.00     0.134 A 
ATOM     70  F   UNL A   1      42.012  35.831  34.557  1.00  0.00    -0.206 F 
ATOM     71  C   UNL A   1      41.272  36.584  36.652  1.00  0.00     0.040 A 
ATOM     72  C   UNL A   1      39.790  35.215  37.968  1.00  0.00     0.040 A 
ATOM     73  F   UNL A   1      39.114  33.113  37.175  1.00  0.00    -0.206 F 
ATOM     74  C   UNL A   1      40.527  36.388  37.813  1.00  0.00     0.006 A 
ENDBRANCH  53  67
BRANCH  54  75
ATOM     75  C   UNL A   1      40.428  27.665  28.425  1.00  0.00     0.057 A 
ATOM     76  C   UNL A   1      39.707  26.474  28.564  1.00  0.00     0.134 A 
ATOM     77  C   UNL A   1      41.129  27.861  27.231  1.00  0.00     0.134 A 
ATOM     78  F   UNL A   1      39.029  26.223  29.694  1.00  0.00    -0.206 F 
ATOM     79  C   UNL A   1      39.696  25.503  27.559  1.00  0.00     0.040 A 
ATOM     80  C   UNL A   1      41.111  26.909  26.210  1.00  0.00     0.040 A 
ATOM     81  F   UNL A   1      41.832  28.986  27.035  1.00  0.00    -0.206 F 
ATOM     82  C   UNL A   1      40.397  25.723  26.376  1.00  0.00     0.006 A 
ENDBRANCH  54  75
BRANCH  66  83
ATOM     83  C   UNL A   1      44.466  28.617  34.008  1.00  0.00     0.057 A 
ATOM     84  C   UNL A   1      45.784  28.960  33.682  1.00  0.00     0.134 A 
ATOM     85  C   UNL A   1      44.271  27.554  34.898  1.00  0.00     0.134 A 
ATOM     86  F   UNL A   1      46.035  29.960  32.825  1.00  0.00    -0.206 F 
ATOM     87  C   UNL A   1      46.868  28.260  34.213  1.00  0.00     0.040 A 
ATOM     88  C   UNL A   1      45.347  26.861  35.452  1.00  0.00     0.040 A 
ATOM     89  F   UNL A   1      43.032  27.182  35.253  1.00  0.00    -0.206 F 
ATOM     90  C   UNL A   1      46.650  27.211  35.106  1.00  0.00     0.006 A 
ENDBRANCH  66  83
ENDBRANCH  40  41
ENDBRANCH  32  35
ENDBRANCH  30  31
ENDBRANCH  29  30
ENDBRANCH   1  29
TORSDOF 15
ENDMDL
MODEL 2
REMARK VINA RESULT:     -12.2      1.288      2.047
REMARK SMILES COc1cccc(C(=O)N2[C@@H](C(=O)NCCCCNC(=O)c3ccc(-c4c5nc(c(-c6c(F)cccc6F)c6ccc([nH]6)c(-c6c(F)cccc6F)c6nc(c(-c7c(F)cccc7F)c7ccc4[nH]7)C=C6)C=C5)cc3)CS[C@@H]2c2ccccc2Cl)c1
REMARK SMILES IDX 16 1 15 2 14 3 12 4 13 5 11 7 10 8 78 9 76 10 77 11 8 12
REMARK SMILES IDX 9 13 7 14 3 15 4 16 86 17 5 18 6 19 2 20 1 21 79 22 80 23
REMARK SMILES IDX 84 24 81 25 83 26 85 27 82 28 17 29 18 30 19 31 20 32 21 34
REMARK SMILES IDX 22 35 23 36 75 37 24 38 74 39 25 40 26 41 27 42 68 43 28 44
REMARK SMILES IDX 73 45 67 46 69 47 29 48 72 49 66 50 65 51 30 53 56 54 39 55
REMARK SMILES IDX 55 56 40 57 43 58 54 59 70 60 41 61 42 62 53 64 71 65 44 66
REMARK SMILES IDX 31 67 32 68 37 69 33 70 34 71 36 72 38 73 35 74 57 75 58 76
REMARK SMILES IDX 63 77 59 78 60 79 62 80 64 81 61 82 45 83 46 84 51 85 47 86
REMARK SMILES IDX 48 87 50 88 52 89 49 90
REMARK H PARENT 14 6 19 33 69 52 43 63
REMARK Flexibility Score: inf
ROOT
ATOM      1  C   UNL A   1      31.922  30.234  26.884  1.00  0.00     0.023 C 
ENDROOT
BRANCH   1   2
ATOM      2  C   UNL A   1      33.026  29.853  25.901  1.00  0.00     0.116 C 
BRANCH   2   3
ATOM      3  N   UNL A   1      32.466  29.847  24.563  1.00  0.00    -0.354 N 
ATOM      4  C   UNL A   1      32.327  28.755  23.745  1.00  0.00     0.243 C 
ATOM      5  O   UNL A   1      32.408  28.946  22.529  1.00  0.00    -0.273 OA
ATOM      6  H   UNL A   1      32.154  30.712  24.208  1.00  0.00     0.163 HD
BRANCH   4   7
ATOM      7  C   UNL A   1      32.082  27.355  24.366  1.00  0.00     0.186 C 
ATOM      8  N   UNL A   1      32.243  26.196  23.445  1.00  0.00    -0.310 N 
ATOM      9  C   UNL A   1      31.111  25.292  23.396  1.00  0.00     0.176 C 
ATOM     10  C   UNL A   1      30.632  27.362  24.891  1.00  0.00     0.107 C 
ATOM     11  S   UNL A   1      29.693  26.407  23.676  1.00  0.00    -0.129 SA
BRANCH   8  12
ATOM     12  C   UNL A   1      33.470  25.778  22.969  1.00  0.00     0.255 C 
ATOM     13  O   UNL A   1      33.847  26.005  21.824  1.00  0.00    -0.269 OA
BRANCH  12  14
ATOM     14  C   UNL A   1      34.277  24.830  23.815  1.00  0.00     0.043 A 
ATOM     15  C   UNL A   1      36.031  23.163  24.052  1.00  0.00     0.119 A 
ATOM     16  C   UNL A   1      36.135  23.473  25.411  1.00  0.00     0.046 A 
ATOM     17  C   UNL A   1      35.104  23.842  23.252  1.00  0.00     0.060 A 
ATOM     18  C   UNL A   1      35.322  24.450  25.980  1.00  0.00     0.005 A 
ATOM     19  C   UNL A   1      34.392  25.120  25.187  1.00  0.00     0.014 A 
BRANCH  15  20
ATOM     20  O   UNL A   1      36.905  22.198  23.631  1.00  0.00    -0.497 OA
ATOM     21  C   UNL A   1      37.347  21.255  24.600  1.00  0.00     0.278 C 
ENDBRANCH  15  20
ENDBRANCH  12  14
ENDBRANCH   8  12
BRANCH   9  22
ATOM     22  C   UNL A   1      31.017  24.116  24.381  1.00  0.00     0.003 A 
ATOM     23  C   UNL A   1      30.534  24.472  25.671  1.00  0.00     0.008 A 
ATOM     24  C   UNL A   1      31.434  22.778  24.229  1.00  0.00     0.047 A 
ATOM     25  C   UNL A   1      30.512  23.576  26.744  1.00  0.00     0.001 A 
ATOM     26  C   UNL A   1      31.391  21.878  25.311  1.00  0.00     0.021 A 
ATOM     27  Cl  UNL A   1      32.075  22.066  22.800  1.00  0.00    -0.084 Cl
ATOM     28  C   UNL A   1      30.947  22.275  26.565  1.00  0.00     0.002 A 
ENDBRANCH   9  22
ENDBRANCH   4   7
ENDBRANCH   2   3
ENDBRANCH   1   2
BRANCH   1  29
ATOM     29  C   UNL A   1      31.369  31.638  26.730  1.00  0.00     0.023 C 
BRANCH  29  30
ATOM     30  C   UNL A   1      32.456  32.678  26.544  1.00  0.00     0.116 C 
BRANCH  30  31
ATOM     31  N   UNL A   1      32.301  33.851  27.400  1.00  0.00    -0.352 N 
ATOM     32  C   UNL A   1      33.119  34.264  28.427  1.00  0.00     0.251 C 
ATOM     33  H   UNL A   1      31.515  34.416  27.219  1.00  0.00     0.163 HD
ATOM     34  O   UNL A   1      32.837  35.229  29.119  1.00  0.00    -0.269 OA
BRANCH  32  35
ATOM     35  C   UNL A   1      34.325  33.461  28.708  1.00  0.00     0.039 A 
ATOM     36  C   UNL A   1      35.567  34.094  28.719  1.00  0.00     0.014 A 
ATOM     37  C   UNL A   1      34.196  32.126  29.097  1.00  0.00     0.014 A 
ATOM     38  C   UNL A   1      36.675  33.408  29.214  1.00  0.00     0.010 A 
ATOM     39  C   UNL A   1      35.272  31.487  29.690  1.00  0.00     0.010 A 
ATOM     40  C   UNL A   1      36.522  32.119  29.753  1.00  0.00    -0.014 A 
BRANCH  40  41
ATOM     41  C   UNL A   1      37.656  31.397  30.376  1.00  0.00     0.031 A 
ATOM     42  C   UNL A   1      38.011  31.680  31.808  1.00  0.00     0.074 A 
ATOM     43  C   UNL A   1      38.413  30.565  29.637  1.00  0.00     0.049 A 
ATOM     44  N   UNL A   1      39.029  31.250  32.509  1.00  0.00    -0.248 NA
ATOM     45  C   UNL A   1      37.129  32.607  32.537  1.00  0.00     0.031 C 
ATOM     46  C   UNL A   1      38.207  30.257  28.219  1.00  0.00     0.029 A 
ATOM     47  N   UNL A   1      39.518  29.827  29.977  1.00  0.00    -0.354 N 
ATOM     48  C   UNL A   1      38.922  31.876  33.743  1.00  0.00     0.074 A 
ATOM     49  C   UNL A   1      37.783  32.763  33.675  1.00  0.00     0.031 C 
ATOM     50  C   UNL A   1      39.130  29.366  27.824  1.00  0.00     0.029 A 
ATOM     51  C   UNL A   1      40.014  29.068  28.946  1.00  0.00     0.049 A 
ATOM     52  H   UNL A   1      39.919  29.842  30.877  1.00  0.00     0.167 HD
ATOM     53  C   UNL A   1      39.686  31.704  34.847  1.00  0.00     0.037 A 
ATOM     54  C   UNL A   1      41.063  28.225  28.915  1.00  0.00     0.037 A 
ATOM     55  C   UNL A   1      40.786  30.783  34.926  1.00  0.00     0.049 A 
ATOM     56  C   UNL A   1      41.878  28.026  30.161  1.00  0.00     0.074 A 
ATOM     57  C   UNL A   1      41.584  30.483  36.015  1.00  0.00     0.029 A 
ATOM     58  N   UNL A   1      41.234  30.003  33.871  1.00  0.00    -0.354 N 
ATOM     59  N   UNL A   1      41.734  28.583  31.340  1.00  0.00    -0.248 NA
ATOM     60  C   UNL A   1      42.999  27.081  30.075  1.00  0.00     0.031 C 
ATOM     61  C   UNL A   1      42.531  29.536  35.611  1.00  0.00     0.029 A 
ATOM     62  C   UNL A   1      42.302  29.224  34.281  1.00  0.00     0.049 A 
ATOM     63  H   UNL A   1      40.849  30.003  32.965  1.00  0.00     0.167 HD
ATOM     64  C   UNL A   1      42.726  28.035  32.143  1.00  0.00     0.074 A 
ATOM     65  C   UNL A   1      43.459  27.096  31.318  1.00  0.00     0.031 C 
ATOM     66  C   UNL A   1      43.005  28.287  33.445  1.00  0.00     0.037 A 
BRANCH  53  67
ATOM     67  C   UNL A   1      39.335  32.523  36.054  1.00  0.00     0.057 A 
ATOM     68  C   UNL A   1      39.925  33.772  36.292  1.00  0.00     0.134 A 
ATOM     69  C   UNL A   1      38.404  32.058  36.990  1.00  0.00     0.134 A 
ATOM     70  F   UNL A   1      40.838  34.266  35.442  1.00  0.00    -0.206 F 
ATOM     71  C   UNL A   1      39.629  34.513  37.437  1.00  0.00     0.040 A 
ATOM     72  C   UNL A   1      38.079  32.803  38.126  1.00  0.00     0.040 A 
ATOM     73  F   UNL A   1      37.802  30.871  36.822  1.00  0.00    -0.206 F 
ATOM     74  C   UNL A   1      38.700  34.030  38.356  1.00  0.00     0.006 A 
ENDBRANCH  53  67
BRANCH  54  75
ATOM     75  C   UNL A   1      41.372  27.467  27.677  1.00  0.00     0.057 A 
ATOM     76  C   UNL A   1      42.174  28.030  26.678  1.00  0.00     0.134 A 
ATOM     77  C   UNL A   1      40.881  26.175  27.462  1.00  0.00     0.134 A 
ATOM     78  F   UNL A   1      42.659  29.272  26.822  1.00  0.00    -0.206 F 
ATOM     79  C   UNL A   1      42.464  27.341  25.498  1.00  0.00     0.040 A 
ATOM     80  C   UNL A   1      41.179  25.467  26.296  1.00  0.00     0.040 A 
ATOM     81  F   UNL A   1      40.114  25.579  28.386  1.00  0.00    -0.206 F 
ATOM     82  C   UNL A   1      41.968  26.053  25.307  1.00  0.00     0.006 A 
ENDBRANCH  54  75
BRANCH  66  83
ATOM     83  C   UNL A   1      44.125  27.507  34.065  1.00  0.00     0.057 A 
ATOM     84  C   UNL A   1      43.915  26.248  34.638  1.00  0.00     0.134 A 
ATOM     85  C   UNL A   1      45.433  28.006  34.046  1.00  0.00     0.134 A 
ATOM     86  F   UNL A   1      42.683  25.724  34.698  1.00  0.00    -0.206 F 
ATOM     87  C   UNL A   1      44.969  25.517  35.189  1.00  0.00     0.040 A 
ATOM     88  C   UNL A   1      46.498  27.275  34.573  1.00  0.00     0.040 A 
ATOM     89  F   UNL A   1      45.699  29.203  33.504  1.00  0.00    -0.206 F 
ATOM     90  C   UNL A   1      46.266  26.028  35.150  1.00  0.00     0.006 A 
ENDBRANCH  66  83
ENDBRANCH  40  41
ENDBRANCH  32  35
ENDBRANCH  30  31
ENDBRANCH  29  30
ENDBRANCH   1  29
TORSDOF 15
ENDMDL
MODEL 3
REMARK VINA RESULT:     -12.2      4.644      9.666
REMARK SMILES COc1cccc(C(=O)N2[C@@H](C(=O)NCCCCNC(=O)c3ccc(-c4c5nc(c(-c6c(F)cccc6F)c6ccc([nH]6)c(-c6c(F)cccc6F)c6nc(c(-c7c(F)cccc7F)c7ccc4[nH]7)C=C6)C=C5)cc3)CS[C@@H]2c2ccccc2Cl)c1
REMARK SMILES IDX 16 1 15 2 14 3 12 4 13 5 11 7 10 8 78 9 76 10 77 11 8 12
REMARK SMILES IDX 9 13 7 14 3 15 4 16 86 17 5 18 6 19 2 20 1 21 79 22 80 23
REMARK SMILES IDX 84 24 81 25 83 26 85 27 82 28 17 29 18 30 19 31 20 32 21 34
REMARK SMILES IDX 22 35 23 36 75 37 24 38 74 39 25 40 26 41 27 42 68 43 28 44
REMARK SMILES IDX 73 45 67 46 69 47 29 48 72 49 66 50 65 51 30 53 56 54 39 55
REMARK SMILES IDX 55 56 40 57 43 58 54 59 70 60 41 61 42 62 53 64 71 65 44 66
REMARK SMILES IDX 31 67 32 68 37 69 33 70 34 71 36 72 38 73 35 74 57 75 58 76
REMARK SMILES IDX 63 77 59 78 60 79 62 80 64 81 61 82 45 83 46 84 51 85 47 86
REMARK SMILES IDX 48 87 50 88 52 89 49 90
REMARK H PARENT 14 6 19 33 69 52 43 63
REMARK Flexibility Score: inf
ROOT
ATOM      1  C   UNL A   1      37.666  21.777  24.782  1.00  0.00     0.023 C 
ENDROOT
BRANCH   1   2
ATOM      2  C   UNL A   1      36.917  22.470  25.917  1.00  0.00     0.116 C 
BRANCH   2   3
ATOM      3  N   UNL A   1      35.813  21.621  26.323  1.00  0.00    -0.354 N 
ATOM      4  C   UNL A   1      34.484  21.959  26.317  1.00  0.00     0.243 C 
ATOM      5  O   UNL A   1      33.766  21.442  27.176  1.00  0.00    -0.273 OA
ATOM      6  H   UNL A   1      36.040  20.714  26.632  1.00  0.00     0.163 HD
BRANCH   4   7
ATOM      7  C   UNL A   1      33.948  22.957  25.258  1.00  0.00     0.186 C 
ATOM      8  N   UNL A   1      32.578  23.487  25.496  1.00  0.00    -0.310 N 
ATOM      9  C   UNL A   1      31.658  23.330  24.386  1.00  0.00     0.176 C 
ATOM     10  C   UNL A   1      33.950  22.202  23.913  1.00  0.00     0.107 C 
ATOM     11  S   UNL A   1      32.218  21.772  23.617  1.00  0.00    -0.129 SA
BRANCH   8  12
ATOM     12  C   UNL A   1      32.284  24.387  26.501  1.00  0.00     0.255 C 
ATOM     13  O   UNL A   1      31.664  24.070  27.512  1.00  0.00    -0.269 OA
BRANCH  12  14
ATOM     14  C   UNL A   1      32.545  25.848  26.249  1.00  0.00     0.043 A 
ATOM     15  C   UNL A   1      33.538  27.630  24.927  1.00  0.00     0.119 A 
ATOM     16  C   UNL A   1      32.605  28.530  25.450  1.00  0.00     0.046 A 
ATOM     17  C   UNL A   1      33.507  26.288  25.323  1.00  0.00     0.060 A 
ATOM     18  C   UNL A   1      31.647  28.106  26.367  1.00  0.00     0.005 A 
ATOM     19  C   UNL A   1      31.622  26.772  26.771  1.00  0.00     0.014 A 
BRANCH  15  20
ATOM     20  O   UNL A   1      34.404  28.185  24.024  1.00  0.00    -0.497 OA
ATOM     21  C   UNL A   1      33.837  28.777  22.861  1.00  0.00     0.278 C 
ENDBRANCH  15  20
ENDBRANCH  12  14
ENDBRANCH   8  12
BRANCH   9  22
ATOM     22  C   UNL A   1      31.567  24.413  23.298  1.00  0.00     0.003 A 
ATOM     23  C   UNL A   1      32.555  24.302  22.280  1.00  0.00     0.008 A 
ATOM     24  C   UNL A   1      30.729  25.544  23.222  1.00  0.00     0.047 A 
ATOM     25  C   UNL A   1      32.726  25.270  21.286  1.00  0.00     0.001 A 
ATOM     26  C   UNL A   1      30.898  26.504  22.206  1.00  0.00     0.021 A 
ATOM     27  Cl  UNL A   1      29.463  25.952  24.314  1.00  0.00    -0.084 Cl
ATOM     28  C   UNL A   1      31.899  26.378  21.251  1.00  0.00     0.002 A 
ENDBRANCH   9  22
ENDBRANCH   4   7
ENDBRANCH   2   3
ENDBRANCH   1   2
BRANCH   1  29
ATOM     29  C   UNL A   1      38.151  20.372  25.085  1.00  0.00     0.023 C 
BRANCH  29  30
ATOM     30  C   UNL A   1      39.252  20.345  26.125  1.00  0.00     0.116 C 
BRANCH  30  31
ATOM     31  N   UNL A   1      40.158  19.208  25.994  1.00  0.00    -0.352 N 
ATOM     32  C   UNL A   1      41.530  19.202  26.106  1.00  0.00     0.251 C 
ATOM     33  H   UNL A   1      39.736  18.339  25.804  1.00  0.00     0.163 HD
ATOM     34  O   UNL A   1      42.183  18.191  25.900  1.00  0.00    -0.269 OA
BRANCH  32  35
ATOM     35  C   UNL A   1      42.198  20.479  26.424  1.00  0.00     0.039 A 
ATOM     36  C   UNL A   1      42.588  21.313  25.376  1.00  0.00     0.014 A 
ATOM     37  C   UNL A   1      42.300  20.898  27.751  1.00  0.00     0.014 A 
ATOM     38  C   UNL A   1      42.995  22.615  25.660  1.00  0.00     0.010 A 
ATOM     39  C   UNL A   1      42.597  22.224  28.021  1.00  0.00     0.010 A 
ATOM     40  C   UNL A   1      42.951  23.095  26.980  1.00  0.00    -0.014 A 
BRANCH  40  41
ATOM     41  C   UNL A   1      43.284  24.501  27.309  1.00  0.00     0.031 A 
ATOM     42  C   UNL A   1      44.714  24.954  27.244  1.00  0.00     0.074 A 
ATOM     43  C   UNL A   1      42.323  25.336  27.746  1.00  0.00     0.049 A 
ATOM     44  N   UNL A   1      45.237  26.099  27.599  1.00  0.00    -0.248 NA
ATOM     45  C   UNL A   1      45.697  23.970  26.757  1.00  0.00     0.031 C 
ATOM     46  C   UNL A   1      40.907  24.996  27.912  1.00  0.00     0.029 A 
ATOM     47  N   UNL A   1      42.395  26.648  28.140  1.00  0.00    -0.354 N 
ATOM     48  C   UNL A   1      46.605  25.960  27.407  1.00  0.00     0.074 A 
ATOM     49  C   UNL A   1      46.839  24.602  26.968  1.00  0.00     0.031 C 
ATOM     50  C   UNL A   1      40.240  26.082  28.335  1.00  0.00     0.029 A 
ATOM     51  C   UNL A   1      41.184  27.182  28.507  1.00  0.00     0.049 A 
ATOM     52  H   UNL A   1      43.237  27.159  28.159  1.00  0.00     0.167 HD
ATOM     53  C   UNL A   1      47.578  26.889  27.552  1.00  0.00     0.037 A 
ATOM     54  C   UNL A   1      40.874  28.421  28.929  1.00  0.00     0.037 A 
ATOM     55  C   UNL A   1      47.335  28.252  27.939  1.00  0.00     0.049 A 
ATOM     56  C   UNL A   1      41.965  29.446  29.053  1.00  0.00     0.074 A 
ATOM     57  C   UNL A   1      48.239  29.292  28.052  1.00  0.00     0.029 A 
ATOM     58  N   UNL A   1      46.089  28.764  28.265  1.00  0.00    -0.354 N 
ATOM     59  N   UNL A   1      43.249  29.318  28.815  1.00  0.00    -0.248 NA
ATOM     60  C   UNL A   1      41.566  30.787  29.501  1.00  0.00     0.031 C 
ATOM     61  C   UNL A   1      47.542  30.430  28.470  1.00  0.00     0.029 A 
ATOM     62  C   UNL A   1      46.200  30.106  28.585  1.00  0.00     0.049 A 
ATOM     63  H   UNL A   1      45.249  28.250  28.268  1.00  0.00     0.167 HD
ATOM     64  C   UNL A   1      43.806  30.567  29.056  1.00  0.00     0.074 A 
ATOM     65  C   UNL A   1      42.719  31.440  29.451  1.00  0.00     0.031 C 
ATOM     66  C   UNL A   1      45.101  30.956  28.961  1.00  0.00     0.037 A 
BRANCH  53  67
ATOM     67  C   UNL A   1      48.985  26.453  27.271  1.00  0.00     0.057 A 
ATOM     68  C   UNL A   1      49.518  26.475  25.975  1.00  0.00     0.134 A 
ATOM     69  C   UNL A   1      49.815  26.000  28.304  1.00  0.00     0.134 A 
ATOM     70  F   UNL A   1      48.768  26.882  24.939  1.00  0.00    -0.206 F 
ATOM     71  C   UNL A   1      50.814  26.029  25.710  1.00  0.00     0.040 A 
ATOM     72  C   UNL A   1      51.122  25.577  28.055  1.00  0.00     0.040 A 
ATOM     73  F   UNL A   1      49.368  25.954  29.568  1.00  0.00    -0.206 F 
ATOM     74  C   UNL A   1      51.621  25.582  26.754  1.00  0.00     0.006 A 
ENDBRANCH  53  67
BRANCH  54  75
ATOM     75  C   UNL A   1      39.462  28.778  29.218  1.00  0.00     0.057 A 
ATOM     76  C   UNL A   1      38.934  28.614  30.504  1.00  0.00     0.134 A 
ATOM     77  C   UNL A   1      38.613  29.286  28.229  1.00  0.00     0.134 A 
ATOM     78  F   UNL A   1      39.696  28.115  31.488  1.00  0.00    -0.206 F 
ATOM     79  C   UNL A   1      37.604  28.926  30.794  1.00  0.00     0.040 A 
ATOM     80  C   UNL A   1      37.288  29.622  28.510  1.00  0.00     0.040 A 
ATOM     81  F   UNL A   1      39.063  29.474  26.981  1.00  0.00    -0.206 F 
ATOM     82  C   UNL A   1      36.778  29.436  29.794  1.00  0.00     0.006 A 
ENDBRANCH  54  75
BRANCH  66  83
ATOM     83  C   UNL A   1      45.403  32.396  29.250  1.00  0.00     0.057 A 
ATOM     84  C   UNL A   1      45.781  32.826  30.527  1.00  0.00     0.134 A 
ATOM     85  C   UNL A   1      45.358  33.351  28.227  1.00  0.00     0.134 A 
ATOM     86  F   UNL A   1      45.830  31.961  31.550  1.00  0.00    -0.206 F 
ATOM     87  C   UNL A   1      46.088  34.164  30.780  1.00  0.00     0.040 A 
ATOM     88  C   UNL A   1      45.685  34.685  28.463  1.00  0.00     0.040 A 
ATOM     89  F   UNL A   1      45.011  32.998  26.980  1.00  0.00    -0.206 F 
ATOM     90  C   UNL A   1      46.047  35.096  29.744  1.00  0.00     0.006 A 
ENDBRANCH  66  83
ENDBRANCH  40  41
ENDBRANCH  32  35
ENDBRANCH  30  31
ENDBRANCH  29  30
ENDBRANCH   1  29
TORSDOF 15
ENDMDL
