MODEL 1
REMARK VINA RESULT:     -11.4      0.000      0.000
REMARK SMILES Cc1ccn2c(CC(=O)NCCCCNC(=O)c3ccc(-c4c5nc(c(-c6c(F)cccc6F)c6ccc([nH]6)c(-c6c(F)cccc6F)c6nc(c(-c7c(F)cccc7F)c7ccc4[nH]7)C=C6)C=C5)cc3)nnc2c1
REMARK SMILES IDX 13 1 12 2 11 3 10 4 8 5 9 6 7 8 6 9 1 10 2 11 3 12 75 13
REMARK SMILES IDX 4 14 74 15 5 16 73 17 72 18 14 19 15 20 16 21 17 23 18 24
REMARK SMILES IDX 19 25 71 26 20 27 70 28 21 29 22 30 23 31 64 32 24 33 69 34
REMARK SMILES IDX 63 35 65 36 25 37 68 38 62 39 61 40 26 42 52 43 35 44 51 45
REMARK SMILES IDX 36 46 39 47 50 48 66 49 37 50 38 51 49 53 67 54 40 55 27 56
REMARK SMILES IDX 28 57 33 58 29 59 30 60 32 61 34 62 31 63 53 64 54 65 59 66
REMARK SMILES IDX 55 67 56 68 58 69 60 70 57 71 41 72 42 73 47 74 43 75 44 76
REMARK SMILES IDX 46 77 48 78 45 79
REMARK H PARENT 10 7 15 22 65 41 39 52
REMARK Flexibility Score: inf
ROOT
ATOM      1  C   UNL A   1      42.036  20.571  27.263  1.00  0.00     0.023 C 
ENDROOT
BRANCH   1   2
ATOM      2  C   UNL A   1      40.805  21.443  27.541  1.00  0.00     0.023 C 
BRANCH   2   3
ATOM      3  C   UNL A   1      39.951  21.726  26.308  1.00  0.00     0.116 C 
BRANCH   3   4
ATOM      4  N   UNL A   1      38.894  22.672  26.587  1.00  0.00    -0.356 N 
ATOM      5  C   UNL A   1      37.776  22.973  25.852  1.00  0.00     0.227 C 
ATOM      6  O   UNL A   1      36.992  23.789  26.308  1.00  0.00    -0.275 OA
ATOM      7  H   UNL A   1      38.990  23.174  27.429  1.00  0.00     0.163 HD
BRANCH   5   8
ATOM      8  C   UNL A   1      37.485  22.209  24.568  1.00  0.00     0.177 C 
BRANCH   8   9
ATOM      9  C   UNL A   1      36.123  21.615  24.598  1.00  0.00     0.146 A 
ATOM     10  C   UNL A   1      31.014  23.532  23.355  1.00  0.00     0.044 C 
ATOM     11  C   UNL A   1      32.395  23.019  23.636  1.00  0.00    -0.046 A 
ATOM     12  C   UNL A   1      33.516  23.884  23.272  1.00  0.00     0.022 A 
ATOM     13  C   UNL A   1      32.614  21.817  24.215  1.00  0.00     0.053 A 
ATOM     14  C   UNL A   1      34.772  23.480  23.528  1.00  0.00     0.095 A 
ATOM     15  C   UNL A   1      33.943  21.387  24.480  1.00  0.00     0.161 A 
ATOM     16  N   UNL A   1      34.979  22.244  24.144  1.00  0.00    -0.286 N 
ATOM     17  N   UNL A   1      34.432  20.296  25.023  1.00  0.00    -0.130 NA
ATOM     18  N   UNL A   1      35.797  20.434  25.087  1.00  0.00    -0.134 NA
ENDBRANCH   8   9
ENDBRANCH   5   8
ENDBRANCH   3   4
ENDBRANCH   2   3
ENDBRANCH   1   2
BRANCH   1  19
ATOM     19  C   UNL A   1      41.954  19.752  25.971  1.00  0.00     0.116 C 
BRANCH  19  20
ATOM     20  N   UNL A   1      43.179  19.763  25.193  1.00  0.00    -0.352 N 
ATOM     21  C   UNL A   1      44.192  20.663  25.016  1.00  0.00     0.251 C 
ATOM     22  H   UNL A   1      43.308  18.934  24.676  1.00  0.00     0.163 HD
ATOM     23  O   UNL A   1      45.149  20.284  24.337  1.00  0.00    -0.269 OA
BRANCH  21  24
ATOM     24  C   UNL A   1      44.178  22.062  25.519  1.00  0.00     0.039 A 
ATOM     25  C   UNL A   1      44.934  22.538  26.588  1.00  0.00     0.014 A 
ATOM     26  C   UNL A   1      43.270  22.940  24.896  1.00  0.00     0.014 A 
ATOM     27  C   UNL A   1      44.704  23.799  27.111  1.00  0.00     0.010 A 
ATOM     28  C   UNL A   1      43.057  24.220  25.394  1.00  0.00     0.010 A 
ATOM     29  C   UNL A   1      43.734  24.618  26.542  1.00  0.00    -0.014 A 
BRANCH  29  30
ATOM     30  C   UNL A   1      43.504  25.901  27.190  1.00  0.00     0.031 A 
ATOM     31  C   UNL A   1      44.533  26.947  26.932  1.00  0.00     0.074 A 
ATOM     32  C   UNL A   1      42.408  26.142  27.932  1.00  0.00     0.049 A 
ATOM     33  N   UNL A   1      45.264  27.591  27.785  1.00  0.00    -0.248 NA
ATOM     34  C   UNL A   1      44.848  27.246  25.526  1.00  0.00     0.031 C 
ATOM     35  C   UNL A   1      41.209  25.309  28.060  1.00  0.00     0.029 A 
ATOM     36  N   UNL A   1      42.094  27.253  28.655  1.00  0.00    -0.354 N 
ATOM     37  C   UNL A   1      46.009  28.503  27.037  1.00  0.00     0.074 A 
ATOM     38  C   UNL A   1      45.809  28.160  25.654  1.00  0.00     0.031 C 
ATOM     39  C   UNL A   1      40.221  26.042  28.618  1.00  0.00     0.029 A 
ATOM     40  C   UNL A   1      40.756  27.338  28.997  1.00  0.00     0.049 A 
ATOM     41  H   UNL A   1      42.759  27.933  28.911  1.00  0.00     0.167 HD
ATOM     42  C   UNL A   1      46.575  29.605  27.602  1.00  0.00     0.037 A 
ATOM     43  C   UNL A   1      40.110  28.424  29.484  1.00  0.00     0.037 A 
ATOM     44  C   UNL A   1      46.743  29.453  29.021  1.00  0.00     0.049 A 
ATOM     45  C   UNL A   1      41.121  29.365  30.018  1.00  0.00     0.074 A 
ATOM     46  C   UNL A   1      47.456  28.600  29.839  1.00  0.00     0.029 A 
ATOM     47  N   UNL A   1      45.869  30.112  29.848  1.00  0.00    -0.354 N 
ATOM     48  N   UNL A   1      41.816  29.157  31.101  1.00  0.00    -0.248 NA
ATOM     49  C   UNL A   1      41.663  30.371  29.117  1.00  0.00     0.031 C 
ATOM     50  C   UNL A   1      46.655  28.450  31.010  1.00  0.00     0.029 A 
ATOM     51  C   UNL A   1      45.518  29.239  30.842  1.00  0.00     0.049 A 
ATOM     52  H   UNL A   1      45.554  31.039  29.746  1.00  0.00     0.167 HD
ATOM     53  C   UNL A   1      43.072  29.676  30.822  1.00  0.00     0.074 A 
ATOM     54  C   UNL A   1      42.884  30.508  29.638  1.00  0.00     0.031 C 
ATOM     55  C   UNL A   1      44.193  29.162  31.408  1.00  0.00     0.037 A 
BRANCH  42  56
ATOM     56  C   UNL A   1      46.625  30.959  26.929  1.00  0.00     0.057 A 
ATOM     57  C   UNL A   1      45.483  31.717  26.601  1.00  0.00     0.134 A 
ATOM     58  C   UNL A   1      47.839  31.671  26.909  1.00  0.00     0.134 A 
ATOM     59  F   UNL A   1      44.248  31.207  26.628  1.00  0.00    -0.206 F 
ATOM     60  C   UNL A   1      45.537  33.086  26.320  1.00  0.00     0.040 A 
ATOM     61  C   UNL A   1      47.897  33.051  26.680  1.00  0.00     0.040 A 
ATOM     62  F   UNL A   1      49.000  31.065  27.202  1.00  0.00    -0.206 F 
ATOM     63  C   UNL A   1      46.740  33.766  26.399  1.00  0.00     0.006 A 
ENDBRANCH  42  56
BRANCH  43  64
ATOM     64  C   UNL A   1      38.701  28.799  29.256  1.00  0.00     0.057 A 
ATOM     65  C   UNL A   1      38.282  29.345  28.029  1.00  0.00     0.134 A 
ATOM     66  C   UNL A   1      37.775  28.850  30.303  1.00  0.00     0.134 A 
ATOM     67  F   UNL A   1      39.124  29.435  26.988  1.00  0.00    -0.206 F 
ATOM     68  C   UNL A   1      37.010  29.893  27.846  1.00  0.00     0.040 A 
ATOM     69  C   UNL A   1      36.499  29.407  30.137  1.00  0.00     0.040 A 
ATOM     70  F   UNL A   1      38.101  28.403  31.524  1.00  0.00    -0.206 F 
ATOM     71  C   UNL A   1      36.115  29.934  28.906  1.00  0.00     0.006 A 
ENDBRANCH  43  64
BRANCH  55  72
ATOM     72  C   UNL A   1      44.001  28.218  32.558  1.00  0.00     0.057 A 
ATOM     73  C   UNL A   1      44.096  28.709  33.864  1.00  0.00     0.134 A 
ATOM     74  C   UNL A   1      43.863  26.830  32.408  1.00  0.00     0.134 A 
ATOM     75  F   UNL A   1      44.295  30.020  34.081  1.00  0.00    -0.206 F 
ATOM     76  C   UNL A   1      44.034  27.864  34.974  1.00  0.00     0.040 A 
ATOM     77  C   UNL A   1      43.766  25.977  33.511  1.00  0.00     0.040 A 
ATOM     78  F   UNL A   1      43.871  26.261  31.196  1.00  0.00    -0.206 F 
ATOM     79  C   UNL A   1      43.856  26.494  34.800  1.00  0.00     0.006 A 
ENDBRANCH  55  72
ENDBRANCH  29  30
ENDBRANCH  21  24
ENDBRANCH  19  20
ENDBRANCH   1  19
TORSDOF 12
ENDMDL
MODEL 2
REMARK VINA RESULT:     -11.4      4.509     10.390
REMARK SMILES Cc1ccn2c(CC(=O)NCCCCNC(=O)c3ccc(-c4c5nc(c(-c6c(F)cccc6F)c6ccc([nH]6)c(-c6c(F)cccc6F)c6nc(c(-c7c(F)cccc7F)c7ccc4[nH]7)C=C6)C=C5)cc3)nnc2c1
REMARK SMILES IDX 13 1 12 2 11 3 10 4 8 5 9 6 7 8 6 9 1 10 2 11 3 12 75 13
REMARK SMILES IDX 4 14 74 15 5 16 73 17 72 18 14 19 15 20 16 21 17 23 18 24
REMARK SMILES IDX 19 25 71 26 20 27 70 28 21 29 22 30 23 31 64 32 24 33 69 34
REMARK SMILES IDX 63 35 65 36 25 37 68 38 62 39 61 40 26 42 52 43 35 44 51 45
REMARK SMILES IDX 36 46 39 47 50 48 66 49 37 50 38 51 49 53 67 54 40 55 27 56
REMARK SMILES IDX 28 57 33 58 29 59 30 60 32 61 34 62 31 63 53 64 54 65 59 66
REMARK SMILES IDX 55 67 56 68 58 69 60 70 57 71 41 72 42 73 47 74 43 75 44 76
REMARK SMILES IDX 46 77 48 78 45 79
REMARK H PARENT 10 7 15 22 65 41 39 52
REMARK Flexibility Score: inf
ROOT
ATOM      1  C   UNL A   1      34.730  34.317  29.488  1.00  0.00     0.023 C 
ENDROOT
BRANCH   1   2
ATOM      2  C   UNL A   1      33.336  34.953  29.401  1.00  0.00     0.023 C 
BRANCH   2   3
ATOM      3  C   UNL A   1      33.288  36.412  29.846  1.00  0.00     0.116 C 
BRANCH   3   4
ATOM      4  N   UNL A   1      32.329  36.623  30.908  1.00  0.00    -0.356 N 
ATOM      5  C   UNL A   1      32.508  36.575  32.267  1.00  0.00     0.227 C 
ATOM      6  O   UNL A   1      31.552  36.828  32.980  1.00  0.00    -0.275 OA
ATOM      7  H   UNL A   1      31.414  36.831  30.612  1.00  0.00     0.163 HD
BRANCH   5   8
ATOM      8  C   UNL A   1      33.897  36.333  32.841  1.00  0.00     0.177 C 
BRANCH   8   9
ATOM      9  C   UNL A   1      34.214  34.881  32.875  1.00  0.00     0.146 A 
ATOM     10  C   UNL A   1      38.952  31.924  32.522  1.00  0.00     0.044 C 
ATOM     11  C   UNL A   1      37.697  32.733  32.664  1.00  0.00    -0.046 A 
ATOM     12  C   UNL A   1      37.848  34.182  32.787  1.00  0.00     0.022 A 
ATOM     13  C   UNL A   1      36.469  32.167  32.667  1.00  0.00     0.053 A 
ATOM     14  C   UNL A   1      36.752  34.953  32.891  1.00  0.00     0.095 A 
ATOM     15  C   UNL A   1      35.311  32.982  32.783  1.00  0.00     0.161 A 
ATOM     16  N   UNL A   1      35.491  34.353  32.873  1.00  0.00    -0.286 N 
ATOM     17  N   UNL A   1      34.028  32.703  32.808  1.00  0.00    -0.130 NA
ATOM     18  N   UNL A   1      33.341  33.892  32.876  1.00  0.00    -0.134 NA
ENDBRANCH   8   9
ENDBRANCH   5   8
ENDBRANCH   3   4
ENDBRANCH   2   3
ENDBRANCH   1   2
BRANCH   1  19
ATOM     19  C   UNL A   1      35.297  33.849  28.144  1.00  0.00     0.116 C 
BRANCH  19  20
ATOM     20  N   UNL A   1      34.663  32.651  27.626  1.00  0.00    -0.352 N 
ATOM     21  C   UNL A   1      34.928  31.313  27.717  1.00  0.00     0.251 C 
ATOM     22  H   UNL A   1      33.862  32.847  27.088  1.00  0.00     0.163 HD
ATOM     23  O   UNL A   1      34.095  30.555  27.215  1.00  0.00    -0.269 OA
BRANCH  21  24
ATOM     24  C   UNL A   1      36.165  30.734  28.304  1.00  0.00     0.039 A 
ATOM     25  C   UNL A   1      37.267  31.468  28.737  1.00  0.00     0.014 A 
ATOM     26  C   UNL A   1      36.232  29.328  28.352  1.00  0.00     0.014 A 
ATOM     27  C   UNL A   1      38.449  30.832  29.080  1.00  0.00     0.010 A 
ATOM     28  C   UNL A   1      37.405  28.682  28.727  1.00  0.00     0.010 A 
ATOM     29  C   UNL A   1      38.528  29.443  29.029  1.00  0.00    -0.014 A 
BRANCH  29  30
ATOM     30  C   UNL A   1      39.823  28.855  29.337  1.00  0.00     0.031 A 
ATOM     31  C   UNL A   1      40.192  28.831  30.780  1.00  0.00     0.074 A 
ATOM     32  C   UNL A   1      40.612  28.321  28.387  1.00  0.00     0.049 A 
ATOM     33  N   UNL A   1      41.227  29.352  31.359  1.00  0.00    -0.248 NA
ATOM     34  C   UNL A   1      39.229  28.219  31.710  1.00  0.00     0.031 C 
ATOM     35  C   UNL A   1      40.273  28.048  26.987  1.00  0.00     0.029 A 
ATOM     36  N   UNL A   1      41.868  27.809  28.509  1.00  0.00    -0.354 N 
ATOM     37  C   UNL A   1      41.137  28.986  32.703  1.00  0.00     0.074 A 
ATOM     38  C   UNL A   1      39.833  28.404  32.883  1.00  0.00     0.031 C 
ATOM     39  C   UNL A   1      41.202  27.220  26.463  1.00  0.00     0.029 A 
ATOM     40  C   UNL A   1      42.254  27.015  27.443  1.00  0.00     0.049 A 
ATOM     41  H   UNL A   1      42.448  27.987  29.285  1.00  0.00     0.167 HD
ATOM     42  C   UNL A   1      42.220  28.999  33.526  1.00  0.00     0.037 A 
ATOM     43  C   UNL A   1      43.321  26.183  27.396  1.00  0.00     0.037 A 
ATOM     44  C   UNL A   1      43.260  29.859  33.031  1.00  0.00     0.049 A 
ATOM     45  C   UNL A   1      44.264  26.575  28.469  1.00  0.00     0.074 A 
ATOM     46  C   UNL A   1      43.374  31.209  32.768  1.00  0.00     0.029 A 
ATOM     47  N   UNL A   1      44.356  29.275  32.447  1.00  0.00    -0.354 N 
ATOM     48  N   UNL A   1      44.976  27.666  28.455  1.00  0.00    -0.248 NA
ATOM     49  C   UNL A   1      44.116  25.946  29.773  1.00  0.00     0.031 C 
ATOM     50  C   UNL A   1      44.260  31.298  31.653  1.00  0.00     0.029 A 
ATOM     51  C   UNL A   1      44.648  29.999  31.323  1.00  0.00     0.049 A 
ATOM     52  H   UNL A   1      44.841  28.483  32.775  1.00  0.00     0.167 HD
ATOM     53  C   UNL A   1      45.004  28.088  29.777  1.00  0.00     0.074 A 
ATOM     54  C   UNL A   1      44.560  26.934  30.552  1.00  0.00     0.031 C 
ATOM     55  C   UNL A   1      45.116  29.412  30.092  1.00  0.00     0.037 A 
BRANCH  42  56
ATOM     56  C   UNL A   1      42.487  27.945  34.579  1.00  0.00     0.057 A 
ATOM     57  C   UNL A   1      42.146  28.087  35.939  1.00  0.00     0.134 A 
ATOM     58  C   UNL A   1      42.786  26.630  34.174  1.00  0.00     0.134 A 
ATOM     59  F   UNL A   1      41.780  29.258  36.471  1.00  0.00    -0.206 F 
ATOM     60  C   UNL A   1      42.063  27.002  36.817  1.00  0.00     0.040 A 
ATOM     61  C   UNL A   1      42.656  25.531  35.032  1.00  0.00     0.040 A 
ATOM     62  F   UNL A   1      43.126  26.359  32.905  1.00  0.00    -0.206 F 
ATOM     63  C   UNL A   1      42.278  25.715  36.355  1.00  0.00     0.006 A 
ENDBRANCH  42  56
BRANCH  43  64
ATOM     64  C   UNL A   1      43.427  24.911  26.656  1.00  0.00     0.057 A 
ATOM     65  C   UNL A   1      44.151  24.827  25.452  1.00  0.00     0.134 A 
ATOM     66  C   UNL A   1      42.639  23.802  26.979  1.00  0.00     0.134 A 
ATOM     67  F   UNL A   1      44.862  25.871  24.998  1.00  0.00    -0.206 F 
ATOM     68  C   UNL A   1      44.108  23.702  24.626  1.00  0.00     0.040 A 
ATOM     69  C   UNL A   1      42.578  22.670  26.155  1.00  0.00     0.040 A 
ATOM     70  F   UNL A   1      41.873  23.809  28.080  1.00  0.00    -0.206 F 
ATOM     71  C   UNL A   1      43.311  22.619  24.972  1.00  0.00     0.006 A 
ENDBRANCH  43  64
BRANCH  55  72
ATOM     72  C   UNL A   1      45.484  30.357  28.986  1.00  0.00     0.057 A 
ATOM     73  C   UNL A   1      46.806  30.804  28.886  1.00  0.00     0.134 A 
ATOM     74  C   UNL A   1      44.549  30.933  28.115  1.00  0.00     0.134 A 
ATOM     75  F   UNL A   1      47.742  30.344  29.733  1.00  0.00    -0.206 F 
ATOM     76  C   UNL A   1      47.187  31.766  27.948  1.00  0.00     0.040 A 
ATOM     77  C   UNL A   1      44.924  31.871  27.149  1.00  0.00     0.040 A 
ATOM     78  F   UNL A   1      43.244  30.644  28.210  1.00  0.00    -0.206 F 
ATOM     79  C   UNL A   1      46.247  32.293  27.066  1.00  0.00     0.006 A 
ENDBRANCH  55  72
ENDBRANCH  29  30
ENDBRANCH  21  24
ENDBRANCH  19  20
ENDBRANCH   1  19
TORSDOF 12
ENDMDL
MODEL 3
REMARK VINA RESULT:     -11.2      3.280      7.776
REMARK SMILES Cc1ccn2c(CC(=O)NCCCCNC(=O)c3ccc(-c4c5nc(c(-c6c(F)cccc6F)c6ccc([nH]6)c(-c6c(F)cccc6F)c6nc(c(-c7c(F)cccc7F)c7ccc4[nH]7)C=C6)C=C5)cc3)nnc2c1
REMARK SMILES IDX 13 1 12 2 11 3 10 4 8 5 9 6 7 8 6 9 1 10 2 11 3 12 75 13
REMARK SMILES IDX 4 14 74 15 5 16 73 17 72 18 14 19 15 20 16 21 17 23 18 24
REMARK SMILES IDX 19 25 71 26 20 27 70 28 21 29 22 30 23 31 64 32 24 33 69 34
REMARK SMILES IDX 63 35 65 36 25 37 68 38 62 39 61 40 26 42 52 43 35 44 51 45
REMARK SMILES IDX 36 46 39 47 50 48 66 49 37 50 38 51 49 53 67 54 40 55 27 56
REMARK SMILES IDX 28 57 33 58 29 59 30 60 32 61 34 62 31 63 53 64 54 65 59 66
REMARK SMILES IDX 55 67 56 68 58 69 60 70 57 71 41 72 42 73 47 74 43 75 44 76
REMARK SMILES IDX 46 77 48 78 45 79
REMARK H PARENT 10 7 15 22 65 41 39 52
REMARK Flexibility Score: inf
ROOT
ATOM      1  C   UNL A   1      33.388  28.839  26.662  1.00  0.00     0.023 C 
ENDROOT
BRANCH   1   2
ATOM      2  C   UNL A   1      32.934  29.170  25.234  1.00  0.00     0.023 C 
BRANCH   2   3
ATOM      3  C   UNL A   1      31.420  29.264  25.068  1.00  0.00     0.116 C 
BRANCH   3   4
ATOM      4  N   UNL A   1      31.042  29.571  23.707  1.00  0.00    -0.356 N 
ATOM      5  C   UNL A   1      30.629  28.730  22.706  1.00  0.00     0.227 C 
ATOM      6  O   UNL A   1      30.322  29.222  21.633  1.00  0.00    -0.275 OA
ATOM      7  H   UNL A   1      31.089  30.523  23.463  1.00  0.00     0.163 HD
BRANCH   5   8
ATOM      8  C   UNL A   1      30.451  27.244  22.988  1.00  0.00     0.177 C 
BRANCH   8   9
ATOM      9  C   UNL A   1      31.689  26.488  22.669  1.00  0.00     0.146 A 
ATOM     10  C   UNL A   1      35.554  23.870  25.757  1.00  0.00     0.044 C 
ATOM     11  C   UNL A   1      34.484  24.533  24.942  1.00  0.00    -0.046 A 
ATOM     12  C   UNL A   1      33.292  24.994  25.653  1.00  0.00     0.022 A 
ATOM     13  C   UNL A   1      34.604  24.720  23.608  1.00  0.00     0.053 A 
ATOM     14  C   UNL A   1      32.317  25.617  24.971  1.00  0.00     0.095 A 
ATOM     15  C   UNL A   1      33.569  25.375  22.886  1.00  0.00     0.161 A 
ATOM     16  N   UNL A   1      32.465  25.819  23.597  1.00  0.00    -0.286 N 
ATOM     17  N   UNL A   1      33.431  25.685  21.618  1.00  0.00    -0.130 NA
ATOM     18  N   UNL A   1      32.249  26.372  21.480  1.00  0.00    -0.134 NA
ENDBRANCH   8   9
ENDBRANCH   5   8
ENDBRANCH   3   4
ENDBRANCH   2   3
ENDBRANCH   1   2
BRANCH   1  19
ATOM     19  C   UNL A   1      34.856  29.164  26.951  1.00  0.00     0.116 C 
BRANCH  19  20
ATOM     20  N   UNL A   1      35.074  29.790  28.242  1.00  0.00    -0.352 N 
ATOM     21  C   UNL A   1      36.160  29.948  29.057  1.00  0.00     0.251 C 
ATOM     22  H   UNL A   1      34.255  30.191  28.614  1.00  0.00     0.163 HD
ATOM     23  O   UNL A   1      35.991  30.640  30.065  1.00  0.00    -0.269 OA
BRANCH  21  24
ATOM     24  C   UNL A   1      37.478  29.295  28.847  1.00  0.00     0.039 A 
ATOM     25  C   UNL A   1      38.076  28.393  29.725  1.00  0.00     0.014 A 
ATOM     26  C   UNL A   1      38.191  29.686  27.697  1.00  0.00     0.014 A 
ATOM     27  C   UNL A   1      39.389  27.994  29.543  1.00  0.00     0.010 A 
ATOM     28  C   UNL A   1      39.499  29.264  27.490  1.00  0.00     0.010 A 
ATOM     29  C   UNL A   1      40.112  28.468  28.452  1.00  0.00    -0.014 A 
BRANCH  29  30
ATOM     30  C   UNL A   1      41.506  28.058  28.368  1.00  0.00     0.031 A 
ATOM     31  C   UNL A   1      41.751  26.738  27.723  1.00  0.00     0.074 A 
ATOM     32  C   UNL A   1      42.510  28.843  28.799  1.00  0.00     0.049 A 
ATOM     33  N   UNL A   1      42.344  25.696  28.214  1.00  0.00    -0.248 NA
ATOM     34  C   UNL A   1      41.179  26.528  26.384  1.00  0.00     0.031 C 
ATOM     35  C   UNL A   1      42.438  30.247  29.212  1.00  0.00     0.029 A 
ATOM     36  N   UNL A   1      43.843  28.569  28.856  1.00  0.00    -0.354 N 
ATOM     37  C   UNL A   1      42.373  24.754  27.185  1.00  0.00     0.074 A 
ATOM     38  C   UNL A   1      41.536  25.269  26.133  1.00  0.00     0.031 C 
ATOM     39  C   UNL A   1      43.688  30.759  29.251  1.00  0.00     0.029 A 
ATOM     40  C   UNL A   1      44.640  29.692  28.995  1.00  0.00     0.049 A 
ATOM     41  H   UNL A   1      44.206  27.655  28.805  1.00  0.00     0.167 HD
ATOM     42  C   UNL A   1      43.250  23.714  27.186  1.00  0.00     0.037 A 
ATOM     43  C   UNL A   1      45.982  29.760  28.830  1.00  0.00     0.037 A 
ATOM     44  C   UNL A   1      43.738  23.425  28.507  1.00  0.00     0.049 A 
ATOM     45  C   UNL A   1      46.531  28.388  28.923  1.00  0.00     0.074 A 
ATOM     46  C   UNL A   1      43.167  23.019  29.696  1.00  0.00     0.029 A 
ATOM     47  N   UNL A   1      45.010  23.827  28.827  1.00  0.00    -0.354 N 
ATOM     48  N   UNL A   1      46.592  27.696  30.026  1.00  0.00    -0.248 NA
ATOM     49  C   UNL A   1      46.647  27.613  27.697  1.00  0.00     0.031 C 
ATOM     50  C   UNL A   1      43.949  23.638  30.716  1.00  0.00     0.029 A 
ATOM     51  C   UNL A   1      44.960  24.363  30.085  1.00  0.00     0.049 A 
ATOM     52  H   UNL A   1      45.810  23.745  28.258  1.00  0.00     0.167 HD
ATOM     53  C   UNL A   1      46.325  26.390  29.640  1.00  0.00     0.074 A 
ATOM     54  C   UNL A   1      46.482  26.383  28.189  1.00  0.00     0.031 C 
ATOM     55  C   UNL A   1      45.732  25.509  30.498  1.00  0.00     0.037 A 
BRANCH  42  56
ATOM     56  C   UNL A   1      43.952  23.206  25.945  1.00  0.00     0.057 A 
ATOM     57  C   UNL A   1      44.879  23.963  25.201  1.00  0.00     0.134 A 
ATOM     58  C   UNL A   1      43.957  21.825  25.675  1.00  0.00     0.134 A 
ATOM     59  F   UNL A   1      45.042  25.279  25.378  1.00  0.00    -0.206 F 
ATOM     60  C   UNL A   1      45.774  23.387  24.295  1.00  0.00     0.040 A 
ATOM     61  C   UNL A   1      44.882  21.232  24.808  1.00  0.00     0.040 A 
ATOM     62  F   UNL A   1      43.121  20.994  26.315  1.00  0.00    -0.206 F 
ATOM     63  C   UNL A   1      45.806  22.013  24.125  1.00  0.00     0.006 A 
ENDBRANCH  42  56
BRANCH  43  64
ATOM     64  C   UNL A   1      46.761  30.908  28.326  1.00  0.00     0.057 A 
ATOM     65  C   UNL A   1      47.484  31.738  29.203  1.00  0.00     0.134 A 
ATOM     66  C   UNL A   1      46.637  31.361  27.009  1.00  0.00     0.134 A 
ATOM     67  F   UNL A   1      47.582  31.447  30.509  1.00  0.00    -0.206 F 
ATOM     68  C   UNL A   1      48.065  32.940  28.791  1.00  0.00     0.040 A 
ATOM     69  C   UNL A   1      47.205  32.570  26.584  1.00  0.00     0.040 A 
ATOM     70  F   UNL A   1      45.922  30.664  26.113  1.00  0.00    -0.206 F 
ATOM     71  C   UNL A   1      47.918  33.365  27.478  1.00  0.00     0.006 A 
ENDBRANCH  43  64
BRANCH  55  72
ATOM     72  C   UNL A   1      45.635  25.909  31.941  1.00  0.00     0.057 A 
ATOM     73  C   UNL A   1      44.512  26.622  32.374  1.00  0.00     0.134 A 
ATOM     74  C   UNL A   1      46.672  25.729  32.868  1.00  0.00     0.134 A 
ATOM     75  F   UNL A   1      43.509  26.889  31.521  1.00  0.00    -0.206 F 
ATOM     76  C   UNL A   1      44.413  27.116  33.677  1.00  0.00     0.040 A 
ATOM     77  C   UNL A   1      46.570  26.188  34.184  1.00  0.00     0.040 A 
ATOM     78  F   UNL A   1      47.827  25.153  32.510  1.00  0.00    -0.206 F 
ATOM     79  C   UNL A   1      45.439  26.888  34.591  1.00  0.00     0.006 A 
ENDBRANCH  55  72
ENDBRANCH  29  30
ENDBRANCH  21  24
ENDBRANCH  19  20
ENDBRANCH   1  19
TORSDOF 12
ENDMDL
