MODEL 1
REMARK VINA RESULT:     -12.0      0.000      0.000
REMARK SMILES C[C@@H]([NH2+][C@H]1CCOC2(CCOCC2)C1)C(=O)NCCCCNC(=O)c1ccc(-c2c3nc(c(-c4c(F)cccc4F)c4ccc([nH]4)c(-c4c(F)cccc4F)c4nc(c(-c5c(F)cccc5F)c5ccc2[nH]5)C=C4)C=C3)cc1
REMARK SMILES IDX 19 1 18 2 17 3 15 4 16 5 2 7 1 8 3 9 4 12 5 13 14 14 6 15
REMARK SMILES IDX 8 16 7 17 9 18 13 19 10 20 12 21 11 22 20 23 21 24 22 25
REMARK SMILES IDX 23 26 24 28 25 29 26 30 78 31 27 32 77 33 28 34 29 35 30 36
REMARK SMILES IDX 71 37 31 38 76 39 70 40 72 41 32 42 75 43 69 44 68 45 33 47
REMARK SMILES IDX 59 48 42 49 58 50 43 51 46 52 57 53 73 54 44 55 45 56 56 58
REMARK SMILES IDX 74 59 47 60 34 61 35 62 40 63 36 64 37 65 39 66 41 67 38 68
REMARK SMILES IDX 60 69 61 70 66 71 62 72 63 73 65 74 67 75 64 76 48 77 49 78
REMARK SMILES IDX 54 79 50 80 51 81 53 82 55 83 52 84
REMARK H PARENT 17 6 3 10 3 11 22 27 72 46 46 57
REMARK Flexibility Score: inf
ROOT
ATOM      1  C   UNL A   1      31.762  30.677  26.142  1.00  0.00     0.023 C 
ENDROOT
BRANCH   1   2
ATOM      2  C   UNL A   1      32.522  29.646  26.968  1.00  0.00     0.116 C 
BRANCH   2   3
ATOM      3  N   UNL A   1      31.750  28.437  27.182  1.00  0.00    -0.351 N 
ATOM      4  C   UNL A   1      31.348  27.489  26.288  1.00  0.00     0.277 C 
ATOM      5  O   UNL A   1      30.765  26.496  26.736  1.00  0.00    -0.268 OA
ATOM      6  H   UNL A   1      31.474  28.277  28.113  1.00  0.00     0.163 HD
BRANCH   4   7
ATOM      7  C   UNL A   1      31.571  27.643  24.772  1.00  0.00     0.269 C 
ATOM      8  C   UNL A   1      32.979  27.178  24.399  1.00  0.00     0.086 C 
BRANCH   7   9
ATOM      9  N   UNL A   1      30.592  26.913  23.945  1.00  0.00    -0.334 N 
ATOM     10  H   UNL A   1      30.088  26.270  24.556  1.00  0.00     0.347 HD
ATOM     11  H   UNL A   1      31.140  26.460  23.214  1.00  0.00     0.347 HD
BRANCH   9  12
ATOM     12  C   UNL A   1      29.598  27.730  23.237  1.00  0.00     0.188 C 
ATOM     13  C   UNL A   1      28.159  27.441  23.660  1.00  0.00     0.093 C 
ATOM     14  C   UNL A   1      29.951  29.190  23.545  1.00  0.00     0.100 C 
ATOM     15  C   UNL A   1      27.213  28.476  23.068  1.00  0.00     0.167 C 
ATOM     16  C   UNL A   1      28.925  30.189  22.986  1.00  0.00     0.078 C 
ATOM     17  O   UNL A   1      27.605  29.805  23.409  1.00  0.00    -0.374 OA
ATOM     18  C   UNL A   1      29.007  30.330  21.453  1.00  0.00     0.064 C 
ATOM     19  C   UNL A   1      29.212  31.571  23.612  1.00  0.00     0.064 C 
ATOM     20  C   UNL A   1      28.119  31.471  20.969  1.00  0.00     0.163 C 
ATOM     21  C   UNL A   1      28.337  32.655  22.999  1.00  0.00     0.163 C 
ATOM     22  O   UNL A   1      28.511  32.698  21.583  1.00  0.00    -0.381 OA
ENDBRANCH   9  12
ENDBRANCH   7   9
ENDBRANCH   4   7
ENDBRANCH   2   3
ENDBRANCH   1   2
BRANCH   1  23
ATOM     23  C   UNL A   1      31.454  31.986  26.868  1.00  0.00     0.023 C 
BRANCH  23  24
ATOM     24  C   UNL A   1      32.670  32.795  27.304  1.00  0.00     0.116 C 
BRANCH  24  25
ATOM     25  N   UNL A   1      32.354  34.178  27.630  1.00  0.00    -0.352 N 
ATOM     26  C   UNL A   1      32.943  35.009  28.552  1.00  0.00     0.251 C 
ATOM     27  H   UNL A   1      31.613  34.574  27.118  1.00  0.00     0.163 HD
ATOM     28  O   UNL A   1      32.464  36.116  28.780  1.00  0.00    -0.269 OA
BRANCH  26  29
ATOM     29  C   UNL A   1      34.135  34.552  29.298  1.00  0.00     0.039 A 
ATOM     30  C   UNL A   1      33.964  34.006  30.572  1.00  0.00     0.014 A 
ATOM     31  C   UNL A   1      35.412  34.640  28.736  1.00  0.00     0.014 A 
ATOM     32  C   UNL A   1      35.063  33.480  31.254  1.00  0.00     0.010 A 
ATOM     33  C   UNL A   1      36.493  34.047  29.383  1.00  0.00     0.010 A 
ATOM     34  C   UNL A   1      36.329  33.459  30.647  1.00  0.00    -0.014 A 
BRANCH  34  35
ATOM     35  C   UNL A   1      37.492  32.818  31.313  1.00  0.00     0.031 A 
ATOM     36  C   UNL A   1      38.151  31.617  30.696  1.00  0.00     0.074 A 
ATOM     37  C   UNL A   1      37.911  33.278  32.508  1.00  0.00     0.049 A 
ATOM     38  N   UNL A   1      39.130  30.881  31.159  1.00  0.00    -0.248 NA
ATOM     39  C   UNL A   1      37.622  31.164  29.399  1.00  0.00     0.031 C 
ATOM     40  C   UNL A   1      37.326  34.406  33.236  1.00  0.00     0.029 A 
ATOM     41  N   UNL A   1      38.922  32.844  33.329  1.00  0.00    -0.354 N 
ATOM     42  C   UNL A   1      39.322  29.874  30.222  1.00  0.00     0.074 A 
ATOM     43  C   UNL A   1      38.325  30.061  29.191  1.00  0.00     0.031 C 
ATOM     44  C   UNL A   1      38.005  34.590  34.380  1.00  0.00     0.029 A 
ATOM     45  C   UNL A   1      39.043  33.572  34.488  1.00  0.00     0.049 A 
ATOM     46  H   UNL A   1      39.507  32.082  33.108  1.00  0.00     0.167 HD
ATOM     47  C   UNL A   1      40.258  28.895  30.210  1.00  0.00     0.037 A 
ATOM     48  C   UNL A   1      39.892  33.431  35.524  1.00  0.00     0.037 A 
ATOM     49  C   UNL A   1      41.266  28.727  31.225  1.00  0.00     0.049 A 
ATOM     50  C   UNL A   1      40.915  32.329  35.492  1.00  0.00     0.074 A 
ATOM     51  C   UNL A   1      42.300  27.808  31.267  1.00  0.00     0.029 A 
ATOM     52  N   UNL A   1      41.363  29.493  32.377  1.00  0.00    -0.354 N 
ATOM     53  N   UNL A   1      41.132  31.429  34.563  1.00  0.00    -0.248 NA
ATOM     54  C   UNL A   1      41.815  32.227  36.649  1.00  0.00     0.031 C 
ATOM     55  C   UNL A   1      42.992  27.985  32.469  1.00  0.00     0.029 A 
ATOM     56  C   UNL A   1      42.424  29.050  33.150  1.00  0.00     0.049 A 
ATOM     57  H   UNL A   1      40.767  30.240  32.611  1.00  0.00     0.167 HD
ATOM     58  C   UNL A   1      42.211  30.676  35.009  1.00  0.00     0.074 A 
ATOM     59  C   UNL A   1      42.611  31.232  36.285  1.00  0.00     0.031 C 
ATOM     60  C   UNL A   1      42.816  29.619  34.415  1.00  0.00     0.037 A 
BRANCH  47  61
ATOM     61  C   UNL A   1      40.237  27.929  29.061  1.00  0.00     0.057 A 
ATOM     62  C   UNL A   1      40.976  28.152  27.891  1.00  0.00     0.134 A 
ATOM     63  C   UNL A   1      39.496  26.743  29.138  1.00  0.00     0.134 A 
ATOM     64  F   UNL A   1      41.699  29.274  27.747  1.00  0.00    -0.206 F 
ATOM     65  C   UNL A   1      40.956  27.245  26.831  1.00  0.00     0.040 A 
ATOM     66  C   UNL A   1      39.491  25.815  28.096  1.00  0.00     0.040 A 
ATOM     67  F   UNL A   1      38.770  26.462  30.232  1.00  0.00    -0.206 F 
ATOM     68  C   UNL A   1      40.217  26.069  26.934  1.00  0.00     0.006 A 
ENDBRANCH  47  61
BRANCH  48  69
ATOM     69  C   UNL A   1      39.829  34.370  36.673  1.00  0.00     0.057 A 
ATOM     70  C   UNL A   1      39.130  34.035  37.839  1.00  0.00     0.134 A 
ATOM     71  C   UNL A   1      40.449  35.624  36.632  1.00  0.00     0.134 A 
ATOM     72  F   UNL A   1      38.498  32.855  37.931  1.00  0.00    -0.206 F 
ATOM     73  C   UNL A   1      39.031  34.920  38.913  1.00  0.00     0.040 A 
ATOM     74  C   UNL A   1      40.381  36.508  37.710  1.00  0.00     0.040 A 
ATOM     75  F   UNL A   1      41.141  36.002  35.547  1.00  0.00    -0.206 F 
ATOM     76  C   UNL A   1      39.664  36.160  38.851  1.00  0.00     0.006 A 
ENDBRANCH  48  69
BRANCH  60  77
ATOM     77  C   UNL A   1      43.999  29.019  35.117  1.00  0.00     0.057 A 
ATOM     78  C   UNL A   1      43.863  27.975  36.040  1.00  0.00     0.134 A 
ATOM     79  C   UNL A   1      45.296  29.468  34.834  1.00  0.00     0.134 A 
ATOM     80  F   UNL A   1      42.648  27.508  36.365  1.00  0.00    -0.206 F 
ATOM     81  C   UNL A   1      44.974  27.415  36.675  1.00  0.00     0.040 A 
ATOM     82  C   UNL A   1      46.415  28.897  35.441  1.00  0.00     0.040 A 
ATOM     83  F   UNL A   1      45.497  30.459  33.952  1.00  0.00    -0.206 F 
ATOM     84  C   UNL A   1      46.254  27.870  36.369  1.00  0.00     0.006 A 
ENDBRANCH  60  77
ENDBRANCH  34  35
ENDBRANCH  26  29
ENDBRANCH  24  25
ENDBRANCH  23  24
ENDBRANCH   1  23
TORSDOF 13
ENDMDL
MODEL 2
REMARK VINA RESULT:     -12.0      4.576     10.176
REMARK SMILES C[C@@H]([NH2+][C@H]1CCOC2(CCOCC2)C1)C(=O)NCCCCNC(=O)c1ccc(-c2c3nc(c(-c4c(F)cccc4F)c4ccc([nH]4)c(-c4c(F)cccc4F)c4nc(c(-c5c(F)cccc5F)c5ccc2[nH]5)C=C4)C=C3)cc1
REMARK SMILES IDX 19 1 18 2 17 3 15 4 16 5 2 7 1 8 3 9 4 12 5 13 14 14 6 15
REMARK SMILES IDX 8 16 7 17 9 18 13 19 10 20 12 21 11 22 20 23 21 24 22 25
REMARK SMILES IDX 23 26 24 28 25 29 26 30 78 31 27 32 77 33 28 34 29 35 30 36
REMARK SMILES IDX 71 37 31 38 76 39 70 40 72 41 32 42 75 43 69 44 68 45 33 47
REMARK SMILES IDX 59 48 42 49 58 50 43 51 46 52 57 53 73 54 44 55 45 56 56 58
REMARK SMILES IDX 74 59 47 60 34 61 35 62 40 63 36 64 37 65 39 66 41 67 38 68
REMARK SMILES IDX 60 69 61 70 66 71 62 72 63 73 65 74 67 75 64 76 48 77 49 78
REMARK SMILES IDX 54 79 50 80 51 81 53 82 55 83 52 84
REMARK H PARENT 17 6 3 10 3 11 22 27 72 46 46 57
REMARK Flexibility Score: inf
ROOT
ATOM      1  C   UNL A   1      33.232  34.503  28.383  1.00  0.00     0.023 C 
ENDROOT
BRANCH   1   2
ATOM      2  C   UNL A   1      33.543  35.777  29.161  1.00  0.00     0.116 C 
BRANCH   2   3
ATOM      3  N   UNL A   1      32.522  36.081  30.146  1.00  0.00    -0.351 N 
ATOM      4  C   UNL A   1      32.596  36.075  31.508  1.00  0.00     0.277 C 
ATOM      5  O   UNL A   1      31.601  36.457  32.133  1.00  0.00    -0.268 OA
ATOM      6  H   UNL A   1      31.645  36.330  29.776  1.00  0.00     0.163 HD
BRANCH   4   7
ATOM      7  C   UNL A   1      33.846  35.581  32.260  1.00  0.00     0.269 C 
ATOM      8  C   UNL A   1      34.026  36.374  33.555  1.00  0.00     0.086 C 
BRANCH   7   9
ATOM      9  N   UNL A   1      33.824  34.142  32.581  1.00  0.00    -0.334 N 
ATOM     10  H   UNL A   1      33.081  33.713  32.030  1.00  0.00     0.347 HD
ATOM     11  H   UNL A   1      33.685  34.091  33.590  1.00  0.00     0.347 HD
BRANCH   9  12
ATOM     12  C   UNL A   1      35.061  33.396  32.321  1.00  0.00     0.188 C 
ATOM     13  C   UNL A   1      36.108  34.199  31.552  1.00  0.00     0.093 C 
ATOM     14  C   UNL A   1      35.614  32.996  33.695  1.00  0.00     0.100 C 
ATOM     15  C   UNL A   1      37.436  33.455  31.527  1.00  0.00     0.167 C 
ATOM     16  C   UNL A   1      36.990  32.314  33.617  1.00  0.00     0.078 C 
ATOM     17  O   UNL A   1      37.884  33.131  32.842  1.00  0.00    -0.374 OA
ATOM     18  C   UNL A   1      36.910  30.879  33.059  1.00  0.00     0.064 C 
ATOM     19  C   UNL A   1      37.571  32.244  35.045  1.00  0.00     0.064 C 
ATOM     20  C   UNL A   1      38.257  30.176  33.190  1.00  0.00     0.163 C 
ATOM     21  C   UNL A   1      38.866  31.447  35.083  1.00  0.00     0.163 C 
ATOM     22  O   UNL A   1      38.663  30.136  34.557  1.00  0.00    -0.381 OA
ENDBRANCH   9  12
ENDBRANCH   7   9
ENDBRANCH   4   7
ENDBRANCH   2   3
ENDBRANCH   1   2
BRANCH   1  23
ATOM     23  C   UNL A   1      34.451  33.654  28.023  1.00  0.00     0.023 C 
BRANCH  23  24
ATOM     24  C   UNL A   1      34.676  32.426  28.897  1.00  0.00     0.116 C 
BRANCH  24  25
ATOM     25  N   UNL A   1      34.058  31.220  28.365  1.00  0.00    -0.352 N 
ATOM     26  C   UNL A   1      34.641  30.025  28.023  1.00  0.00     0.251 C 
ATOM     27  H   UNL A   1      33.085  31.269  28.231  1.00  0.00     0.163 HD
ATOM     28  O   UNL A   1      33.980  29.150  27.471  1.00  0.00    -0.269 OA
BRANCH  26  29
ATOM     29  C   UNL A   1      36.080  29.807  28.287  1.00  0.00     0.039 A 
ATOM     30  C   UNL A   1      36.467  29.304  29.531  1.00  0.00     0.014 A 
ATOM     31  C   UNL A   1      37.040  30.075  27.307  1.00  0.00     0.014 A 
ATOM     32  C   UNL A   1      37.810  28.999  29.767  1.00  0.00     0.010 A 
ATOM     33  C   UNL A   1      38.364  29.700  27.517  1.00  0.00     0.010 A 
ATOM     34  C   UNL A   1      38.762  29.156  28.747  1.00  0.00    -0.014 A 
BRANCH  34  35
ATOM     35  C   UNL A   1      40.176  28.748  28.945  1.00  0.00     0.031 A 
ATOM     36  C   UNL A   1      41.170  29.714  29.525  1.00  0.00     0.074 A 
ATOM     37  C   UNL A   1      40.581  27.528  28.538  1.00  0.00     0.049 A 
ATOM     38  N   UNL A   1      42.457  29.566  29.709  1.00  0.00    -0.248 NA
ATOM     39  C   UNL A   1      40.655  31.033  29.925  1.00  0.00     0.031 C 
ATOM     40  C   UNL A   1      39.724  26.515  27.917  1.00  0.00     0.029 A 
ATOM     41  N   UNL A   1      41.819  26.937  28.576  1.00  0.00    -0.354 N 
ATOM     42  C   UNL A   1      42.907  30.773  30.230  1.00  0.00     0.074 A 
ATOM     43  C   UNL A   1      41.765  31.661  30.283  1.00  0.00     0.031 C 
ATOM     44  C   UNL A   1      40.458  25.420  27.657  1.00  0.00     0.029 A 
ATOM     45  C   UNL A   1      41.840  25.667  28.054  1.00  0.00     0.049 A 
ATOM     46  H   UNL A   1      42.617  27.381  28.944  1.00  0.00     0.167 HD
ATOM     47  C   UNL A   1      44.152  31.105  30.647  1.00  0.00     0.037 A 
ATOM     48  C   UNL A   1      42.860  24.799  27.906  1.00  0.00     0.037 A 
ATOM     49  C   UNL A   1      45.280  30.211  30.617  1.00  0.00     0.049 A 
ATOM     50  C   UNL A   1      44.235  25.196  28.367  1.00  0.00     0.074 A 
ATOM     51  C   UNL A   1      46.566  30.432  31.079  1.00  0.00     0.029 A 
ATOM     52  N   UNL A   1      45.259  28.928  30.091  1.00  0.00    -0.354 N 
ATOM     53  N   UNL A   1      44.629  26.315  28.926  1.00  0.00    -0.248 NA
ATOM     54  C   UNL A   1      45.306  24.208  28.182  1.00  0.00     0.031 C 
ATOM     55  C   UNL A   1      47.335  29.301  30.788  1.00  0.00     0.029 A 
ATOM     56  C   UNL A   1      46.515  28.355  30.194  1.00  0.00     0.049 A 
ATOM     57  H   UNL A   1      44.467  28.490  29.703  1.00  0.00     0.167 HD
ATOM     58  C   UNL A   1      45.984  26.153  29.186  1.00  0.00     0.074 A 
ATOM     59  C   UNL A   1      46.340  24.824  28.736  1.00  0.00     0.031 C 
ATOM     60  C   UNL A   1      46.854  27.026  29.749  1.00  0.00     0.037 A 
BRANCH  47  61
ATOM     61  C   UNL A   1      44.359  32.495  31.173  1.00  0.00     0.057 A 
ATOM     62  C   UNL A   1      44.202  32.805  32.531  1.00  0.00     0.134 A 
ATOM     63  C   UNL A   1      44.754  33.532  30.318  1.00  0.00     0.134 A 
ATOM     64  F   UNL A   1      43.813  31.861  33.403  1.00  0.00    -0.206 F 
ATOM     65  C   UNL A   1      44.403  34.099  33.014  1.00  0.00     0.040 A 
ATOM     66  C   UNL A   1      44.987  34.823  30.794  1.00  0.00     0.040 A 
ATOM     67  F   UNL A   1      44.930  33.305  29.007  1.00  0.00    -0.206 F 
ATOM     68  C   UNL A   1      44.804  35.112  32.145  1.00  0.00     0.006 A 
ENDBRANCH  47  61
BRANCH  48  69
ATOM     69  C   UNL A   1      42.619  23.458  27.314  1.00  0.00     0.057 A 
ATOM     70  C   UNL A   1      42.232  22.378  28.116  1.00  0.00     0.134 A 
ATOM     71  C   UNL A   1      42.780  23.220  25.945  1.00  0.00     0.134 A 
ATOM     72  F   UNL A   1      42.079  22.539  29.439  1.00  0.00    -0.206 F 
ATOM     73  C   UNL A   1      42.035  21.103  27.581  1.00  0.00     0.040 A 
ATOM     74  C   UNL A   1      42.562  21.957  25.392  1.00  0.00     0.040 A 
ATOM     75  F   UNL A   1      43.142  24.216  25.122  1.00  0.00    -0.206 F 
ATOM     76  C   UNL A   1      42.196  20.893  26.213  1.00  0.00     0.006 A 
ENDBRANCH  48  69
BRANCH  60  77
ATOM     77  C   UNL A   1      48.267  26.560  29.947  1.00  0.00     0.057 A 
ATOM     78  C   UNL A   1      48.669  25.881  31.103  1.00  0.00     0.134 A 
ATOM     79  C   UNL A   1      49.228  26.762  28.947  1.00  0.00     0.134 A 
ATOM     80  F   UNL A   1      47.800  25.667  32.103  1.00  0.00    -0.206 F 
ATOM     81  C   UNL A   1      49.983  25.438  31.269  1.00  0.00     0.040 A 
ATOM     82  C   UNL A   1      50.537  26.299  29.089  1.00  0.00     0.040 A 
ATOM     83  F   UNL A   1      48.907  27.398  27.811  1.00  0.00    -0.206 F 
ATOM     84  C   UNL A   1      50.919  25.640  30.256  1.00  0.00     0.006 A 
ENDBRANCH  60  77
ENDBRANCH  34  35
ENDBRANCH  26  29
ENDBRANCH  24  25
ENDBRANCH  23  24
ENDBRANCH   1  23
TORSDOF 13
ENDMDL
MODEL 3
REMARK VINA RESULT:     -11.9      0.555      6.233
REMARK SMILES C[C@@H]([NH2+][C@H]1CCOC2(CCOCC2)C1)C(=O)NCCCCNC(=O)c1ccc(-c2c3nc(c(-c4c(F)cccc4F)c4ccc([nH]4)c(-c4c(F)cccc4F)c4nc(c(-c5c(F)cccc5F)c5ccc2[nH]5)C=C4)C=C3)cc1
REMARK SMILES IDX 19 1 18 2 17 3 15 4 16 5 2 7 1 8 3 9 4 12 5 13 14 14 6 15
REMARK SMILES IDX 8 16 7 17 9 18 13 19 10 20 12 21 11 22 20 23 21 24 22 25
REMARK SMILES IDX 23 26 24 28 25 29 26 30 78 31 27 32 77 33 28 34 29 35 30 36
REMARK SMILES IDX 71 37 31 38 76 39 70 40 72 41 32 42 75 43 69 44 68 45 33 47
REMARK SMILES IDX 59 48 42 49 58 50 43 51 46 52 57 53 73 54 44 55 45 56 56 58
REMARK SMILES IDX 74 59 47 60 34 61 35 62 40 63 36 64 37 65 39 66 41 67 38 68
REMARK SMILES IDX 60 69 61 70 66 71 62 72 63 73 65 74 67 75 64 76 48 77 49 78
REMARK SMILES IDX 54 79 50 80 51 81 53 82 55 83 52 84
REMARK H PARENT 17 6 3 10 3 11 22 27 72 46 46 57
REMARK Flexibility Score: inf
ROOT
ATOM      1  C   UNL A   1      31.609  30.784  26.126  1.00  0.00     0.023 C 
ENDROOT
BRANCH   1   2
ATOM      2  C   UNL A   1      32.468  29.778  26.885  1.00  0.00     0.116 C 
BRANCH   2   3
ATOM      3  N   UNL A   1      31.778  28.521  27.103  1.00  0.00    -0.351 N 
ATOM      4  C   UNL A   1      31.402  27.566  26.204  1.00  0.00     0.277 C 
ATOM      5  O   UNL A   1      30.896  26.532  26.652  1.00  0.00    -0.268 OA
ATOM      6  H   UNL A   1      31.547  28.327  28.039  1.00  0.00     0.163 HD
BRANCH   4   7
ATOM      7  C   UNL A   1      31.560  27.761  24.685  1.00  0.00     0.269 C 
ATOM      8  C   UNL A   1      32.960  27.337  24.244  1.00  0.00     0.086 C 
BRANCH   7   9
ATOM      9  N   UNL A   1      30.564  27.029  23.879  1.00  0.00    -0.334 N 
ATOM     10  H   UNL A   1      30.072  26.389  24.503  1.00  0.00     0.347 HD
ATOM     11  H   UNL A   1      31.096  26.573  23.139  1.00  0.00     0.347 HD
BRANCH   9  12
ATOM     12  C   UNL A   1      29.556  27.844  23.189  1.00  0.00     0.188 C 
ATOM     13  C   UNL A   1      28.124  27.545  23.628  1.00  0.00     0.093 C 
ATOM     14  C   UNL A   1      29.904  29.305  23.501  1.00  0.00     0.100 C 
ATOM     15  C   UNL A   1      27.165  28.578  23.053  1.00  0.00     0.167 C 
ATOM     16  C   UNL A   1      28.866  30.301  22.960  1.00  0.00     0.078 C 
ATOM     17  O   UNL A   1      27.554  29.907  23.398  1.00  0.00    -0.374 OA
ATOM     18  C   UNL A   1      28.928  30.451  21.427  1.00  0.00     0.064 C 
ATOM     19  C   UNL A   1      29.153  31.681  23.591  1.00  0.00     0.064 C 
ATOM     20  C   UNL A   1      28.028  31.590  20.961  1.00  0.00     0.163 C 
ATOM     21  C   UNL A   1      28.265  32.764  22.995  1.00  0.00     0.163 C 
ATOM     22  O   UNL A   1      28.421  32.815  21.578  1.00  0.00    -0.381 OA
ENDBRANCH   9  12
ENDBRANCH   7   9
ENDBRANCH   4   7
ENDBRANCH   2   3
ENDBRANCH   1   2
BRANCH   1  23
ATOM     23  C   UNL A   1      31.373  32.108  26.851  1.00  0.00     0.023 C 
BRANCH  23  24
ATOM     24  C   UNL A   1      32.632  32.869  27.251  1.00  0.00     0.116 C 
BRANCH  24  25
ATOM     25  N   UNL A   1      32.365  34.231  27.690  1.00  0.00    -0.352 N 
ATOM     26  C   UNL A   1      32.999  34.972  28.657  1.00  0.00     0.251 C 
ATOM     27  H   UNL A   1      31.625  34.686  27.227  1.00  0.00     0.163 HD
ATOM     28  O   UNL A   1      32.559  36.071  28.981  1.00  0.00    -0.269 OA
BRANCH  26  29
ATOM     29  C   UNL A   1      34.193  34.425  29.337  1.00  0.00     0.039 A 
ATOM     30  C   UNL A   1      34.027  33.749  30.548  1.00  0.00     0.014 A 
ATOM     31  C   UNL A   1      35.465  34.559  28.774  1.00  0.00     0.014 A 
ATOM     32  C   UNL A   1      35.127  33.142  31.158  1.00  0.00     0.010 A 
ATOM     33  C   UNL A   1      36.545  33.888  29.342  1.00  0.00     0.010 A 
ATOM     34  C   UNL A   1      36.387  33.172  30.537  1.00  0.00    -0.014 A 
BRANCH  34  35
ATOM     35  C   UNL A   1      37.548  32.451  31.118  1.00  0.00     0.031 A 
ATOM     36  C   UNL A   1      38.186  32.940  32.388  1.00  0.00     0.074 A 
ATOM     37  C   UNL A   1      38.071  31.394  30.465  1.00  0.00     0.049 A 
ATOM     38  N   UNL A   1      39.246  32.487  33.009  1.00  0.00    -0.248 NA
ATOM     39  C   UNL A   1      37.569  34.112  33.030  1.00  0.00     0.031 C 
ATOM     40  C   UNL A   1      37.574  30.849  29.199  1.00  0.00     0.029 A 
ATOM     41  N   UNL A   1      39.145  30.595  30.770  1.00  0.00    -0.354 N 
ATOM     42  C   UNL A   1      39.431  33.324  34.102  1.00  0.00     0.074 A 
ATOM     43  C   UNL A   1      38.406  34.344  34.030  1.00  0.00     0.031 C 
ATOM     44  C   UNL A   1      38.325  29.792  28.852  1.00  0.00     0.029 A 
ATOM     45  C   UNL A   1      39.379  29.608  29.844  1.00  0.00     0.049 A 
ATOM     46  H   UNL A   1      39.696  30.718  31.577  1.00  0.00     0.167 HD
ATOM     47  C   UNL A   1      40.355  33.240  35.088  1.00  0.00     0.037 A 
ATOM     48  C   UNL A   1      40.339  28.664  29.796  1.00  0.00     0.037 A 
ATOM     49  C   UNL A   1      41.356  32.209  35.171  1.00  0.00     0.049 A 
ATOM     50  C   UNL A   1      41.360  28.597  30.898  1.00  0.00     0.074 A 
ATOM     51  C   UNL A   1      42.294  31.998  36.167  1.00  0.00     0.029 A 
ATOM     52  N   UNL A   1      41.553  31.219  34.220  1.00  0.00    -0.354 N 
ATOM     53  N   UNL A   1      41.476  29.352  31.964  1.00  0.00    -0.248 NA
ATOM     54  C   UNL A   1      42.380  27.545  30.792  1.00  0.00     0.031 C 
ATOM     55  C   UNL A   1      43.091  30.911  35.794  1.00  0.00     0.029 A 
ATOM     56  C   UNL A   1      42.614  30.411  34.593  1.00  0.00     0.049 A 
ATOM     57  H   UNL A   1      41.018  31.107  33.402  1.00  0.00     0.167 HD
ATOM     58  C   UNL A   1      42.560  28.847  32.670  1.00  0.00     0.074 A 
ATOM     59  C   UNL A   1      43.059  27.714  31.918  1.00  0.00     0.031 C 
ATOM     60  C   UNL A   1      43.095  29.281  33.838  1.00  0.00     0.037 A 
BRANCH  47  61
ATOM     61  C   UNL A   1      40.324  34.291  36.159  1.00  0.00     0.057 A 
ATOM     62  C   UNL A   1      41.072  35.472  36.060  1.00  0.00     0.134 A 
ATOM     63  C   UNL A   1      39.510  34.137  37.288  1.00  0.00     0.134 A 
ATOM     64  F   UNL A   1      41.882  35.678  35.010  1.00  0.00    -0.206 F 
ATOM     65  C   UNL A   1      41.033  36.448  37.057  1.00  0.00     0.040 A 
ATOM     66  C   UNL A   1      39.440  35.119  38.278  1.00  0.00     0.040 A 
ATOM     67  F   UNL A   1      38.761  33.034  37.445  1.00  0.00    -0.206 F 
ATOM     68  C   UNL A   1      40.209  36.276  38.168  1.00  0.00     0.006 A 
ENDBRANCH  47  61
BRANCH  48  69
ATOM     69  C   UNL A   1      40.369  27.687  28.677  1.00  0.00     0.057 A 
ATOM     70  C   UNL A   1      39.645  26.491  28.747  1.00  0.00     0.134 A 
ATOM     71  C   UNL A   1      41.128  27.915  27.524  1.00  0.00     0.134 A 
ATOM     72  F   UNL A   1      38.914  26.207  29.835  1.00  0.00    -0.206 F 
ATOM     73  C   UNL A   1      39.690  25.547  27.720  1.00  0.00     0.040 A 
ATOM     74  C   UNL A   1      41.162  26.992  26.477  1.00  0.00     0.040 A 
ATOM     75  F   UNL A   1      41.838  29.046  27.392  1.00  0.00    -0.206 F 
ATOM     76  C   UNL A   1      40.448  25.801  26.578  1.00  0.00     0.006 A 
ENDBRANCH  48  69
BRANCH  60  77
ATOM     77  C   UNL A   1      44.254  28.507  34.395  1.00  0.00     0.057 A 
ATOM     78  C   UNL A   1      44.072  27.395  35.227  1.00  0.00     0.134 A 
ATOM     79  C   UNL A   1      45.569  28.858  34.062  1.00  0.00     0.134 A 
ATOM     80  F   UNL A   1      42.839  27.014  35.593  1.00  0.00    -0.206 F 
ATOM     81  C   UNL A   1      45.159  26.674  35.726  1.00  0.00     0.040 A 
ATOM     82  C   UNL A   1      46.661  28.128  34.532  1.00  0.00     0.040 A 
ATOM     83  F   UNL A   1      45.812  29.908  33.262  1.00  0.00    -0.206 F 
ATOM     84  C   UNL A   1      46.457  27.035  35.372  1.00  0.00     0.006 A 
ENDBRANCH  60  77
ENDBRANCH  34  35
ENDBRANCH  26  29
ENDBRANCH  24  25
ENDBRANCH  23  24
ENDBRANCH   1  23
TORSDOF 13
ENDMDL
