MODEL 1
REMARK VINA RESULT:     -12.5      0.000      0.000
REMARK SMILES C/C(=N/[NH+]=C1\NC(=O)[C@H](CC(=O)NCCCCNC(=O)c2ccc(-c3c4nc(c(-c5c(F)cccc5F)c5ccc([nH]5)c(-c5c(F)cccc5F)c5nc(c(-c6c(F)cccc6F)c6ccc3[nH]6)C=C5)C=C4)cc2)S1)c1ccc(OC(C)C)cc1
REMARK SMILES IDX 14 1 13 2 11 3 12 4 10 6 9 7 4 8 5 9 6 11 75 12 7 13 8 15
REMARK SMILES IDX 3 16 1 17 2 18 76 19 77 20 85 21 78 22 84 23 79 24 80 25
REMARK SMILES IDX 81 26 82 27 83 28 15 29 16 30 17 31 18 32 19 33 20 35 21 36
REMARK SMILES IDX 22 37 74 38 23 39 73 40 24 41 25 42 26 43 67 44 27 45 72 46
REMARK SMILES IDX 66 47 68 48 28 49 71 50 65 51 64 52 29 54 55 55 38 56 54 57
REMARK SMILES IDX 39 58 42 59 53 60 69 61 40 62 41 63 52 65 70 66 43 67 30 68
REMARK SMILES IDX 31 69 36 70 32 71 33 72 35 73 37 74 34 75 56 76 57 77 62 78
REMARK SMILES IDX 58 79 59 80 61 81 63 82 60 83 44 84 45 85 50 86 46 87 47 88
REMARK SMILES IDX 49 89 51 90 48 91
REMARK H PARENT 13 5 4 10 6 14 18 34 68 53 42 64
REMARK Flexibility Score: inf
ROOT
ATOM      1  C   UNL A   1      31.996  29.704  25.591  1.00  0.00     0.116 C 
ENDROOT
BRANCH   1   2
ATOM      2  N   UNL A   1      31.043  30.218  24.631  1.00  0.00    -0.356 N 
ATOM      3  C   UNL A   1      30.249  29.529  23.759  1.00  0.00     0.221 C 
ATOM      4  O   UNL A   1      29.473  30.152  23.037  1.00  0.00    -0.275 OA
ATOM      5  H   UNL A   1      30.954  31.197  24.604  1.00  0.00     0.163 HD
BRANCH   3   6
ATOM      6  C   UNL A   1      30.332  28.022  23.697  1.00  0.00     0.127 C 
BRANCH   6   7
ATOM      7  C   UNL A   1      31.159  27.540  22.508  1.00  0.00     0.183 C 
ATOM      8  N   UNL A   1      32.886  24.356  23.699  1.00  0.00    -0.142 N 
ATOM      9  C   UNL A   1      32.544  25.478  23.169  1.00  0.00     0.337 C 
ATOM     10  H   UNL A   1      32.301  23.566  23.652  1.00  0.00     0.343 HD
ATOM     11  N   UNL A   1      33.269  26.616  23.151  1.00  0.00    -0.202 N 
ATOM     12  S   UNL A   1      30.993  25.714  22.414  1.00  0.00    -0.020 SA
ATOM     13  C   UNL A   1      32.657  27.739  22.675  1.00  0.00     0.322 C 
ATOM     14  H   UNL A   1      34.200  26.634  23.468  1.00  0.00     0.316 HD
ATOM     15  O   UNL A   1      33.253  28.784  22.452  1.00  0.00    -0.246 OA
BRANCH   8  16
ATOM     16  N   UNL A   1      34.125  24.312  24.343  1.00  0.00    -0.090 NA
ATOM     17  C   UNL A   1      35.976  23.062  25.234  1.00  0.00     0.071 C 
ATOM     18  C   UNL A   1      34.550  23.138  24.728  1.00  0.00     0.088 C 
BRANCH  18  19
ATOM     19  C   UNL A   1      33.742  21.879  24.799  1.00  0.00    -0.000 A 
ATOM     20  C   UNL A   1      33.771  21.055  25.921  1.00  0.00     0.014 A 
ATOM     21  C   UNL A   1      33.044  21.450  23.662  1.00  0.00     0.014 A 
ATOM     22  C   UNL A   1      33.217  19.774  25.860  1.00  0.00     0.047 A 
ATOM     23  C   UNL A   1      32.466  20.169  23.617  1.00  0.00     0.047 A 
ATOM     24  C   UNL A   1      32.586  19.308  24.702  1.00  0.00     0.119 A 
BRANCH  24  25
ATOM     25  O   UNL A   1      32.194  18.011  24.787  1.00  0.00    -0.491 OA
BRANCH  25  26
ATOM     26  C   UNL A   1      33.061  16.882  24.900  1.00  0.00     0.167 C 
ATOM     27  C   UNL A   1      32.416  15.659  25.538  1.00  0.00     0.052 C 
ATOM     28  C   UNL A   1      33.837  16.567  23.628  1.00  0.00     0.052 C 
ENDBRANCH  25  26
ENDBRANCH  24  25
ENDBRANCH  18  19
ENDBRANCH   8  16
ENDBRANCH   6   7
ENDBRANCH   3   6
ENDBRANCH   1   2
BRANCH   1  29
ATOM     29  C   UNL A   1      31.965  30.435  26.928  1.00  0.00     0.023 C 
BRANCH  29  30
ATOM     30  C   UNL A   1      31.721  31.938  26.834  1.00  0.00     0.023 C 
BRANCH  30  31
ATOM     31  C   UNL A   1      32.841  32.825  27.366  1.00  0.00     0.116 C 
BRANCH  31  32
ATOM     32  N   UNL A   1      32.416  34.184  27.677  1.00  0.00    -0.352 N 
ATOM     33  C   UNL A   1      32.949  35.070  28.585  1.00  0.00     0.251 C 
ATOM     34  H   UNL A   1      31.640  34.513  27.168  1.00  0.00     0.163 HD
ATOM     35  O   UNL A   1      32.418  36.157  28.779  1.00  0.00    -0.269 OA
BRANCH  33  36
ATOM     36  C   UNL A   1      34.141  34.664  29.353  1.00  0.00     0.039 A 
ATOM     37  C   UNL A   1      33.979  34.219  30.667  1.00  0.00     0.014 A 
ATOM     38  C   UNL A   1      35.392  34.621  28.733  1.00  0.00     0.014 A 
ATOM     39  C   UNL A   1      35.057  33.628  31.327  1.00  0.00     0.010 A 
ATOM     40  C   UNL A   1      36.444  33.970  29.366  1.00  0.00     0.010 A 
ATOM     41  C   UNL A   1      36.280  33.447  30.659  1.00  0.00    -0.014 A 
BRANCH  41  42
ATOM     42  C   UNL A   1      37.385  32.670  31.274  1.00  0.00     0.031 A 
ATOM     43  C   UNL A   1      37.974  33.103  32.585  1.00  0.00     0.074 A 
ATOM     44  C   UNL A   1      37.917  31.627  30.607  1.00  0.00     0.049 A 
ATOM     45  N   UNL A   1      39.001  32.614  33.231  1.00  0.00    -0.248 NA
ATOM     46  C   UNL A   1      37.342  34.258  33.242  1.00  0.00     0.031 C 
ATOM     47  C   UNL A   1      37.466  31.137  29.302  1.00  0.00     0.029 A 
ATOM     48  N   UNL A   1      38.963  30.798  30.927  1.00  0.00    -0.354 N 
ATOM     49  C   UNL A   1      39.144  33.405  34.364  1.00  0.00     0.074 A 
ATOM     50  C   UNL A   1      38.133  34.437  34.289  1.00  0.00     0.031 C 
ATOM     51  C   UNL A   1      38.218  30.085  28.943  1.00  0.00     0.029 A 
ATOM     52  C   UNL A   1      39.230  29.849  29.968  1.00  0.00     0.049 A 
ATOM     53  H   UNL A   1      39.475  30.875  31.763  1.00  0.00     0.167 HD
ATOM     54  C   UNL A   1      40.024  33.268  35.384  1.00  0.00     0.037 A 
ATOM     55  C   UNL A   1      40.190  28.906  29.915  1.00  0.00     0.037 A 
ATOM     56  C   UNL A   1      41.015  32.229  35.464  1.00  0.00     0.049 A 
ATOM     57  C   UNL A   1      41.172  28.793  31.048  1.00  0.00     0.074 A 
ATOM     58  C   UNL A   1      41.908  31.966  36.488  1.00  0.00     0.029 A 
ATOM     59  N   UNL A   1      41.252  31.285  34.476  1.00  0.00    -0.354 N 
ATOM     60  N   UNL A   1      41.247  29.500  32.150  1.00  0.00    -0.248 NA
ATOM     61  C   UNL A   1      42.203  27.752  30.930  1.00  0.00     0.031 C 
ATOM     62  C   UNL A   1      42.717  30.893  36.099  1.00  0.00     0.029 A 
ATOM     63  C   UNL A   1      42.297  30.458  34.854  1.00  0.00     0.049 A 
ATOM     64  H   UNL A   1      40.751  31.212  33.632  1.00  0.00     0.167 HD
ATOM     65  C   UNL A   1      42.318  28.978  32.864  1.00  0.00     0.074 A 
ATOM     66  C   UNL A   1      42.850  27.883  32.080  1.00  0.00     0.031 C 
ATOM     67  C   UNL A   1      42.817  29.373  34.060  1.00  0.00     0.037 A 
BRANCH  54  68
ATOM     68  C   UNL A   1      39.948  34.270  36.499  1.00  0.00     0.057 A 
ATOM     69  C   UNL A   1      40.586  35.514  36.418  1.00  0.00     0.134 A 
ATOM     70  C   UNL A   1      39.202  34.000  37.654  1.00  0.00     0.134 A 
ATOM     71  F   UNL A   1      41.327  35.830  35.345  1.00  0.00    -0.206 F 
ATOM     72  C   UNL A   1      40.510  36.443  37.457  1.00  0.00     0.040 A 
ATOM     73  C   UNL A   1      39.096  34.932  38.688  1.00  0.00     0.040 A 
ATOM     74  F   UNL A   1      38.562  32.830  37.793  1.00  0.00    -0.206 F 
ATOM     75  C   UNL A   1      39.757  36.154  38.593  1.00  0.00     0.006 A 
ENDBRANCH  54  68
BRANCH  55  76
ATOM     76  C   UNL A   1      40.268  27.986  28.751  1.00  0.00     0.057 A 
ATOM     77  C   UNL A   1      39.623  26.745  28.769  1.00  0.00     0.134 A 
ATOM     78  C   UNL A   1      40.999  28.317  27.603  1.00  0.00     0.134 A 
ATOM     79  F   UNL A   1      38.925  26.362  29.849  1.00  0.00    -0.206 F 
ATOM     80  C   UNL A   1      39.715  25.856  27.696  1.00  0.00     0.040 A 
ATOM     81  C   UNL A   1      41.079  27.449  26.513  1.00  0.00     0.040 A 
ATOM     82  F   UNL A   1      41.635  29.495  27.521  1.00  0.00    -0.206 F 
ATOM     83  C   UNL A   1      40.442  26.210  26.561  1.00  0.00     0.006 A 
ENDBRANCH  55  76
BRANCH  67  84
ATOM     84  C   UNL A   1      43.989  28.607  34.602  1.00  0.00     0.057 A 
ATOM     85  C   UNL A   1      45.308  28.994  34.337  1.00  0.00     0.134 A 
ATOM     86  C   UNL A   1      43.794  27.497  35.435  1.00  0.00     0.134 A 
ATOM     87  F   UNL A   1      45.562  30.040  33.536  1.00  0.00    -0.206 F 
ATOM     88  C   UNL A   1      46.393  28.293  34.867  1.00  0.00     0.040 A 
ATOM     89  C   UNL A   1      44.870  26.805  35.991  1.00  0.00     0.040 A 
ATOM     90  F   UNL A   1      42.555  27.078  35.734  1.00  0.00    -0.206 F 
ATOM     91  C   UNL A   1      46.175  27.200  35.704  1.00  0.00     0.006 A 
ENDBRANCH  67  84
ENDBRANCH  41  42
ENDBRANCH  33  36
ENDBRANCH  31  32
ENDBRANCH  30  31
ENDBRANCH  29  30
ENDBRANCH   1  29
TORSDOF 16
ENDMDL
MODEL 2
REMARK VINA RESULT:     -12.3      0.634      6.065
REMARK SMILES C/C(=N/[NH+]=C1\NC(=O)[C@H](CC(=O)NCCCCNC(=O)c2ccc(-c3c4nc(c(-c5c(F)cccc5F)c5ccc([nH]5)c(-c5c(F)cccc5F)c5nc(c(-c6c(F)cccc6F)c6ccc3[nH]6)C=C5)C=C4)cc2)S1)c1ccc(OC(C)C)cc1
REMARK SMILES IDX 14 1 13 2 11 3 12 4 10 6 9 7 4 8 5 9 6 11 75 12 7 13 8 15
REMARK SMILES IDX 3 16 1 17 2 18 76 19 77 20 85 21 78 22 84 23 79 24 80 25
REMARK SMILES IDX 81 26 82 27 83 28 15 29 16 30 17 31 18 32 19 33 20 35 21 36
REMARK SMILES IDX 22 37 74 38 23 39 73 40 24 41 25 42 26 43 67 44 27 45 72 46
REMARK SMILES IDX 66 47 68 48 28 49 71 50 65 51 64 52 29 54 55 55 38 56 54 57
REMARK SMILES IDX 39 58 42 59 53 60 69 61 40 62 41 63 52 65 70 66 43 67 30 68
REMARK SMILES IDX 31 69 36 70 32 71 33 72 35 73 37 74 34 75 56 76 57 77 62 78
REMARK SMILES IDX 58 79 59 80 61 81 63 82 60 83 44 84 45 85 50 86 46 87 47 88
REMARK SMILES IDX 49 89 51 90 48 91
REMARK H PARENT 13 5 4 10 6 14 18 34 68 53 42 64
REMARK Flexibility Score: inf
ROOT
ATOM      1  C   UNL A   1      32.083  29.161  25.825  1.00  0.00     0.116 C 
ENDROOT
BRANCH   1   2
ATOM      2  N   UNL A   1      31.264  29.827  24.834  1.00  0.00    -0.356 N 
ATOM      3  C   UNL A   1      30.522  29.279  23.828  1.00  0.00     0.221 C 
ATOM      4  O   UNL A   1      29.862  30.019  23.100  1.00  0.00    -0.275 OA
ATOM      5  H   UNL A   1      31.238  30.809  24.895  1.00  0.00     0.163 HD
BRANCH   3   6
ATOM      6  C   UNL A   1      30.519  27.782  23.625  1.00  0.00     0.127 C 
BRANCH   6   7
ATOM      7  C   UNL A   1      31.423  27.355  22.472  1.00  0.00     0.183 C 
ATOM      8  N   UNL A   1      33.521  24.480  23.839  1.00  0.00    -0.142 N 
ATOM      9  C   UNL A   1      33.048  25.523  23.250  1.00  0.00     0.337 C 
ATOM     10  H   UNL A   1      33.044  23.620  23.824  1.00  0.00     0.343 HD
ATOM     11  N   UNL A   1      33.622  26.742  23.186  1.00  0.00    -0.202 N 
ATOM     12  S   UNL A   1      31.495  25.521  22.466  1.00  0.00    -0.020 SA
ATOM     13  C   UNL A   1      32.880  27.754  22.648  1.00  0.00     0.322 C 
ATOM     14  H   UNL A   1      34.537  26.896  23.514  1.00  0.00     0.316 HD
ATOM     15  O   UNL A   1      33.340  28.855  22.381  1.00  0.00    -0.246 OA
BRANCH   8  16
ATOM     16  N   UNL A   1      34.743  24.627  24.501  1.00  0.00    -0.090 NA
ATOM     17  C   UNL A   1      36.848  23.722  25.232  1.00  0.00     0.071 C 
ATOM     18  C   UNL A   1      35.439  23.540  24.707  1.00  0.00     0.088 C 
BRANCH  18  19
ATOM     19  C   UNL A   1      34.951  22.132  24.559  1.00  0.00    -0.000 A 
ATOM     20  C   UNL A   1      33.621  21.848  24.257  1.00  0.00     0.014 A 
ATOM     21  C   UNL A   1      35.817  21.072  24.860  1.00  0.00     0.014 A 
ATOM     22  C   UNL A   1      33.142  20.541  24.379  1.00  0.00     0.047 A 
ATOM     23  C   UNL A   1      35.333  19.756  24.954  1.00  0.00     0.047 A 
ATOM     24  C   UNL A   1      33.984  19.489  24.754  1.00  0.00     0.119 A 
BRANCH  24  25
ATOM     25  O   UNL A   1      33.332  18.309  24.916  1.00  0.00    -0.491 OA
BRANCH  25  26
ATOM     26  C   UNL A   1      33.812  17.027  24.508  1.00  0.00     0.167 C 
ATOM     27  C   UNL A   1      33.044  15.854  25.103  1.00  0.00     0.052 C 
ATOM     28  C   UNL A   1      34.048  16.902  23.009  1.00  0.00     0.052 C 
ENDBRANCH  25  26
ENDBRANCH  24  25
ENDBRANCH  18  19
ENDBRANCH   8  16
ENDBRANCH   6   7
ENDBRANCH   3   6
ENDBRANCH   1   2
BRANCH   1  29
ATOM     29  C   UNL A   1      32.392  30.029  27.039  1.00  0.00     0.023 C 
BRANCH  29  30
ATOM     30  C   UNL A   1      32.031  31.503  26.885  1.00  0.00     0.023 C 
BRANCH  30  31
ATOM     31  C   UNL A   1      33.072  32.495  27.392  1.00  0.00     0.116 C 
BRANCH  31  32
ATOM     32  N   UNL A   1      32.544  33.836  27.617  1.00  0.00    -0.352 N 
ATOM     33  C   UNL A   1      32.988  34.804  28.487  1.00  0.00     0.251 C 
ATOM     34  H   UNL A   1      31.763  34.081  27.071  1.00  0.00     0.163 HD
ATOM     35  O   UNL A   1      32.377  35.860  28.608  1.00  0.00    -0.269 OA
BRANCH  33  36
ATOM     36  C   UNL A   1      34.183  34.526  29.307  1.00  0.00     0.039 A 
ATOM     37  C   UNL A   1      34.013  34.041  30.606  1.00  0.00     0.014 A 
ATOM     38  C   UNL A   1      35.457  34.638  28.747  1.00  0.00     0.014 A 
ATOM     39  C   UNL A   1      35.121  33.568  31.310  1.00  0.00     0.010 A 
ATOM     40  C   UNL A   1      36.548  34.102  29.421  1.00  0.00     0.010 A 
ATOM     41  C   UNL A   1      36.386  33.541  30.698  1.00  0.00    -0.014 A 
BRANCH  41  42
ATOM     42  C   UNL A   1      37.545  32.886  31.356  1.00  0.00     0.031 A 
ATOM     43  C   UNL A   1      38.188  31.682  30.729  1.00  0.00     0.074 A 
ATOM     44  C   UNL A   1      37.960  33.322  32.561  1.00  0.00     0.049 A 
ATOM     45  N   UNL A   1      39.143  30.920  31.195  1.00  0.00    -0.248 NA
ATOM     46  C   UNL A   1      37.668  31.265  29.418  1.00  0.00     0.031 C 
ATOM     47  C   UNL A   1      37.385  34.450  33.298  1.00  0.00     0.029 A 
ATOM     48  N   UNL A   1      38.952  32.859  33.389  1.00  0.00    -0.354 N 
ATOM     49  C   UNL A   1      39.332  29.929  30.241  1.00  0.00     0.074 A 
ATOM     50  C   UNL A   1      38.358  30.156  29.196  1.00  0.00     0.031 C 
ATOM     51  C   UNL A   1      38.045  34.602  34.457  1.00  0.00     0.029 A 
ATOM     52  C   UNL A   1      39.061  33.560  34.567  1.00  0.00     0.049 A 
ATOM     53  H   UNL A   1      39.531  32.097  33.162  1.00  0.00     0.167 HD
ATOM     54  C   UNL A   1      40.250  28.933  30.227  1.00  0.00     0.037 A 
ATOM     55  C   UNL A   1      39.877  33.375  35.621  1.00  0.00     0.037 A 
ATOM     56  C   UNL A   1      41.230  28.722  31.260  1.00  0.00     0.049 A 
ATOM     57  C   UNL A   1      40.869  32.246  35.594  1.00  0.00     0.074 A 
ATOM     58  C   UNL A   1      42.245  27.783  31.304  1.00  0.00     0.029 A 
ATOM     59  N   UNL A   1      41.311  29.454  32.435  1.00  0.00    -0.354 N 
ATOM     60  N   UNL A   1      41.089  31.362  34.650  1.00  0.00    -0.248 NA
ATOM     61  C   UNL A   1      41.726  32.086  36.777  1.00  0.00     0.031 C 
ATOM     62  C   UNL A   1      42.910  27.915  32.528  1.00  0.00     0.029 A 
ATOM     63  C   UNL A   1      42.340  28.968  33.224  1.00  0.00     0.049 A 
ATOM     64  H   UNL A   1      40.725  30.209  32.671  1.00  0.00     0.167 HD
ATOM     65  C   UNL A   1      42.120  30.556  35.115  1.00  0.00     0.074 A 
ATOM     66  C   UNL A   1      42.495  31.067  36.417  1.00  0.00     0.031 C 
ATOM     67  C   UNL A   1      42.700  29.487  34.519  1.00  0.00     0.037 A 
BRANCH  54  68
ATOM     68  C   UNL A   1      40.237  27.999  29.053  1.00  0.00     0.057 A 
ATOM     69  C   UNL A   1      40.960  28.272  27.885  1.00  0.00     0.134 A 
ATOM     70  C   UNL A   1      39.517  26.798  29.102  1.00  0.00     0.134 A 
ATOM     71  F   UNL A   1      41.660  29.410  27.768  1.00  0.00    -0.206 F 
ATOM     72  C   UNL A   1      40.946  27.398  26.797  1.00  0.00     0.040 A 
ATOM     73  C   UNL A   1      39.518  25.903  28.031  1.00  0.00     0.040 A 
ATOM     74  F   UNL A   1      38.807  26.474  30.193  1.00  0.00    -0.206 F 
ATOM     75  C   UNL A   1      40.229  26.206  26.872  1.00  0.00     0.006 A 
ENDBRANCH  54  68
BRANCH  55  76
ATOM     76  C   UNL A   1      39.799  34.284  36.794  1.00  0.00     0.057 A 
ATOM     77  C   UNL A   1      40.516  35.485  36.824  1.00  0.00     0.134 A 
ATOM     78  C   UNL A   1      39.021  33.969  37.916  1.00  0.00     0.134 A 
ATOM     79  F   UNL A   1      41.294  35.832  35.789  1.00  0.00    -0.206 F 
ATOM     80  C   UNL A   1      40.478  36.333  37.932  1.00  0.00     0.040 A 
ATOM     81  C   UNL A   1      38.954  34.819  39.020  1.00  0.00     0.040 A 
ATOM     82  F   UNL A   1      38.306  32.835  37.947  1.00  0.00    -0.206 F 
ATOM     83  C   UNL A   1      39.690  36.002  39.034  1.00  0.00     0.006 A 
ENDBRANCH  55  76
BRANCH  67  84
ATOM     84  C   UNL A   1      43.814  28.807  35.262  1.00  0.00     0.057 A 
ATOM     85  C   UNL A   1      45.151  29.187  35.093  1.00  0.00     0.134 A 
ATOM     86  C   UNL A   1      43.540  27.793  36.190  1.00  0.00     0.134 A 
ATOM     87  F   UNL A   1      45.480  30.141  34.210  1.00  0.00    -0.206 F 
ATOM     88  C   UNL A   1      46.179  28.569  35.807  1.00  0.00     0.040 A 
ATOM     89  C   UNL A   1      44.556  27.187  36.928  1.00  0.00     0.040 A 
ATOM     90  F   UNL A   1      42.279  27.388  36.405  1.00  0.00    -0.206 F 
ATOM     91  C   UNL A   1      45.882  27.572  36.734  1.00  0.00     0.006 A 
ENDBRANCH  67  84
ENDBRANCH  41  42
ENDBRANCH  33  36
ENDBRANCH  31  32
ENDBRANCH  30  31
ENDBRANCH  29  30
ENDBRANCH   1  29
TORSDOF 16
ENDMDL
MODEL 3
REMARK VINA RESULT:     -12.1      1.640      2.246
REMARK SMILES C/C(=N/[NH+]=C1\NC(=O)[C@H](CC(=O)NCCCCNC(=O)c2ccc(-c3c4nc(c(-c5c(F)cccc5F)c5ccc([nH]5)c(-c5c(F)cccc5F)c5nc(c(-c6c(F)cccc6F)c6ccc3[nH]6)C=C5)C=C4)cc2)S1)c1ccc(OC(C)C)cc1
REMARK SMILES IDX 14 1 13 2 11 3 12 4 10 6 9 7 4 8 5 9 6 11 75 12 7 13 8 15
REMARK SMILES IDX 3 16 1 17 2 18 76 19 77 20 85 21 78 22 84 23 79 24 80 25
REMARK SMILES IDX 81 26 82 27 83 28 15 29 16 30 17 31 18 32 19 33 20 35 21 36
REMARK SMILES IDX 22 37 74 38 23 39 73 40 24 41 25 42 26 43 67 44 27 45 72 46
REMARK SMILES IDX 66 47 68 48 28 49 71 50 65 51 64 52 29 54 55 55 38 56 54 57
REMARK SMILES IDX 39 58 42 59 53 60 69 61 40 62 41 63 52 65 70 66 43 67 30 68
REMARK SMILES IDX 31 69 36 70 32 71 33 72 35 73 37 74 34 75 56 76 57 77 62 78
REMARK SMILES IDX 58 79 59 80 61 81 63 82 60 83 44 84 45 85 50 86 46 87 47 88
REMARK SMILES IDX 49 89 51 90 48 91
REMARK H PARENT 13 5 4 10 6 14 18 34 68 53 42 64
REMARK Flexibility Score: inf
ROOT
ATOM      1  C   UNL A   1      34.369  29.033  27.241  1.00  0.00     0.116 C 
ENDROOT
BRANCH   1   2
ATOM      2  N   UNL A   1      33.121  28.624  27.847  1.00  0.00    -0.356 N 
ATOM      3  C   UNL A   1      31.929  28.337  27.245  1.00  0.00     0.221 C 
ATOM      4  O   UNL A   1      30.981  27.973  27.938  1.00  0.00    -0.275 OA
ATOM      5  H   UNL A   1      33.132  28.540  28.827  1.00  0.00     0.163 HD
BRANCH   3   6
ATOM      6  C   UNL A   1      31.794  28.467  25.745  1.00  0.00     0.127 C 
BRANCH   6   7
ATOM      7  C   UNL A   1      31.278  27.184  25.101  1.00  0.00     0.183 C 
ATOM      8  N   UNL A   1      34.004  24.585  25.690  1.00  0.00    -0.142 N 
ATOM      9  C   UNL A   1      33.061  25.340  25.244  1.00  0.00     0.337 C 
ATOM     10  H   UNL A   1      33.961  24.187  26.589  1.00  0.00     0.343 HD
ATOM     11  N   UNL A   1      33.001  25.919  24.027  1.00  0.00    -0.202 N 
ATOM     12  S   UNL A   1      31.692  25.789  26.219  1.00  0.00    -0.020 SA
ATOM     13  C   UNL A   1      31.990  26.810  23.810  1.00  0.00     0.322 C 
ATOM     14  H   UNL A   1      33.658  25.708  23.327  1.00  0.00     0.316 HD
ATOM     15  O   UNL A   1      31.728  27.272  22.708  1.00  0.00    -0.246 OA
BRANCH   8  16
ATOM     16  N   UNL A   1      35.089  24.358  24.840  1.00  0.00    -0.090 NA
ATOM     17  C   UNL A   1      36.184  23.042  23.151  1.00  0.00     0.071 C 
ATOM     18  C   UNL A   1      35.128  23.205  24.226  1.00  0.00     0.088 C 
BRANCH  18  19
ATOM     19  C   UNL A   1      34.292  22.003  24.538  1.00  0.00    -0.000 A 
ATOM     20  C   UNL A   1      34.751  20.993  25.380  1.00  0.00     0.014 A 
ATOM     21  C   UNL A   1      33.076  21.823  23.865  1.00  0.00     0.014 A 
ATOM     22  C   UNL A   1      34.066  19.777  25.447  1.00  0.00     0.047 A 
ATOM     23  C   UNL A   1      32.378  20.606  23.959  1.00  0.00     0.047 A 
ATOM     24  C   UNL A   1      32.891  19.561  24.718  1.00  0.00     0.119 A 
BRANCH  24  25
ATOM     25  O   UNL A   1      32.415  18.294  24.828  1.00  0.00    -0.491 OA
BRANCH  25  26
ATOM     26  C   UNL A   1      33.185  17.098  24.693  1.00  0.00     0.167 C 
ATOM     27  C   UNL A   1      32.526  15.861  25.288  1.00  0.00     0.052 C 
ATOM     28  C   UNL A   1      33.745  16.877  23.295  1.00  0.00     0.052 C 
ENDBRANCH  25  26
ENDBRANCH  24  25
ENDBRANCH  18  19
ENDBRANCH   8  16
ENDBRANCH   6   7
ENDBRANCH   3   6
ENDBRANCH   1   2
BRANCH   1  29
ATOM     29  C   UNL A   1      34.787  30.452  27.611  1.00  0.00     0.023 C 
BRANCH  29  30
ATOM     30  C   UNL A   1      33.633  31.416  27.866  1.00  0.00     0.023 C 
BRANCH  30  31
ATOM     31  C   UNL A   1      33.759  32.786  27.211  1.00  0.00     0.116 C 
BRANCH  31  32
ATOM     32  N   UNL A   1      33.090  33.853  27.946  1.00  0.00    -0.352 N 
ATOM     33  C   UNL A   1      33.448  34.437  29.138  1.00  0.00     0.251 C 
ATOM     34  H   UNL A   1      32.268  34.202  27.531  1.00  0.00     0.163 HD
ATOM     35  O   UNL A   1      32.725  35.277  29.662  1.00  0.00    -0.269 OA
BRANCH  33  36
ATOM     36  C   UNL A   1      34.693  33.997  29.797  1.00  0.00     0.039 A 
ATOM     37  C   UNL A   1      34.606  33.194  30.936  1.00  0.00     0.014 A 
ATOM     38  C   UNL A   1      35.930  34.288  29.219  1.00  0.00     0.014 A 
ATOM     39  C   UNL A   1      35.761  32.592  31.437  1.00  0.00     0.010 A 
ATOM     40  C   UNL A   1      37.067  33.632  29.677  1.00  0.00     0.010 A 
ATOM     41  C   UNL A   1      36.989  32.760  30.775  1.00  0.00    -0.014 A 
BRANCH  41  42
ATOM     42  C   UNL A   1      38.195  31.996  31.183  1.00  0.00     0.031 A 
ATOM     43  C   UNL A   1      39.038  32.473  32.331  1.00  0.00     0.074 A 
ATOM     44  C   UNL A   1      38.579  30.924  30.463  1.00  0.00     0.049 A 
ATOM     45  N   UNL A   1      40.173  31.998  32.774  1.00  0.00    -0.248 NA
ATOM     46  C   UNL A   1      38.553  33.656  33.057  1.00  0.00     0.031 C 
ATOM     47  C   UNL A   1      37.873  30.391  29.295  1.00  0.00     0.029 A 
ATOM     48  N   UNL A   1      39.667  30.098  30.596  1.00  0.00    -0.354 N 
ATOM     49  C   UNL A   1      40.544  32.828  33.823  1.00  0.00     0.074 A 
ATOM     50  C   UNL A   1      39.541  33.867  33.916  1.00  0.00     0.031 C 
ATOM     51  C   UNL A   1      38.535  29.319  28.831  1.00  0.00     0.029 A 
ATOM     52  C   UNL A   1      39.733  29.113  29.639  1.00  0.00     0.049 A 
ATOM     53  H   UNL A   1      40.338  30.202  31.308  1.00  0.00     0.167 HD
ATOM     54  C   UNL A   1      41.611  32.722  34.649  1.00  0.00     0.037 A 
ATOM     55  C   UNL A   1      40.661  28.159  29.430  1.00  0.00     0.037 A 
ATOM     56  C   UNL A   1      42.597  31.677  34.566  1.00  0.00     0.049 A 
ATOM     57  C   UNL A   1      41.851  28.079  30.343  1.00  0.00     0.074 A 
ATOM     58  C   UNL A   1      43.678  31.444  35.398  1.00  0.00     0.029 A 
ATOM     59  N   UNL A   1      42.628  30.695  33.587  1.00  0.00    -0.354 N 
ATOM     60  N   UNL A   1      42.149  28.825  31.380  1.00  0.00    -0.248 NA
ATOM     61  C   UNL A   1      42.835  27.025  30.059  1.00  0.00     0.031 C 
ATOM     62  C   UNL A   1      44.390  30.350  34.895  1.00  0.00     0.029 A 
ATOM     63  C   UNL A   1      43.726  29.872  33.777  1.00  0.00     0.049 A 
ATOM     64  H   UNL A   1      41.966  30.596  32.865  1.00  0.00     0.167 HD
ATOM     65  C   UNL A   1      43.342  28.320  31.882  1.00  0.00     0.074 A 
ATOM     66  C   UNL A   1      43.702  27.192  31.049  1.00  0.00     0.031 C 
ATOM     67  C   UNL A   1      44.073  28.754  32.937  1.00  0.00     0.037 A 
BRANCH  54  68
ATOM     68  C   UNL A   1      41.764  33.764  35.717  1.00  0.00     0.057 A 
ATOM     69  C   UNL A   1      41.130  33.645  36.961  1.00  0.00     0.134 A 
ATOM     70  C   UNL A   1      42.579  34.885  35.512  1.00  0.00     0.134 A 
ATOM     71  F   UNL A   1      40.326  32.603  37.217  1.00  0.00    -0.206 F 
ATOM     72  C   UNL A   1      41.278  34.617  37.952  1.00  0.00     0.040 A 
ATOM     73  C   UNL A   1      42.757  35.849  36.506  1.00  0.00     0.040 A 
ATOM     74  F   UNL A   1      43.219  35.058  34.346  1.00  0.00    -0.206 F 
ATOM     75  C   UNL A   1      42.100  35.719  37.727  1.00  0.00     0.006 A 
ENDBRANCH  54  68
BRANCH  55  76
ATOM     76  C   UNL A   1      40.500  27.197  28.309  1.00  0.00     0.057 A 
ATOM     77  C   UNL A   1      39.693  26.061  28.445  1.00  0.00     0.134 A 
ATOM     78  C   UNL A   1      41.159  27.377  27.086  1.00  0.00     0.134 A 
ATOM     79  F   UNL A   1      39.053  25.822  29.599  1.00  0.00    -0.206 F 
ATOM     80  C   UNL A   1      39.559  25.131  27.413  1.00  0.00     0.040 A 
ATOM     81  C   UNL A   1      41.014  26.469  26.037  1.00  0.00     0.040 A 
ATOM     82  F   UNL A   1      41.942  28.449  26.891  1.00  0.00    -0.206 F 
ATOM     83  C   UNL A   1      40.219  25.336  26.202  1.00  0.00     0.006 A 
ENDBRANCH  55  76
BRANCH  67  84
ATOM     84  C   UNL A   1      45.329  27.998  33.259  1.00  0.00     0.057 A 
ATOM     85  C   UNL A   1      45.316  26.870  34.089  1.00  0.00     0.134 A 
ATOM     86  C   UNL A   1      46.555  28.376  32.698  1.00  0.00     0.134 A 
ATOM     87  F   UNL A   1      44.176  26.465  34.668  1.00  0.00    -0.206 F 
ATOM     88  C   UNL A   1      46.484  26.154  34.363  1.00  0.00     0.040 A 
ATOM     89  C   UNL A   1      47.723  27.654  32.943  1.00  0.00     0.040 A 
ATOM     90  F   UNL A   1      46.635  29.444  31.889  1.00  0.00    -0.206 F 
ATOM     91  C   UNL A   1      47.690  26.542  33.782  1.00  0.00     0.006 A 
ENDBRANCH  67  84
ENDBRANCH  41  42
ENDBRANCH  33  36
ENDBRANCH  31  32
ENDBRANCH  30  31
ENDBRANCH  29  30
ENDBRANCH   1  29
TORSDOF 16
ENDMDL
