MODEL 1
REMARK VINA RESULT:      -9.5      0.000      0.000
REMARK SMILES COc1cc([C@H]2CC(c3ccc(S(C)(=O)=O)cc3)=NN2c2ccc(C(=O)NCCCCNC(=O)c3ccc(-c4c5nc(c(-c6c(F)cccc6F)c6ccc([nH]6)c(-c6c(F)cccc6F)c6nc(c(-c7c(F)cccc7F)c7ccc4[nH]7)C=C6)C=C5)cc3)cc2)cc(OC)c1OC
REMARK SMILES IDX 29 1 28 2 27 3 25 4 26 5 24 7 21 8 22 9 90 10 23 11 89 12
REMARK SMILES IDX 20 13 6 14 7 15 8 16 19 17 5 18 3 19 4 20 95 21 92 22 91 23
REMARK SMILES IDX 2 24 1 25 96 26 97 27 93 28 94 29 9 30 10 31 18 32 11 33
REMARK SMILES IDX 17 34 12 35 13 36 14 37 15 38 16 39 30 40 31 41 32 42 33 43
REMARK SMILES IDX 34 45 35 46 36 47 88 48 37 49 87 50 38 51 39 52 40 53 81 54
REMARK SMILES IDX 41 55 86 56 80 57 82 58 42 59 85 60 79 61 78 62 43 64 69 65
REMARK SMILES IDX 52 66 68 67 53 68 56 69 67 70 83 71 54 72 55 73 66 75 84 76
REMARK SMILES IDX 57 77 44 78 45 79 50 80 46 81 47 82 49 83 51 84 48 85 70 86
REMARK SMILES IDX 71 87 76 88 72 89 73 90 75 91 77 92 74 93 58 94 59 95 64 96
REMARK SMILES IDX 60 97 61 98 63 99 65 100 62 101
REMARK H PARENT 27 6 32 44 82 63 56 74
REMARK Flexibility Score: inf
ROOT
ATOM      1  C   UNL A   1      53.373  22.477  33.319  1.00  0.00     0.023 C 
ENDROOT
BRANCH   1   2
ATOM      2  C   UNL A   1      53.331  21.083  32.688  1.00  0.00     0.116 C 
BRANCH   2   3
ATOM      3  N   UNL A   1      53.490  20.065  33.703  1.00  0.00    -0.352 N 
ATOM      4  C   UNL A   1      52.667  19.647  34.718  1.00  0.00     0.251 C 
ATOM      5  O   UNL A   1      53.084  18.737  35.435  1.00  0.00    -0.269 OA
ATOM      6  H   UNL A   1      54.347  19.584  33.658  1.00  0.00     0.163 HD
BRANCH   4   7
ATOM      7  C   UNL A   1      51.302  20.201  34.961  1.00  0.00     0.039 A 
ATOM      8  C   UNL A   1      48.654  21.164  35.241  1.00  0.00     0.060 A 
ATOM      9  C   UNL A   1      48.983  20.250  34.235  1.00  0.00     0.029 A 
ATOM     10  C   UNL A   1      49.653  21.562  36.125  1.00  0.00     0.029 A 
ATOM     11  C   UNL A   1      50.292  19.789  34.082  1.00  0.00     0.016 A 
ATOM     12  C   UNL A   1      50.950  21.055  36.010  1.00  0.00     0.016 A 
BRANCH   8  13
ATOM     13  N   UNL A   1      47.361  21.628  35.365  1.00  0.00    -0.257 N 
ATOM     14  C   UNL A   1      46.255  20.907  35.995  1.00  0.00     0.144 C 
ATOM     15  C   UNL A   1      45.086  21.897  35.828  1.00  0.00     0.091 C 
ATOM     16  C   UNL A   1      45.766  22.978  35.028  1.00  0.00     0.071 C 
ATOM     17  N   UNL A   1      47.027  22.807  34.797  1.00  0.00    -0.176 NA
BRANCH  14  18
ATOM     18  C   UNL A   1      46.606  20.555  37.433  1.00  0.00    -0.015 A 
ATOM     19  C   UNL A   1      47.001  18.885  39.175  1.00  0.00     0.164 A 
ATOM     20  C   UNL A   1      46.514  19.238  37.901  1.00  0.00     0.056 A 
ATOM     21  C   UNL A   1      47.627  19.834  40.007  1.00  0.00     0.203 A 
ATOM     22  C   UNL A   1      47.693  21.166  39.549  1.00  0.00     0.164 A 
ATOM     23  C   UNL A   1      47.178  21.507  38.286  1.00  0.00     0.056 A 
BRANCH  19  24
ATOM     24  O   UNL A   1      46.952  17.553  39.503  1.00  0.00    -0.493 OA
ATOM     25  C   UNL A   1      45.774  17.237  40.247  1.00  0.00     0.278 C 
ENDBRANCH  19  24
BRANCH  21  26
ATOM     26  O   UNL A   1      48.204  19.588  41.221  1.00  0.00    -0.490 OA
ATOM     27  C   UNL A   1      49.521  19.079  41.325  1.00  0.00     0.278 C 
ENDBRANCH  21  26
BRANCH  22  28
ATOM     28  O   UNL A   1      48.221  22.266  40.179  1.00  0.00    -0.493 OA
ATOM     29  C   UNL A   1      49.527  22.699  39.838  1.00  0.00     0.278 C 
ENDBRANCH  22  28
ENDBRANCH  14  18
BRANCH  16  30
ATOM     30  C   UNL A   1      45.043  24.136  34.490  1.00  0.00    -0.002 A 
ATOM     31  C   UNL A   1      45.703  24.942  33.553  1.00  0.00     0.011 A 
ATOM     32  C   UNL A   1      43.769  24.469  34.951  1.00  0.00     0.011 A 
ATOM     33  C   UNL A   1      45.079  26.085  33.057  1.00  0.00     0.021 A 
ATOM     34  C   UNL A   1      43.152  25.630  34.475  1.00  0.00     0.021 A 
ATOM     35  C   UNL A   1      43.812  26.431  33.533  1.00  0.00     0.067 A 
BRANCH  35  36
ATOM     36  S   UNL A   1      43.030  27.903  32.910  1.00  0.00     0.175 S 
ATOM     37  C   UNL A   1      41.600  28.112  33.939  1.00  0.00     0.163 C 
ATOM     38  O   UNL A   1      43.946  29.000  33.170  1.00  0.00    -0.224 OA
ATOM     39  O   UNL A   1      42.567  27.619  31.568  1.00  0.00    -0.224 OA
ENDBRANCH  35  36
ENDBRANCH  16  30
ENDBRANCH   8  13
ENDBRANCH   4   7
ENDBRANCH   2   3
ENDBRANCH   1   2
BRANCH   1  40
ATOM     40  C   UNL A   1      52.017  23.187  33.367  1.00  0.00     0.023 C 
BRANCH  40  41
ATOM     41  C   UNL A   1      51.648  23.941  32.095  1.00  0.00     0.116 C 
BRANCH  41  42
ATOM     42  N   UNL A   1      52.472  25.116  31.868  1.00  0.00    -0.352 N 
ATOM     43  C   UNL A   1      52.120  26.326  31.328  1.00  0.00     0.251 C 
ATOM     44  H   UNL A   1      53.415  25.032  32.138  1.00  0.00     0.163 HD
ATOM     45  O   UNL A   1      52.980  27.175  31.113  1.00  0.00    -0.269 OA
BRANCH  43  46
ATOM     46  C   UNL A   1      50.713  26.591  30.964  1.00  0.00     0.039 A 
ATOM     47  C   UNL A   1      49.747  26.529  31.972  1.00  0.00     0.014 A 
ATOM     48  C   UNL A   1      50.342  26.893  29.651  1.00  0.00     0.014 A 
ATOM     49  C   UNL A   1      48.416  26.814  31.670  1.00  0.00     0.010 A 
ATOM     50  C   UNL A   1      49.026  27.247  29.366  1.00  0.00     0.010 A 
ATOM     51  C   UNL A   1      48.050  27.199  30.370  1.00  0.00    -0.014 A 
BRANCH  51  52
ATOM     52  C   UNL A   1      46.644  27.553  30.061  1.00  0.00     0.031 A 
ATOM     53  C   UNL A   1      45.723  26.548  29.434  1.00  0.00     0.074 A 
ATOM     54  C   UNL A   1      46.212  28.804  30.312  1.00  0.00     0.049 A 
ATOM     55  N   UNL A   1      44.454  26.667  29.137  1.00  0.00    -0.248 NA
ATOM     56  C   UNL A   1      46.308  25.252  29.064  1.00  0.00     0.031 C 
ATOM     57  C   UNL A   1      47.037  29.893  30.836  1.00  0.00     0.029 A 
ATOM     58  N   UNL A   1      44.973  29.368  30.155  1.00  0.00    -0.354 N 
ATOM     59  C   UNL A   1      44.093  25.467  28.537  1.00  0.00     0.074 A 
ATOM     60  C   UNL A   1      45.290  24.659  28.459  1.00  0.00     0.031 C 
ATOM     61  C   UNL A   1      46.275  30.988  30.982  1.00  0.00     0.029 A 
ATOM     62  C   UNL A   1      44.914  30.681  30.550  1.00  0.00     0.049 A 
ATOM     63  H   UNL A   1      44.198  28.878  29.795  1.00  0.00     0.167 HD
ATOM     64  C   UNL A   1      42.871  25.066  28.114  1.00  0.00     0.037 A 
ATOM     65  C   UNL A   1      43.877  31.538  30.575  1.00  0.00     0.037 A 
ATOM     66  C   UNL A   1      41.679  25.867  28.214  1.00  0.00     0.049 A 
ATOM     67  C   UNL A   1      42.517  31.054  30.162  1.00  0.00     0.074 A 
ATOM     68  C   UNL A   1      40.379  25.527  27.889  1.00  0.00     0.029 A 
ATOM     69  N   UNL A   1      41.647  27.177  28.670  1.00  0.00    -0.354 N 
ATOM     70  N   UNL A   1      42.166  29.879  29.698  1.00  0.00    -0.248 NA
ATOM     71  C   UNL A   1      41.407  32.006  30.298  1.00  0.00     0.031 C 
ATOM     72  C   UNL A   1      39.564  26.643  28.113  1.00  0.00     0.029 A 
ATOM     73  C   UNL A   1      40.353  27.666  28.618  1.00  0.00     0.049 A 
ATOM     74  H   UNL A   1      42.431  27.685  28.983  1.00  0.00     0.167 HD
ATOM     75  C   UNL A   1      40.793  29.942  29.505  1.00  0.00     0.074 A 
ATOM     76  C   UNL A   1      40.373  31.266  29.919  1.00  0.00     0.031 C 
ATOM     77  C   UNL A   1      39.954  28.989  29.029  1.00  0.00     0.037 A 
BRANCH  64  78
ATOM     78  C   UNL A   1      42.772  23.696  27.508  1.00  0.00     0.057 A 
ATOM     79  C   UNL A   1      42.937  23.483  26.132  1.00  0.00     0.134 A 
ATOM     80  C   UNL A   1      42.511  22.576  28.305  1.00  0.00     0.134 A 
ATOM     81  F   UNL A   1      43.176  24.515  25.308  1.00  0.00    -0.206 F 
ATOM     82  C   UNL A   1      42.807  22.214  25.567  1.00  0.00     0.040 A 
ATOM     83  C   UNL A   1      42.407  21.296  27.757  1.00  0.00     0.040 A 
ATOM     84  F   UNL A   1      42.348  22.706  29.631  1.00  0.00    -0.206 F 
ATOM     85  C   UNL A   1      42.545  21.114  26.382  1.00  0.00     0.006 A 
ENDBRANCH  64  78
BRANCH  65  86
ATOM     86  C   UNL A   1      44.087  32.922  31.063  1.00  0.00     0.057 A 
ATOM     87  C   UNL A   1      44.027  33.225  32.428  1.00  0.00     0.134 A 
ATOM     88  C   UNL A   1      44.394  33.964  30.181  1.00  0.00     0.134 A 
ATOM     89  F   UNL A   1      43.726  32.268  33.318  1.00  0.00    -0.206 F 
ATOM     90  C   UNL A   1      44.252  34.519  32.899  1.00  0.00     0.040 A 
ATOM     91  C   UNL A   1      44.642  35.259  30.640  1.00  0.00     0.040 A 
ATOM     92  F   UNL A   1      44.480  33.733  28.863  1.00  0.00    -0.206 F 
ATOM     93  C   UNL A   1      44.569  35.539  32.003  1.00  0.00     0.006 A 
ENDBRANCH  65  86
BRANCH  77  94
ATOM     94  C   UNL A   1      38.498  29.342  28.947  1.00  0.00     0.057 A 
ATOM     95  C   UNL A   1      37.898  29.727  27.742  1.00  0.00     0.134 A 
ATOM     96  C   UNL A   1      37.682  29.267  30.083  1.00  0.00     0.134 A 
ATOM     97  F   UNL A   1      38.627  29.830  26.622  1.00  0.00    -0.206 F 
ATOM     98  C   UNL A   1      36.541  30.052  27.676  1.00  0.00     0.040 A 
ATOM     99  C   UNL A   1      36.320  29.565  30.025  1.00  0.00     0.040 A 
ATOM    100  F   UNL A   1      38.194  28.896  31.267  1.00  0.00    -0.206 F 
ATOM    101  C   UNL A   1      35.748  29.965  28.818  1.00  0.00     0.006 A 
ENDBRANCH  77  94
ENDBRANCH  51  52
ENDBRANCH  43  46
ENDBRANCH  41  42
ENDBRANCH  40  41
ENDBRANCH   1  40
TORSDOF 18
ENDMDL
MODEL 2
REMARK VINA RESULT:      -9.4      6.137     10.652
REMARK SMILES COc1cc([C@H]2CC(c3ccc(S(C)(=O)=O)cc3)=NN2c2ccc(C(=O)NCCCCNC(=O)c3ccc(-c4c5nc(c(-c6c(F)cccc6F)c6ccc([nH]6)c(-c6c(F)cccc6F)c6nc(c(-c7c(F)cccc7F)c7ccc4[nH]7)C=C6)C=C5)cc3)cc2)cc(OC)c1OC
REMARK SMILES IDX 29 1 28 2 27 3 25 4 26 5 24 7 21 8 22 9 90 10 23 11 89 12
REMARK SMILES IDX 20 13 6 14 7 15 8 16 19 17 5 18 3 19 4 20 95 21 92 22 91 23
REMARK SMILES IDX 2 24 1 25 96 26 97 27 93 28 94 29 9 30 10 31 18 32 11 33
REMARK SMILES IDX 17 34 12 35 13 36 14 37 15 38 16 39 30 40 31 41 32 42 33 43
REMARK SMILES IDX 34 45 35 46 36 47 88 48 37 49 87 50 38 51 39 52 40 53 81 54
REMARK SMILES IDX 41 55 86 56 80 57 82 58 42 59 85 60 79 61 78 62 43 64 69 65
REMARK SMILES IDX 52 66 68 67 53 68 56 69 67 70 83 71 54 72 55 73 66 75 84 76
REMARK SMILES IDX 57 77 44 78 45 79 50 80 46 81 47 82 49 83 51 84 48 85 70 86
REMARK SMILES IDX 71 87 76 88 72 89 73 90 75 91 77 92 74 93 58 94 59 95 64 96
REMARK SMILES IDX 60 97 61 98 63 99 65 100 62 101
REMARK H PARENT 27 6 32 44 82 63 56 74
REMARK Flexibility Score: inf
ROOT
ATOM      1  C   UNL A   1      49.352  28.414  28.933  1.00  0.00     0.023 C 
ENDROOT
BRANCH   1   2
ATOM      2  C   UNL A   1      49.974  27.888  27.637  1.00  0.00     0.116 C 
BRANCH   2   3
ATOM      3  N   UNL A   1      50.135  26.451  27.703  1.00  0.00    -0.352 N 
ATOM      4  C   UNL A   1      49.246  25.422  27.527  1.00  0.00     0.251 C 
ATOM      5  O   UNL A   1      49.687  24.277  27.645  1.00  0.00    -0.269 OA
ATOM      6  H   UNL A   1      51.050  26.159  27.912  1.00  0.00     0.163 HD
BRANCH   4   7
ATOM      7  C   UNL A   1      47.810  25.616  27.164  1.00  0.00     0.039 A 
ATOM      8  C   UNL A   1      45.039  25.866  26.640  1.00  0.00     0.060 A 
ATOM      9  C   UNL A   1      45.496  25.284  27.826  1.00  0.00     0.029 A 
ATOM     10  C   UNL A   1      45.981  26.353  25.737  1.00  0.00     0.029 A 
ATOM     11  C   UNL A   1      46.862  25.141  28.079  1.00  0.00     0.016 A 
ATOM     12  C   UNL A   1      47.348  26.265  26.015  1.00  0.00     0.016 A 
BRANCH   8  13
ATOM     13  N   UNL A   1      43.686  25.979  26.394  1.00  0.00    -0.257 N 
ATOM     14  C   UNL A   1      42.974  25.386  25.262  1.00  0.00     0.144 C 
ATOM     15  C   UNL A   1      41.527  25.851  25.511  1.00  0.00     0.091 C 
ATOM     16  C   UNL A   1      41.732  26.721  26.724  1.00  0.00     0.071 C 
ATOM     17  N   UNL A   1      42.935  26.763  27.197  1.00  0.00    -0.176 NA
BRANCH  14  18
ATOM     18  C   UNL A   1      43.177  23.878  25.243  1.00  0.00    -0.015 A 
ATOM     19  C   UNL A   1      44.636  21.935  24.978  1.00  0.00     0.164 A 
ATOM     20  C   UNL A   1      44.390  23.314  24.832  1.00  0.00     0.056 A 
ATOM     21  C   UNL A   1      43.684  21.082  25.572  1.00  0.00     0.203 A 
ATOM     22  C   UNL A   1      42.450  21.644  25.958  1.00  0.00     0.164 A 
ATOM     23  C   UNL A   1      42.211  23.017  25.781  1.00  0.00     0.056 A 
BRANCH  19  24
ATOM     24  O   UNL A   1      45.890  21.494  24.634  1.00  0.00    -0.493 OA
ATOM     25  C   UNL A   1      46.703  22.558  24.135  1.00  0.00     0.278 C 
ENDBRANCH  19  24
BRANCH  21  26
ATOM     26  O   UNL A   1      43.846  19.750  25.835  1.00  0.00    -0.490 OA
ATOM     27  C   UNL A   1      43.929  18.795  24.793  1.00  0.00     0.278 C 
ENDBRANCH  21  26
BRANCH  22  28
ATOM     28  O   UNL A   1      41.363  21.024  26.524  1.00  0.00    -0.493 OA
ATOM     29  C   UNL A   1      40.589  21.725  27.484  1.00  0.00     0.278 C 
ENDBRANCH  22  28
ENDBRANCH  14  18
BRANCH  16  30
ATOM     30  C   UNL A   1      40.654  27.521  27.315  1.00  0.00    -0.002 A 
ATOM     31  C   UNL A   1      39.880  26.935  28.326  1.00  0.00     0.011 A 
ATOM     32  C   UNL A   1      40.356  28.797  26.833  1.00  0.00     0.011 A 
ATOM     33  C   UNL A   1      38.808  27.636  28.876  1.00  0.00     0.021 A 
ATOM     34  C   UNL A   1      39.264  29.491  27.366  1.00  0.00     0.021 A 
ATOM     35  C   UNL A   1      38.497  28.904  28.381  1.00  0.00     0.067 A 
BRANCH  35  36
ATOM     36  S   UNL A   1      37.115  29.784  29.074  1.00  0.00     0.175 S 
ATOM     37  C   UNL A   1      35.756  29.385  28.006  1.00  0.00     0.163 C 
ATOM     38  O   UNL A   1      36.861  29.194  30.377  1.00  0.00    -0.224 OA
ATOM     39  O   UNL A   1      37.381  31.200  28.935  1.00  0.00    -0.224 OA
ENDBRANCH  35  36
ENDBRANCH  16  30
ENDBRANCH   8  13
ENDBRANCH   4   7
ENDBRANCH   2   3
ENDBRANCH   1   2
BRANCH   1  40
ATOM     40  C   UNL A   1      47.860  28.739  28.828  1.00  0.00     0.023 C 
BRANCH  40  41
ATOM     41  C   UNL A   1      47.538  30.019  28.067  1.00  0.00     0.116 C 
BRANCH  41  42
ATOM     42  N   UNL A   1      46.504  29.842  27.062  1.00  0.00    -0.352 N 
ATOM     43  C   UNL A   1      45.141  29.850  27.214  1.00  0.00     0.251 C 
ATOM     44  H   UNL A   1      46.825  29.695  26.143  1.00  0.00     0.163 HD
ATOM     45  O   UNL A   1      44.416  29.576  26.262  1.00  0.00    -0.269 OA
BRANCH  43  46
ATOM     46  C   UNL A   1      44.547  30.144  28.534  1.00  0.00     0.039 A 
ATOM     47  C   UNL A   1      44.549  31.469  28.979  1.00  0.00     0.014 A 
ATOM     48  C   UNL A   1      43.999  29.136  29.331  1.00  0.00     0.014 A 
ATOM     49  C   UNL A   1      43.960  31.787  30.202  1.00  0.00     0.010 A 
ATOM     50  C   UNL A   1      43.349  29.465  30.517  1.00  0.00     0.010 A 
ATOM     51  C   UNL A   1      43.333  30.791  30.968  1.00  0.00    -0.014 A 
BRANCH  51  52
ATOM     52  C   UNL A   1      42.661  31.138  32.242  1.00  0.00     0.031 A 
ATOM     53  C   UNL A   1      43.396  31.033  33.548  1.00  0.00     0.074 A 
ATOM     54  C   UNL A   1      41.367  31.509  32.222  1.00  0.00     0.049 A 
ATOM     55  N   UNL A   1      42.984  31.338  34.752  1.00  0.00    -0.248 NA
ATOM     56  C   UNL A   1      44.760  30.488  33.499  1.00  0.00     0.031 C 
ATOM     57  C   UNL A   1      40.522  31.561  31.028  1.00  0.00     0.029 A 
ATOM     58  N   UNL A   1      40.537  31.907  33.237  1.00  0.00    -0.354 N 
ATOM     59  C   UNL A   1      44.032  31.012  35.603  1.00  0.00     0.074 A 
ATOM     60  C   UNL A   1      45.074  30.432  34.784  1.00  0.00     0.031 C 
ATOM     61  C   UNL A   1      39.300  31.994  31.376  1.00  0.00     0.029 A 
ATOM     62  C   UNL A   1      39.273  32.236  32.815  1.00  0.00     0.049 A 
ATOM     63  H   UNL A   1      40.821  31.955  34.179  1.00  0.00     0.167 HD
ATOM     64  C   UNL A   1      44.127  31.203  36.940  1.00  0.00     0.037 A 
ATOM     65  C   UNL A   1      38.214  32.693  33.508  1.00  0.00     0.037 A 
ATOM     66  C   UNL A   1      43.094  31.800  37.746  1.00  0.00     0.049 A 
ATOM     67  C   UNL A   1      38.361  32.959  34.979  1.00  0.00     0.074 A 
ATOM     68  C   UNL A   1      43.120  32.111  39.093  1.00  0.00     0.029 A 
ATOM     69  N   UNL A   1      41.843  32.170  37.274  1.00  0.00    -0.354 N 
ATOM     70  N   UNL A   1      39.397  32.749  35.756  1.00  0.00    -0.248 NA
ATOM     71  C   UNL A   1      37.202  33.546  35.664  1.00  0.00     0.031 C 
ATOM     72  C   UNL A   1      41.871  32.636  39.445  1.00  0.00     0.029 A 
ATOM     73  C   UNL A   1      41.081  32.691  38.306  1.00  0.00     0.049 A 
ATOM     74  H   UNL A   1      41.541  32.076  36.341  1.00  0.00     0.167 HD
ATOM     75  C   UNL A   1      39.023  33.195  37.016  1.00  0.00     0.074 A 
ATOM     76  C   UNL A   1      37.671  33.703  36.894  1.00  0.00     0.031 C 
ATOM     77  C   UNL A   1      39.735  33.187  38.170  1.00  0.00     0.037 A 
BRANCH  64  78
ATOM     78  C   UNL A   1      45.397  30.760  37.606  1.00  0.00     0.057 A 
ATOM     79  C   UNL A   1      46.473  31.637  37.804  1.00  0.00     0.134 A 
ATOM     80  C   UNL A   1      45.549  29.443  38.056  1.00  0.00     0.134 A 
ATOM     81  F   UNL A   1      46.399  32.909  37.386  1.00  0.00    -0.206 F 
ATOM     82  C   UNL A   1      47.666  31.211  38.390  1.00  0.00     0.040 A 
ATOM     83  C   UNL A   1      46.728  29.012  38.669  1.00  0.00     0.040 A 
ATOM     84  F   UNL A   1      44.558  28.551  37.903  1.00  0.00    -0.206 F 
ATOM     85  C   UNL A   1      47.794  29.895  38.828  1.00  0.00     0.006 A 
ENDBRANCH  64  78
BRANCH  65  86
ATOM     86  C   UNL A   1      36.946  32.981  32.796  1.00  0.00     0.057 A 
ATOM     87  C   UNL A   1      36.648  34.270  32.341  1.00  0.00     0.134 A 
ATOM     88  C   UNL A   1      36.024  31.966  32.518  1.00  0.00     0.134 A 
ATOM     89  F   UNL A   1      37.490  35.284  32.588  1.00  0.00    -0.206 F 
ATOM     90  C   UNL A   1      35.471  34.544  31.643  1.00  0.00     0.040 A 
ATOM     91  C   UNL A   1      34.852  32.221  31.804  1.00  0.00     0.040 A 
ATOM     92  F   UNL A   1      36.261  30.708  32.917  1.00  0.00    -0.206 F 
ATOM     93  C   UNL A   1      34.572  33.514  31.367  1.00  0.00     0.006 A 
ENDBRANCH  65  86
BRANCH  77  94
ATOM     94  C   UNL A   1      39.069  33.759  39.386  1.00  0.00     0.057 A 
ATOM     95  C   UNL A   1      39.272  35.087  39.783  1.00  0.00     0.134 A 
ATOM     96  C   UNL A   1      38.193  32.980  40.152  1.00  0.00     0.134 A 
ATOM     97  F   UNL A   1      40.108  35.880  39.098  1.00  0.00    -0.206 F 
ATOM     98  C   UNL A   1      38.647  35.612  40.916  1.00  0.00     0.040 A 
ATOM     99  C   UNL A   1      37.543  33.500  41.272  1.00  0.00     0.040 A 
ATOM    100  F   UNL A   1      37.949  31.703  39.820  1.00  0.00    -0.206 F 
ATOM    101  C   UNL A   1      37.775  34.819  41.660  1.00  0.00     0.006 A 
ENDBRANCH  77  94
ENDBRANCH  51  52
ENDBRANCH  43  46
ENDBRANCH  41  42
ENDBRANCH  40  41
ENDBRANCH   1  40
TORSDOF 18
ENDMDL
MODEL 3
REMARK VINA RESULT:      -9.4      7.619     16.018
REMARK SMILES COc1cc([C@H]2CC(c3ccc(S(C)(=O)=O)cc3)=NN2c2ccc(C(=O)NCCCCNC(=O)c3ccc(-c4c5nc(c(-c6c(F)cccc6F)c6ccc([nH]6)c(-c6c(F)cccc6F)c6nc(c(-c7c(F)cccc7F)c7ccc4[nH]7)C=C6)C=C5)cc3)cc2)cc(OC)c1OC
REMARK SMILES IDX 29 1 28 2 27 3 25 4 26 5 24 7 21 8 22 9 90 10 23 11 89 12
REMARK SMILES IDX 20 13 6 14 7 15 8 16 19 17 5 18 3 19 4 20 95 21 92 22 91 23
REMARK SMILES IDX 2 24 1 25 96 26 97 27 93 28 94 29 9 30 10 31 18 32 11 33
REMARK SMILES IDX 17 34 12 35 13 36 14 37 15 38 16 39 30 40 31 41 32 42 33 43
REMARK SMILES IDX 34 45 35 46 36 47 88 48 37 49 87 50 38 51 39 52 40 53 81 54
REMARK SMILES IDX 41 55 86 56 80 57 82 58 42 59 85 60 79 61 78 62 43 64 69 65
REMARK SMILES IDX 52 66 68 67 53 68 56 69 67 70 83 71 54 72 55 73 66 75 84 76
REMARK SMILES IDX 57 77 44 78 45 79 50 80 46 81 47 82 49 83 51 84 48 85 70 86
REMARK SMILES IDX 71 87 76 88 72 89 73 90 75 91 77 92 74 93 58 94 59 95 64 96
REMARK SMILES IDX 60 97 61 98 63 99 65 100 62 101
REMARK H PARENT 27 6 32 44 82 63 56 74
REMARK Flexibility Score: inf
ROOT
ATOM      1  C   UNL A   1      37.630  29.393  28.416  1.00  0.00     0.023 C 
ENDROOT
BRANCH   1   2
ATOM      2  C   UNL A   1      36.287  29.483  29.145  1.00  0.00     0.116 C 
BRANCH   2   3
ATOM      3  N   UNL A   1      35.501  30.577  28.619  1.00  0.00    -0.352 N 
ATOM      4  C   UNL A   1      34.386  30.602  27.819  1.00  0.00     0.251 C 
ATOM      5  O   UNL A   1      33.929  31.711  27.535  1.00  0.00    -0.269 OA
ATOM      6  H   UNL A   1      35.824  31.468  28.884  1.00  0.00     0.163 HD
BRANCH   4   7
ATOM      7  C   UNL A   1      33.691  29.377  27.325  1.00  0.00     0.039 A 
ATOM      8  C   UNL A   1      32.534  27.024  26.258  1.00  0.00     0.060 A 
ATOM      9  C   UNL A   1      33.852  27.377  25.953  1.00  0.00     0.029 A 
ATOM     10  C   UNL A   1      31.815  27.838  27.129  1.00  0.00     0.029 A 
ATOM     11  C   UNL A   1      34.419  28.548  26.462  1.00  0.00     0.016 A 
ATOM     12  C   UNL A   1      32.401  28.978  27.686  1.00  0.00     0.016 A 
BRANCH   8  13
ATOM     13  N   UNL A   1      31.981  25.876  25.729  1.00  0.00    -0.257 N 
ATOM     14  C   UNL A   1      30.596  25.727  25.280  1.00  0.00     0.144 C 
ATOM     15  C   UNL A   1      30.564  24.260  24.811  1.00  0.00     0.091 C 
ATOM     16  C   UNL A   1      31.958  23.830  25.186  1.00  0.00     0.071 C 
ATOM     17  N   UNL A   1      32.723  24.748  25.682  1.00  0.00    -0.176 NA
BRANCH  14  18
ATOM     18  C   UNL A   1      30.277  26.759  24.208  1.00  0.00    -0.015 A 
ATOM     19  C   UNL A   1      28.693  28.272  23.122  1.00  0.00     0.164 A 
ATOM     20  C   UNL A   1      28.965  27.198  23.991  1.00  0.00     0.056 A 
ATOM     21  C   UNL A   1      29.732  28.963  22.468  1.00  0.00     0.203 A 
ATOM     22  C   UNL A   1      31.051  28.502  22.661  1.00  0.00     0.164 A 
ATOM     23  C   UNL A   1      31.301  27.411  23.511  1.00  0.00     0.056 A 
BRANCH  19  24
ATOM     24  O   UNL A   1      27.387  28.690  23.051  1.00  0.00    -0.493 OA
ATOM     25  C   UNL A   1      26.520  27.835  23.798  1.00  0.00     0.278 C 
ENDBRANCH  19  24
BRANCH  21  26
ATOM     26  O   UNL A   1      29.593  30.064  21.669  1.00  0.00    -0.490 OA
ATOM     27  C   UNL A   1      29.160  31.307  22.190  1.00  0.00     0.278 C 
ENDBRANCH  21  26
BRANCH  22  28
ATOM     28  O   UNL A   1      32.217  28.982  22.118  1.00  0.00    -0.493 OA
ATOM     29  C   UNL A   1      33.458  28.571  22.669  1.00  0.00     0.278 C 
ENDBRANCH  22  28
ENDBRANCH  14  18
BRANCH  16  30
ATOM     30  C   UNL A   1      32.420  22.444  25.055  1.00  0.00    -0.002 A 
ATOM     31  C   UNL A   1      32.171  21.782  23.846  1.00  0.00     0.011 A 
ATOM     32  C   UNL A   1      33.021  21.780  26.126  1.00  0.00     0.011 A 
ATOM     33  C   UNL A   1      32.539  20.446  23.696  1.00  0.00     0.021 A 
ATOM     34  C   UNL A   1      33.367  20.432  25.986  1.00  0.00     0.021 A 
ATOM     35  C   UNL A   1      33.121  19.774  24.773  1.00  0.00     0.067 A 
BRANCH  35  36
ATOM     36  S   UNL A   1      33.571  18.064  24.580  1.00  0.00     0.175 S 
ATOM     37  C   UNL A   1      32.913  17.610  22.996  1.00  0.00     0.163 C 
ATOM     38  O   UNL A   1      35.021  18.023  24.503  1.00  0.00    -0.224 OA
ATOM     39  O   UNL A   1      32.856  17.305  25.585  1.00  0.00    -0.224 OA
ENDBRANCH  35  36
ENDBRANCH  16  30
ENDBRANCH   8  13
ENDBRANCH   4   7
ENDBRANCH   2   3
ENDBRANCH   1   2
BRANCH   1  40
ATOM     40  C   UNL A   1      38.528  28.246  28.889  1.00  0.00     0.023 C 
BRANCH  40  41
ATOM     41  C   UNL A   1      39.265  27.512  27.776  1.00  0.00     0.116 C 
BRANCH  41  42
ATOM     42  N   UNL A   1      39.653  26.161  28.142  1.00  0.00    -0.352 N 
ATOM     43  C   UNL A   1      40.910  25.620  28.237  1.00  0.00     0.251 C 
ATOM     44  H   UNL A   1      38.912  25.548  28.350  1.00  0.00     0.163 HD
ATOM     45  O   UNL A   1      41.045  24.420  28.460  1.00  0.00    -0.269 OA
BRANCH  43  46
ATOM     46  C   UNL A   1      42.098  26.471  28.028  1.00  0.00     0.039 A 
ATOM     47  C   UNL A   1      42.439  26.820  26.719  1.00  0.00     0.014 A 
ATOM     48  C   UNL A   1      42.873  26.921  29.100  1.00  0.00     0.014 A 
ATOM     49  C   UNL A   1      43.531  27.656  26.490  1.00  0.00     0.010 A 
ATOM     50  C   UNL A   1      43.918  27.812  28.875  1.00  0.00     0.010 A 
ATOM     51  C   UNL A   1      44.263  28.179  27.568  1.00  0.00    -0.014 A 
BRANCH  51  52
ATOM     52  C   UNL A   1      45.391  29.110  27.327  1.00  0.00     0.031 A 
ATOM     53  C   UNL A   1      45.182  30.595  27.386  1.00  0.00     0.074 A 
ATOM     54  C   UNL A   1      46.600  28.609  27.012  1.00  0.00     0.049 A 
ATOM     55  N   UNL A   1      46.059  31.557  27.248  1.00  0.00    -0.248 NA
ATOM     56  C   UNL A   1      43.804  31.063  27.598  1.00  0.00     0.031 C 
ATOM     57  C   UNL A   1      46.905  27.188  26.837  1.00  0.00     0.029 A 
ATOM     58  N   UNL A   1      47.794  29.239  26.780  1.00  0.00    -0.354 N 
ATOM     59  C   UNL A   1      45.339  32.740  27.345  1.00  0.00     0.074 A 
ATOM     60  C   UNL A   1      43.947  32.376  27.494  1.00  0.00     0.031 C 
ATOM     61  C   UNL A   1      48.210  27.053  26.550  1.00  0.00     0.029 A 
ATOM     62  C   UNL A   1      48.827  28.376  26.509  1.00  0.00     0.049 A 
ATOM     63  H   UNL A   1      47.902  30.218  26.807  1.00  0.00     0.167 HD
ATOM     64  C   UNL A   1      45.798  34.014  27.337  1.00  0.00     0.037 A 
ATOM     65  C   UNL A   1      50.128  28.622  26.268  1.00  0.00     0.037 A 
ATOM     66  C   UNL A   1      47.188  34.370  27.210  1.00  0.00     0.049 A 
ATOM     67  C   UNL A   1      50.629  30.036  26.328  1.00  0.00     0.074 A 
ATOM     68  C   UNL A   1      47.768  35.624  27.269  1.00  0.00     0.029 A 
ATOM     69  N   UNL A   1      48.215  33.464  26.989  1.00  0.00    -0.354 N 
ATOM     70  N   UNL A   1      49.955  31.142  26.530  1.00  0.00    -0.248 NA
ATOM     71  C   UNL A   1      52.073  30.234  26.149  1.00  0.00     0.031 C 
ATOM     72  C   UNL A   1      49.143  35.481  27.047  1.00  0.00     0.029 A 
ATOM     73  C   UNL A   1      49.424  34.132  26.892  1.00  0.00     0.049 A 
ATOM     74  H   UNL A   1      48.101  32.489  26.912  1.00  0.00     0.167 HD
ATOM     75  C   UNL A   1      50.893  32.165  26.523  1.00  0.00     0.074 A 
ATOM     76  C   UNL A   1      52.186  31.545  26.313  1.00  0.00     0.031 C 
ATOM     77  C   UNL A   1      50.702  33.499  26.677  1.00  0.00     0.037 A 
BRANCH  64  78
ATOM     78  C   UNL A   1      44.782  35.110  27.473  1.00  0.00     0.057 A 
ATOM     79  C   UNL A   1      43.971  35.504  26.399  1.00  0.00     0.134 A 
ATOM     80  C   UNL A   1      44.608  35.779  28.690  1.00  0.00     0.134 A 
ATOM     81  F   UNL A   1      44.095  34.912  25.201  1.00  0.00    -0.206 F 
ATOM     82  C   UNL A   1      43.054  36.548  26.520  1.00  0.00     0.040 A 
ATOM     83  C   UNL A   1      43.673  36.807  28.832  1.00  0.00     0.040 A 
ATOM     84  F   UNL A   1      45.346  35.450  29.761  1.00  0.00    -0.206 F 
ATOM     85  C   UNL A   1      42.900  37.201  27.741  1.00  0.00     0.006 A 
ENDBRANCH  64  78
BRANCH  65  86
ATOM     86  C   UNL A   1      51.047  27.489  26.007  1.00  0.00     0.057 A 
ATOM     87  C   UNL A   1      51.554  26.712  27.055  1.00  0.00     0.134 A 
ATOM     88  C   UNL A   1      51.406  27.131  24.703  1.00  0.00     0.134 A 
ATOM     89  F   UNL A   1      51.253  27.015  28.326  1.00  0.00    -0.206 F 
ATOM     90  C   UNL A   1      52.396  25.625  26.817  1.00  0.00     0.040 A 
ATOM     91  C   UNL A   1      52.231  26.034  24.449  1.00  0.00     0.040 A 
ATOM     92  F   UNL A   1      50.941  27.828  23.657  1.00  0.00    -0.206 F 
ATOM     93  C   UNL A   1      52.730  25.279  25.508  1.00  0.00     0.006 A 
ENDBRANCH  65  86
BRANCH  77  94
ATOM     94  C   UNL A   1      51.921  34.371  26.641  1.00  0.00     0.057 A 
ATOM     95  C   UNL A   1      52.656  34.661  27.798  1.00  0.00     0.134 A 
ATOM     96  C   UNL A   1      52.382  34.904  25.431  1.00  0.00     0.134 A 
ATOM     97  F   UNL A   1      52.260  34.190  28.990  1.00  0.00    -0.206 F 
ATOM     98  C   UNL A   1      53.791  35.473  27.756  1.00  0.00     0.040 A 
ATOM     99  C   UNL A   1      53.529  35.696  25.371  1.00  0.00     0.040 A 
ATOM    100  F   UNL A   1      51.728  34.657  24.285  1.00  0.00    -0.206 F 
ATOM    101  C   UNL A   1      54.233  35.988  26.538  1.00  0.00     0.006 A 
ENDBRANCH  77  94
ENDBRANCH  51  52
ENDBRANCH  43  46
ENDBRANCH  41  42
ENDBRANCH  40  41
ENDBRANCH   1  40
TORSDOF 18
ENDMDL
