MODEL 1
REMARK VINA RESULT:     -12.7      0.000      0.000
REMARK SMILES O=C(NCCCCNC(=O)c1cccnc1C(=O)Nc1ccc([N+](=O)[O-])cc1)c1ccc(-c2c3nc(c(-c4c(F)cccc4F)c4ccc([nH]4)c(-c4c(F)cccc4F)c4nc(c(-c5c(F)cccc5F)c5ccc2[nH]5)C=C4)C=C3)cc1
REMARK SMILES IDX 6 1 5 2 4 3 3 4 1 5 2 6 29 8 30 9 82 10 31 11 81 12 32 13
REMARK SMILES IDX 33 14 34 15 75 16 35 17 80 18 74 19 76 20 36 21 79 22 73 23
REMARK SMILES IDX 72 24 37 26 63 27 46 28 62 29 47 30 50 31 61 32 77 33 48 34
REMARK SMILES IDX 49 35 60 37 78 38 51 39 38 40 39 41 44 42 40 43 41 44 43 45
REMARK SMILES IDX 45 46 42 47 64 48 65 49 70 50 66 51 67 52 69 53 71 54 68 55
REMARK SMILES IDX 52 56 53 57 58 58 54 59 55 60 57 61 59 62 56 63 7 64 8 65
REMARK SMILES IDX 9 66 10 68 11 69 12 70 16 71 13 72 15 73 14 74 17 75 18 76
REMARK SMILES IDX 19 77 20 79 21 80 28 81 22 82 27 83 23 84 24 85 25 86 26 87
REMARK H PARENT 3 7 76 25 50 36 8 67 19 78
REMARK Flexibility Score: inf
ROOT
ATOM      1  C   UNL A   1      37.021  20.439  24.619  1.00  0.00     0.023 C 
ENDROOT
BRANCH   1   2
ATOM      2  C   UNL A   1      38.124  19.440  24.988  1.00  0.00     0.023 C 
BRANCH   2   3
ATOM      3  C   UNL A   1      39.263  19.913  25.885  1.00  0.00     0.116 C 
BRANCH   3   4
ATOM      4  N   UNL A   1      40.331  18.936  25.973  1.00  0.00    -0.352 N 
ATOM      5  O   UNL A   1      42.452  18.190  25.958  1.00  0.00    -0.269 OA
ATOM      6  C   UNL A   1      41.684  19.138  26.104  1.00  0.00     0.251 C 
ATOM      7  H   UNL A   1      40.047  17.994  25.932  1.00  0.00     0.163 HD
BRANCH   6   8
ATOM      8  C   UNL A   1      42.235  20.483  26.398  1.00  0.00     0.039 A 
ATOM      9  C   UNL A   1      42.623  21.361  25.380  1.00  0.00     0.014 A 
ATOM     10  C   UNL A   1      42.289  20.903  27.732  1.00  0.00     0.014 A 
ATOM     11  C   UNL A   1      43.133  22.623  25.698  1.00  0.00     0.010 A 
ATOM     12  C   UNL A   1      42.755  22.183  28.046  1.00  0.00     0.010 A 
ATOM     13  C   UNL A   1      43.192  23.051  27.033  1.00  0.00    -0.014 A 
BRANCH  13  14
ATOM     14  C   UNL A   1      43.650  24.422  27.379  1.00  0.00     0.031 A 
ATOM     15  C   UNL A   1      42.668  25.474  27.811  1.00  0.00     0.074 A 
ATOM     16  C   UNL A   1      44.951  24.740  27.244  1.00  0.00     0.049 A 
ATOM     17  N   UNL A   1      42.867  26.750  28.038  1.00  0.00    -0.248 NA
ATOM     18  C   UNL A   1      41.278  25.039  28.001  1.00  0.00     0.031 C 
ATOM     19  C   UNL A   1      46.004  23.815  26.824  1.00  0.00     0.029 A 
ATOM     20  N   UNL A   1      45.606  25.934  27.422  1.00  0.00    -0.354 N 
ATOM     21  C   UNL A   1      41.626  27.273  28.376  1.00  0.00     0.074 A 
ATOM     22  C   UNL A   1      40.676  26.181  28.305  1.00  0.00     0.031 C 
ATOM     23  C   UNL A   1      47.172  24.474  26.775  1.00  0.00     0.029 A 
ATOM     24  C   UNL A   1      46.942  25.876  27.111  1.00  0.00     0.049 A 
ATOM     25  H   UNL A   1      45.160  26.751  27.741  1.00  0.00     0.167 HD
ATOM     26  C   UNL A   1      41.308  28.545  28.717  1.00  0.00     0.037 A 
ATOM     27  C   UNL A   1      47.874  26.847  27.069  1.00  0.00     0.037 A 
ATOM     28  C   UNL A   1      42.254  29.629  28.796  1.00  0.00     0.049 A 
ATOM     29  C   UNL A   1      47.495  28.256  27.420  1.00  0.00     0.074 A 
ATOM     30  C   UNL A   1      42.033  30.942  29.175  1.00  0.00     0.029 A 
ATOM     31  N   UNL A   1      43.602  29.527  28.484  1.00  0.00    -0.354 N 
ATOM     32  N   UNL A   1      46.326  28.731  27.772  1.00  0.00    -0.248 NA
ATOM     33  C   UNL A   1      48.563  29.264  27.369  1.00  0.00     0.031 C 
ATOM     34  C   UNL A   1      43.237  31.644  29.050  1.00  0.00     0.029 A 
ATOM     35  C   UNL A   1      44.219  30.757  28.640  1.00  0.00     0.049 A 
ATOM     36  H   UNL A   1      44.054  28.700  28.195  1.00  0.00     0.167 HD
ATOM     37  C   UNL A   1      46.520  30.085  28.009  1.00  0.00     0.074 A 
ATOM     38  C   UNL A   1      47.921  30.356  27.763  1.00  0.00     0.031 C 
ATOM     39  C   UNL A   1      45.617  31.015  28.401  1.00  0.00     0.037 A 
BRANCH  26  40
ATOM     40  C   UNL A   1      39.865  28.842  29.008  1.00  0.00     0.057 A 
ATOM     41  C   UNL A   1      39.339  28.765  30.304  1.00  0.00     0.134 A 
ATOM     42  C   UNL A   1      38.997  29.233  27.981  1.00  0.00     0.134 A 
ATOM     43  F   UNL A   1      40.114  28.387  31.331  1.00  0.00    -0.206 F 
ATOM     44  C   UNL A   1      37.994  29.040  30.563  1.00  0.00     0.040 A 
ATOM     45  C   UNL A   1      37.657  29.533  28.231  1.00  0.00     0.040 A 
ATOM     46  F   UNL A   1      39.438  29.335  26.718  1.00  0.00    -0.206 F 
ATOM     47  C   UNL A   1      37.150  29.429  29.524  1.00  0.00     0.006 A 
ENDBRANCH  26  40
BRANCH  27  48
ATOM     48  C   UNL A   1      49.260  26.504  26.669  1.00  0.00     0.057 A 
ATOM     49  C   UNL A   1      50.157  25.939  27.581  1.00  0.00     0.134 A 
ATOM     50  C   UNL A   1      49.708  26.697  25.356  1.00  0.00     0.134 A 
ATOM     51  F   UNL A   1      49.790  25.748  28.857  1.00  0.00    -0.206 F 
ATOM     52  C   UNL A   1      51.451  25.578  27.204  1.00  0.00     0.040 A 
ATOM     53  C   UNL A   1      50.992  26.321  24.960  1.00  0.00     0.040 A 
ATOM     54  F   UNL A   1      48.892  27.230  24.434  1.00  0.00    -0.206 F 
ATOM     55  C   UNL A   1      51.868  25.760  25.887  1.00  0.00     0.006 A 
ENDBRANCH  27  48
BRANCH  39  56
ATOM     56  C   UNL A   1      46.119  32.409  28.632  1.00  0.00     0.057 A 
ATOM     57  C   UNL A   1      46.641  32.813  29.866  1.00  0.00     0.134 A 
ATOM     58  C   UNL A   1      46.131  33.342  27.586  1.00  0.00     0.134 A 
ATOM     59  F   UNL A   1      46.645  31.971  30.911  1.00  0.00    -0.206 F 
ATOM     60  C   UNL A   1      47.148  34.100  30.057  1.00  0.00     0.040 A 
ATOM     61  C   UNL A   1      46.655  34.624  27.759  1.00  0.00     0.040 A 
ATOM     62  F   UNL A   1      45.651  33.016  26.377  1.00  0.00    -0.206 F 
ATOM     63  C   UNL A   1      47.163  35.006  28.997  1.00  0.00     0.006 A 
ENDBRANCH  39  56
ENDBRANCH  13  14
ENDBRANCH   6   8
ENDBRANCH   3   4
ENDBRANCH   2   3
ENDBRANCH   1   2
BRANCH   1  64
ATOM     64  C   UNL A   1      37.392  21.895  24.340  1.00  0.00     0.116 C 
BRANCH  64  65
ATOM     65  N   UNL A   1      36.528  22.602  23.401  1.00  0.00    -0.352 N 
ATOM     66  C   UNL A   1      35.226  23.049  23.546  1.00  0.00     0.253 C 
ATOM     67  H   UNL A   1      36.936  22.792  22.525  1.00  0.00     0.163 HD
ATOM     68  O   UNL A   1      34.754  23.857  22.754  1.00  0.00    -0.269 OA
BRANCH  66  69
ATOM     69  C   UNL A   1      34.458  22.684  24.734  1.00  0.00     0.071 A 
ATOM     70  C   UNL A   1      34.965  23.278  25.914  1.00  0.00     0.018 A 
ATOM     71  C   UNL A   1      33.307  21.902  24.810  1.00  0.00     0.141 A 
ATOM     72  C   UNL A   1      34.383  23.028  27.145  1.00  0.00     0.021 A 
ATOM     73  N   UNL A   1      32.768  21.640  26.052  1.00  0.00    -0.250 NA
ATOM     74  C   UNL A   1      33.295  22.191  27.164  1.00  0.00     0.112 A 
BRANCH  71  75
ATOM     75  C   UNL A   1      32.377  21.315  23.741  1.00  0.00     0.275 C 
ATOM     76  O   UNL A   1      31.559  22.067  23.196  1.00  0.00    -0.267 OA
ATOM     77  N   UNL A   1      32.530  20.094  23.126  1.00  0.00    -0.321 N 
ATOM     78  H   UNL A   1      32.542  20.141  22.143  1.00  0.00     0.170 HD
BRANCH  77  79
ATOM     79  C   UNL A   1      32.669  18.806  23.631  1.00  0.00     0.042 A 
ATOM     80  C   UNL A   1      33.233  17.843  22.783  1.00  0.00     0.033 A 
ATOM     81  C   UNL A   1      32.278  18.466  24.922  1.00  0.00     0.033 A 
ATOM     82  C   UNL A   1      33.642  16.614  23.301  1.00  0.00     0.088 A 
ATOM     83  C   UNL A   1      32.637  17.217  25.428  1.00  0.00     0.088 A 
ATOM     84  C   UNL A   1      33.399  16.345  24.647  1.00  0.00     0.269 A 
BRANCH  84  85
ATOM     85  N   UNL A   1      34.057  15.212  25.296  1.00  0.00     0.062 N 
ATOM     86  O   UNL A   1      33.348  14.280  25.694  1.00  0.00    -0.258 OA
ATOM     87  O   UNL A   1      35.297  15.253  25.376  1.00  0.00    -0.258 OA
ENDBRANCH  84  85
ENDBRANCH  77  79
ENDBRANCH  71  75
ENDBRANCH  66  69
ENDBRANCH  64  65
ENDBRANCH   1  64
TORSDOF 14
ENDMDL
MODEL 2
REMARK VINA RESULT:     -12.6      6.765     11.518
REMARK SMILES O=C(NCCCCNC(=O)c1cccnc1C(=O)Nc1ccc([N+](=O)[O-])cc1)c1ccc(-c2c3nc(c(-c4c(F)cccc4F)c4ccc([nH]4)c(-c4c(F)cccc4F)c4nc(c(-c5c(F)cccc5F)c5ccc2[nH]5)C=C4)C=C3)cc1
REMARK SMILES IDX 6 1 5 2 4 3 3 4 1 5 2 6 29 8 30 9 82 10 31 11 81 12 32 13
REMARK SMILES IDX 33 14 34 15 75 16 35 17 80 18 74 19 76 20 36 21 79 22 73 23
REMARK SMILES IDX 72 24 37 26 63 27 46 28 62 29 47 30 50 31 61 32 77 33 48 34
REMARK SMILES IDX 49 35 60 37 78 38 51 39 38 40 39 41 44 42 40 43 41 44 43 45
REMARK SMILES IDX 45 46 42 47 64 48 65 49 70 50 66 51 67 52 69 53 71 54 68 55
REMARK SMILES IDX 52 56 53 57 58 58 54 59 55 60 57 61 59 62 56 63 7 64 8 65
REMARK SMILES IDX 9 66 10 68 11 69 12 70 16 71 13 72 15 73 14 74 17 75 18 76
REMARK SMILES IDX 19 77 20 79 21 80 28 81 22 82 27 83 23 84 24 85 25 86 26 87
REMARK H PARENT 3 7 76 25 50 36 8 67 19 78
REMARK Flexibility Score: inf
ROOT
ATOM      1  C   UNL A   1      31.378  30.780  26.227  1.00  0.00     0.023 C 
ENDROOT
BRANCH   1   2
ATOM      2  C   UNL A   1      31.400  32.286  26.516  1.00  0.00     0.023 C 
BRANCH   2   3
ATOM      3  C   UNL A   1      32.629  32.877  27.199  1.00  0.00     0.116 C 
BRANCH   3   4
ATOM      4  N   UNL A   1      32.403  34.238  27.645  1.00  0.00    -0.352 N 
ATOM      5  O   UNL A   1      32.556  36.012  29.018  1.00  0.00    -0.269 OA
ATOM      6  C   UNL A   1      33.022  34.935  28.655  1.00  0.00     0.251 C 
ATOM      7  H   UNL A   1      31.707  34.734  27.156  1.00  0.00     0.163 HD
BRANCH   6   8
ATOM      8  C   UNL A   1      34.231  34.400  29.328  1.00  0.00     0.039 A 
ATOM      9  C   UNL A   1      34.152  33.680  30.525  1.00  0.00     0.014 A 
ATOM     10  C   UNL A   1      35.469  34.559  28.696  1.00  0.00     0.014 A 
ATOM     11  C   UNL A   1      35.314  33.188  31.127  1.00  0.00     0.010 A 
ATOM     12  C   UNL A   1      36.625  34.025  29.275  1.00  0.00     0.010 A 
ATOM     13  C   UNL A   1      36.560  33.344  30.500  1.00  0.00    -0.014 A 
BRANCH  13  14
ATOM     14  C   UNL A   1      37.792  32.750  31.084  1.00  0.00     0.031 A 
ATOM     15  C   UNL A   1      38.432  31.543  30.460  1.00  0.00     0.074 A 
ATOM     16  C   UNL A   1      38.301  33.263  32.219  1.00  0.00     0.049 A 
ATOM     17  N   UNL A   1      39.436  30.821  30.893  1.00  0.00    -0.248 NA
ATOM     18  C   UNL A   1      37.863  31.079  29.187  1.00  0.00     0.031 C 
ATOM     19  C   UNL A   1      37.768  34.427  32.930  1.00  0.00     0.029 A 
ATOM     20  N   UNL A   1      39.365  32.860  32.988  1.00  0.00    -0.354 N 
ATOM     21  C   UNL A   1      39.605  29.806  29.961  1.00  0.00     0.074 A 
ATOM     22  C   UNL A   1      38.587  29.994  28.947  1.00  0.00     0.031 C 
ATOM     23  C   UNL A   1      38.506  34.642  34.030  1.00  0.00     0.029 A 
ATOM     24  C   UNL A   1      39.529  33.605  34.129  1.00  0.00     0.049 A 
ATOM     25  H   UNL A   1      39.952  32.108  32.744  1.00  0.00     0.167 HD
ATOM     26  C   UNL A   1      40.526  28.812  29.949  1.00  0.00     0.037 A 
ATOM     27  C   UNL A   1      40.385  33.456  35.157  1.00  0.00     0.037 A 
ATOM     28  C   UNL A   1      41.544  28.630  30.952  1.00  0.00     0.049 A 
ATOM     29  C   UNL A   1      41.377  32.329  35.140  1.00  0.00     0.074 A 
ATOM     30  C   UNL A   1      42.547  27.678  31.001  1.00  0.00     0.029 A 
ATOM     31  N   UNL A   1      41.683  29.415  32.087  1.00  0.00    -0.354 N 
ATOM     32  N   UNL A   1      41.550  31.397  34.235  1.00  0.00    -0.248 NA
ATOM     33  C   UNL A   1      42.293  32.232  36.285  1.00  0.00     0.031 C 
ATOM     34  C   UNL A   1      43.266  27.859  32.188  1.00  0.00     0.029 A 
ATOM     35  C   UNL A   1      42.741  28.954  32.854  1.00  0.00     0.049 A 
ATOM     36  H   UNL A   1      41.115  30.186  32.314  1.00  0.00     0.167 HD
ATOM     37  C   UNL A   1      42.607  30.619  34.686  1.00  0.00     0.074 A 
ATOM     38  C   UNL A   1      43.040  31.190  35.944  1.00  0.00     0.031 C 
ATOM     39  C   UNL A   1      43.170  29.534  34.102  1.00  0.00     0.037 A 
BRANCH  26  40
ATOM     40  C   UNL A   1      40.458  27.822  28.820  1.00  0.00     0.057 A 
ATOM     41  C   UNL A   1      39.662  26.672  28.889  1.00  0.00     0.134 A 
ATOM     42  C   UNL A   1      41.180  28.039  27.640  1.00  0.00     0.134 A 
ATOM     43  F   UNL A   1      38.953  26.401  29.995  1.00  0.00    -0.206 F 
ATOM     44  C   UNL A   1      39.609  25.758  27.836  1.00  0.00     0.040 A 
ATOM     45  C   UNL A   1      41.117  27.144  26.571  1.00  0.00     0.040 A 
ATOM     46  F   UNL A   1      41.955  29.126  27.505  1.00  0.00    -0.206 F 
ATOM     47  C   UNL A   1      40.335  25.995  26.670  1.00  0.00     0.006 A 
ENDBRANCH  26  40
BRANCH  27  48
ATOM     48  C   UNL A   1      40.328  34.407  36.293  1.00  0.00     0.057 A 
ATOM     49  C   UNL A   1      41.144  35.542  36.327  1.00  0.00     0.134 A 
ATOM     50  C   UNL A   1      39.428  34.225  37.350  1.00  0.00     0.134 A 
ATOM     51  F   UNL A   1      42.038  35.760  35.351  1.00  0.00    -0.206 F 
ATOM     52  C   UNL A   1      41.070  36.464  37.373  1.00  0.00     0.040 A 
ATOM     53  C   UNL A   1      39.328  35.149  38.391  1.00  0.00     0.040 A 
ATOM     54  F   UNL A   1      38.615  33.158  37.371  1.00  0.00    -0.206 F 
ATOM     55  C   UNL A   1      40.152  36.272  38.404  1.00  0.00     0.006 A 
ENDBRANCH  27  48
BRANCH  39  56
ATOM     56  C   UNL A   1      44.345  28.911  34.794  1.00  0.00     0.057 A 
ATOM     57  C   UNL A   1      44.197  27.856  35.702  1.00  0.00     0.134 A 
ATOM     58  C   UNL A   1      45.648  29.338  34.504  1.00  0.00     0.134 A 
ATOM     59  F   UNL A   1      42.975  27.410  36.032  1.00  0.00    -0.206 F 
ATOM     60  C   UNL A   1      45.302  27.254  36.306  1.00  0.00     0.040 A 
ATOM     61  C   UNL A   1      46.761  28.729  35.085  1.00  0.00     0.040 A 
ATOM     62  F   UNL A   1      45.859  30.341  33.639  1.00  0.00    -0.206 F 
ATOM     63  C   UNL A   1      46.590  27.686  35.990  1.00  0.00     0.006 A 
ENDBRANCH  39  56
ENDBRANCH  13  14
ENDBRANCH   6   8
ENDBRANCH   3   4
ENDBRANCH   2   3
ENDBRANCH   1   2
BRANCH   1  64
ATOM     64  C   UNL A   1      32.123  29.827  27.161  1.00  0.00     0.116 C 
BRANCH  64  65
ATOM     65  N   UNL A   1      31.538  28.500  27.313  1.00  0.00    -0.352 N 
ATOM     66  C   UNL A   1      31.568  27.407  26.464  1.00  0.00     0.253 C 
ATOM     67  H   UNL A   1      31.044  28.357  28.153  1.00  0.00     0.163 HD
ATOM     68  O   UNL A   1      31.255  26.294  26.872  1.00  0.00    -0.269 OA
BRANCH  66  69
ATOM     69  C   UNL A   1      32.126  27.542  25.120  1.00  0.00     0.071 A 
ATOM     70  C   UNL A   1      33.521  27.777  25.130  1.00  0.00     0.018 A 
ATOM     71  C   UNL A   1      31.470  27.413  23.898  1.00  0.00     0.141 A 
ATOM     72  C   UNL A   1      34.223  27.957  23.951  1.00  0.00     0.021 A 
ATOM     73  N   UNL A   1      32.184  27.634  22.739  1.00  0.00    -0.250 NA
ATOM     74  C   UNL A   1      33.507  27.891  22.781  1.00  0.00     0.112 A 
BRANCH  71  75
ATOM     75  C   UNL A   1      30.060  26.944  23.519  1.00  0.00     0.275 C 
ATOM     76  O   UNL A   1      29.852  25.727  23.418  1.00  0.00    -0.267 OA
ATOM     77  N   UNL A   1      28.923  27.718  23.537  1.00  0.00    -0.321 N 
ATOM     78  H   UNL A   1      28.189  27.338  24.071  1.00  0.00     0.170 HD
BRANCH  77  79
ATOM     79  C   UNL A   1      28.615  28.936  22.941  1.00  0.00     0.042 A 
ATOM     80  C   UNL A   1      27.499  29.626  23.433  1.00  0.00     0.033 A 
ATOM     81  C   UNL A   1      29.373  29.470  21.903  1.00  0.00     0.033 A 
ATOM     82  C   UNL A   1      27.287  30.956  23.071  1.00  0.00     0.088 A 
ATOM     83  C   UNL A   1      29.131  30.783  21.498  1.00  0.00     0.088 A 
ATOM     84  C   UNL A   1      28.158  31.543  22.153  1.00  0.00     0.269 A 
BRANCH  84  85
ATOM     85  N   UNL A   1      28.155  32.992  21.967  1.00  0.00     0.062 N 
ATOM     86  O   UNL A   1      27.619  33.445  20.948  1.00  0.00    -0.258 OA
ATOM     87  O   UNL A   1      28.669  33.677  22.868  1.00  0.00    -0.258 OA
ENDBRANCH  84  85
ENDBRANCH  77  79
ENDBRANCH  71  75
ENDBRANCH  66  69
ENDBRANCH  64  65
ENDBRANCH   1  64
TORSDOF 14
ENDMDL
MODEL 3
REMARK VINA RESULT:     -12.6      0.838      1.671
REMARK SMILES O=C(NCCCCNC(=O)c1cccnc1C(=O)Nc1ccc([N+](=O)[O-])cc1)c1ccc(-c2c3nc(c(-c4c(F)cccc4F)c4ccc([nH]4)c(-c4c(F)cccc4F)c4nc(c(-c5c(F)cccc5F)c5ccc2[nH]5)C=C4)C=C3)cc1
REMARK SMILES IDX 6 1 5 2 4 3 3 4 1 5 2 6 29 8 30 9 82 10 31 11 81 12 32 13
REMARK SMILES IDX 33 14 34 15 75 16 35 17 80 18 74 19 76 20 36 21 79 22 73 23
REMARK SMILES IDX 72 24 37 26 63 27 46 28 62 29 47 30 50 31 61 32 77 33 48 34
REMARK SMILES IDX 49 35 60 37 78 38 51 39 38 40 39 41 44 42 40 43 41 44 43 45
REMARK SMILES IDX 45 46 42 47 64 48 65 49 70 50 66 51 67 52 69 53 71 54 68 55
REMARK SMILES IDX 52 56 53 57 58 58 54 59 55 60 57 61 59 62 56 63 7 64 8 65
REMARK SMILES IDX 9 66 10 68 11 69 12 70 16 71 13 72 15 73 14 74 17 75 18 76
REMARK SMILES IDX 19 77 20 79 21 80 28 81 22 82 27 83 23 84 24 85 25 86 26 87
REMARK H PARENT 3 7 76 25 50 36 8 67 19 78
REMARK Flexibility Score: inf
ROOT
ATOM      1  C   UNL A   1      36.431  20.214  25.005  1.00  0.00     0.023 C 
ENDROOT
BRANCH   1   2
ATOM      2  C   UNL A   1      37.798  19.539  24.841  1.00  0.00     0.023 C 
BRANCH   2   3
ATOM      3  C   UNL A   1      38.966  20.052  25.677  1.00  0.00     0.116 C 
BRANCH   3   4
ATOM      4  N   UNL A   1      40.011  19.056  25.822  1.00  0.00    -0.352 N 
ATOM      5  O   UNL A   1      42.116  18.280  25.964  1.00  0.00    -0.269 OA
ATOM      6  C   UNL A   1      41.351  19.234  26.075  1.00  0.00     0.251 C 
ATOM      7  H   UNL A   1      39.720  18.121  25.727  1.00  0.00     0.163 HD
BRANCH   6   8
ATOM      8  C   UNL A   1      41.890  20.561  26.459  1.00  0.00     0.039 A 
ATOM      9  C   UNL A   1      42.230  21.525  25.504  1.00  0.00     0.014 A 
ATOM     10  C   UNL A   1      41.982  20.873  27.821  1.00  0.00     0.014 A 
ATOM     11  C   UNL A   1      42.732  22.766  25.907  1.00  0.00     0.010 A 
ATOM     12  C   UNL A   1      42.439  22.132  28.222  1.00  0.00     0.010 A 
ATOM     13  C   UNL A   1      42.828  23.086  27.270  1.00  0.00    -0.014 A 
BRANCH  13  14
ATOM     14  C   UNL A   1      43.277  24.433  27.712  1.00  0.00     0.031 A 
ATOM     15  C   UNL A   1      42.278  25.483  28.109  1.00  0.00     0.074 A 
ATOM     16  C   UNL A   1      44.589  24.733  27.694  1.00  0.00     0.049 A 
ATOM     17  N   UNL A   1      42.476  26.744  28.407  1.00  0.00    -0.248 NA
ATOM     18  C   UNL A   1      40.871  25.065  28.169  1.00  0.00     0.031 C 
ATOM     19  C   UNL A   1      45.659  23.808  27.320  1.00  0.00     0.029 A 
ATOM     20  N   UNL A   1      45.244  25.907  27.977  1.00  0.00    -0.354 N 
ATOM     21  C   UNL A   1      41.220  27.274  28.668  1.00  0.00     0.074 A 
ATOM     22  C   UNL A   1      40.263  26.203  28.474  1.00  0.00     0.031 C 
ATOM     23  C   UNL A   1      46.836  24.448  27.393  1.00  0.00     0.029 A 
ATOM     24  C   UNL A   1      46.600  25.839  27.770  1.00  0.00     0.049 A 
ATOM     25  H   UNL A   1      44.786  26.717  28.295  1.00  0.00     0.167 HD
ATOM     26  C   UNL A   1      40.894  28.536  29.038  1.00  0.00     0.037 A 
ATOM     27  C   UNL A   1      47.546  26.793  27.845  1.00  0.00     0.037 A 
ATOM     28  C   UNL A   1      41.846  29.599  29.240  1.00  0.00     0.049 A 
ATOM     29  C   UNL A   1      47.160  28.193  28.227  1.00  0.00     0.074 A 
ATOM     30  C   UNL A   1      41.614  30.898  29.657  1.00  0.00     0.029 A 
ATOM     31  N   UNL A   1      43.213  29.486  29.032  1.00  0.00    -0.354 N 
ATOM     32  N   UNL A   1      45.974  28.673  28.505  1.00  0.00    -0.248 NA
ATOM     33  C   UNL A   1      48.244  29.183  28.306  1.00  0.00     0.031 C 
ATOM     34  C   UNL A   1      42.834  31.583  29.659  1.00  0.00     0.029 A 
ATOM     35  C   UNL A   1      43.833  30.697  29.290  1.00  0.00     0.049 A 
ATOM     36  H   UNL A   1      43.674  28.665  28.744  1.00  0.00     0.167 HD
ATOM     37  C   UNL A   1      46.168  30.012  28.816  1.00  0.00     0.074 A 
ATOM     38  C   UNL A   1      47.588  30.268  28.695  1.00  0.00     0.031 C 
ATOM     39  C   UNL A   1      45.249  30.941  29.175  1.00  0.00     0.037 A 
BRANCH  26  40
ATOM     40  C   UNL A   1      39.436  28.846  29.226  1.00  0.00     0.057 A 
ATOM     41  C   UNL A   1      38.803  28.707  30.468  1.00  0.00     0.134 A 
ATOM     42  C   UNL A   1      38.663  29.313  28.155  1.00  0.00     0.134 A 
ATOM     43  F   UNL A   1      39.483  28.254  31.531  1.00  0.00    -0.206 F 
ATOM     44  C   UNL A   1      37.446  28.994  30.630  1.00  0.00     0.040 A 
ATOM     45  C   UNL A   1      37.312  29.626  28.311  1.00  0.00     0.040 A 
ATOM     46  F   UNL A   1      39.211  29.478  26.941  1.00  0.00    -0.206 F 
ATOM     47  C   UNL A   1      36.698  29.459  29.550  1.00  0.00     0.006 A 
ENDBRANCH  26  40
BRANCH  27  48
ATOM     48  C   UNL A   1      48.955  26.443  27.542  1.00  0.00     0.057 A 
ATOM     49  C   UNL A   1      49.457  26.530  26.240  1.00  0.00     0.134 A 
ATOM     50  C   UNL A   1      49.842  26.052  28.553  1.00  0.00     0.134 A 
ATOM     51  F   UNL A   1      48.650  26.882  25.228  1.00  0.00    -0.206 F 
ATOM     52  C   UNL A   1      50.792  26.240  25.951  1.00  0.00     0.040 A 
ATOM     53  C   UNL A   1      51.183  25.779  28.283  1.00  0.00     0.040 A 
ATOM     54  F   UNL A   1      49.420  25.955  29.823  1.00  0.00    -0.206 F 
ATOM     55  C   UNL A   1      51.661  25.873  26.977  1.00  0.00     0.006 A 
ENDBRANCH  27  48
BRANCH  39  56
ATOM     56  C   UNL A   1      45.751  32.314  29.506  1.00  0.00     0.057 A 
ATOM     57  C   UNL A   1      45.803  33.334  28.549  1.00  0.00     0.134 A 
ATOM     58  C   UNL A   1      46.133  32.634  30.816  1.00  0.00     0.134 A 
ATOM     59  F   UNL A   1      45.463  33.089  27.274  1.00  0.00    -0.206 F 
ATOM     60  C   UNL A   1      46.229  34.622  28.880  1.00  0.00     0.040 A 
ATOM     61  C   UNL A   1      46.541  33.923  31.163  1.00  0.00     0.040 A 
ATOM     62  F   UNL A   1      46.101  31.703  31.781  1.00  0.00    -0.206 F 
ATOM     63  C   UNL A   1      46.591  34.920  30.193  1.00  0.00     0.006 A 
ENDBRANCH  39  56
ENDBRANCH  13  14
ENDBRANCH   6   8
ENDBRANCH   3   4
ENDBRANCH   2   3
ENDBRANCH   1   2
BRANCH   1  64
ATOM     64  C   UNL A   1      36.360  21.732  25.170  1.00  0.00     0.116 C 
BRANCH  64  65
ATOM     65  N   UNL A   1      35.948  22.481  23.988  1.00  0.00    -0.352 N 
ATOM     66  C   UNL A   1      34.731  23.062  23.677  1.00  0.00     0.253 C 
ATOM     67  H   UNL A   1      36.647  22.591  23.303  1.00  0.00     0.163 HD
ATOM     68  O   UNL A   1      34.647  23.878  22.766  1.00  0.00    -0.269 OA
BRANCH  66  69
ATOM     69  C   UNL A   1      33.571  22.828  24.534  1.00  0.00     0.071 A 
ATOM     70  C   UNL A   1      33.509  23.725  25.625  1.00  0.00     0.018 A 
ATOM     71  C   UNL A   1      32.545  21.900  24.361  1.00  0.00     0.141 A 
ATOM     72  C   UNL A   1      32.493  23.641  26.561  1.00  0.00     0.021 A 
ATOM     73  N   UNL A   1      31.565  21.813  25.326  1.00  0.00    -0.250 NA
ATOM     74  C   UNL A   1      31.552  22.659  26.376  1.00  0.00     0.112 A 
BRANCH  71  75
ATOM     75  C   UNL A   1      32.176  20.961  23.206  1.00  0.00     0.275 C 
ATOM     76  O   UNL A   1      31.446  21.396  22.305  1.00  0.00    -0.267 OA
ATOM     77  N   UNL A   1      32.785  19.762  22.918  1.00  0.00    -0.321 N 
ATOM     78  H   UNL A   1      33.115  19.692  21.994  1.00  0.00     0.170 HD
BRANCH  77  79
ATOM     79  C   UNL A   1      33.020  18.628  23.688  1.00  0.00     0.042 A 
ATOM     80  C   UNL A   1      32.603  18.663  25.026  1.00  0.00     0.033 A 
ATOM     81  C   UNL A   1      33.636  17.492  23.172  1.00  0.00     0.033 A 
ATOM     82  C   UNL A   1      32.566  17.488  25.775  1.00  0.00     0.088 A 
ATOM     83  C   UNL A   1      33.651  16.327  23.938  1.00  0.00     0.088 A 
ATOM     84  C   UNL A   1      33.029  16.310  25.189  1.00  0.00     0.269 A 
BRANCH  84  85
ATOM     85  N   UNL A   1      32.745  15.021  25.817  1.00  0.00     0.062 N 
ATOM     86  O   UNL A   1      33.396  14.038  25.443  1.00  0.00    -0.258 OA
ATOM     87  O   UNL A   1      31.880  15.009  26.710  1.00  0.00    -0.258 OA
ENDBRANCH  84  85
ENDBRANCH  77  79
ENDBRANCH  71  75
ENDBRANCH  66  69
ENDBRANCH  64  65
ENDBRANCH   1  64
TORSDOF 14
ENDMDL
