MODEL 1
REMARK VINA RESULT:     -12.0      0.000      0.000
REMARK SMILES O=C(NCCCCNC(=O)[C@H]1CSCN1C(=O)c1occc1-c1ccccc1)c1ccc(-c2c3nc(c(-c4c(F)cccc4F)c4ccc([nH]4)c(-c4c(F)cccc4F)c4nc(c(-c5c(F)cccc5F)c5ccc2[nH]5)C=C4)C=C3)cc1
REMARK SMILES IDX 6 1 5 2 4 3 3 4 1 5 2 6 29 8 30 9 82 10 31 11 81 12 32 13
REMARK SMILES IDX 33 14 34 15 75 16 35 17 80 18 74 19 76 20 36 21 79 22 73 23
REMARK SMILES IDX 72 24 37 26 63 27 46 28 62 29 47 30 50 31 61 32 77 33 48 34
REMARK SMILES IDX 49 35 60 37 78 38 51 39 38 40 39 41 44 42 40 43 41 44 43 45
REMARK SMILES IDX 45 46 42 47 64 48 65 49 70 50 66 51 67 52 69 53 71 54 68 55
REMARK SMILES IDX 52 56 53 57 58 58 54 59 55 60 57 61 59 62 56 63 7 64 8 65
REMARK SMILES IDX 9 66 10 68 11 69 12 70 15 71 13 72 14 73 16 74 17 75 18 76
REMARK SMILES IDX 19 77 22 78 20 79 21 80 23 81 24 82 28 83 25 84 27 85 26 86
REMARK H PARENT 3 7 76 25 50 36 8 67
REMARK Flexibility Score: inf
ROOT
ATOM      1  C   UNL A   1      31.401  30.827  25.765  1.00  0.00     0.023 C 
ENDROOT
BRANCH   1   2
ATOM      2  C   UNL A   1      31.343  32.165  26.504  1.00  0.00     0.023 C 
BRANCH   2   3
ATOM      3  C   UNL A   1      32.686  32.745  26.944  1.00  0.00     0.116 C 
BRANCH   3   4
ATOM      4  N   UNL A   1      32.564  34.033  27.615  1.00  0.00    -0.352 N 
ATOM      5  O   UNL A   1      32.944  35.626  29.160  1.00  0.00    -0.269 OA
ATOM      6  C   UNL A   1      33.278  34.544  28.663  1.00  0.00     0.251 C 
ATOM      7  H   UNL A   1      31.862  34.624  27.260  1.00  0.00     0.163 HD
BRANCH   6   8
ATOM      8  C   UNL A   1      34.422  33.806  29.234  1.00  0.00     0.039 A 
ATOM      9  C   UNL A   1      34.231  32.711  30.084  1.00  0.00     0.014 A 
ATOM     10  C   UNL A   1      35.717  34.207  28.890  1.00  0.00     0.014 A 
ATOM     11  C   UNL A   1      35.330  32.093  30.679  1.00  0.00     0.010 A 
ATOM     12  C   UNL A   1      36.818  33.556  29.447  1.00  0.00     0.010 A 
ATOM     13  C   UNL A   1      36.632  32.516  30.370  1.00  0.00    -0.014 A 
BRANCH  13  14
ATOM     14  C   UNL A   1      37.802  31.859  31.003  1.00  0.00     0.031 A 
ATOM     15  C   UNL A   1      38.575  30.805  30.265  1.00  0.00     0.074 A 
ATOM     16  C   UNL A   1      38.158  32.204  32.254  1.00  0.00     0.049 A 
ATOM     17  N   UNL A   1      39.585  30.082  30.677  1.00  0.00    -0.248 NA
ATOM     18  C   UNL A   1      38.156  30.521  28.883  1.00  0.00     0.031 C 
ATOM     19  C   UNL A   1      37.483  33.208  33.076  1.00  0.00     0.029 A 
ATOM     20  N   UNL A   1      39.172  31.742  33.052  1.00  0.00    -0.354 N 
ATOM     21  C   UNL A   1      39.907  29.241  29.619  1.00  0.00     0.074 A 
ATOM     22  C   UNL A   1      38.978  29.536  28.548  1.00  0.00     0.031 C 
ATOM     23  C   UNL A   1      38.107  33.294  34.260  1.00  0.00     0.029 A 
ATOM     24  C   UNL A   1      39.200  32.326  34.293  1.00  0.00     0.049 A 
ATOM     25  H   UNL A   1      39.818  31.059  32.763  1.00  0.00     0.167 HD
ATOM     26  C   UNL A   1      40.888  28.312  29.547  1.00  0.00     0.037 A 
ATOM     27  C   UNL A   1      40.001  32.095  35.348  1.00  0.00     0.037 A 
ATOM     28  C   UNL A   1      41.829  28.034  30.601  1.00  0.00     0.049 A 
ATOM     29  C   UNL A   1      41.078  31.056  35.247  1.00  0.00     0.074 A 
ATOM     30  C   UNL A   1      42.885  27.139  30.603  1.00  0.00     0.029 A 
ATOM     31  N   UNL A   1      41.822  28.649  31.843  1.00  0.00    -0.354 N 
ATOM     32  N   UNL A   1      41.384  30.284  34.234  1.00  0.00    -0.248 NA
ATOM     33  C   UNL A   1      41.918  30.853  36.436  1.00  0.00     0.031 C 
ATOM     34  C   UNL A   1      43.504  27.195  31.857  1.00  0.00     0.029 A 
ATOM     35  C   UNL A   1      42.849  28.143  32.625  1.00  0.00     0.049 A 
ATOM     36  H   UNL A   1      41.185  29.342  32.128  1.00  0.00     0.167 HD
ATOM     37  C   UNL A   1      42.456  29.511  34.655  1.00  0.00     0.074 A 
ATOM     38  C   UNL A   1      42.755  29.914  36.014  1.00  0.00     0.031 C 
ATOM     39  C   UNL A   1      43.132  28.555  33.975  1.00  0.00     0.037 A 
BRANCH  26  40
ATOM     40  C   UNL A   1      40.986  27.513  28.284  1.00  0.00     0.057 A 
ATOM     41  C   UNL A   1      40.260  26.329  28.103  1.00  0.00     0.134 A 
ATOM     42  C   UNL A   1      41.793  27.949  27.226  1.00  0.00     0.134 A 
ATOM     43  F   UNL A   1      39.481  25.853  29.085  1.00  0.00    -0.206 F 
ATOM     44  C   UNL A   1      40.346  25.597  26.917  1.00  0.00     0.040 A 
ATOM     45  C   UNL A   1      41.874  27.235  26.030  1.00  0.00     0.040 A 
ATOM     46  F   UNL A   1      42.510  29.077  27.337  1.00  0.00    -0.206 F 
ATOM     47  C   UNL A   1      41.153  26.053  25.874  1.00  0.00     0.006 A 
ENDBRANCH  26  40
BRANCH  27  48
ATOM     48  C   UNL A   1      39.800  32.869  36.593  1.00  0.00     0.057 A 
ATOM     49  C   UNL A   1      40.556  34.014  36.861  1.00  0.00     0.134 A 
ATOM     50  C   UNL A   1      38.817  32.506  37.522  1.00  0.00     0.134 A 
ATOM     51  F   UNL A   1      41.520  34.399  36.011  1.00  0.00    -0.206 F 
ATOM     52  C   UNL A   1      40.342  34.776  38.009  1.00  0.00     0.040 A 
ATOM     53  C   UNL A   1      38.581  33.268  38.667  1.00  0.00     0.040 A 
ATOM     54  F   UNL A   1      38.058  31.421  37.315  1.00  0.00    -0.206 F 
ATOM     55  C   UNL A   1      39.346  34.407  38.914  1.00  0.00     0.006 A 
ENDBRANCH  27  48
BRANCH  39  56
ATOM     56  C   UNL A   1      44.270  27.890  34.684  1.00  0.00     0.057 A 
ATOM     57  C   UNL A   1      44.092  26.702  35.401  1.00  0.00     0.134 A 
ATOM     58  C   UNL A   1      45.564  28.423  34.613  1.00  0.00     0.134 A 
ATOM     59  F   UNL A   1      42.874  26.153  35.514  1.00  0.00    -0.206 F 
ATOM     60  C   UNL A   1      45.162  26.068  36.033  1.00  0.00     0.040 A 
ATOM     61  C   UNL A   1      46.643  27.790  35.230  1.00  0.00     0.040 A 
ATOM     62  F   UNL A   1      45.797  29.558  33.939  1.00  0.00    -0.206 F 
ATOM     63  C   UNL A   1      46.444  26.611  35.944  1.00  0.00     0.006 A 
ENDBRANCH  39  56
ENDBRANCH  13  14
ENDBRANCH   6   8
ENDBRANCH   3   4
ENDBRANCH   2   3
ENDBRANCH   1   2
BRANCH   1  64
ATOM     64  C   UNL A   1      32.207  29.731  26.456  1.00  0.00     0.116 C 
BRANCH  64  65
ATOM     65  N   UNL A   1      31.430  28.536  26.727  1.00  0.00    -0.354 N 
ATOM     66  C   UNL A   1      31.466  27.318  26.092  1.00  0.00     0.243 C 
ATOM     67  H   UNL A   1      30.788  28.607  27.470  1.00  0.00     0.163 HD
ATOM     68  O   UNL A   1      30.828  26.386  26.584  1.00  0.00    -0.273 OA
BRANCH  66  69
ATOM     69  C   UNL A   1      32.384  27.152  24.863  1.00  0.00     0.185 C 
ATOM     70  C   UNL A   1      33.137  25.836  25.057  1.00  0.00     0.106 C 
ATOM     71  N   UNL A   1      31.684  27.082  23.579  1.00  0.00    -0.314 N 
ATOM     72  S   UNL A   1      33.660  25.335  23.405  1.00  0.00    -0.138 SA
ATOM     73  C   UNL A   1      32.412  26.331  22.570  1.00  0.00     0.191 C 
BRANCH  71  74
ATOM     74  C   UNL A   1      30.828  28.113  23.214  1.00  0.00     0.291 C 
ATOM     75  O   UNL A   1      31.299  29.162  22.742  1.00  0.00    -0.265 OA
BRANCH  74  76
ATOM     76  C   UNL A   1      29.396  27.921  23.359  1.00  0.00     0.199 A 
ATOM     77  O   UNL A   1      28.978  26.686  23.791  1.00  0.00    -0.459 OA
ATOM     78  C   UNL A   1      28.272  28.722  23.139  1.00  0.00     0.033 A 
ATOM     79  C   UNL A   1      27.629  26.705  23.877  1.00  0.00     0.196 A 
ATOM     80  C   UNL A   1      27.143  27.932  23.501  1.00  0.00     0.051 A 
BRANCH  78  81
ATOM     81  C   UNL A   1      28.281  30.085  22.641  1.00  0.00    -0.014 A 
ATOM     82  C   UNL A   1      28.078  30.322  21.273  1.00  0.00     0.009 A 
ATOM     83  C   UNL A   1      28.471  31.171  23.501  1.00  0.00     0.009 A 
ATOM     84  C   UNL A   1      28.027  31.626  20.780  1.00  0.00     0.001 A 
ATOM     85  C   UNL A   1      28.434  32.477  23.003  1.00  0.00     0.001 A 
ATOM     86  C   UNL A   1      28.206  32.703  21.647  1.00  0.00     0.000 A 
ENDBRANCH  78  81
ENDBRANCH  74  76
ENDBRANCH  71  74
ENDBRANCH  66  69
ENDBRANCH  64  65
ENDBRANCH   1  64
TORSDOF 14
ENDMDL
MODEL 2
REMARK VINA RESULT:     -11.6      5.456      9.794
REMARK SMILES O=C(NCCCCNC(=O)[C@H]1CSCN1C(=O)c1occc1-c1ccccc1)c1ccc(-c2c3nc(c(-c4c(F)cccc4F)c4ccc([nH]4)c(-c4c(F)cccc4F)c4nc(c(-c5c(F)cccc5F)c5ccc2[nH]5)C=C4)C=C3)cc1
REMARK SMILES IDX 6 1 5 2 4 3 3 4 1 5 2 6 29 8 30 9 82 10 31 11 81 12 32 13
REMARK SMILES IDX 33 14 34 15 75 16 35 17 80 18 74 19 76 20 36 21 79 22 73 23
REMARK SMILES IDX 72 24 37 26 63 27 46 28 62 29 47 30 50 31 61 32 77 33 48 34
REMARK SMILES IDX 49 35 60 37 78 38 51 39 38 40 39 41 44 42 40 43 41 44 43 45
REMARK SMILES IDX 45 46 42 47 64 48 65 49 70 50 66 51 67 52 69 53 71 54 68 55
REMARK SMILES IDX 52 56 53 57 58 58 54 59 55 60 57 61 59 62 56 63 7 64 8 65
REMARK SMILES IDX 9 66 10 68 11 69 12 70 15 71 13 72 14 73 16 74 17 75 18 76
REMARK SMILES IDX 19 77 22 78 20 79 21 80 23 81 24 82 28 83 25 84 27 85 26 86
REMARK H PARENT 3 7 76 25 50 36 8 67
REMARK Flexibility Score: inf
ROOT
ATOM      1  C   UNL A   1      38.993  22.457  26.078  1.00  0.00     0.023 C 
ENDROOT
BRANCH   1   2
ATOM      2  C   UNL A   1      38.967  21.100  25.372  1.00  0.00     0.023 C 
BRANCH   2   3
ATOM      3  C   UNL A   1      39.265  19.885  26.247  1.00  0.00     0.116 C 
BRANCH   3   4
ATOM      4  N   UNL A   1      40.488  19.190  25.868  1.00  0.00    -0.352 N 
ATOM      5  O   UNL A   1      42.681  18.906  25.444  1.00  0.00    -0.269 OA
ATOM      6  C   UNL A   1      41.787  19.616  25.917  1.00  0.00     0.251 C 
ATOM      7  H   UNL A   1      40.361  18.277  25.525  1.00  0.00     0.163 HD
BRANCH   6   8
ATOM      8  C   UNL A   1      42.134  20.929  26.497  1.00  0.00     0.039 A 
ATOM      9  C   UNL A   1      42.075  21.155  27.876  1.00  0.00     0.014 A 
ATOM     10  C   UNL A   1      42.553  21.950  25.637  1.00  0.00     0.014 A 
ATOM     11  C   UNL A   1      42.320  22.431  28.382  1.00  0.00     0.010 A 
ATOM     12  C   UNL A   1      42.847  23.214  26.150  1.00  0.00     0.010 A 
ATOM     13  C   UNL A   1      42.701  23.472  27.522  1.00  0.00    -0.014 A 
BRANCH  13  14
ATOM     14  C   UNL A   1      42.963  24.829  28.060  1.00  0.00     0.031 A 
ATOM     15  C   UNL A   1      44.351  25.234  28.464  1.00  0.00     0.074 A 
ATOM     16  C   UNL A   1      41.941  25.694  28.198  1.00  0.00     0.049 A 
ATOM     17  N   UNL A   1      44.759  26.352  29.008  1.00  0.00    -0.248 NA
ATOM     18  C   UNL A   1      45.422  24.251  28.234  1.00  0.00     0.031 C 
ATOM     19  C   UNL A   1      40.549  25.417  27.847  1.00  0.00     0.029 A 
ATOM     20  N   UNL A   1      41.919  26.979  28.676  1.00  0.00    -0.354 N 
ATOM     21  C   UNL A   1      46.125  26.201  29.208  1.00  0.00     0.074 A 
ATOM     22  C   UNL A   1      46.476  24.877  28.737  1.00  0.00     0.031 C 
ATOM     23  C   UNL A   1      39.807  26.502  28.113  1.00  0.00     0.029 A 
ATOM     24  C   UNL A   1      40.665  27.535  28.687  1.00  0.00     0.049 A 
ATOM     25  H   UNL A   1      42.724  27.455  28.982  1.00  0.00     0.167 HD
ATOM     26  C   UNL A   1      47.005  27.086  29.733  1.00  0.00     0.037 A 
ATOM     27  C   UNL A   1      40.247  28.735  29.129  1.00  0.00     0.037 A 
ATOM     28  C   UNL A   1      46.663  28.411  30.179  1.00  0.00     0.049 A 
ATOM     29  C   UNL A   1      41.239  29.697  29.712  1.00  0.00     0.074 A 
ATOM     30  C   UNL A   1      47.496  29.394  30.685  1.00  0.00     0.029 A 
ATOM     31  N   UNL A   1      45.381  28.937  30.172  1.00  0.00    -0.354 N 
ATOM     32  N   UNL A   1      42.531  29.549  29.875  1.00  0.00    -0.248 NA
ATOM     33  C   UNL A   1      40.717  30.989  30.176  1.00  0.00     0.031 C 
ATOM     34  C   UNL A   1      46.712  30.508  31.009  1.00  0.00     0.029 A 
ATOM     35  C   UNL A   1      45.396  30.227  30.679  1.00  0.00     0.049 A 
ATOM     36  H   UNL A   1      44.578  28.466  29.854  1.00  0.00     0.167 HD
ATOM     37  C   UNL A   1      42.980  30.729  30.449  1.00  0.00     0.074 A 
ATOM     38  C   UNL A   1      41.823  31.589  30.598  1.00  0.00     0.031 C 
ATOM     39  C   UNL A   1      44.237  31.068  30.819  1.00  0.00     0.037 A 
BRANCH  26  40
ATOM     40  C   UNL A   1      48.429  26.640  29.867  1.00  0.00     0.057 A 
ATOM     41  C   UNL A   1      49.385  26.923  28.885  1.00  0.00     0.134 A 
ATOM     42  C   UNL A   1      48.853  25.944  31.006  1.00  0.00     0.134 A 
ATOM     43  F   UNL A   1      49.037  27.574  27.765  1.00  0.00    -0.206 F 
ATOM     44  C   UNL A   1      50.713  26.515  29.023  1.00  0.00     0.040 A 
ATOM     45  C   UNL A   1      50.181  25.546  31.164  1.00  0.00     0.040 A 
ATOM     46  F   UNL A   1      47.984  25.646  31.984  1.00  0.00    -0.206 F 
ATOM     47  C   UNL A   1      51.115  25.827  30.169  1.00  0.00     0.006 A 
ENDBRANCH  26  40
BRANCH  27  48
ATOM     48  C   UNL A   1      38.811  29.081  29.035  1.00  0.00     0.057 A 
ATOM     49  C   UNL A   1      37.973  28.992  30.150  1.00  0.00     0.134 A 
ATOM     50  C   UNL A   1      38.255  29.550  27.839  1.00  0.00     0.134 A 
ATOM     51  F   UNL A   1      38.452  28.536  31.318  1.00  0.00    -0.206 F 
ATOM     52  C   UNL A   1      36.630  29.359  30.083  1.00  0.00     0.040 A 
ATOM     53  C   UNL A   1      36.917  29.937  27.761  1.00  0.00     0.040 A 
ATOM     54  F   UNL A   1      39.012  29.662  26.739  1.00  0.00    -0.206 F 
ATOM     55  C   UNL A   1      36.099  29.840  28.886  1.00  0.00     0.006 A 
ENDBRANCH  27  48
BRANCH  39  56
ATOM     56  C   UNL A   1      44.431  32.433  31.404  1.00  0.00     0.057 A 
ATOM     57  C   UNL A   1      44.356  32.655  32.783  1.00  0.00     0.134 A 
ATOM     58  C   UNL A   1      44.736  33.524  30.582  1.00  0.00     0.134 A 
ATOM     59  F   UNL A   1      44.053  31.648  33.618  1.00  0.00    -0.206 F 
ATOM     60  C   UNL A   1      44.568  33.921  33.327  1.00  0.00     0.040 A 
ATOM     61  C   UNL A   1      44.965  34.792  31.116  1.00  0.00     0.040 A 
ATOM     62  F   UNL A   1      44.825  33.373  29.252  1.00  0.00    -0.206 F 
ATOM     63  C   UNL A   1      44.880  34.994  32.492  1.00  0.00     0.006 A 
ENDBRANCH  39  56
ENDBRANCH  13  14
ENDBRANCH   6   8
ENDBRANCH   3   4
ENDBRANCH   2   3
ENDBRANCH   1   2
BRANCH   1  64
ATOM     64  C   UNL A   1      37.728  23.297  25.933  1.00  0.00     0.116 C 
BRANCH  64  65
ATOM     65  N   UNL A   1      37.122  23.193  24.618  1.00  0.00    -0.354 N 
ATOM     66  C   UNL A   1      35.807  23.358  24.256  1.00  0.00     0.243 C 
ATOM     67  H   UNL A   1      37.739  22.974  23.883  1.00  0.00     0.163 HD
ATOM     68  O   UNL A   1      35.531  23.377  23.055  1.00  0.00    -0.273 OA
BRANCH  66  69
ATOM     69  C   UNL A   1      34.763  23.618  25.362  1.00  0.00     0.185 C 
ATOM     70  C   UNL A   1      34.438  25.111  25.311  1.00  0.00     0.106 C 
ATOM     71  N   UNL A   1      33.507  22.882  25.206  1.00  0.00    -0.314 N 
ATOM     72  S   UNL A   1      32.819  25.278  26.088  1.00  0.00    -0.138 SA
ATOM     73  C   UNL A   1      32.370  23.554  25.812  1.00  0.00     0.191 C 
BRANCH  71  74
ATOM     74  C   UNL A   1      33.539  21.498  25.102  1.00  0.00     0.291 C 
ATOM     75  O   UNL A   1      34.044  20.827  26.018  1.00  0.00    -0.265 OA
BRANCH  74  76
ATOM     76  C   UNL A   1      32.942  20.867  23.938  1.00  0.00     0.199 A 
ATOM     77  O   UNL A   1      32.367  21.699  23.009  1.00  0.00    -0.459 OA
ATOM     78  C   UNL A   1      32.784  19.545  23.512  1.00  0.00     0.033 A 
ATOM     79  C   UNL A   1      31.885  20.937  22.003  1.00  0.00     0.196 A 
ATOM     80  C   UNL A   1      32.124  19.609  22.252  1.00  0.00     0.051 A 
BRANCH  78  81
ATOM     81  C   UNL A   1      33.218  18.361  24.230  1.00  0.00    -0.014 A 
ATOM     82  C   UNL A   1      32.337  17.732  25.122  1.00  0.00     0.009 A 
ATOM     83  C   UNL A   1      34.494  17.822  24.037  1.00  0.00     0.009 A 
ATOM     84  C   UNL A   1      32.712  16.561  25.782  1.00  0.00     0.001 A 
ATOM     85  C   UNL A   1      34.873  16.656  24.710  1.00  0.00     0.001 A 
ATOM     86  C   UNL A   1      33.981  16.024  25.575  1.00  0.00     0.000 A 
ENDBRANCH  78  81
ENDBRANCH  74  76
ENDBRANCH  71  74
ENDBRANCH  66  69
ENDBRANCH  64  65
ENDBRANCH   1  64
TORSDOF 14
ENDMDL
MODEL 3
REMARK VINA RESULT:     -11.5      1.877      3.689
REMARK SMILES O=C(NCCCCNC(=O)[C@H]1CSCN1C(=O)c1occc1-c1ccccc1)c1ccc(-c2c3nc(c(-c4c(F)cccc4F)c4ccc([nH]4)c(-c4c(F)cccc4F)c4nc(c(-c5c(F)cccc5F)c5ccc2[nH]5)C=C4)C=C3)cc1
REMARK SMILES IDX 6 1 5 2 4 3 3 4 1 5 2 6 29 8 30 9 82 10 31 11 81 12 32 13
REMARK SMILES IDX 33 14 34 15 75 16 35 17 80 18 74 19 76 20 36 21 79 22 73 23
REMARK SMILES IDX 72 24 37 26 63 27 46 28 62 29 47 30 50 31 61 32 77 33 48 34
REMARK SMILES IDX 49 35 60 37 78 38 51 39 38 40 39 41 44 42 40 43 41 44 43 45
REMARK SMILES IDX 45 46 42 47 64 48 65 49 70 50 66 51 67 52 69 53 71 54 68 55
REMARK SMILES IDX 52 56 53 57 58 58 54 59 55 60 57 61 59 62 56 63 7 64 8 65
REMARK SMILES IDX 9 66 10 68 11 69 12 70 15 71 13 72 14 73 16 74 17 75 18 76
REMARK SMILES IDX 19 77 22 78 20 79 21 80 23 81 24 82 28 83 25 84 27 85 26 86
REMARK H PARENT 3 7 76 25 50 36 8 67
REMARK Flexibility Score: inf
ROOT
ATOM      1  C   UNL A   1      31.533  30.922  26.175  1.00  0.00     0.023 C 
ENDROOT
BRANCH   1   2
ATOM      2  C   UNL A   1      31.367  32.371  26.639  1.00  0.00     0.023 C 
BRANCH   2   3
ATOM      3  C   UNL A   1      32.606  33.024  27.248  1.00  0.00     0.116 C 
BRANCH   3   4
ATOM      4  N   UNL A   1      32.354  34.363  27.764  1.00  0.00    -0.352 N 
ATOM      5  O   UNL A   1      32.578  36.160  29.102  1.00  0.00    -0.269 OA
ATOM      6  C   UNL A   1      33.019  35.067  28.730  1.00  0.00     0.251 C 
ATOM      7  H   UNL A   1      31.592  34.832  27.356  1.00  0.00     0.163 HD
BRANCH   6   8
ATOM      8  C   UNL A   1      34.238  34.524  29.362  1.00  0.00     0.039 A 
ATOM      9  C   UNL A   1      35.493  34.658  28.757  1.00  0.00     0.014 A 
ATOM     10  C   UNL A   1      34.123  33.889  30.603  1.00  0.00     0.014 A 
ATOM     11  C   UNL A   1      36.610  34.055  29.334  1.00  0.00     0.010 A 
ATOM     12  C   UNL A   1      35.251  33.329  31.205  1.00  0.00     0.010 A 
ATOM     13  C   UNL A   1      36.496  33.380  30.559  1.00  0.00    -0.014 A 
BRANCH  13  14
ATOM     14  C   UNL A   1      37.684  32.739  31.174  1.00  0.00     0.031 A 
ATOM     15  C   UNL A   1      38.329  31.549  30.525  1.00  0.00     0.074 A 
ATOM     16  C   UNL A   1      38.173  33.224  32.330  1.00  0.00     0.049 A 
ATOM     17  N   UNL A   1      39.334  30.824  30.945  1.00  0.00    -0.248 NA
ATOM     18  C   UNL A   1      37.768  31.112  29.236  1.00  0.00     0.031 C 
ATOM     19  C   UNL A   1      37.630  34.369  33.060  1.00  0.00     0.029 A 
ATOM     20  N   UNL A   1      39.232  32.808  33.095  1.00  0.00    -0.354 N 
ATOM     21  C   UNL A   1      39.512  29.831  29.990  1.00  0.00     0.074 A 
ATOM     22  C   UNL A   1      38.503  30.040  28.972  1.00  0.00     0.031 C 
ATOM     23  C   UNL A   1      38.366  34.572  34.164  1.00  0.00     0.029 A 
ATOM     24  C   UNL A   1      39.405  33.549  34.236  1.00  0.00     0.049 A 
ATOM     25  H   UNL A   1      39.811  32.052  32.848  1.00  0.00     0.167 HD
ATOM     26  C   UNL A   1      40.433  28.839  29.964  1.00  0.00     0.037 A 
ATOM     27  C   UNL A   1      40.289  33.409  35.241  1.00  0.00     0.037 A 
ATOM     28  C   UNL A   1      41.452  28.644  30.962  1.00  0.00     0.049 A 
ATOM     29  C   UNL A   1      41.296  32.299  35.192  1.00  0.00     0.074 A 
ATOM     30  C   UNL A   1      42.456  27.692  30.996  1.00  0.00     0.029 A 
ATOM     31  N   UNL A   1      41.593  29.418  32.103  1.00  0.00    -0.354 N 
ATOM     32  N   UNL A   1      41.466  31.381  34.273  1.00  0.00    -0.248 NA
ATOM     33  C   UNL A   1      42.231  32.202  36.322  1.00  0.00     0.031 C 
ATOM     34  C   UNL A   1      43.191  27.874  32.173  1.00  0.00     0.029 A 
ATOM     35  C   UNL A   1      42.660  28.956  32.857  1.00  0.00     0.049 A 
ATOM     36  H   UNL A   1      41.022  30.182  32.342  1.00  0.00     0.167 HD
ATOM     37  C   UNL A   1      42.531  30.604  34.704  1.00  0.00     0.074 A 
ATOM     38  C   UNL A   1      42.975  31.164  35.964  1.00  0.00     0.031 C 
ATOM     39  C   UNL A   1      43.090  29.524  34.107  1.00  0.00     0.037 A 
BRANCH  26  40
ATOM     40  C   UNL A   1      40.370  27.875  28.819  1.00  0.00     0.057 A 
ATOM     41  C   UNL A   1      41.091  28.087  27.637  1.00  0.00     0.134 A 
ATOM     42  C   UNL A   1      39.602  26.708  28.912  1.00  0.00     0.134 A 
ATOM     43  F   UNL A   1      41.833  29.193  27.483  1.00  0.00    -0.206 F 
ATOM     44  C   UNL A   1      41.037  27.177  26.579  1.00  0.00     0.040 A 
ATOM     45  C   UNL A   1      39.553  25.783  27.868  1.00  0.00     0.040 A 
ATOM     46  F   UNL A   1      38.891  26.448  30.020  1.00  0.00    -0.206 F 
ATOM     47  C   UNL A   1      40.269  26.018  26.696  1.00  0.00     0.006 A 
ENDBRANCH  26  40
BRANCH  27  48
ATOM     48  C   UNL A   1      40.245  34.353  36.380  1.00  0.00     0.057 A 
ATOM     49  C   UNL A   1      40.913  35.580  36.325  1.00  0.00     0.134 A 
ATOM     50  C   UNL A   1      39.499  34.068  37.530  1.00  0.00     0.134 A 
ATOM     51  F   UNL A   1      41.654  35.898  35.253  1.00  0.00    -0.206 F 
ATOM     52  C   UNL A   1      40.840  36.495  37.375  1.00  0.00     0.040 A 
ATOM     53  C   UNL A   1      39.403  34.982  38.580  1.00  0.00     0.040 A 
ATOM     54  F   UNL A   1      38.833  32.910  37.634  1.00  0.00    -0.206 F 
ATOM     55  C   UNL A   1      40.077  36.200  38.504  1.00  0.00     0.006 A 
ENDBRANCH  27  48
BRANCH  39  56
ATOM     56  C   UNL A   1      44.253  28.888  34.801  1.00  0.00     0.057 A 
ATOM     57  C   UNL A   1      44.077  27.856  35.729  1.00  0.00     0.134 A 
ATOM     58  C   UNL A   1      45.564  29.285  34.506  1.00  0.00     0.134 A 
ATOM     59  F   UNL A   1      42.844  27.444  36.060  1.00  0.00    -0.206 F 
ATOM     60  C   UNL A   1      45.165  27.244  36.350  1.00  0.00     0.040 A 
ATOM     61  C   UNL A   1      46.660  28.670  35.111  1.00  0.00     0.040 A 
ATOM     62  F   UNL A   1      45.796  30.267  33.623  1.00  0.00    -0.206 F 
ATOM     63  C   UNL A   1      46.463  27.648  36.036  1.00  0.00     0.006 A 
ENDBRANCH  39  56
ENDBRANCH  13  14
ENDBRANCH   6   8
ENDBRANCH   3   4
ENDBRANCH   2   3
ENDBRANCH   1   2
BRANCH   1  64
ATOM     64  C   UNL A   1      32.471  30.067  27.020  1.00  0.00     0.116 C 
BRANCH  64  65
ATOM     65  N   UNL A   1      33.371  29.252  26.225  1.00  0.00    -0.354 N 
ATOM     66  C   UNL A   1      33.078  28.402  25.185  1.00  0.00     0.243 C 
ATOM     67  H   UNL A   1      34.324  29.316  26.464  1.00  0.00     0.163 HD
ATOM     68  O   UNL A   1      34.015  27.921  24.545  1.00  0.00    -0.273 OA
BRANCH  66  69
ATOM     69  C   UNL A   1      31.599  28.180  24.806  1.00  0.00     0.185 C 
ATOM     70  C   UNL A   1      31.477  28.511  23.319  1.00  0.00     0.106 C 
ATOM     71  N   UNL A   1      31.114  26.813  25.002  1.00  0.00    -0.314 N 
ATOM     72  S   UNL A   1      29.998  27.646  22.755  1.00  0.00    -0.138 SA
ATOM     73  C   UNL A   1      30.021  26.460  24.111  1.00  0.00     0.191 C 
BRANCH  71  74
ATOM     74  C   UNL A   1      31.225  26.224  26.255  1.00  0.00     0.291 C 
ATOM     75  O   UNL A   1      31.400  26.941  27.254  1.00  0.00    -0.265 OA
BRANCH  74  76
ATOM     76  C   UNL A   1      31.094  24.782  26.367  1.00  0.00     0.199 A 
ATOM     77  O   UNL A   1      29.901  24.305  26.850  1.00  0.00    -0.459 OA
ATOM     78  C   UNL A   1      31.937  23.698  26.106  1.00  0.00     0.033 A 
ATOM     79  C   UNL A   1      29.964  22.955  26.867  1.00  0.00     0.196 A 
ATOM     80  C   UNL A   1      31.185  22.527  26.410  1.00  0.00     0.051 A 
BRANCH  78  81
ATOM     81  C   UNL A   1      33.302  23.777  25.621  1.00  0.00    -0.014 A 
ATOM     82  C   UNL A   1      34.360  23.445  26.480  1.00  0.00     0.009 A 
ATOM     83  C   UNL A   1      33.585  24.162  24.307  1.00  0.00     0.009 A 
ATOM     84  C   UNL A   1      35.678  23.460  26.020  1.00  0.00     0.001 A 
ATOM     85  C   UNL A   1      34.906  24.190  23.851  1.00  0.00     0.001 A 
ATOM     86  C   UNL A   1      35.950  23.833  24.705  1.00  0.00     0.000 A 
ENDBRANCH  78  81
ENDBRANCH  74  76
ENDBRANCH  71  74
ENDBRANCH  66  69
ENDBRANCH  64  65
ENDBRANCH   1  64
TORSDOF 14
ENDMDL
