MODEL 1
REMARK VINA RESULT:     -11.9      0.000      0.000
REMARK SMILES CC1(C)CSC[C@](Nc2ccccc2Cl)(C(=O)NCCCCNC(=O)c2ccc(-c3c4nc(c(-c5c(F)cccc5F)c5ccc([nH]5)c(-c5c(F)cccc5F)c5nc(c(-c6c(F)cccc6F)c6ccc3[nH]6)C=C5)C=C4)cc2)C1
REMARK SMILES IDX 20 1 19 2 18 3 16 4 17 5 7 7 1 8 2 9 3 10 4 11 80 12 5 13
REMARK SMILES IDX 6 14 8 15 9 17 10 18 14 19 11 20 13 21 15 22 12 23 21 24
REMARK SMILES IDX 22 25 23 26 24 27 25 29 26 30 27 31 79 32 28 33 78 34 29 35
REMARK SMILES IDX 30 36 31 37 72 38 32 39 77 40 71 41 73 42 33 43 76 44 70 45
REMARK SMILES IDX 69 46 34 48 60 49 43 50 59 51 44 52 47 53 58 54 74 55 45 56
REMARK SMILES IDX 46 57 57 59 75 60 48 61 35 62 36 63 41 64 37 65 38 66 40 67
REMARK SMILES IDX 42 68 39 69 61 70 62 71 67 72 63 73 64 74 66 75 68 76 65 77
REMARK SMILES IDX 49 78 50 79 55 80 51 81 52 82 54 83 56 84 53 85
REMARK H PARENT 18 6 8 16 23 28 73 47 47 58
REMARK Flexibility Score: inf
ROOT
ATOM      1  C   UNL A   1      37.289  21.559  24.442  1.00  0.00     0.023 C 
ENDROOT
BRANCH   1   2
ATOM      2  C   UNL A   1      36.980  22.636  25.473  1.00  0.00     0.116 C 
BRANCH   2   3
ATOM      3  N   UNL A   1      36.139  22.137  26.542  1.00  0.00    -0.354 N 
ATOM      4  C   UNL A   1      34.777  22.077  26.656  1.00  0.00     0.246 C 
ATOM      5  O   UNL A   1      34.351  21.563  27.698  1.00  0.00    -0.272 OA
ATOM      6  H   UNL A   1      36.630  21.781  27.317  1.00  0.00     0.163 HD
BRANCH   4   7
ATOM      7  C   UNL A   1      33.806  22.672  25.574  1.00  0.00     0.126 C 
ATOM      8  C   UNL A   1      33.338  24.846  23.081  1.00  0.00     0.012 C 
ATOM      9  C   UNL A   1      33.228  25.118  24.595  1.00  0.00    -0.024 C 
ATOM     10  C   UNL A   1      33.726  26.568  24.821  1.00  0.00     0.012 C 
ATOM     11  C   UNL A   1      31.768  25.039  25.073  1.00  0.00     0.076 C 
ATOM     12  C   UNL A   1      34.160  24.185  25.415  1.00  0.00     0.046 C 
ATOM     13  S   UNL A   1      31.100  23.353  25.068  1.00  0.00    -0.158 SA
ATOM     14  C   UNL A   1      32.361  22.581  26.144  1.00  0.00     0.108 C 
BRANCH   7  15
ATOM     15  N   UNL A   1      33.859  21.959  24.258  1.00  0.00    -0.369 N 
ATOM     16  H   UNL A   1      34.192  22.466  23.483  1.00  0.00     0.161 HD
BRANCH  15  17
ATOM     17  C   UNL A   1      33.477  20.637  24.038  1.00  0.00     0.054 A 
ATOM     18  C   UNL A   1      34.196  19.645  24.728  1.00  0.00     0.027 A 
ATOM     19  C   UNL A   1      32.502  20.196  23.123  1.00  0.00     0.064 A 
ATOM     20  C   UNL A   1      33.839  18.293  24.660  1.00  0.00     0.002 A 
ATOM     21  C   UNL A   1      32.143  18.842  23.051  1.00  0.00     0.023 A 
ATOM     22  Cl  UNL A   1      31.727  21.254  22.003  1.00  0.00    -0.082 Cl
ATOM     23  C   UNL A   1      32.790  17.896  23.841  1.00  0.00     0.002 A 
ENDBRANCH  15  17
ENDBRANCH   7  15
ENDBRANCH   4   7
ENDBRANCH   2   3
ENDBRANCH   1   2
BRANCH   1  24
ATOM     24  C   UNL A   1      37.901  20.291  25.038  1.00  0.00     0.023 C 
BRANCH  24  25
ATOM     25  C   UNL A   1      39.164  20.511  25.866  1.00  0.00     0.116 C 
BRANCH  25  26
ATOM     26  N   UNL A   1      40.070  19.372  25.852  1.00  0.00    -0.352 N 
ATOM     27  C   UNL A   1      41.426  19.356  26.092  1.00  0.00     0.251 C 
ATOM     28  H   UNL A   1      39.662  18.502  25.644  1.00  0.00     0.163 HD
ATOM     29  O   UNL A   1      42.079  18.339  25.943  1.00  0.00    -0.269 OA
BRANCH  27  30
ATOM     30  C   UNL A   1      42.084  20.614  26.504  1.00  0.00     0.039 A 
ATOM     31  C   UNL A   1      42.569  21.475  25.518  1.00  0.00     0.014 A 
ATOM     32  C   UNL A   1      42.154  20.963  27.854  1.00  0.00     0.014 A 
ATOM     33  C   UNL A   1      43.063  22.727  25.885  1.00  0.00     0.010 A 
ATOM     34  C   UNL A   1      42.583  22.237  28.211  1.00  0.00     0.010 A 
ATOM     35  C   UNL A   1      43.035  23.133  27.229  1.00  0.00    -0.014 A 
BRANCH  35  36
ATOM     36  C   UNL A   1      43.460  24.496  27.630  1.00  0.00     0.031 A 
ATOM     37  C   UNL A   1      42.432  25.527  28.000  1.00  0.00     0.074 A 
ATOM     38  C   UNL A   1      44.766  24.828  27.586  1.00  0.00     0.049 A 
ATOM     39  N   UNL A   1      42.597  26.791  28.296  1.00  0.00    -0.248 NA
ATOM     40  C   UNL A   1      41.027  25.086  28.012  1.00  0.00     0.031 C 
ATOM     41  C   UNL A   1      45.856  23.931  27.194  1.00  0.00     0.029 A 
ATOM     42  N   UNL A   1      45.396  26.014  27.862  1.00  0.00    -0.354 N 
ATOM     43  C   UNL A   1      41.323  27.297  28.514  1.00  0.00     0.074 A 
ATOM     44  C   UNL A   1      40.390  26.218  28.267  1.00  0.00     0.031 C 
ATOM     45  C   UNL A   1      47.020  24.595  27.273  1.00  0.00     0.029 A 
ATOM     46  C   UNL A   1      46.758  25.970  27.686  1.00  0.00     0.049 A 
ATOM     47  H   UNL A   1      44.918  26.822  28.159  1.00  0.00     0.167 HD
ATOM     48  C   UNL A   1      40.963  28.542  28.905  1.00  0.00     0.037 A 
ATOM     49  C   UNL A   1      47.688  26.932  27.831  1.00  0.00     0.037 A 
ATOM     50  C   UNL A   1      41.893  29.605  29.177  1.00  0.00     0.049 A 
ATOM     51  C   UNL A   1      47.261  28.307  28.268  1.00  0.00     0.074 A 
ATOM     52  C   UNL A   1      41.630  30.882  29.640  1.00  0.00     0.029 A 
ATOM     53  N   UNL A   1      43.267  29.514  29.010  1.00  0.00    -0.354 N 
ATOM     54  N   UNL A   1      46.058  28.752  28.537  1.00  0.00    -0.248 NA
ATOM     55  C   UNL A   1      48.323  29.311  28.426  1.00  0.00     0.031 C 
ATOM     56  C   UNL A   1      42.843  31.577  29.716  1.00  0.00     0.029 A 
ATOM     57  C   UNL A   1      43.863  30.718  29.344  1.00  0.00     0.049 A 
ATOM     58  H   UNL A   1      43.746  28.711  28.701  1.00  0.00     0.167 HD
ATOM     59  C   UNL A   1      46.221  30.076  28.924  1.00  0.00     0.074 A 
ATOM     60  C   UNL A   1      47.640  30.358  28.867  1.00  0.00     0.031 C 
ATOM     61  C   UNL A   1      45.279  30.978  29.292  1.00  0.00     0.037 A 
BRANCH  48  62
ATOM     62  C   UNL A   1      39.498  28.819  29.071  1.00  0.00     0.057 A 
ATOM     63  C   UNL A   1      38.849  28.642  30.300  1.00  0.00     0.134 A 
ATOM     64  C   UNL A   1      38.735  29.305  28.001  1.00  0.00     0.134 A 
ATOM     65  F   UNL A   1      39.520  28.167  31.361  1.00  0.00    -0.206 F 
ATOM     66  C   UNL A   1      37.490  28.919  30.454  1.00  0.00     0.040 A 
ATOM     67  C   UNL A   1      37.381  29.609  28.150  1.00  0.00     0.040 A 
ATOM     68  F   UNL A   1      39.296  29.500  26.799  1.00  0.00    -0.206 F 
ATOM     69  C   UNL A   1      36.754  29.410  29.379  1.00  0.00     0.006 A 
ENDBRANCH  48  62
BRANCH  49  70
ATOM     70  C   UNL A   1      49.120  26.630  27.583  1.00  0.00     0.057 A 
ATOM     71  C   UNL A   1      49.694  26.841  26.325  1.00  0.00     0.134 A 
ATOM     72  C   UNL A   1      49.943  26.108  28.588  1.00  0.00     0.134 A 
ATOM     73  F   UNL A   1      48.951  27.322  25.316  1.00  0.00    -0.206 F 
ATOM     74  C   UNL A   1      51.028  26.524  26.066  1.00  0.00     0.040 A 
ATOM     75  C   UNL A   1      51.285  25.808  28.350  1.00  0.00     0.040 A 
ATOM     76  F   UNL A   1      49.455  25.888  29.818  1.00  0.00    -0.206 F 
ATOM     77  C   UNL A   1      51.829  26.008  27.083  1.00  0.00     0.006 A 
ENDBRANCH  49  70
BRANCH  61  78
ATOM     78  C   UNL A   1      45.756  32.341  29.699  1.00  0.00     0.057 A 
ATOM     79  C   UNL A   1      46.136  32.628  31.015  1.00  0.00     0.134 A 
ATOM     80  C   UNL A   1      45.870  33.366  28.751  1.00  0.00     0.134 A 
ATOM     81  F   UNL A   1      46.037  31.693  31.972  1.00  0.00    -0.206 F 
ATOM     82  C   UNL A   1      46.595  33.896  31.380  1.00  0.00     0.040 A 
ATOM     83  C   UNL A   1      46.352  34.629  29.099  1.00  0.00     0.040 A 
ATOM     84  F   UNL A   1      45.530  33.153  27.472  1.00  0.00    -0.206 F 
ATOM     85  C   UNL A   1      46.710  34.898  30.418  1.00  0.00     0.006 A 
ENDBRANCH  61  78
ENDBRANCH  35  36
ENDBRANCH  27  30
ENDBRANCH  25  26
ENDBRANCH  24  25
ENDBRANCH   1  24
TORSDOF 13
ENDMDL
MODEL 2
REMARK VINA RESULT:     -11.8      0.368      6.139
REMARK SMILES CC1(C)CSC[C@](Nc2ccccc2Cl)(C(=O)NCCCCNC(=O)c2ccc(-c3c4nc(c(-c5c(F)cccc5F)c5ccc([nH]5)c(-c5c(F)cccc5F)c5nc(c(-c6c(F)cccc6F)c6ccc3[nH]6)C=C5)C=C4)cc2)C1
REMARK SMILES IDX 20 1 19 2 18 3 16 4 17 5 7 7 1 8 2 9 3 10 4 11 80 12 5 13
REMARK SMILES IDX 6 14 8 15 9 17 10 18 14 19 11 20 13 21 15 22 12 23 21 24
REMARK SMILES IDX 22 25 23 26 24 27 25 29 26 30 27 31 79 32 28 33 78 34 29 35
REMARK SMILES IDX 30 36 31 37 72 38 32 39 77 40 71 41 73 42 33 43 76 44 70 45
REMARK SMILES IDX 69 46 34 48 60 49 43 50 59 51 44 52 47 53 58 54 74 55 45 56
REMARK SMILES IDX 46 57 57 59 75 60 48 61 35 62 36 63 41 64 37 65 38 66 40 67
REMARK SMILES IDX 42 68 39 69 61 70 62 71 67 72 63 73 64 74 66 75 68 76 65 77
REMARK SMILES IDX 49 78 50 79 55 80 51 81 52 82 54 83 56 84 53 85
REMARK H PARENT 18 6 8 16 23 28 73 47 47 58
REMARK Flexibility Score: inf
ROOT
ATOM      1  C   UNL A   1      37.200  21.222  24.384  1.00  0.00     0.023 C 
ENDROOT
BRANCH   1   2
ATOM      2  C   UNL A   1      36.942  22.341  25.385  1.00  0.00     0.116 C 
BRANCH   2   3
ATOM      3  N   UNL A   1      36.081  21.913  26.467  1.00  0.00    -0.354 N 
ATOM      4  C   UNL A   1      34.717  21.919  26.582  1.00  0.00     0.246 C 
ATOM      5  O   UNL A   1      34.270  21.456  27.639  1.00  0.00    -0.272 OA
ATOM      6  H   UNL A   1      36.556  21.557  27.253  1.00  0.00     0.163 HD
BRANCH   4   7
ATOM      7  C   UNL A   1      33.774  22.527  25.483  1.00  0.00     0.126 C 
ATOM      8  C   UNL A   1      33.382  24.700  22.976  1.00  0.00     0.012 C 
ATOM      9  C   UNL A   1      33.253  24.979  24.488  1.00  0.00    -0.024 C 
ATOM     10  C   UNL A   1      33.771  26.421  24.717  1.00  0.00     0.012 C 
ATOM     11  C   UNL A   1      31.785  24.926  24.942  1.00  0.00     0.076 C 
ATOM     12  C   UNL A   1      34.156  24.033  25.325  1.00  0.00     0.046 C 
ATOM     13  S   UNL A   1      31.088  23.251  24.932  1.00  0.00    -0.158 SA
ATOM     14  C   UNL A   1      32.319  22.462  26.031  1.00  0.00     0.108 C 
BRANCH   7  15
ATOM     15  N   UNL A   1      33.836  21.808  24.171  1.00  0.00    -0.369 N 
ATOM     16  H   UNL A   1      34.171  22.313  23.396  1.00  0.00     0.161 HD
BRANCH  15  17
ATOM     17  C   UNL A   1      33.459  20.485  23.955  1.00  0.00     0.054 A 
ATOM     18  C   UNL A   1      34.154  19.500  24.680  1.00  0.00     0.027 A 
ATOM     19  C   UNL A   1      32.514  20.033  23.015  1.00  0.00     0.064 A 
ATOM     20  C   UNL A   1      33.797  18.148  24.616  1.00  0.00     0.002 A 
ATOM     21  C   UNL A   1      32.155  18.679  22.947  1.00  0.00     0.023 A 
ATOM     22  Cl  UNL A   1      31.777  21.078  21.857  1.00  0.00    -0.082 Cl
ATOM     23  C   UNL A   1      32.774  17.742  23.769  1.00  0.00     0.002 A 
ENDBRANCH  15  17
ENDBRANCH   7  15
ENDBRANCH   4   7
ENDBRANCH   2   3
ENDBRANCH   1   2
BRANCH   1  24
ATOM     24  C   UNL A   1      37.830  19.975  25.002  1.00  0.00     0.023 C 
BRANCH  24  25
ATOM     25  C   UNL A   1      39.051  20.236  25.881  1.00  0.00     0.116 C 
BRANCH  25  26
ATOM     26  N   UNL A   1      40.024  19.154  25.854  1.00  0.00    -0.352 N 
ATOM     27  C   UNL A   1      41.387  19.226  26.038  1.00  0.00     0.251 C 
ATOM     28  H   UNL A   1      39.662  18.255  25.682  1.00  0.00     0.163 HD
ATOM     29  O   UNL A   1      42.095  18.247  25.884  1.00  0.00    -0.269 OA
BRANCH  27  30
ATOM     30  C   UNL A   1      41.981  20.531  26.395  1.00  0.00     0.039 A 
ATOM     31  C   UNL A   1      42.509  21.331  25.380  1.00  0.00     0.014 A 
ATOM     32  C   UNL A   1      41.951  20.981  27.716  1.00  0.00     0.014 A 
ATOM     33  C   UNL A   1      42.943  22.622  25.682  1.00  0.00     0.010 A 
ATOM     34  C   UNL A   1      42.321  22.291  28.003  1.00  0.00     0.010 A 
ATOM     35  C   UNL A   1      42.814  23.126  26.987  1.00  0.00    -0.014 A 
BRANCH  35  36
ATOM     36  C   UNL A   1      43.175  24.528  27.309  1.00  0.00     0.031 A 
ATOM     37  C   UNL A   1      44.612  24.962  27.272  1.00  0.00     0.074 A 
ATOM     38  C   UNL A   1      42.218  25.388  27.710  1.00  0.00     0.049 A 
ATOM     39  N   UNL A   1      45.137  26.115  27.599  1.00  0.00    -0.248 NA
ATOM     40  C   UNL A   1      45.596  23.958  26.834  1.00  0.00     0.031 C 
ATOM     41  C   UNL A   1      40.793  25.073  27.837  1.00  0.00     0.029 A 
ATOM     42  N   UNL A   1      42.302  26.701  28.097  1.00  0.00    -0.354 N 
ATOM     43  C   UNL A   1      46.506  25.971  27.423  1.00  0.00     0.074 A 
ATOM     44  C   UNL A   1      46.738  24.604  27.008  1.00  0.00     0.031 C 
ATOM     45  C   UNL A   1      40.137  26.167  28.253  1.00  0.00     0.029 A 
ATOM     46  C   UNL A   1      41.095  27.249  28.457  1.00  0.00     0.049 A 
ATOM     47  H   UNL A   1      43.148  27.204  28.115  1.00  0.00     0.167 HD
ATOM     48  C   UNL A   1      47.480  26.899  27.572  1.00  0.00     0.037 A 
ATOM     49  C   UNL A   1      40.796  28.482  28.909  1.00  0.00     0.037 A 
ATOM     50  C   UNL A   1      47.244  28.265  27.957  1.00  0.00     0.049 A 
ATOM     51  C   UNL A   1      41.897  29.494  29.064  1.00  0.00     0.074 A 
ATOM     52  C   UNL A   1      48.159  29.297  28.073  1.00  0.00     0.029 A 
ATOM     53  N   UNL A   1      46.004  28.788  28.289  1.00  0.00    -0.354 N 
ATOM     54  N   UNL A   1      43.180  29.364  28.827  1.00  0.00    -0.248 NA
ATOM     55  C   UNL A   1      41.508  30.828  29.545  1.00  0.00     0.031 C 
ATOM     56  C   UNL A   1      47.477  30.437  28.514  1.00  0.00     0.029 A 
ATOM     57  C   UNL A   1      46.132  30.125  28.628  1.00  0.00     0.049 A 
ATOM     58  H   UNL A   1      45.159  28.284  28.284  1.00  0.00     0.167 HD
ATOM     59  C   UNL A   1      43.745  30.601  29.101  1.00  0.00     0.074 A 
ATOM     60  C   UNL A   1      42.665  31.475  29.510  1.00  0.00     0.031 C 
ATOM     61  C   UNL A   1      45.043  30.982  29.022  1.00  0.00     0.037 A 
BRANCH  48  62
ATOM     62  C   UNL A   1      48.893  26.468  27.308  1.00  0.00     0.057 A 
ATOM     63  C   UNL A   1      49.724  25.997  28.333  1.00  0.00     0.134 A 
ATOM     64  C   UNL A   1      49.416  26.486  26.009  1.00  0.00     0.134 A 
ATOM     65  F   UNL A   1      49.287  25.967  29.602  1.00  0.00    -0.206 F 
ATOM     66  C   UNL A   1      51.031  25.581  28.079  1.00  0.00     0.040 A 
ATOM     67  C   UNL A   1      50.713  26.048  25.739  1.00  0.00     0.040 A 
ATOM     68  F   UNL A   1      48.672  26.921  24.981  1.00  0.00    -0.206 F 
ATOM     69  C   UNL A   1      51.527  25.598  26.778  1.00  0.00     0.006 A 
ENDBRANCH  48  62
BRANCH  49  70
ATOM     70  C   UNL A   1      39.391  28.840  29.228  1.00  0.00     0.057 A 
ATOM     71  C   UNL A   1      38.548  29.390  28.256  1.00  0.00     0.134 A 
ATOM     72  C   UNL A   1      38.863  28.659  30.512  1.00  0.00     0.134 A 
ATOM     73  F   UNL A   1      39.003  29.604  27.012  1.00  0.00    -0.206 F 
ATOM     74  C   UNL A   1      37.239  29.769  28.552  1.00  0.00     0.040 A 
ATOM     75  C   UNL A   1      37.548  29.011  30.817  1.00  0.00     0.040 A 
ATOM     76  F   UNL A   1      39.618  28.130  31.487  1.00  0.00    -0.206 F 
ATOM     77  C   UNL A   1      36.734  29.576  29.837  1.00  0.00     0.006 A 
ENDBRANCH  49  70
BRANCH  61  78
ATOM     78  C   UNL A   1      45.361  32.412  29.347  1.00  0.00     0.057 A 
ATOM     79  C   UNL A   1      45.689  32.818  30.647  1.00  0.00     0.134 A 
ATOM     80  C   UNL A   1      45.376  33.384  28.340  1.00  0.00     0.134 A 
ATOM     81  F   UNL A   1      45.679  31.937  31.658  1.00  0.00    -0.206 F 
ATOM     82  C   UNL A   1      46.000  34.148  30.936  1.00  0.00     0.040 A 
ATOM     83  C   UNL A   1      45.711  34.711  28.613  1.00  0.00     0.040 A 
ATOM     84  F   UNL A   1      45.080  33.058  27.073  1.00  0.00    -0.206 F 
ATOM     85  C   UNL A   1      46.018  35.097  29.915  1.00  0.00     0.006 A 
ENDBRANCH  61  78
ENDBRANCH  35  36
ENDBRANCH  27  30
ENDBRANCH  25  26
ENDBRANCH  24  25
ENDBRANCH   1  24
TORSDOF 13
ENDMDL
MODEL 3
REMARK VINA RESULT:     -11.6      1.164      1.338
REMARK SMILES CC1(C)CSC[C@](Nc2ccccc2Cl)(C(=O)NCCCCNC(=O)c2ccc(-c3c4nc(c(-c5c(F)cccc5F)c5ccc([nH]5)c(-c5c(F)cccc5F)c5nc(c(-c6c(F)cccc6F)c6ccc3[nH]6)C=C5)C=C4)cc2)C1
REMARK SMILES IDX 20 1 19 2 18 3 16 4 17 5 7 7 1 8 2 9 3 10 4 11 80 12 5 13
REMARK SMILES IDX 6 14 8 15 9 17 10 18 14 19 11 20 13 21 15 22 12 23 21 24
REMARK SMILES IDX 22 25 23 26 24 27 25 29 26 30 27 31 79 32 28 33 78 34 29 35
REMARK SMILES IDX 30 36 31 37 72 38 32 39 77 40 71 41 73 42 33 43 76 44 70 45
REMARK SMILES IDX 69 46 34 48 60 49 43 50 59 51 44 52 47 53 58 54 74 55 45 56
REMARK SMILES IDX 46 57 57 59 75 60 48 61 35 62 36 63 41 64 37 65 38 66 40 67
REMARK SMILES IDX 42 68 39 69 61 70 62 71 67 72 63 73 64 74 66 75 68 76 65 77
REMARK SMILES IDX 49 78 50 79 55 80 51 81 52 82 54 83 56 84 53 85
REMARK H PARENT 18 6 8 16 23 28 73 47 47 58
REMARK Flexibility Score: inf
ROOT
ATOM      1  C   UNL A   1      36.996  21.802  24.391  1.00  0.00     0.023 C 
ENDROOT
BRANCH   1   2
ATOM      2  C   UNL A   1      36.857  22.972  25.357  1.00  0.00     0.116 C 
BRANCH   2   3
ATOM      3  N   UNL A   1      36.028  22.639  26.497  1.00  0.00    -0.354 N 
ATOM      4  C   UNL A   1      34.718  22.927  26.765  1.00  0.00     0.246 C 
ATOM      5  O   UNL A   1      34.280  22.474  27.830  1.00  0.00    -0.272 OA
ATOM      6  H   UNL A   1      36.483  22.117  27.196  1.00  0.00     0.163 HD
BRANCH   4   7
ATOM      7  C   UNL A   1      33.835  23.824  25.826  1.00  0.00     0.126 C 
ATOM      8  C   UNL A   1      33.599  26.570  23.937  1.00  0.00     0.012 C 
ATOM      9  C   UNL A   1      33.417  26.465  25.466  1.00  0.00    -0.024 C 
ATOM     10  C   UNL A   1      33.963  27.784  26.068  1.00  0.00     0.012 C 
ATOM     11  C   UNL A   1      31.931  26.350  25.845  1.00  0.00     0.076 C 
ATOM     12  C   UNL A   1      34.262  25.308  26.065  1.00  0.00     0.046 C 
ATOM     13  S   UNL A   1      31.192  24.757  25.391  1.00  0.00    -0.158 SA
ATOM     14  C   UNL A   1      32.358  23.675  26.293  1.00  0.00     0.108 C 
BRANCH   7  15
ATOM     15  N   UNL A   1      33.930  23.457  24.377  1.00  0.00    -0.369 N 
ATOM     16  H   UNL A   1      34.468  24.043  23.798  1.00  0.00     0.161 HD
BRANCH  15  17
ATOM     17  C   UNL A   1      33.321  22.355  23.780  1.00  0.00     0.054 A 
ATOM     18  C   UNL A   1      33.409  21.131  24.468  1.00  0.00     0.027 A 
ATOM     19  C   UNL A   1      32.708  22.330  22.514  1.00  0.00     0.064 A 
ATOM     20  C   UNL A   1      32.754  19.981  24.013  1.00  0.00     0.002 A 
ATOM     21  C   UNL A   1      32.052  21.178  22.054  1.00  0.00     0.023 A 
ATOM     22  Cl  UNL A   1      32.759  23.667  21.426  1.00  0.00    -0.082 Cl
ATOM     23  C   UNL A   1      32.050  20.014  22.816  1.00  0.00     0.002 A 
ENDBRANCH  15  17
ENDBRANCH   7  15
ENDBRANCH   4   7
ENDBRANCH   2   3
ENDBRANCH   1   2
BRANCH   1  24
ATOM     24  C   UNL A   1      37.647  20.566  25.009  1.00  0.00     0.023 C 
BRANCH  24  25
ATOM     25  C   UNL A   1      38.939  20.833  25.779  1.00  0.00     0.116 C 
BRANCH  25  26
ATOM     26  N   UNL A   1      39.871  19.715  25.750  1.00  0.00    -0.352 N 
ATOM     27  C   UNL A   1      41.206  19.707  26.085  1.00  0.00     0.251 C 
ATOM     28  H   UNL A   1      39.499  18.854  25.451  1.00  0.00     0.163 HD
ATOM     29  O   UNL A   1      41.892  18.715  25.912  1.00  0.00    -0.269 OA
BRANCH  27  30
ATOM     30  C   UNL A   1      41.803  20.944  26.631  1.00  0.00     0.039 A 
ATOM     31  C   UNL A   1      42.314  21.893  25.745  1.00  0.00     0.014 A 
ATOM     32  C   UNL A   1      41.791  21.184  28.007  1.00  0.00     0.014 A 
ATOM     33  C   UNL A   1      42.749  23.124  26.237  1.00  0.00     0.010 A 
ATOM     34  C   UNL A   1      42.162  22.435  28.487  1.00  0.00     0.010 A 
ATOM     35  C   UNL A   1      42.638  23.419  27.606  1.00  0.00    -0.014 A 
BRANCH  35  36
ATOM     36  C   UNL A   1      43.001  24.756  28.136  1.00  0.00     0.031 A 
ATOM     37  C   UNL A   1      41.934  25.789  28.363  1.00  0.00     0.074 A 
ATOM     38  C   UNL A   1      44.297  25.064  28.340  1.00  0.00     0.049 A 
ATOM     39  N   UNL A   1      42.058  27.037  28.740  1.00  0.00    -0.248 NA
ATOM     40  C   UNL A   1      40.545  25.375  28.105  1.00  0.00     0.031 C 
ATOM     41  C   UNL A   1      45.429  24.164  28.109  1.00  0.00     0.029 A 
ATOM     42  N   UNL A   1      44.881  26.226  28.777  1.00  0.00    -0.354 N 
ATOM     43  C   UNL A   1      40.771  27.557  28.750  1.00  0.00     0.074 A 
ATOM     44  C   UNL A   1      39.886  26.508  28.293  1.00  0.00     0.031 C 
ATOM     45  C   UNL A   1      46.568  24.802  28.423  1.00  0.00     0.029 A 
ATOM     46  C   UNL A   1      46.252  26.163  28.844  1.00  0.00     0.049 A 
ATOM     47  H   UNL A   1      44.366  27.029  29.020  1.00  0.00     0.167 HD
ATOM     48  C   UNL A   1      40.362  28.792  29.126  1.00  0.00     0.037 A 
ATOM     49  C   UNL A   1      47.152  27.100  29.196  1.00  0.00     0.037 A 
ATOM     50  C   UNL A   1      41.241  29.825  29.607  1.00  0.00     0.049 A 
ATOM     51  C   UNL A   1      46.670  28.463  29.610  1.00  0.00     0.074 A 
ATOM     52  C   UNL A   1      40.914  31.086  30.071  1.00  0.00     0.029 A 
ATOM     53  N   UNL A   1      42.620  29.714  29.683  1.00  0.00    -0.354 N 
ATOM     54  N   UNL A   1      45.443  28.920  29.681  1.00  0.00    -0.248 NA
ATOM     55  C   UNL A   1      47.697  29.439  30.000  1.00  0.00     0.031 C 
ATOM     56  C   UNL A   1      42.100  31.754  30.393  1.00  0.00     0.029 A 
ATOM     57  C   UNL A   1      43.162  30.891  30.171  1.00  0.00     0.049 A 
ATOM     58  H   UNL A   1      43.138  28.916  29.428  1.00  0.00     0.167 HD
ATOM     59  C   UNL A   1      45.549  30.222  30.149  1.00  0.00     0.074 A 
ATOM     60  C   UNL A   1      46.958  30.480  30.358  1.00  0.00     0.031 C 
ATOM     61  C   UNL A   1      44.567  31.126  30.384  1.00  0.00     0.037 A 
BRANCH  48  62
ATOM     62  C   UNL A   1      38.894  29.089  29.040  1.00  0.00     0.057 A 
ATOM     63  C   UNL A   1      38.053  28.978  30.156  1.00  0.00     0.134 A 
ATOM     64  C   UNL A   1      38.321  29.530  27.841  1.00  0.00     0.134 A 
ATOM     65  F   UNL A   1      38.537  28.547  31.332  1.00  0.00    -0.206 F 
ATOM     66  C   UNL A   1      36.691  29.273  30.075  1.00  0.00     0.040 A 
ATOM     67  C   UNL A   1      36.966  29.853  27.755  1.00  0.00     0.040 A 
ATOM     68  F   UNL A   1      39.071  29.663  26.737  1.00  0.00    -0.206 F 
ATOM     69  C   UNL A   1      36.146  29.719  28.874  1.00  0.00     0.006 A 
ENDBRANCH  48  62
BRANCH  49  70
ATOM     70  C   UNL A   1      48.602  26.781  29.193  1.00  0.00     0.057 A 
ATOM     71  C   UNL A   1      49.396  27.046  28.072  1.00  0.00     0.134 A 
ATOM     72  C   UNL A   1      49.224  26.190  30.299  1.00  0.00     0.134 A 
ATOM     73  F   UNL A   1      48.853  27.594  26.974  1.00  0.00    -0.206 F 
ATOM     74  C   UNL A   1      50.751  26.715  28.040  1.00  0.00     0.040 A 
ATOM     75  C   UNL A   1      50.583  25.875  30.291  1.00  0.00     0.040 A 
ATOM     76  F   UNL A   1      48.518  25.917  31.408  1.00  0.00    -0.206 F 
ATOM     77  C   UNL A   1      51.349  26.130  29.155  1.00  0.00     0.006 A 
ENDBRANCH  49  70
BRANCH  61  78
ATOM     78  C   UNL A   1      44.978  32.462  30.929  1.00  0.00     0.057 A 
ATOM     79  C   UNL A   1      45.113  32.688  32.304  1.00  0.00     0.134 A 
ATOM     80  C   UNL A   1      45.280  33.521  30.064  1.00  0.00     0.134 A 
ATOM     81  F   UNL A   1      44.826  31.719  33.186  1.00  0.00    -0.206 F 
ATOM     82  C   UNL A   1      45.514  33.930  32.801  1.00  0.00     0.040 A 
ATOM     83  C   UNL A   1      45.706  34.759  30.548  1.00  0.00     0.040 A 
ATOM     84  F   UNL A   1      45.179  33.366  28.735  1.00  0.00    -0.206 F 
ATOM     85  C   UNL A   1      45.818  34.967  31.921  1.00  0.00     0.006 A 
ENDBRANCH  61  78
ENDBRANCH  35  36
ENDBRANCH  27  30
ENDBRANCH  25  26
ENDBRANCH  24  25
ENDBRANCH   1  24
TORSDOF 13
ENDMDL
