MODEL 1
REMARK VINA RESULT:     -11.2      0.000      0.000
REMARK SMILES C[NH+]1CCC([N@@H+](C)Cc2ccc(C(=O)NCCCCNC(=O)c3ccc(-c4c5nc(c(-c6c(F)cccc6F)c6ccc([nH]6)c(-c6c(F)cccc6F)c6nc(c(-c7c(F)cccc7F)c7ccc4[nH]7)C=C6)C=C5)cc3)cn2)CC1
REMARK SMILES IDX 17 1 16 2 15 3 13 4 14 5 12 7 9 8 10 9 78 10 11 11 77 12
REMARK SMILES IDX 8 13 6 14 7 15 5 17 1 18 2 19 3 20 80 21 4 23 79 24 18 25
REMARK SMILES IDX 19 26 20 27 21 28 22 30 23 31 24 32 76 33 25 34 75 35 26 36
REMARK SMILES IDX 27 37 28 38 69 39 29 40 74 41 68 42 70 43 30 44 73 45 67 46
REMARK SMILES IDX 66 47 31 49 57 50 40 51 56 52 41 53 44 54 55 55 71 56 42 57
REMARK SMILES IDX 43 58 54 60 72 61 45 62 32 63 33 64 38 65 34 66 35 67 37 68
REMARK SMILES IDX 39 69 36 70 58 71 59 72 64 73 60 74 61 75 63 76 65 77 62 78
REMARK SMILES IDX 46 79 47 80 52 81 48 82 49 83 51 84 53 85 50 86
REMARK H PARENT 15 6 6 16 2 22 20 29 70 48 44 59
REMARK Flexibility Score: inf
ROOT
ATOM      1  C   UNL A   1      32.799  29.681  25.060  1.00  0.00     0.023 C 
ENDROOT
BRANCH   1   2
ATOM      2  C   UNL A   1      31.275  29.565  25.061  1.00  0.00     0.116 C 
BRANCH   2   3
ATOM      3  N   UNL A   1      30.755  29.774  23.726  1.00  0.00    -0.352 N 
ATOM      4  C   UNL A   1      30.557  28.926  22.667  1.00  0.00     0.252 C 
ATOM      5  O   UNL A   1      30.117  29.423  21.629  1.00  0.00    -0.269 OA
ATOM      6  H   UNL A   1      30.493  30.705  23.543  1.00  0.00     0.163 HD
BRANCH   4   7
ATOM      7  C   UNL A   1      30.771  27.457  22.724  1.00  0.00     0.058 A 
ATOM      8  C   UNL A   1      31.076  24.761  23.292  1.00  0.00     0.095 A 
ATOM      9  C   UNL A   1      31.951  25.373  22.398  1.00  0.00     0.030 A 
ATOM     10  N   UNL A   1      29.998  25.412  23.790  1.00  0.00    -0.255 NA
ATOM     11  C   UNL A   1      31.782  26.729  22.103  1.00  0.00     0.017 A 
ATOM     12  C   UNL A   1      29.879  26.733  23.509  1.00  0.00     0.125 A 
BRANCH   8  13
ATOM     13  C   UNL A   1      31.375  23.369  23.823  1.00  0.00     0.319 C 
BRANCH  13  14
ATOM     14  N   UNL A   1      32.534  22.652  23.242  1.00  0.00    -0.330 N 
ATOM     15  C   UNL A   1      32.149  21.354  22.687  1.00  0.00     0.333 C 
ATOM     16  H   UNL A   1      32.809  23.272  22.481  1.00  0.00     0.348 HD
BRANCH  14  17
ATOM     17  C   UNL A   1      33.788  22.592  24.026  1.00  0.00     0.195 C 
ATOM     18  C   UNL A   1      37.452  23.704  26.025  1.00  0.00     0.332 C 
ATOM     19  N   UNL A   1      36.177  23.704  25.311  1.00  0.00    -0.337 N 
ATOM     20  C   UNL A   1      35.123  23.100  26.137  1.00  0.00     0.268 C 
ATOM     21  C   UNL A   1      36.293  22.989  24.034  1.00  0.00     0.268 C 
ATOM     22  H   UNL A   1      35.925  24.673  25.116  1.00  0.00     0.347 HD
ATOM     23  C   UNL A   1      33.765  23.206  25.441  1.00  0.00     0.126 C 
ATOM     24  C   UNL A   1      34.996  23.120  23.232  1.00  0.00     0.126 C 
ENDBRANCH  14  17
ENDBRANCH  13  14
ENDBRANCH   8  13
ENDBRANCH   4   7
ENDBRANCH   2   3
ENDBRANCH   1   2
BRANCH   1  25
ATOM     25  C   UNL A   1      33.519  28.486  25.697  1.00  0.00     0.023 C 
BRANCH  25  26
ATOM     26  C   UNL A   1      33.725  28.583  27.206  1.00  0.00     0.116 C 
BRANCH  26  27
ATOM     27  N   UNL A   1      33.690  29.949  27.703  1.00  0.00    -0.352 N 
ATOM     28  C   UNL A   1      34.686  30.676  28.310  1.00  0.00     0.251 C 
ATOM     29  H   UNL A   1      32.833  30.419  27.589  1.00  0.00     0.163 HD
ATOM     30  O   UNL A   1      34.448  31.787  28.764  1.00  0.00    -0.269 OA
BRANCH  28  31
ATOM     31  C   UNL A   1      36.036  30.092  28.449  1.00  0.00     0.039 A 
ATOM     32  C   UNL A   1      36.908  30.166  27.361  1.00  0.00     0.014 A 
ATOM     33  C   UNL A   1      36.447  29.495  29.645  1.00  0.00     0.014 A 
ATOM     34  C   UNL A   1      38.217  29.702  27.494  1.00  0.00     0.010 A 
ATOM     35  C   UNL A   1      37.771  29.095  29.798  1.00  0.00     0.010 A 
ATOM     36  C   UNL A   1      38.670  29.200  28.726  1.00  0.00    -0.014 A 
BRANCH  36  37
ATOM     37  C   UNL A   1      40.092  28.820  28.908  1.00  0.00     0.031 A 
ATOM     38  C   UNL A   1      41.073  29.786  29.510  1.00  0.00     0.074 A 
ATOM     39  C   UNL A   1      40.508  27.611  28.483  1.00  0.00     0.049 A 
ATOM     40  N   UNL A   1      42.351  29.623  29.746  1.00  0.00    -0.248 NA
ATOM     41  C   UNL A   1      40.559  31.115  29.872  1.00  0.00     0.031 C 
ATOM     42  C   UNL A   1      39.665  26.612  27.822  1.00  0.00     0.029 A 
ATOM     43  N   UNL A   1      41.742  27.017  28.541  1.00  0.00    -0.354 N 
ATOM     44  C   UNL A   1      42.793  30.827  30.277  1.00  0.00     0.074 A 
ATOM     45  C   UNL A   1      41.661  31.730  30.276  1.00  0.00     0.031 C 
ATOM     46  C   UNL A   1      40.398  25.518  27.567  1.00  0.00     0.029 A 
ATOM     47  C   UNL A   1      41.767  25.748  28.018  1.00  0.00     0.049 A 
ATOM     48  H   UNL A   1      42.535  27.458  28.923  1.00  0.00     0.167 HD
ATOM     49  C   UNL A   1      44.025  31.145  30.745  1.00  0.00     0.037 A 
ATOM     50  C   UNL A   1      42.778  24.865  27.917  1.00  0.00     0.037 A 
ATOM     51  C   UNL A   1      45.144  30.239  30.757  1.00  0.00     0.049 A 
ATOM     52  C   UNL A   1      44.130  25.238  28.454  1.00  0.00     0.074 A 
ATOM     53  C   UNL A   1      46.414  30.444  31.268  1.00  0.00     0.029 A 
ATOM     54  N   UNL A   1      45.128  28.956  30.231  1.00  0.00    -0.354 N 
ATOM     55  N   UNL A   1      44.514  26.351  29.031  1.00  0.00    -0.248 NA
ATOM     56  C   UNL A   1      45.189  24.225  28.338  1.00  0.00     0.031 C 
ATOM     57  C   UNL A   1      47.179  29.301  31.011  1.00  0.00     0.029 A 
ATOM     58  C   UNL A   1      46.373  28.366  30.383  1.00  0.00     0.049 A 
ATOM     59  H   UNL A   1      44.348  28.528  29.811  1.00  0.00     0.167 HD
ATOM     60  C   UNL A   1      45.850  26.167  29.362  1.00  0.00     0.074 A 
ATOM     61  C   UNL A   1      46.202  24.825  28.946  1.00  0.00     0.031 C 
ATOM     62  C   UNL A   1      46.709  27.032  29.955  1.00  0.00     0.037 A 
BRANCH  49  63
ATOM     63  C   UNL A   1      44.221  32.530  31.289  1.00  0.00     0.057 A 
ATOM     64  C   UNL A   1      44.637  33.591  30.473  1.00  0.00     0.134 A 
ATOM     65  C   UNL A   1      43.961  32.815  32.635  1.00  0.00     0.134 A 
ATOM     66  F   UNL A   1      44.915  33.383  29.177  1.00  0.00    -0.206 F 
ATOM     67  C   UNL A   1      44.813  34.879  30.982  1.00  0.00     0.040 A 
ATOM     68  C   UNL A   1      44.107  34.106  33.149  1.00  0.00     0.040 A 
ATOM     69  F   UNL A   1      43.554  31.848  33.471  1.00  0.00    -0.206 F 
ATOM     70  C   UNL A   1      44.540  35.140  32.322  1.00  0.00     0.006 A 
ENDBRANCH  49  63
BRANCH  50  71
ATOM     71  C   UNL A   1      42.542  23.531  27.312  1.00  0.00     0.057 A 
ATOM     72  C   UNL A   1      42.132  22.446  28.096  1.00  0.00     0.134 A 
ATOM     73  C   UNL A   1      42.727  23.305  25.943  1.00  0.00     0.134 A 
ATOM     74  F   UNL A   1      41.956  22.597  29.417  1.00  0.00    -0.206 F 
ATOM     75  C   UNL A   1      41.934  21.179  27.545  1.00  0.00     0.040 A 
ATOM     76  C   UNL A   1      42.507  22.050  25.374  1.00  0.00     0.040 A 
ATOM     77  F   UNL A   1      43.110  24.306  25.138  1.00  0.00    -0.206 F 
ATOM     78  C   UNL A   1      42.117  20.980  26.178  1.00  0.00     0.006 A 
ENDBRANCH  50  71
BRANCH  62  79
ATOM     79  C   UNL A   1      48.105  26.539  30.201  1.00  0.00     0.057 A 
ATOM     80  C   UNL A   1      48.458  25.883  31.389  1.00  0.00     0.134 A 
ATOM     81  C   UNL A   1      49.106  26.713  29.236  1.00  0.00     0.134 A 
ATOM     82  F   UNL A   1      47.549  25.698  32.358  1.00  0.00    -0.206 F 
ATOM     83  C   UNL A   1      49.764  25.450  31.621  1.00  0.00     0.040 A 
ATOM     84  C   UNL A   1      50.408  26.259  29.446  1.00  0.00     0.040 A 
ATOM     85  F   UNL A   1      48.833  27.324  28.074  1.00  0.00    -0.206 F 
ATOM     86  C   UNL A   1      50.743  25.634  30.645  1.00  0.00     0.006 A 
ENDBRANCH  62  79
ENDBRANCH  36  37
ENDBRANCH  28  31
ENDBRANCH  26  27
ENDBRANCH  25  26
ENDBRANCH   1  25
TORSDOF 14
ENDMDL
MODEL 2
REMARK VINA RESULT:     -11.2      2.728      7.677
REMARK SMILES C[NH+]1CCC([N@@H+](C)Cc2ccc(C(=O)NCCCCNC(=O)c3ccc(-c4c5nc(c(-c6c(F)cccc6F)c6ccc([nH]6)c(-c6c(F)cccc6F)c6nc(c(-c7c(F)cccc7F)c7ccc4[nH]7)C=C6)C=C5)cc3)cn2)CC1
REMARK SMILES IDX 17 1 16 2 15 3 13 4 14 5 12 7 9 8 10 9 78 10 11 11 77 12
REMARK SMILES IDX 8 13 6 14 7 15 5 17 1 18 2 19 3 20 80 21 4 23 79 24 18 25
REMARK SMILES IDX 19 26 20 27 21 28 22 30 23 31 24 32 76 33 25 34 75 35 26 36
REMARK SMILES IDX 27 37 28 38 69 39 29 40 74 41 68 42 70 43 30 44 73 45 67 46
REMARK SMILES IDX 66 47 31 49 57 50 40 51 56 52 41 53 44 54 55 55 71 56 42 57
REMARK SMILES IDX 43 58 54 60 72 61 45 62 32 63 33 64 38 65 34 66 35 67 37 68
REMARK SMILES IDX 39 69 36 70 58 71 59 72 64 73 60 74 61 75 63 76 65 77 62 78
REMARK SMILES IDX 46 79 47 80 52 81 48 82 49 83 51 84 53 85 50 86
REMARK H PARENT 15 6 6 16 2 22 20 29 70 48 44 59
REMARK Flexibility Score: inf
ROOT
ATOM      1  C   UNL A   1      36.556  21.285  24.640  1.00  0.00     0.023 C 
ENDROOT
BRANCH   1   2
ATOM      2  C   UNL A   1      35.465  21.370  25.707  1.00  0.00     0.116 C 
BRANCH   2   3
ATOM      3  N   UNL A   1      34.562  20.243  25.592  1.00  0.00    -0.352 N 
ATOM      4  C   UNL A   1      33.229  20.155  25.283  1.00  0.00     0.252 C 
ATOM      5  O   UNL A   1      32.727  19.029  25.297  1.00  0.00    -0.269 OA
ATOM      6  H   UNL A   1      34.987  19.373  25.769  1.00  0.00     0.163 HD
BRANCH   4   7
ATOM      7  C   UNL A   1      32.390  21.309  24.872  1.00  0.00     0.058 A 
ATOM      8  C   UNL A   1      31.205  23.602  23.860  1.00  0.00     0.095 A 
ATOM      9  C   UNL A   1      30.957  23.231  25.179  1.00  0.00     0.030 A 
ATOM     10  N   UNL A   1      31.901  22.804  23.017  1.00  0.00    -0.255 NA
ATOM     11  C   UNL A   1      31.544  22.065  25.680  1.00  0.00     0.017 A 
ATOM     12  C   UNL A   1      32.482  21.696  23.539  1.00  0.00     0.125 A 
BRANCH   8  13
ATOM     13  C   UNL A   1      30.792  24.978  23.362  1.00  0.00     0.319 C 
BRANCH  13  14
ATOM     14  N   UNL A   1      30.235  25.924  24.356  1.00  0.00    -0.330 N 
ATOM     15  C   UNL A   1      28.979  26.518  23.898  1.00  0.00     0.333 C 
ATOM     16  H   UNL A   1      30.046  25.313  25.150  1.00  0.00     0.348 HD
BRANCH  14  17
ATOM     17  C   UNL A   1      31.148  26.913  24.972  1.00  0.00     0.195 C 
ATOM     18  C   UNL A   1      32.669  30.401  27.017  1.00  0.00     0.332 C 
ATOM     19  N   UNL A   1      31.821  29.358  26.443  1.00  0.00    -0.337 N 
ATOM     20  C   UNL A   1      32.148  28.049  27.022  1.00  0.00     0.268 C 
ATOM     21  C   UNL A   1      31.962  29.315  24.982  1.00  0.00     0.268 C 
ATOM     22  H   UNL A   1      30.851  29.582  26.666  1.00  0.00     0.347 HD
ATOM     23  C   UNL A   1      31.184  26.977  26.513  1.00  0.00     0.126 C 
ATOM     24  C   UNL A   1      30.964  28.322  24.380  1.00  0.00     0.126 C 
ENDBRANCH  14  17
ENDBRANCH  13  14
ENDBRANCH   8  13
ENDBRANCH   4   7
ENDBRANCH   2   3
ENDBRANCH   1   2
BRANCH   1  25
ATOM     25  C   UNL A   1      37.561  20.149  24.860  1.00  0.00     0.023 C 
BRANCH  25  26
ATOM     26  C   UNL A   1      38.769  20.509  25.722  1.00  0.00     0.116 C 
BRANCH  26  27
ATOM     27  N   UNL A   1      39.811  19.495  25.700  1.00  0.00    -0.352 N 
ATOM     28  C   UNL A   1      41.133  19.604  26.060  1.00  0.00     0.251 C 
ATOM     29  H   UNL A   1      39.531  18.607  25.383  1.00  0.00     0.163 HD
ATOM     30  O   UNL A   1      41.900  18.669  25.875  1.00  0.00    -0.269 OA
BRANCH  28  31
ATOM     31  C   UNL A   1      41.633  20.872  26.630  1.00  0.00     0.039 A 
ATOM     32  C   UNL A   1      42.137  21.840  25.760  1.00  0.00     0.014 A 
ATOM     33  C   UNL A   1      41.588  21.114  28.007  1.00  0.00     0.014 A 
ATOM     34  C   UNL A   1      42.533  23.080  26.262  1.00  0.00     0.010 A 
ATOM     35  C   UNL A   1      41.919  22.374  28.497  1.00  0.00     0.010 A 
ATOM     36  C   UNL A   1      42.390  23.370  27.628  1.00  0.00    -0.014 A 
BRANCH  36  37
ATOM     37  C   UNL A   1      42.694  24.726  28.147  1.00  0.00     0.031 A 
ATOM     38  C   UNL A   1      44.097  25.103  28.531  1.00  0.00     0.074 A 
ATOM     39  C   UNL A   1      41.687  25.605  28.317  1.00  0.00     0.049 A 
ATOM     40  N   UNL A   1      44.545  26.241  28.998  1.00  0.00    -0.248 NA
ATOM     41  C   UNL A   1      45.126  24.061  28.395  1.00  0.00     0.031 C 
ATOM     42  C   UNL A   1      40.274  25.333  28.044  1.00  0.00     0.029 A 
ATOM     43  N   UNL A   1      41.697  26.902  28.759  1.00  0.00    -0.354 N 
ATOM     44  C   UNL A   1      45.903  26.051  29.217  1.00  0.00     0.074 A 
ATOM     45  C   UNL A   1      46.195  24.672  28.885  1.00  0.00     0.031 C 
ATOM     46  C   UNL A   1      39.558  26.441  28.293  1.00  0.00     0.029 A 
ATOM     47  C   UNL A   1      40.454  27.489  28.771  1.00  0.00     0.049 A 
ATOM     48  H   UNL A   1      42.515  27.370  29.042  1.00  0.00     0.167 HD
ATOM     49  C   UNL A   1      46.828  26.949  29.634  1.00  0.00     0.037 A 
ATOM     50  C   UNL A   1      40.080  28.733  29.121  1.00  0.00     0.037 A 
ATOM     51  C   UNL A   1      46.537  28.324  29.949  1.00  0.00     0.049 A 
ATOM     52  C   UNL A   1      41.127  29.713  29.568  1.00  0.00     0.074 A 
ATOM     53  C   UNL A   1      47.414  29.329  30.318  1.00  0.00     0.029 A 
ATOM     54  N   UNL A   1      45.269  28.886  29.936  1.00  0.00    -0.354 N 
ATOM     55  N   UNL A   1      42.421  29.543  29.691  1.00  0.00    -0.248 NA
ATOM     56  C   UNL A   1      40.662  31.063  29.915  1.00  0.00     0.031 C 
ATOM     57  C   UNL A   1      46.671  30.488  30.570  1.00  0.00     0.029 A 
ATOM     58  C   UNL A   1      45.337  30.217  30.313  1.00  0.00     0.049 A 
ATOM     59  H   UNL A   1      44.442  28.408  29.694  1.00  0.00     0.167 HD
ATOM     60  C   UNL A   1      42.927  30.767  30.110  1.00  0.00     0.074 A 
ATOM     61  C   UNL A   1      41.803  31.676  30.195  1.00  0.00     0.031 C 
ATOM     62  C   UNL A   1      44.207  31.107  30.401  1.00  0.00     0.037 A 
BRANCH  49  63
ATOM     63  C   UNL A   1      48.245  26.471  29.765  1.00  0.00     0.057 A 
ATOM     64  C   UNL A   1      49.165  26.596  28.716  1.00  0.00     0.134 A 
ATOM     65  C   UNL A   1      48.705  25.909  30.962  1.00  0.00     0.134 A 
ATOM     66  F   UNL A   1      48.787  27.114  27.538  1.00  0.00    -0.206 F 
ATOM     67  C   UNL A   1      50.484  26.156  28.843  1.00  0.00     0.040 A 
ATOM     68  C   UNL A   1      50.029  25.490  31.111  1.00  0.00     0.040 A 
ATOM     69  F   UNL A   1      47.879  25.764  32.010  1.00  0.00    -0.206 F 
ATOM     70  C   UNL A   1      50.921  25.607  30.047  1.00  0.00     0.006 A 
ENDBRANCH  49  63
BRANCH  50  71
ATOM     71  C   UNL A   1      38.654  29.133  29.031  1.00  0.00     0.057 A 
ATOM     72  C   UNL A   1      37.817  29.077  30.151  1.00  0.00     0.134 A 
ATOM     73  C   UNL A   1      38.092  29.572  27.827  1.00  0.00     0.134 A 
ATOM     74  F   UNL A   1      38.294  28.649  31.330  1.00  0.00    -0.206 F 
ATOM     75  C   UNL A   1      36.467  29.424  30.074  1.00  0.00     0.040 A 
ATOM     76  C   UNL A   1      36.750  29.946  27.740  1.00  0.00     0.040 A 
ATOM     77  F   UNL A   1      38.843  29.656  26.720  1.00  0.00    -0.206 F 
ATOM     78  C   UNL A   1      35.931  29.864  28.865  1.00  0.00     0.006 A 
ENDBRANCH  50  71
BRANCH  62  79
ATOM     79  C   UNL A   1      44.452  32.527  30.820  1.00  0.00     0.057 A 
ATOM     80  C   UNL A   1      44.437  32.912  32.168  1.00  0.00     0.134 A 
ATOM     81  C   UNL A   1      44.715  33.519  29.867  1.00  0.00     0.134 A 
ATOM     82  F   UNL A   1      44.177  32.012  33.129  1.00  0.00    -0.206 F 
ATOM     83  C   UNL A   1      44.640  34.238  32.549  1.00  0.00     0.040 A 
ATOM     84  C   UNL A   1      44.948  34.843  30.238  1.00  0.00     0.040 A 
ATOM     85  F   UNL A   1      44.752  33.216  28.561  1.00  0.00    -0.206 F 
ATOM     86  C   UNL A   1      44.901  35.208  31.582  1.00  0.00     0.006 A 
ENDBRANCH  62  79
ENDBRANCH  36  37
ENDBRANCH  28  31
ENDBRANCH  26  27
ENDBRANCH  25  26
ENDBRANCH   1  25
TORSDOF 14
ENDMDL
MODEL 3
REMARK VINA RESULT:     -11.1      2.710      7.547
REMARK SMILES C[NH+]1CCC([N@@H+](C)Cc2ccc(C(=O)NCCCCNC(=O)c3ccc(-c4c5nc(c(-c6c(F)cccc6F)c6ccc([nH]6)c(-c6c(F)cccc6F)c6nc(c(-c7c(F)cccc7F)c7ccc4[nH]7)C=C6)C=C5)cc3)cn2)CC1
REMARK SMILES IDX 17 1 16 2 15 3 13 4 14 5 12 7 9 8 10 9 78 10 11 11 77 12
REMARK SMILES IDX 8 13 6 14 7 15 5 17 1 18 2 19 3 20 80 21 4 23 79 24 18 25
REMARK SMILES IDX 19 26 20 27 21 28 22 30 23 31 24 32 76 33 25 34 75 35 26 36
REMARK SMILES IDX 27 37 28 38 69 39 29 40 74 41 68 42 70 43 30 44 73 45 67 46
REMARK SMILES IDX 66 47 31 49 57 50 40 51 56 52 41 53 44 54 55 55 71 56 42 57
REMARK SMILES IDX 43 58 54 60 72 61 45 62 32 63 33 64 38 65 34 66 35 67 37 68
REMARK SMILES IDX 39 69 36 70 58 71 59 72 64 73 60 74 61 75 63 76 65 77 62 78
REMARK SMILES IDX 46 79 47 80 52 81 48 82 49 83 51 84 53 85 50 86
REMARK H PARENT 15 6 6 16 2 22 20 29 70 48 44 59
REMARK Flexibility Score: inf
ROOT
ATOM      1  C   UNL A   1      36.159  21.470  24.927  1.00  0.00     0.023 C 
ENDROOT
BRANCH   1   2
ATOM      2  C   UNL A   1      35.147  21.344  26.066  1.00  0.00     0.116 C 
BRANCH   2   3
ATOM      3  N   UNL A   1      34.247  20.237  25.818  1.00  0.00    -0.352 N 
ATOM      4  C   UNL A   1      32.947  20.180  25.387  1.00  0.00     0.252 C 
ATOM      5  O   UNL A   1      32.435  19.062  25.304  1.00  0.00    -0.269 OA
ATOM      6  H   UNL A   1      34.646  19.354  25.993  1.00  0.00     0.163 HD
BRANCH   4   7
ATOM      7  C   UNL A   1      32.160  21.363  24.955  1.00  0.00     0.058 A 
ATOM      8  C   UNL A   1      31.074  23.683  23.895  1.00  0.00     0.095 A 
ATOM      9  C   UNL A   1      30.827  23.361  25.227  1.00  0.00     0.030 A 
ATOM     10  N   UNL A   1      31.718  22.829  23.065  1.00  0.00    -0.255 NA
ATOM     11  C   UNL A   1      31.363  22.181  25.752  1.00  0.00     0.017 A 
ATOM     12  C   UNL A   1      32.252  21.708  23.610  1.00  0.00     0.125 A 
BRANCH   8  13
ATOM     13  C   UNL A   1      30.722  25.063  23.364  1.00  0.00     0.319 C 
BRANCH  13  14
ATOM     14  N   UNL A   1      30.181  26.047  24.329  1.00  0.00    -0.330 N 
ATOM     15  C   UNL A   1      28.948  26.668  23.843  1.00  0.00     0.333 C 
ATOM     16  H   UNL A   1      29.965  25.460  25.134  1.00  0.00     0.348 HD
BRANCH  14  17
ATOM     17  C   UNL A   1      31.116  27.024  24.935  1.00  0.00     0.195 C 
ATOM     18  C   UNL A   1      32.709  30.482  26.974  1.00  0.00     0.332 C 
ATOM     19  N   UNL A   1      31.840  29.451  26.409  1.00  0.00    -0.337 N 
ATOM     20  C   UNL A   1      32.166  28.135  26.973  1.00  0.00     0.268 C 
ATOM     21  C   UNL A   1      31.952  29.417  24.946  1.00  0.00     0.268 C 
ATOM     22  H   UNL A   1      30.877  29.683  26.653  1.00  0.00     0.347 HD
ATOM     23  C   UNL A   1      31.182  27.076  26.475  1.00  0.00     0.126 C 
ATOM     24  C   UNL A   1      30.933  28.438  24.356  1.00  0.00     0.126 C 
ENDBRANCH  14  17
ENDBRANCH  13  14
ENDBRANCH   8  13
ENDBRANCH   4   7
ENDBRANCH   2   3
ENDBRANCH   1   2
BRANCH   1  25
ATOM     25  C   UNL A   1      37.236  20.380  24.923  1.00  0.00     0.023 C 
BRANCH  25  26
ATOM     26  C   UNL A   1      38.576  20.790  25.526  1.00  0.00     0.116 C 
BRANCH  26  27
ATOM     27  N   UNL A   1      39.547  19.707  25.557  1.00  0.00    -0.352 N 
ATOM     28  C   UNL A   1      40.852  19.725  25.987  1.00  0.00     0.251 C 
ATOM     29  H   UNL A   1      39.223  18.840  25.224  1.00  0.00     0.163 HD
ATOM     30  O   UNL A   1      41.561  18.740  25.841  1.00  0.00    -0.269 OA
BRANCH  28  31
ATOM     31  C   UNL A   1      41.407  20.957  26.586  1.00  0.00     0.039 A 
ATOM     32  C   UNL A   1      42.037  21.878  25.747  1.00  0.00     0.014 A 
ATOM     33  C   UNL A   1      41.292  21.212  27.955  1.00  0.00     0.014 A 
ATOM     34  C   UNL A   1      42.491  23.089  26.270  1.00  0.00     0.010 A 
ATOM     35  C   UNL A   1      41.684  22.447  28.463  1.00  0.00     0.010 A 
ATOM     36  C   UNL A   1      42.282  23.399  27.624  1.00  0.00    -0.014 A 
BRANCH  36  37
ATOM     37  C   UNL A   1      42.652  24.732  28.158  1.00  0.00     0.031 A 
ATOM     38  C   UNL A   1      41.609  25.794  28.362  1.00  0.00     0.074 A 
ATOM     39  C   UNL A   1      43.947  24.999  28.415  1.00  0.00     0.049 A 
ATOM     40  N   UNL A   1      41.751  27.012  28.820  1.00  0.00    -0.248 NA
ATOM     41  C   UNL A   1      40.231  25.452  27.979  1.00  0.00     0.031 C 
ATOM     42  C   UNL A   1      45.061  24.074  28.195  1.00  0.00     0.029 A 
ATOM     43  N   UNL A   1      44.547  26.126  28.917  1.00  0.00    -0.354 N 
ATOM     44  C   UNL A   1      40.486  27.583  28.776  1.00  0.00     0.074 A 
ATOM     45  C   UNL A   1      39.599  26.598  28.193  1.00  0.00     0.031 C 
ATOM     46  C   UNL A   1      46.203  24.658  28.591  1.00  0.00     0.029 A 
ATOM     47  C   UNL A   1      45.907  26.007  29.063  1.00  0.00     0.049 A 
ATOM     48  H   UNL A   1      44.049  26.943  29.150  1.00  0.00     0.167 HD
ATOM     49  C   UNL A   1      40.094  28.807  29.203  1.00  0.00     0.037 A 
ATOM     50  C   UNL A   1      46.815  26.884  29.531  1.00  0.00     0.037 A 
ATOM     51  C   UNL A   1      40.976  29.779  29.796  1.00  0.00     0.049 A 
ATOM     52  C   UNL A   1      46.352  28.230  30.010  1.00  0.00     0.074 A 
ATOM     53  C   UNL A   1      40.664  31.022  30.319  1.00  0.00     0.029 A 
ATOM     54  N   UNL A   1      42.346  29.617  29.940  1.00  0.00    -0.354 N 
ATOM     55  N   UNL A   1      45.139  28.726  30.039  1.00  0.00    -0.248 NA
ATOM     56  C   UNL A   1      47.385  29.135  30.533  1.00  0.00     0.031 C 
ATOM     57  C   UNL A   1      41.852  31.630  30.740  1.00  0.00     0.029 A 
ATOM     58  C   UNL A   1      42.898  30.747  30.523  1.00  0.00     0.049 A 
ATOM     59  H   UNL A   1      42.852  28.817  29.669  1.00  0.00     0.167 HD
ATOM     60  C   UNL A   1      45.258  29.991  30.599  1.00  0.00     0.074 A 
ATOM     61  C   UNL A   1      46.659  30.175  30.918  1.00  0.00     0.031 C 
ATOM     62  C   UNL A   1      44.296  30.918  30.826  1.00  0.00     0.037 A 
BRANCH  49  63
ATOM     63  C   UNL A   1      38.643  29.160  29.050  1.00  0.00     0.057 A 
ATOM     64  C   UNL A   1      37.748  29.082  30.127  1.00  0.00     0.134 A 
ATOM     65  C   UNL A   1      38.139  29.612  27.825  1.00  0.00     0.134 A 
ATOM     66  F   UNL A   1      38.162  28.643  31.325  1.00  0.00    -0.206 F 
ATOM     67  C   UNL A   1      36.400  29.416  29.982  1.00  0.00     0.040 A 
ATOM     68  C   UNL A   1      36.799  29.976  27.676  1.00  0.00     0.040 A 
ATOM     69  F   UNL A   1      38.941  29.717  26.755  1.00  0.00    -0.206 F 
ATOM     70  C   UNL A   1      35.924  29.872  28.755  1.00  0.00     0.006 A 
ENDBRANCH  49  63
BRANCH  50  71
ATOM     71  C   UNL A   1      48.247  26.504  29.602  1.00  0.00     0.057 A 
ATOM     72  C   UNL A   1      49.128  26.812  28.558  1.00  0.00     0.134 A 
ATOM     73  C   UNL A   1      48.770  25.818  30.705  1.00  0.00     0.134 A 
ATOM     74  F   UNL A   1      48.682  27.453  27.467  1.00  0.00    -0.206 F 
ATOM     75  C   UNL A   1      50.471  26.437  28.599  1.00  0.00     0.040 A 
ATOM     76  C   UNL A   1      50.116  25.458  30.771  1.00  0.00     0.040 A 
ATOM     77  F   UNL A   1      47.979  25.501  31.740  1.00  0.00    -0.206 F 
ATOM     78  C   UNL A   1      50.969  25.760  29.711  1.00  0.00     0.006 A 
ENDBRANCH  50  71
BRANCH  62  79
ATOM     79  C   UNL A   1      44.731  32.204  31.465  1.00  0.00     0.057 A 
ATOM     80  C   UNL A   1      44.766  32.362  32.857  1.00  0.00     0.134 A 
ATOM     81  C   UNL A   1      45.128  33.295  30.680  1.00  0.00     0.134 A 
ATOM     82  F   UNL A   1      44.385  31.360  33.664  1.00  0.00    -0.206 F 
ATOM     83  C   UNL A   1      45.147  33.569  33.444  1.00  0.00     0.040 A 
ATOM     84  C   UNL A   1      45.539  34.497  31.256  1.00  0.00     0.040 A 
ATOM     85  F   UNL A   1      45.127  33.208  29.342  1.00  0.00    -0.206 F 
ATOM     86  C   UNL A   1      45.540  34.640  32.642  1.00  0.00     0.006 A 
ENDBRANCH  62  79
ENDBRANCH  36  37
ENDBRANCH  28  31
ENDBRANCH  26  27
ENDBRANCH  25  26
ENDBRANCH   1  25
TORSDOF 14
ENDMDL
