MODEL 1
REMARK VINA RESULT:     -12.6      0.000      0.000
REMARK SMILES C[C@@H](C(=O)NCCCCNC(=O)c1ccc(-c2c3nc(c(-c4c(F)cccc4F)c4ccc([nH]4)c(-c4c(F)cccc4F)c4nc(c(-c5c(F)cccc5F)c5ccc2[nH]5)C=C4)C=C3)cc1)c1ccc(-c2ccc3[nH]ccc3c2)cc1
REMARK SMILES IDX 7 1 6 2 5 3 3 4 4 5 2 7 1 8 67 9 68 10 81 11 69 12 80 13
REMARK SMILES IDX 70 14 71 15 72 16 79 17 73 18 78 19 74 20 77 21 75 22 76 23
REMARK SMILES IDX 8 25 9 26 10 27 11 28 12 30 13 31 14 32 66 33 15 34 65 35
REMARK SMILES IDX 16 36 17 37 18 38 59 39 19 40 64 41 58 42 60 43 20 44 63 45
REMARK SMILES IDX 57 46 56 47 21 49 47 50 30 51 46 52 31 53 34 54 45 55 61 56
REMARK SMILES IDX 32 57 33 58 44 60 62 61 35 62 22 63 23 64 28 65 24 66 25 67
REMARK SMILES IDX 27 68 29 69 26 70 48 71 49 72 54 73 50 74 51 75 53 76 55 77
REMARK SMILES IDX 52 78 36 79 37 80 42 81 38 82 39 83 41 84 43 85 40 86
REMARK H PARENT 5 6 75 24 10 29 60 48 34 59
REMARK Flexibility Score: inf
ROOT
ATOM      1  C   UNL A   1      31.451  30.710  26.759  1.00  0.00     0.023 C 
ENDROOT
BRANCH   1   2
ATOM      2  C   UNL A   1      32.403  30.104  25.727  1.00  0.00     0.116 C 
BRANCH   2   3
ATOM      3  N   UNL A   1      31.657  29.480  24.657  1.00  0.00    -0.356 N 
ATOM      4  C   UNL A   1      32.105  28.740  23.602  1.00  0.00     0.227 C 
ATOM      5  O   UNL A   1      31.281  28.477  22.724  1.00  0.00    -0.274 OA
ATOM      6  H   UNL A   1      30.681  29.608  24.695  1.00  0.00     0.163 HD
BRANCH   4   7
ATOM      7  C   UNL A   1      33.560  28.243  23.581  1.00  0.00     0.105 C 
ATOM      8  C   UNL A   1      34.292  28.588  22.277  1.00  0.00     0.023 C 
BRANCH   7   9
ATOM      9  C   UNL A   1      33.637  26.745  23.847  1.00  0.00    -0.036 A 
ATOM     10  C   UNL A   1      33.572  25.825  22.792  1.00  0.00     0.005 A 
ATOM     11  C   UNL A   1      33.759  26.263  25.158  1.00  0.00     0.005 A 
ATOM     12  C   UNL A   1      33.698  24.461  23.034  1.00  0.00     0.009 A 
ATOM     13  C   UNL A   1      33.876  24.891  25.400  1.00  0.00     0.009 A 
ATOM     14  C   UNL A   1      33.874  23.981  24.337  1.00  0.00    -0.018 A 
BRANCH  14  15
ATOM     15  C   UNL A   1      34.099  22.553  24.547  1.00  0.00    -0.018 A 
ATOM     16  C   UNL A   1      35.384  22.100  24.876  1.00  0.00     0.011 A 
ATOM     17  C   UNL A   1      33.066  21.622  24.344  1.00  0.00     0.019 A 
ATOM     18  C   UNL A   1      35.672  20.742  25.026  1.00  0.00     0.027 A 
ATOM     19  C   UNL A   1      33.343  20.245  24.441  1.00  0.00    -0.000 A 
ATOM     20  C   UNL A   1      34.631  19.841  24.796  1.00  0.00     0.045 A 
ATOM     21  C   UNL A   1      32.583  19.066  24.211  1.00  0.00     0.028 A 
ATOM     22  N   UNL A   1      34.622  18.466  24.847  1.00  0.00    -0.361 N 
ATOM     23  C   UNL A   1      33.405  17.986  24.444  1.00  0.00     0.083 A 
ATOM     24  H   UNL A   1      35.382  17.908  25.131  1.00  0.00     0.166 HD
ENDBRANCH  14  15
ENDBRANCH   7   9
ENDBRANCH   4   7
ENDBRANCH   2   3
ENDBRANCH   1   2
BRANCH   1  25
ATOM     25  C   UNL A   1      31.374  32.238  26.721  1.00  0.00     0.023 C 
BRANCH  25  26
ATOM     26  C   UNL A   1      32.640  32.952  27.174  1.00  0.00     0.116 C 
BRANCH  26  27
ATOM     27  N   UNL A   1      32.381  34.299  27.655  1.00  0.00    -0.352 N 
ATOM     28  C   UNL A   1      33.016  34.996  28.653  1.00  0.00     0.251 C 
ATOM     29  H   UNL A   1      31.649  34.777  27.203  1.00  0.00     0.163 HD
ATOM     30  O   UNL A   1      32.569  36.070  29.036  1.00  0.00    -0.269 OA
BRANCH  28  31
ATOM     31  C   UNL A   1      34.224  34.425  29.284  1.00  0.00     0.039 A 
ATOM     32  C   UNL A   1      34.082  33.673  30.451  1.00  0.00     0.014 A 
ATOM     33  C   UNL A   1      35.488  34.618  28.719  1.00  0.00     0.014 A 
ATOM     34  C   UNL A   1      35.201  33.065  31.020  1.00  0.00     0.010 A 
ATOM     35  C   UNL A   1      36.587  33.945  29.240  1.00  0.00     0.010 A 
ATOM     36  C   UNL A   1      36.458  33.168  30.400  1.00  0.00    -0.014 A 
BRANCH  36  37
ATOM     37  C   UNL A   1      37.644  32.471  30.957  1.00  0.00     0.031 A 
ATOM     38  C   UNL A   1      38.296  32.975  32.215  1.00  0.00     0.074 A 
ATOM     39  C   UNL A   1      38.167  31.417  30.300  1.00  0.00     0.049 A 
ATOM     40  N   UNL A   1      39.361  32.527  32.830  1.00  0.00    -0.248 NA
ATOM     41  C   UNL A   1      37.686  34.152  32.854  1.00  0.00     0.031 C 
ATOM     42  C   UNL A   1      37.656  30.864  29.045  1.00  0.00     0.029 A 
ATOM     43  N   UNL A   1      39.248  30.625  30.597  1.00  0.00    -0.354 N 
ATOM     44  C   UNL A   1      39.553  33.371  33.917  1.00  0.00     0.074 A 
ATOM     45  C   UNL A   1      38.532  34.393  33.843  1.00  0.00     0.031 C 
ATOM     46  C   UNL A   1      38.405  29.806  28.694  1.00  0.00     0.029 A 
ATOM     47  C   UNL A   1      39.471  29.631  29.675  1.00  0.00     0.049 A 
ATOM     48  H   UNL A   1      39.810  30.756  31.394  1.00  0.00     0.167 HD
ATOM     49  C   UNL A   1      40.479  33.288  34.902  1.00  0.00     0.037 A 
ATOM     50  C   UNL A   1      40.432  28.689  29.623  1.00  0.00     0.037 A 
ATOM     51  C   UNL A   1      41.484  32.259  34.980  1.00  0.00     0.049 A 
ATOM     52  C   UNL A   1      41.459  28.628  30.719  1.00  0.00     0.074 A 
ATOM     53  C   UNL A   1      42.433  32.056  35.967  1.00  0.00     0.029 A 
ATOM     54  N   UNL A   1      41.674  31.265  34.032  1.00  0.00    -0.354 N 
ATOM     55  N   UNL A   1      41.583  29.388  31.781  1.00  0.00    -0.248 NA
ATOM     56  C   UNL A   1      42.476  27.572  30.615  1.00  0.00     0.031 C 
ATOM     57  C   UNL A   1      43.232  30.972  35.587  1.00  0.00     0.029 A 
ATOM     58  C   UNL A   1      42.741  30.461  34.396  1.00  0.00     0.049 A 
ATOM     59  H   UNL A   1      41.130  31.148  33.219  1.00  0.00     0.167 HD
ATOM     60  C   UNL A   1      42.669  28.884  32.485  1.00  0.00     0.074 A 
ATOM     61  C   UNL A   1      43.158  27.743  31.738  1.00  0.00     0.031 C 
ATOM     62  C   UNL A   1      43.213  29.324  33.647  1.00  0.00     0.037 A 
BRANCH  49  63
ATOM     63  C   UNL A   1      40.447  34.339  35.975  1.00  0.00     0.057 A 
ATOM     64  C   UNL A   1      41.122  35.560  35.835  1.00  0.00     0.134 A 
ATOM     65  C   UNL A   1      39.704  34.144  37.146  1.00  0.00     0.134 A 
ATOM     66  F   UNL A   1      41.862  35.807  34.744  1.00  0.00    -0.206 F 
ATOM     67  C   UNL A   1      41.084  36.534  36.835  1.00  0.00     0.040 A 
ATOM     68  C   UNL A   1      39.632  35.124  38.137  1.00  0.00     0.040 A 
ATOM     69  F   UNL A   1      39.027  33.002  37.342  1.00  0.00    -0.206 F 
ATOM     70  C   UNL A   1      40.331  36.320  37.987  1.00  0.00     0.006 A 
ENDBRANCH  49  63
BRANCH  50  71
ATOM     71  C   UNL A   1      40.457  27.711  28.505  1.00  0.00     0.057 A 
ATOM     72  C   UNL A   1      41.149  27.986  27.318  1.00  0.00     0.134 A 
ATOM     73  C   UNL A   1      39.782  26.488  28.586  1.00  0.00     0.134 A 
ATOM     74  F   UNL A   1      41.801  29.150  27.172  1.00  0.00    -0.206 F 
ATOM     75  C   UNL A   1      41.147  27.093  26.246  1.00  0.00     0.040 A 
ATOM     76  C   UNL A   1      39.795  25.573  27.533  1.00  0.00     0.040 A 
ATOM     77  F   UNL A   1      39.108  26.159  29.698  1.00  0.00    -0.206 F 
ATOM     78  C   UNL A   1      40.471  25.879  26.354  1.00  0.00     0.006 A 
ENDBRANCH  50  71
BRANCH  62  79
ATOM     79  C   UNL A   1      44.370  28.546  34.205  1.00  0.00     0.057 A 
ATOM     80  C   UNL A   1      45.699  28.896  33.939  1.00  0.00     0.134 A 
ATOM     81  C   UNL A   1      44.147  27.448  35.046  1.00  0.00     0.134 A 
ATOM     82  F   UNL A   1      45.983  29.929  33.133  1.00  0.00    -0.206 F 
ATOM     83  C   UNL A   1      46.765  28.164  34.467  1.00  0.00     0.040 A 
ATOM     84  C   UNL A   1      45.204  26.728  35.605  1.00  0.00     0.040 A 
ATOM     85  F   UNL A   1      42.897  27.064  35.350  1.00  0.00    -0.206 F 
ATOM     86  C   UNL A   1      46.518  27.081  35.309  1.00  0.00     0.006 A 
ENDBRANCH  62  79
ENDBRANCH  36  37
ENDBRANCH  28  31
ENDBRANCH  26  27
ENDBRANCH  25  26
ENDBRANCH   1  25
TORSDOF 13
ENDMDL
MODEL 2
REMARK VINA RESULT:     -12.5      0.799      6.227
REMARK SMILES C[C@@H](C(=O)NCCCCNC(=O)c1ccc(-c2c3nc(c(-c4c(F)cccc4F)c4ccc([nH]4)c(-c4c(F)cccc4F)c4nc(c(-c5c(F)cccc5F)c5ccc2[nH]5)C=C4)C=C3)cc1)c1ccc(-c2ccc3[nH]ccc3c2)cc1
REMARK SMILES IDX 7 1 6 2 5 3 3 4 4 5 2 7 1 8 67 9 68 10 81 11 69 12 80 13
REMARK SMILES IDX 70 14 71 15 72 16 79 17 73 18 78 19 74 20 77 21 75 22 76 23
REMARK SMILES IDX 8 25 9 26 10 27 11 28 12 30 13 31 14 32 66 33 15 34 65 35
REMARK SMILES IDX 16 36 17 37 18 38 59 39 19 40 64 41 58 42 60 43 20 44 63 45
REMARK SMILES IDX 57 46 56 47 21 49 47 50 30 51 46 52 31 53 34 54 45 55 61 56
REMARK SMILES IDX 32 57 33 58 44 60 62 61 35 62 22 63 23 64 28 65 24 66 25 67
REMARK SMILES IDX 27 68 29 69 26 70 48 71 49 72 54 73 50 74 51 75 53 76 55 77
REMARK SMILES IDX 52 78 36 79 37 80 42 81 38 82 39 83 41 84 43 85 40 86
REMARK H PARENT 5 6 75 24 10 29 60 48 34 59
REMARK Flexibility Score: inf
ROOT
ATOM      1  C   UNL A   1      31.682  30.553  26.740  1.00  0.00     0.023 C 
ENDROOT
BRANCH   1   2
ATOM      2  C   UNL A   1      32.335  30.070  25.444  1.00  0.00     0.116 C 
BRANCH   2   3
ATOM      3  N   UNL A   1      31.521  29.053  24.816  1.00  0.00    -0.356 N 
ATOM      4  C   UNL A   1      31.881  28.066  23.948  1.00  0.00     0.227 C 
ATOM      5  O   UNL A   1      30.964  27.441  23.412  1.00  0.00    -0.274 OA
ATOM      6  H   UNL A   1      30.565  29.077  25.052  1.00  0.00     0.163 HD
BRANCH   4   7
ATOM      7  C   UNL A   1      33.370  27.754  23.720  1.00  0.00     0.105 C 
ATOM      8  C   UNL A   1      33.879  28.232  22.353  1.00  0.00     0.023 C 
BRANCH   7   9
ATOM      9  C   UNL A   1      33.660  26.270  23.899  1.00  0.00    -0.036 A 
ATOM     10  C   UNL A   1      33.953  25.744  25.165  1.00  0.00     0.005 A 
ATOM     11  C   UNL A   1      33.654  25.408  22.793  1.00  0.00     0.005 A 
ATOM     12  C   UNL A   1      34.163  24.379  25.333  1.00  0.00     0.009 A 
ATOM     13  C   UNL A   1      33.875  24.038  22.963  1.00  0.00     0.009 A 
ATOM     14  C   UNL A   1      34.104  23.509  24.238  1.00  0.00    -0.018 A 
BRANCH  14  15
ATOM     15  C   UNL A   1      34.235  22.071  24.462  1.00  0.00    -0.018 A 
ATOM     16  C   UNL A   1      35.480  21.544  24.834  1.00  0.00     0.011 A 
ATOM     17  C   UNL A   1      33.155  21.203  24.232  1.00  0.00     0.019 A 
ATOM     18  C   UNL A   1      35.681  20.172  25.000  1.00  0.00     0.027 A 
ATOM     19  C   UNL A   1      33.346  19.813  24.345  1.00  0.00    -0.000 A 
ATOM     20  C   UNL A   1      34.594  19.334  24.743  1.00  0.00     0.045 A 
ATOM     21  C   UNL A   1      32.523  18.679  24.098  1.00  0.00     0.028 A 
ATOM     22  N   UNL A   1      34.501  17.962  24.800  1.00  0.00    -0.361 N 
ATOM     23  C   UNL A   1      33.270  17.554  24.362  1.00  0.00     0.083 A 
ATOM     24  H   UNL A   1      35.217  17.362  25.111  1.00  0.00     0.166 HD
ENDBRANCH  14  15
ENDBRANCH   7   9
ENDBRANCH   4   7
ENDBRANCH   2   3
ENDBRANCH   1   2
BRANCH   1  25
ATOM     25  C   UNL A   1      31.496  32.070  26.822  1.00  0.00     0.023 C 
BRANCH  25  26
ATOM     26  C   UNL A   1      32.742  32.845  27.225  1.00  0.00     0.116 C 
BRANCH  26  27
ATOM     27  N   UNL A   1      32.446  34.211  27.627  1.00  0.00    -0.352 N 
ATOM     28  C   UNL A   1      33.005  34.953  28.637  1.00  0.00     0.251 C 
ATOM     29  H   UNL A   1      31.749  34.665  27.101  1.00  0.00     0.163 HD
ATOM     30  O   UNL A   1      32.529  36.041  28.939  1.00  0.00    -0.269 OA
BRANCH  28  31
ATOM     31  C   UNL A   1      34.164  34.416  29.379  1.00  0.00     0.039 A 
ATOM     32  C   UNL A   1      33.946  33.802  30.614  1.00  0.00     0.014 A 
ATOM     33  C   UNL A   1      35.456  34.503  28.854  1.00  0.00     0.014 A 
ATOM     34  C   UNL A   1      35.017  33.225  31.295  1.00  0.00     0.010 A 
ATOM     35  C   UNL A   1      36.507  33.856  29.494  1.00  0.00     0.010 A 
ATOM     36  C   UNL A   1      36.302  33.216  30.724  1.00  0.00    -0.014 A 
BRANCH  36  37
ATOM     37  C   UNL A   1      37.437  32.547  31.406  1.00  0.00     0.031 A 
ATOM     38  C   UNL A   1      38.145  31.396  30.745  1.00  0.00     0.074 A 
ATOM     39  C   UNL A   1      37.796  32.940  32.644  1.00  0.00     0.049 A 
ATOM     40  N   UNL A   1      39.128  30.661  31.199  1.00  0.00    -0.248 NA
ATOM     41  C   UNL A   1      37.671  31.004  29.409  1.00  0.00     0.031 C 
ATOM     42  C   UNL A   1      37.156  34.010  33.411  1.00  0.00     0.029 A 
ATOM     43  N   UNL A   1      38.786  32.481  33.476  1.00  0.00    -0.354 N 
ATOM     44  C   UNL A   1      39.380  29.717  30.211  1.00  0.00     0.074 A 
ATOM     45  C   UNL A   1      38.409  29.933  29.162  1.00  0.00     0.031 C 
ATOM     46  C   UNL A   1      37.788  34.145  34.589  1.00  0.00     0.029 A 
ATOM     47  C   UNL A   1      38.847  33.146  34.677  1.00  0.00     0.049 A 
ATOM     48  H   UNL A   1      39.395  31.746  33.236  1.00  0.00     0.167 HD
ATOM     49  C   UNL A   1      40.350  28.771  30.170  1.00  0.00     0.037 A 
ATOM     50  C   UNL A   1      39.663  32.966  35.734  1.00  0.00     0.037 A 
ATOM     51  C   UNL A   1      41.325  28.569  31.210  1.00  0.00     0.049 A 
ATOM     52  C   UNL A   1      40.720  31.898  35.670  1.00  0.00     0.074 A 
ATOM     53  C   UNL A   1      42.381  27.675  31.239  1.00  0.00     0.029 A 
ATOM     54  N   UNL A   1      41.360  29.267  32.408  1.00  0.00    -0.354 N 
ATOM     55  N   UNL A   1      40.995  31.061  34.698  1.00  0.00    -0.248 NA
ATOM     56  C   UNL A   1      41.587  31.755  36.848  1.00  0.00     0.031 C 
ATOM     57  C   UNL A   1      43.021  27.794  32.477  1.00  0.00     0.029 A 
ATOM     58  C   UNL A   1      42.403  28.806  33.194  1.00  0.00     0.049 A 
ATOM     59  H   UNL A   1      40.735  29.985  32.663  1.00  0.00     0.167 HD
ATOM     60  C   UNL A   1      42.083  30.317  35.134  1.00  0.00     0.074 A 
ATOM     61  C   UNL A   1      42.428  30.812  36.451  1.00  0.00     0.031 C 
ATOM     62  C   UNL A   1      42.739  29.313  34.501  1.00  0.00     0.037 A 
BRANCH  49  63
ATOM     63  C   UNL A   1      40.402  27.884  28.959  1.00  0.00     0.057 A 
ATOM     64  C   UNL A   1      39.658  26.698  28.878  1.00  0.00     0.134 A 
ATOM     65  C   UNL A   1      41.176  28.236  27.847  1.00  0.00     0.134 A 
ATOM     66  F   UNL A   1      38.904  26.296  29.912  1.00  0.00    -0.206 F 
ATOM     67  C   UNL A   1      39.708  25.880  27.747  1.00  0.00     0.040 A 
ATOM     68  C   UNL A   1      41.209  27.443  26.698  1.00  0.00     0.040 A 
ATOM     69  F   UNL A   1      41.907  29.361  27.853  1.00  0.00    -0.206 F 
ATOM     70  C   UNL A   1      40.480  26.256  26.650  1.00  0.00     0.006 A 
ENDBRANCH  49  63
BRANCH  50  71
ATOM     71  C   UNL A   1      39.528  33.829  36.935  1.00  0.00     0.057 A 
ATOM     72  C   UNL A   1      40.286  34.999  37.075  1.00  0.00     0.134 A 
ATOM     73  C   UNL A   1      38.654  33.502  37.978  1.00  0.00     0.134 A 
ATOM     74  F   UNL A   1      41.156  35.357  36.118  1.00  0.00    -0.206 F 
ATOM     75  C   UNL A   1      40.198  35.796  38.217  1.00  0.00     0.040 A 
ATOM     76  C   UNL A   1      38.533  34.305  39.112  1.00  0.00     0.040 A 
ATOM     77  F   UNL A   1      37.893  32.400  37.902  1.00  0.00    -0.206 F 
ATOM     78  C   UNL A   1      39.315  35.451  39.239  1.00  0.00     0.006 A 
ENDBRANCH  50  71
BRANCH  62  79
ATOM     79  C   UNL A   1      43.924  28.713  35.203  1.00  0.00     0.057 A 
ATOM     80  C   UNL A   1      45.222  29.206  35.025  1.00  0.00     0.134 A 
ATOM     81  C   UNL A   1      43.755  27.647  36.096  1.00  0.00     0.134 A 
ATOM     82  F   UNL A   1      45.456  30.217  34.176  1.00  0.00    -0.206 F 
ATOM     83  C   UNL A   1      46.314  28.640  35.687  1.00  0.00     0.040 A 
ATOM     84  C   UNL A   1      44.833  27.094  36.788  1.00  0.00     0.040 A 
ATOM     85  F   UNL A   1      42.536  27.132  36.322  1.00  0.00    -0.206 F 
ATOM     86  C   UNL A   1      46.119  27.585  36.577  1.00  0.00     0.006 A 
ENDBRANCH  62  79
ENDBRANCH  36  37
ENDBRANCH  28  31
ENDBRANCH  26  27
ENDBRANCH  25  26
ENDBRANCH   1  25
TORSDOF 13
ENDMDL
MODEL 3
REMARK VINA RESULT:     -12.5      4.327      9.385
REMARK SMILES C[C@@H](C(=O)NCCCCNC(=O)c1ccc(-c2c3nc(c(-c4c(F)cccc4F)c4ccc([nH]4)c(-c4c(F)cccc4F)c4nc(c(-c5c(F)cccc5F)c5ccc2[nH]5)C=C4)C=C3)cc1)c1ccc(-c2ccc3[nH]ccc3c2)cc1
REMARK SMILES IDX 7 1 6 2 5 3 3 4 4 5 2 7 1 8 67 9 68 10 81 11 69 12 80 13
REMARK SMILES IDX 70 14 71 15 72 16 79 17 73 18 78 19 74 20 77 21 75 22 76 23
REMARK SMILES IDX 8 25 9 26 10 27 11 28 12 30 13 31 14 32 66 33 15 34 65 35
REMARK SMILES IDX 16 36 17 37 18 38 59 39 19 40 64 41 58 42 60 43 20 44 63 45
REMARK SMILES IDX 57 46 56 47 21 49 47 50 30 51 46 52 31 53 34 54 45 55 61 56
REMARK SMILES IDX 32 57 33 58 44 60 62 61 35 62 22 63 23 64 28 65 24 66 25 67
REMARK SMILES IDX 27 68 29 69 26 70 48 71 49 72 54 73 50 74 51 75 53 76 55 77
REMARK SMILES IDX 52 78 36 79 37 80 42 81 38 82 39 83 41 84 43 85 40 86
REMARK H PARENT 5 6 75 24 10 29 60 48 34 59
REMARK Flexibility Score: inf
ROOT
ATOM      1  C   UNL A   1      36.478  19.451  25.000  1.00  0.00     0.023 C 
ENDROOT
BRANCH   1   2
ATOM      2  C   UNL A   1      35.104  20.076  24.749  1.00  0.00     0.116 C 
BRANCH   2   3
ATOM      3  N   UNL A   1      34.634  20.752  25.938  1.00  0.00    -0.356 N 
ATOM      4  C   UNL A   1      34.762  22.060  26.301  1.00  0.00     0.227 C 
ATOM      5  O   UNL A   1      34.433  22.347  27.453  1.00  0.00    -0.274 OA
ATOM      6  H   UNL A   1      34.148  20.184  26.580  1.00  0.00     0.163 HD
BRANCH   4   7
ATOM      7  C   UNL A   1      35.251  23.094  25.273  1.00  0.00     0.105 C 
ATOM      8  C   UNL A   1      36.462  23.901  25.764  1.00  0.00     0.023 C 
BRANCH   7   9
ATOM      9  C   UNL A   1      34.128  24.033  24.854  1.00  0.00    -0.036 A 
ATOM     10  C   UNL A   1      33.158  23.624  23.929  1.00  0.00     0.005 A 
ATOM     11  C   UNL A   1      34.058  25.332  25.378  1.00  0.00     0.005 A 
ATOM     12  C   UNL A   1      32.104  24.466  23.590  1.00  0.00     0.009 A 
ATOM     13  C   UNL A   1      33.002  26.180  25.028  1.00  0.00     0.009 A 
ATOM     14  C   UNL A   1      32.002  25.743  24.154  1.00  0.00    -0.018 A 
BRANCH  14  15
ATOM     15  C   UNL A   1      30.833  26.565  23.851  1.00  0.00    -0.018 A 
ATOM     16  C   UNL A   1      29.552  26.077  24.151  1.00  0.00     0.011 A 
ATOM     17  C   UNL A   1      30.968  27.798  23.191  1.00  0.00     0.019 A 
ATOM     18  C   UNL A   1      28.396  26.789  23.827  1.00  0.00     0.027 A 
ATOM     19  C   UNL A   1      29.815  28.510  22.809  1.00  0.00    -0.000 A 
ATOM     20  C   UNL A   1      28.563  28.000  23.151  1.00  0.00     0.045 A 
ATOM     21  C   UNL A   1      29.592  29.703  22.067  1.00  0.00     0.028 A 
ATOM     22  N   UNL A   1      27.623  28.894  22.692  1.00  0.00    -0.361 N 
ATOM     23  C   UNL A   1      28.231  29.899  21.989  1.00  0.00     0.083 A 
ATOM     24  H   UNL A   1      26.653  28.820  22.845  1.00  0.00     0.166 HD
ENDBRANCH  14  15
ENDBRANCH   7   9
ENDBRANCH   4   7
ENDBRANCH   2   3
ENDBRANCH   1   2
BRANCH   1  25
ATOM     25  C   UNL A   1      37.656  20.351  24.616  1.00  0.00     0.023 C 
BRANCH  25  26
ATOM     26  C   UNL A   1      38.686  20.556  25.718  1.00  0.00     0.116 C 
BRANCH  26  27
ATOM     27  N   UNL A   1      39.711  19.525  25.724  1.00  0.00    -0.352 N 
ATOM     28  C   UNL A   1      41.042  19.634  26.045  1.00  0.00     0.251 C 
ATOM     29  H   UNL A   1      39.410  18.627  25.460  1.00  0.00     0.163 HD
ATOM     30  O   UNL A   1      41.803  18.694  25.849  1.00  0.00    -0.269 OA
BRANCH  28  31
ATOM     31  C   UNL A   1      41.555  20.902  26.602  1.00  0.00     0.039 A 
ATOM     32  C   UNL A   1      42.066  21.862  25.726  1.00  0.00     0.014 A 
ATOM     33  C   UNL A   1      41.518  21.150  27.977  1.00  0.00     0.014 A 
ATOM     34  C   UNL A   1      42.487  23.095  26.225  1.00  0.00     0.010 A 
ATOM     35  C   UNL A   1      41.861  22.408  28.461  1.00  0.00     0.010 A 
ATOM     36  C   UNL A   1      42.356  23.391  27.592  1.00  0.00    -0.014 A 
BRANCH  36  37
ATOM     37  C   UNL A   1      42.738  24.723  28.126  1.00  0.00     0.031 A 
ATOM     38  C   UNL A   1      41.691  25.782  28.336  1.00  0.00     0.074 A 
ATOM     39  C   UNL A   1      44.034  24.996  28.371  1.00  0.00     0.049 A 
ATOM     40  N   UNL A   1      41.836  27.015  28.753  1.00  0.00    -0.248 NA
ATOM     41  C   UNL A   1      40.303  25.418  28.012  1.00  0.00     0.031 C 
ATOM     42  C   UNL A   1      45.149  24.069  28.161  1.00  0.00     0.029 A 
ATOM     43  N   UNL A   1      44.634  26.134  28.846  1.00  0.00    -0.354 N 
ATOM     44  C   UNL A   1      40.563  27.572  28.731  1.00  0.00     0.074 A 
ATOM     45  C   UNL A   1      39.670  26.565  28.203  1.00  0.00     0.031 C 
ATOM     46  C   UNL A   1      46.292  24.666  28.532  1.00  0.00     0.029 A 
ATOM     47  C   UNL A   1      45.999  26.028  28.967  1.00  0.00     0.049 A 
ATOM     48  H   UNL A   1      44.135  26.950  29.079  1.00  0.00     0.167 HD
ATOM     49  C   UNL A   1      40.169  28.802  29.138  1.00  0.00     0.037 A 
ATOM     50  C   UNL A   1      46.912  26.930  29.376  1.00  0.00     0.037 A 
ATOM     51  C   UNL A   1      41.060  29.797  29.678  1.00  0.00     0.049 A 
ATOM     52  C   UNL A   1      46.451  28.295  29.806  1.00  0.00     0.074 A 
ATOM     53  C   UNL A   1      40.751  31.054  30.170  1.00  0.00     0.029 A 
ATOM     54  N   UNL A   1      42.435  29.650  29.792  1.00  0.00    -0.354 N 
ATOM     55  N   UNL A   1      45.235  28.784  29.850  1.00  0.00    -0.248 NA
ATOM     56  C   UNL A   1      47.491  29.233  30.253  1.00  0.00     0.031 C 
ATOM     57  C   UNL A   1      41.945  31.688  30.530  1.00  0.00     0.029 A 
ATOM     58  C   UNL A   1      42.991  30.803  30.322  1.00  0.00     0.049 A 
ATOM     59  H   UNL A   1      42.940  28.845  29.535  1.00  0.00     0.167 HD
ATOM     60  C   UNL A   1      45.360  30.070  30.358  1.00  0.00     0.074 A 
ATOM     61  C   UNL A   1      46.768  30.281  30.622  1.00  0.00     0.031 C 
ATOM     62  C   UNL A   1      44.395  30.996  30.586  1.00  0.00     0.037 A 
BRANCH  49  63
ATOM     63  C   UNL A   1      38.711  29.141  29.014  1.00  0.00     0.057 A 
ATOM     64  C   UNL A   1      37.834  29.047  30.104  1.00  0.00     0.134 A 
ATOM     65  C   UNL A   1      38.183  29.598  27.800  1.00  0.00     0.134 A 
ATOM     66  F   UNL A   1      38.271  28.606  31.293  1.00  0.00    -0.206 F 
ATOM     67  C   UNL A   1      36.480  29.368  29.982  1.00  0.00     0.040 A 
ATOM     68  C   UNL A   1      36.839  29.951  27.674  1.00  0.00     0.040 A 
ATOM     69  F   UNL A   1      38.967  29.718  26.718  1.00  0.00    -0.206 F 
ATOM     70  C   UNL A   1      35.981  29.828  28.766  1.00  0.00     0.006 A 
ENDBRANCH  49  63
BRANCH  50  71
ATOM     71  C   UNL A   1      48.351  26.566  29.420  1.00  0.00     0.057 A 
ATOM     72  C   UNL A   1      49.199  26.835  28.337  1.00  0.00     0.134 A 
ATOM     73  C   UNL A   1      48.913  25.929  30.532  1.00  0.00     0.134 A 
ATOM     74  F   UNL A   1      48.717  27.428  27.234  1.00  0.00    -0.206 F 
ATOM     75  C   UNL A   1      50.544  26.463  28.350  1.00  0.00     0.040 A 
ATOM     76  C   UNL A   1      50.262  25.577  30.571  1.00  0.00     0.040 A 
ATOM     77  F   UNL A   1      48.158  25.651  31.606  1.00  0.00    -0.206 F 
ATOM     78  C   UNL A   1      51.080  25.834  29.473  1.00  0.00     0.006 A 
ENDBRANCH  50  71
BRANCH  62  79
ATOM     79  C   UNL A   1      44.823  32.303  31.190  1.00  0.00     0.057 A 
ATOM     80  C   UNL A   1      44.855  32.507  32.575  1.00  0.00     0.134 A 
ATOM     81  C   UNL A   1      45.238  33.361  30.371  1.00  0.00     0.134 A 
ATOM     82  F   UNL A   1      44.460  31.539  33.415  1.00  0.00    -0.206 F 
ATOM     83  C   UNL A   1      45.258  33.726  33.123  1.00  0.00     0.040 A 
ATOM     84  C   UNL A   1      45.673  34.574  30.908  1.00  0.00     0.040 A 
ATOM     85  F   UNL A   1      45.242  33.230  29.036  1.00  0.00    -0.206 F 
ATOM     86  C   UNL A   1      45.675  34.762  32.288  1.00  0.00     0.006 A 
ENDBRANCH  62  79
ENDBRANCH  36  37
ENDBRANCH  28  31
ENDBRANCH  26  27
ENDBRANCH  25  26
ENDBRANCH   1  25
TORSDOF 13
ENDMDL
