MODEL 1
REMARK VINA RESULT:     -12.5      0.000      0.000
REMARK SMILES C[C@@H]1Cc2ccccc2N1S(=O)(=O)c1cccc(C(=O)NCCCCNC(=O)c2ccc(-c3c4nc(c(-c5c(F)cccc5F)c5ccc([nH]5)c(-c5c(F)cccc5F)c5nc(c(-c6c(F)cccc6F)c6ccc3[nH]6)C=C5)C=C4)cc2)c1
REMARK SMILES IDX 23 1 22 2 21 3 19 4 20 5 18 7 14 8 15 9 83 10 16 11 17 12
REMARK SMILES IDX 11 13 12 14 13 15 10 16 1 17 2 18 3 19 4 20 9 21 5 22 8 23
REMARK SMILES IDX 6 24 7 25 24 26 25 27 26 28 27 29 28 31 29 32 30 33 82 34
REMARK SMILES IDX 31 35 81 36 32 37 33 38 34 39 75 40 35 41 80 42 74 43 76 44
REMARK SMILES IDX 36 45 79 46 73 47 72 48 37 50 63 51 46 52 62 53 47 54 50 55
REMARK SMILES IDX 61 56 77 57 48 58 49 59 60 61 78 62 51 63 38 64 39 65 44 66
REMARK SMILES IDX 40 67 41 68 43 69 45 70 42 71 64 72 65 73 70 74 66 75 67 76
REMARK SMILES IDX 69 77 71 78 68 79 52 80 53 81 58 82 54 83 55 84 57 85 59 86
REMARK SMILES IDX 56 87
REMARK H PARENT 21 6 26 30 76 49 50 60
REMARK Flexibility Score: inf
ROOT
ATOM      1  C   UNL A   1      30.273  31.906  24.938  1.00  0.00     0.023 C 
ENDROOT
BRANCH   1   2
ATOM      2  C   UNL A   1      30.285  30.537  24.275  1.00  0.00     0.116 C 
BRANCH   2   3
ATOM      3  N   UNL A   1      29.061  30.158  23.588  1.00  0.00    -0.352 N 
ATOM      4  C   UNL A   1      28.625  28.937  23.117  1.00  0.00     0.251 C 
ATOM      5  O   UNL A   1      27.505  28.881  22.611  1.00  0.00    -0.269 OA
ATOM      6  H   UNL A   1      28.435  30.901  23.432  1.00  0.00     0.163 HD
BRANCH   4   7
ATOM      7  C   UNL A   1      29.485  27.714  23.108  1.00  0.00     0.041 A 
ATOM      8  C   UNL A   1      30.416  25.774  24.184  1.00  0.00     0.088 A 
ATOM      9  C   UNL A   1      31.432  25.688  23.230  1.00  0.00     0.022 A 
ATOM     10  C   UNL A   1      29.366  26.678  24.033  1.00  0.00     0.036 A 
ATOM     11  C   UNL A   1      31.473  26.623  22.201  1.00  0.00     0.002 A 
ATOM     12  C   UNL A   1      30.531  27.658  22.168  1.00  0.00     0.014 A 
BRANCH   8  13
ATOM     13  S   UNL A   1      30.529  24.800  25.664  1.00  0.00     0.264 S 
ATOM     14  O   UNL A   1      30.645  23.420  25.249  1.00  0.00    -0.201 OA
ATOM     15  O   UNL A   1      29.437  25.213  26.531  1.00  0.00    -0.201 OA
BRANCH  13  16
ATOM     16  N   UNL A   1      31.993  25.264  26.471  1.00  0.00    -0.263 N 
ATOM     17  C   UNL A   1      33.638  23.391  26.694  1.00  0.00     0.032 C 
ATOM     18  C   UNL A   1      33.202  24.570  25.837  1.00  0.00     0.101 C 
ATOM     19  C   UNL A   1      34.315  25.632  25.691  1.00  0.00     0.063 C 
ATOM     20  C   UNL A   1      33.635  26.894  26.096  1.00  0.00    -0.021 A 
ATOM     21  C   UNL A   1      32.352  26.654  26.572  1.00  0.00     0.055 A 
ATOM     22  C   UNL A   1      34.192  28.168  26.115  1.00  0.00     0.006 A 
ATOM     23  C   UNL A   1      31.670  27.667  27.225  1.00  0.00     0.027 A 
ATOM     24  C   UNL A   1      33.452  29.214  26.665  1.00  0.00     0.000 A 
ATOM     25  C   UNL A   1      32.202  28.960  27.238  1.00  0.00     0.002 A 
ENDBRANCH  13  16
ENDBRANCH   8  13
ENDBRANCH   4   7
ENDBRANCH   2   3
ENDBRANCH   1   2
BRANCH   1  26
ATOM     26  C   UNL A   1      30.803  31.982  26.358  1.00  0.00     0.023 C 
BRANCH  26  27
ATOM     27  C   UNL A   1      32.166  32.636  26.521  1.00  0.00     0.116 C 
BRANCH  27  28
ATOM     28  N   UNL A   1      32.165  33.826  27.366  1.00  0.00    -0.352 N 
ATOM     29  C   UNL A   1      33.090  34.252  28.295  1.00  0.00     0.251 C 
ATOM     30  H   UNL A   1      31.384  34.415  27.254  1.00  0.00     0.163 HD
ATOM     31  O   UNL A   1      32.881  35.254  28.970  1.00  0.00    -0.269 OA
BRANCH  29  32
ATOM     32  C   UNL A   1      34.313  33.453  28.518  1.00  0.00     0.039 A 
ATOM     33  C   UNL A   1      34.219  32.112  28.883  1.00  0.00     0.014 A 
ATOM     34  C   UNL A   1      35.560  34.082  28.461  1.00  0.00     0.014 A 
ATOM     35  C   UNL A   1      35.322  31.482  29.443  1.00  0.00     0.010 A 
ATOM     36  C   UNL A   1      36.696  33.399  28.907  1.00  0.00     0.010 A 
ATOM     37  C   UNL A   1      36.573  32.124  29.478  1.00  0.00    -0.014 A 
BRANCH  37  38
ATOM     38  C   UNL A   1      37.717  31.451  30.150  1.00  0.00     0.031 A 
ATOM     39  C   UNL A   1      38.011  31.694  31.609  1.00  0.00     0.074 A 
ATOM     40  C   UNL A   1      38.456  30.561  29.459  1.00  0.00     0.049 A 
ATOM     41  N   UNL A   1      38.965  31.194  32.356  1.00  0.00    -0.248 NA
ATOM     42  C   UNL A   1      37.123  32.623  32.326  1.00  0.00     0.031 C 
ATOM     43  C   UNL A   1      38.262  30.217  28.049  1.00  0.00     0.029 A 
ATOM     44  N   UNL A   1      39.502  29.767  29.853  1.00  0.00    -0.354 N 
ATOM     45  C   UNL A   1      38.809  31.765  33.614  1.00  0.00     0.074 A 
ATOM     46  C   UNL A   1      37.686  32.673  33.525  1.00  0.00     0.031 C 
ATOM     47  C   UNL A   1      39.120  29.246  27.710  1.00  0.00     0.029 A 
ATOM     48  C   UNL A   1      39.979  28.956  28.852  1.00  0.00     0.049 A 
ATOM     49  H   UNL A   1      39.874  29.777  30.763  1.00  0.00     0.167 HD
ATOM     50  C   UNL A   1      39.526  31.544  34.745  1.00  0.00     0.037 A 
ATOM     51  C   UNL A   1      41.013  28.095  28.842  1.00  0.00     0.037 A 
ATOM     52  C   UNL A   1      40.632  30.625  34.837  1.00  0.00     0.049 A 
ATOM     53  C   UNL A   1      41.831  27.922  30.088  1.00  0.00     0.074 A 
ATOM     54  C   UNL A   1      41.407  30.316  35.941  1.00  0.00     0.029 A 
ATOM     55  N   UNL A   1      41.125  29.871  33.782  1.00  0.00    -0.354 N 
ATOM     56  N   UNL A   1      41.664  28.463  31.271  1.00  0.00    -0.248 NA
ATOM     57  C   UNL A   1      42.989  27.024  29.993  1.00  0.00     0.031 C 
ATOM     58  C   UNL A   1      42.403  29.418  35.541  1.00  0.00     0.029 A 
ATOM     59  C   UNL A   1      42.212  29.121  34.202  1.00  0.00     0.049 A 
ATOM     60  H   UNL A   1      40.756  29.870  32.869  1.00  0.00     0.167 HD
ATOM     61  C   UNL A   1      42.683  27.956  32.065  1.00  0.00     0.074 A 
ATOM     62  C   UNL A   1      43.446  27.047  31.235  1.00  0.00     0.031 C 
ATOM     63  C   UNL A   1      42.966  28.222  33.364  1.00  0.00     0.037 A 
BRANCH  50  64
ATOM     64  C   UNL A   1      39.152  32.333  35.969  1.00  0.00     0.057 A 
ATOM     65  C   UNL A   1      38.262  31.801  36.913  1.00  0.00     0.134 A 
ATOM     66  C   UNL A   1      39.642  33.624  36.206  1.00  0.00     0.134 A 
ATOM     67  F   UNL A   1      37.744  30.576  36.748  1.00  0.00    -0.206 F 
ATOM     68  C   UNL A   1      37.878  32.523  38.045  1.00  0.00     0.040 A 
ATOM     69  C   UNL A   1      39.288  34.344  37.349  1.00  0.00     0.040 A 
ATOM     70  F   UNL A   1      40.505  34.190  35.349  1.00  0.00    -0.206 F 
ATOM     71  C   UNL A   1      38.398  33.795  38.271  1.00  0.00     0.006 A 
ENDBRANCH  50  64
BRANCH  51  72
ATOM     72  C   UNL A   1      41.352  27.355  27.601  1.00  0.00     0.057 A 
ATOM     73  C   UNL A   1      42.170  27.922  26.615  1.00  0.00     0.134 A 
ATOM     74  C   UNL A   1      40.883  26.055  27.380  1.00  0.00     0.134 A 
ATOM     75  F   UNL A   1      42.647  29.167  26.763  1.00  0.00    -0.206 F 
ATOM     76  C   UNL A   1      42.503  27.227  25.453  1.00  0.00     0.040 A 
ATOM     77  C   UNL A   1      41.234  25.337  26.237  1.00  0.00     0.040 A 
ATOM     78  F   UNL A   1      40.110  25.452  28.296  1.00  0.00    -0.206 F 
ATOM     79  C   UNL A   1      42.043  25.926  25.266  1.00  0.00     0.006 A 
ENDBRANCH  51  72
BRANCH  63  80
ATOM     80  C   UNL A   1      44.130  27.493  33.968  1.00  0.00     0.057 A 
ATOM     81  C   UNL A   1      43.956  26.233  34.555  1.00  0.00     0.134 A 
ATOM     82  C   UNL A   1      45.424  28.034  33.972  1.00  0.00     0.134 A 
ATOM     83  F   UNL A   1      42.743  25.661  34.592  1.00  0.00    -0.206 F 
ATOM     84  C   UNL A   1      45.024  25.536  35.120  1.00  0.00     0.040 A 
ATOM     85  C   UNL A   1      46.506  27.332  34.507  1.00  0.00     0.040 A 
ATOM     86  F   UNL A   1      45.662  29.229  33.412  1.00  0.00    -0.206 F 
ATOM     87  C   UNL A   1      46.306  26.081  35.088  1.00  0.00     0.006 A 
ENDBRANCH  63  80
ENDBRANCH  37  38
ENDBRANCH  29  32
ENDBRANCH  27  28
ENDBRANCH  26  27
ENDBRANCH   1  26
TORSDOF 13
ENDMDL
MODEL 2
REMARK VINA RESULT:     -12.4      3.646      5.279
REMARK SMILES C[C@@H]1Cc2ccccc2N1S(=O)(=O)c1cccc(C(=O)NCCCCNC(=O)c2ccc(-c3c4nc(c(-c5c(F)cccc5F)c5ccc([nH]5)c(-c5c(F)cccc5F)c5nc(c(-c6c(F)cccc6F)c6ccc3[nH]6)C=C5)C=C4)cc2)c1
REMARK SMILES IDX 23 1 22 2 21 3 19 4 20 5 18 7 14 8 15 9 83 10 16 11 17 12
REMARK SMILES IDX 11 13 12 14 13 15 10 16 1 17 2 18 3 19 4 20 9 21 5 22 8 23
REMARK SMILES IDX 6 24 7 25 24 26 25 27 26 28 27 29 28 31 29 32 30 33 82 34
REMARK SMILES IDX 31 35 81 36 32 37 33 38 34 39 75 40 35 41 80 42 74 43 76 44
REMARK SMILES IDX 36 45 79 46 73 47 72 48 37 50 63 51 46 52 62 53 47 54 50 55
REMARK SMILES IDX 61 56 77 57 48 58 49 59 60 61 78 62 51 63 38 64 39 65 44 66
REMARK SMILES IDX 40 67 41 68 43 69 45 70 42 71 64 72 65 73 70 74 66 75 67 76
REMARK SMILES IDX 69 77 71 78 68 79 52 80 53 81 58 82 54 83 55 84 57 85 59 86
REMARK SMILES IDX 56 87
REMARK H PARENT 21 6 26 30 76 49 50 60
REMARK Flexibility Score: inf
ROOT
ATOM      1  C   UNL A   1      31.763  29.775  25.760  1.00  0.00     0.023 C 
ENDROOT
BRANCH   1   2
ATOM      2  C   UNL A   1      32.463  29.609  24.420  1.00  0.00     0.116 C 
BRANCH   2   3
ATOM      3  N   UNL A   1      31.619  29.185  23.316  1.00  0.00    -0.352 N 
ATOM      4  C   UNL A   1      31.037  27.966  23.033  1.00  0.00     0.251 C 
ATOM      5  O   UNL A   1      30.312  27.890  22.042  1.00  0.00    -0.269 OA
ATOM      6  H   UNL A   1      31.429  29.889  22.655  1.00  0.00     0.163 HD
BRANCH   4   7
ATOM      7  C   UNL A   1      31.325  26.726  23.817  1.00  0.00     0.041 A 
ATOM      8  C   UNL A   1      32.465  24.628  24.116  1.00  0.00     0.088 A 
ATOM      9  C   UNL A   1      31.525  24.211  25.061  1.00  0.00     0.022 A 
ATOM     10  C   UNL A   1      32.452  25.931  23.620  1.00  0.00     0.036 A 
ATOM     11  C   UNL A   1      30.475  25.063  25.391  1.00  0.00     0.002 A 
ATOM     12  C   UNL A   1      30.351  26.294  24.737  1.00  0.00     0.014 A 
BRANCH   8  13
ATOM     13  S   UNL A   1      33.613  23.448  23.455  1.00  0.00     0.264 S 
ATOM     14  O   UNL A   1      34.667  24.202  22.813  1.00  0.00    -0.201 OA
ATOM     15  O   UNL A   1      32.840  22.481  22.693  1.00  0.00    -0.201 OA
BRANCH  13  16
ATOM     16  N   UNL A   1      34.286  22.581  24.798  1.00  0.00    -0.263 N 
ATOM     17  C   UNL A   1      32.928  20.589  25.471  1.00  0.00     0.032 C 
ATOM     18  C   UNL A   1      34.091  21.072  24.619  1.00  0.00     0.101 C 
ATOM     19  C   UNL A   1      35.423  20.390  25.003  1.00  0.00     0.063 C 
ATOM     20  C   UNL A   1      36.343  21.541  25.225  1.00  0.00    -0.021 A 
ATOM     21  C   UNL A   1      35.671  22.754  25.150  1.00  0.00     0.055 A 
ATOM     22  C   UNL A   1      37.690  21.474  25.567  1.00  0.00     0.006 A 
ATOM     23  C   UNL A   1      36.305  23.909  25.577  1.00  0.00     0.027 A 
ATOM     24  C   UNL A   1      38.360  22.657  25.880  1.00  0.00     0.000 A 
ATOM     25  C   UNL A   1      37.663  23.869  25.906  1.00  0.00     0.002 A 
ENDBRANCH  13  16
ENDBRANCH   8  13
ENDBRANCH   4   7
ENDBRANCH   2   3
ENDBRANCH   1   2
BRANCH   1  26
ATOM     26  C   UNL A   1      32.152  28.805  26.860  1.00  0.00     0.023 C 
BRANCH  26  27
ATOM     27  C   UNL A   1      33.526  29.017  27.475  1.00  0.00     0.116 C 
BRANCH  27  28
ATOM     28  N   UNL A   1      33.740  30.353  28.024  1.00  0.00    -0.352 N 
ATOM     29  C   UNL A   1      34.884  30.926  28.536  1.00  0.00     0.251 C 
ATOM     30  H   UNL A   1      32.944  30.933  28.028  1.00  0.00     0.163 HD
ATOM     31  O   UNL A   1      34.854  32.050  29.025  1.00  0.00    -0.269 OA
BRANCH  29  32
ATOM     32  C   UNL A   1      36.140  30.148  28.549  1.00  0.00     0.039 A 
ATOM     33  C   UNL A   1      36.557  29.506  29.714  1.00  0.00     0.014 A 
ATOM     34  C   UNL A   1      36.956  30.149  27.415  1.00  0.00     0.014 A 
ATOM     35  C   UNL A   1      37.880  29.104  29.830  1.00  0.00     0.010 A 
ATOM     36  C   UNL A   1      38.251  29.626  27.498  1.00  0.00     0.010 A 
ATOM     37  C   UNL A   1      38.751  29.174  28.729  1.00  0.00    -0.014 A 
BRANCH  37  38
ATOM     38  C   UNL A   1      40.181  28.804  28.906  1.00  0.00     0.031 A 
ATOM     39  C   UNL A   1      41.145  29.743  29.586  1.00  0.00     0.074 A 
ATOM     40  C   UNL A   1      40.599  27.584  28.515  1.00  0.00     0.049 A 
ATOM     41  N   UNL A   1      42.424  29.585  29.825  1.00  0.00    -0.248 NA
ATOM     42  C   UNL A   1      40.610  31.031  30.054  1.00  0.00     0.031 C 
ATOM     43  C   UNL A   1      39.761  26.573  27.867  1.00  0.00     0.029 A 
ATOM     44  N   UNL A   1      41.824  26.979  28.625  1.00  0.00    -0.354 N 
ATOM     45  C   UNL A   1      42.848  30.756  30.444  1.00  0.00     0.074 A 
ATOM     46  C   UNL A   1      41.698  31.630  30.517  1.00  0.00     0.031 C 
ATOM     47  C   UNL A   1      40.479  25.455  27.686  1.00  0.00     0.029 A 
ATOM     48  C   UNL A   1      41.847  25.698  28.129  1.00  0.00     0.049 A 
ATOM     49  H   UNL A   1      42.610  27.418  29.021  1.00  0.00     0.167 HD
ATOM     50  C   UNL A   1      44.079  31.070  30.920  1.00  0.00     0.037 A 
ATOM     51  C   UNL A   1      42.862  24.823  28.014  1.00  0.00     0.037 A 
ATOM     52  C   UNL A   1      45.219  30.191  30.863  1.00  0.00     0.049 A 
ATOM     53  C   UNL A   1      44.229  25.224  28.487  1.00  0.00     0.074 A 
ATOM     54  C   UNL A   1      46.502  30.409  31.336  1.00  0.00     0.029 A 
ATOM     55  N   UNL A   1      45.216  28.926  30.293  1.00  0.00    -0.354 N 
ATOM     56  N   UNL A   1      44.610  26.331  29.077  1.00  0.00    -0.248 NA
ATOM     57  C   UNL A   1      45.310  24.254  28.267  1.00  0.00     0.031 C 
ATOM     58  C   UNL A   1      47.288  29.300  31.003  1.00  0.00     0.029 A 
ATOM     59  C   UNL A   1      46.482  28.365  30.375  1.00  0.00     0.049 A 
ATOM     60  H   UNL A   1      44.431  28.492  29.889  1.00  0.00     0.167 HD
ATOM     61  C   UNL A   1      45.969  26.183  29.316  1.00  0.00     0.074 A 
ATOM     62  C   UNL A   1      46.338  24.870  28.830  1.00  0.00     0.031 C 
ATOM     63  C   UNL A   1      46.836  27.058  29.884  1.00  0.00     0.037 A 
BRANCH  50  64
ATOM     64  C   UNL A   1      44.264  32.437  31.520  1.00  0.00     0.057 A 
ATOM     65  C   UNL A   1      44.628  33.524  30.713  1.00  0.00     0.134 A 
ATOM     66  C   UNL A   1      44.113  32.678  32.891  1.00  0.00     0.134 A 
ATOM     67  F   UNL A   1      44.800  33.367  29.393  1.00  0.00    -0.206 F 
ATOM     68  C   UNL A   1      44.830  34.797  31.249  1.00  0.00     0.040 A 
ATOM     69  C   UNL A   1      44.285  33.953  33.435  1.00  0.00     0.040 A 
ATOM     70  F   UNL A   1      43.756  31.685  33.720  1.00  0.00    -0.206 F 
ATOM     71  C   UNL A   1      44.650  35.017  32.612  1.00  0.00     0.006 A 
ENDBRANCH  50  64
BRANCH  51  72
ATOM     72  C   UNL A   1      42.631  23.493  27.397  1.00  0.00     0.057 A 
ATOM     73  C   UNL A   1      42.272  22.383  28.172  1.00  0.00     0.134 A 
ATOM     74  C   UNL A   1      42.745  23.304  26.015  1.00  0.00     0.134 A 
ATOM     75  F   UNL A   1      42.153  22.496  29.504  1.00  0.00    -0.206 F 
ATOM     76  C   UNL A   1      42.042  21.133  27.598  1.00  0.00     0.040 A 
ATOM     77  C   UNL A   1      42.486  22.067  25.423  1.00  0.00     0.040 A 
ATOM     78  F   UNL A   1      43.069  24.334  25.218  1.00  0.00    -0.206 F 
ATOM     79  C   UNL A   1      42.138  20.976  26.217  1.00  0.00     0.006 A 
ENDBRANCH  51  72
BRANCH  63  80
ATOM     80  C   UNL A   1      48.258  26.602  30.035  1.00  0.00     0.057 A 
ATOM     81  C   UNL A   1      49.206  26.882  29.043  1.00  0.00     0.134 A 
ATOM     82  C   UNL A   1      48.693  25.886  31.159  1.00  0.00     0.134 A 
ATOM     83  F   UNL A   1      48.856  27.557  27.937  1.00  0.00    -0.206 F 
ATOM     84  C   UNL A   1      50.534  26.470  29.164  1.00  0.00     0.040 A 
ATOM     85  C   UNL A   1      50.025  25.495  31.306  1.00  0.00     0.040 A 
ATOM     86  F   UNL A   1      47.839  25.599  32.154  1.00  0.00    -0.206 F 
ATOM     87  C   UNL A   1      50.949  25.784  30.303  1.00  0.00     0.006 A 
ENDBRANCH  63  80
ENDBRANCH  37  38
ENDBRANCH  29  32
ENDBRANCH  27  28
ENDBRANCH  26  27
ENDBRANCH   1  26
TORSDOF 13
ENDMDL
MODEL 3
REMARK VINA RESULT:     -12.4      3.895      7.503
REMARK SMILES C[C@@H]1Cc2ccccc2N1S(=O)(=O)c1cccc(C(=O)NCCCCNC(=O)c2ccc(-c3c4nc(c(-c5c(F)cccc5F)c5ccc([nH]5)c(-c5c(F)cccc5F)c5nc(c(-c6c(F)cccc6F)c6ccc3[nH]6)C=C5)C=C4)cc2)c1
REMARK SMILES IDX 23 1 22 2 21 3 19 4 20 5 18 7 14 8 15 9 83 10 16 11 17 12
REMARK SMILES IDX 11 13 12 14 13 15 10 16 1 17 2 18 3 19 4 20 9 21 5 22 8 23
REMARK SMILES IDX 6 24 7 25 24 26 25 27 26 28 27 29 28 31 29 32 30 33 82 34
REMARK SMILES IDX 31 35 81 36 32 37 33 38 34 39 75 40 35 41 80 42 74 43 76 44
REMARK SMILES IDX 36 45 79 46 73 47 72 48 37 50 63 51 46 52 62 53 47 54 50 55
REMARK SMILES IDX 61 56 77 57 48 58 49 59 60 61 78 62 51 63 38 64 39 65 44 66
REMARK SMILES IDX 40 67 41 68 43 69 45 70 42 71 64 72 65 73 70 74 66 75 67 76
REMARK SMILES IDX 69 77 71 78 68 79 52 80 53 81 58 82 54 83 55 84 57 85 59 86
REMARK SMILES IDX 56 87
REMARK H PARENT 21 6 26 30 76 49 50 60
REMARK Flexibility Score: inf
ROOT
ATOM      1  C   UNL A   1      31.812  29.561  25.681  1.00  0.00     0.023 C 
ENDROOT
BRANCH   1   2
ATOM      2  C   UNL A   1      32.586  29.344  24.391  1.00  0.00     0.116 C 
BRANCH   2   3
ATOM      3  N   UNL A   1      31.812  28.843  23.267  1.00  0.00    -0.352 N 
ATOM      4  C   UNL A   1      31.305  27.587  23.001  1.00  0.00     0.251 C 
ATOM      5  O   UNL A   1      30.628  27.443  21.984  1.00  0.00    -0.269 OA
ATOM      6  H   UNL A   1      31.615  29.516  22.577  1.00  0.00     0.163 HD
BRANCH   4   7
ATOM      7  C   UNL A   1      31.622  26.389  23.836  1.00  0.00     0.041 A 
ATOM      8  C   UNL A   1      32.719  24.274  24.173  1.00  0.00     0.088 A 
ATOM      9  C   UNL A   1      31.852  23.950  25.219  1.00  0.00     0.022 A 
ATOM     10  C   UNL A   1      32.704  25.544  23.597  1.00  0.00     0.036 A 
ATOM     11  C   UNL A   1      30.861  24.857  25.580  1.00  0.00     0.002 A 
ATOM     12  C   UNL A   1      30.719  26.050  24.861  1.00  0.00     0.014 A 
BRANCH   8  13
ATOM     13  S   UNL A   1      33.770  23.015  23.494  1.00  0.00     0.264 S 
ATOM     14  O   UNL A   1      34.806  23.692  22.746  1.00  0.00    -0.201 OA
ATOM     15  O   UNL A   1      32.907  22.048  22.835  1.00  0.00    -0.201 OA
BRANCH  13  16
ATOM     16  N   UNL A   1      34.500  22.183  24.830  1.00  0.00    -0.263 N 
ATOM     17  C   UNL A   1      33.364  20.025  25.392  1.00  0.00     0.032 C 
ATOM     18  C   UNL A   1      34.487  20.670  24.595  1.00  0.00     0.101 C 
ATOM     19  C   UNL A   1      35.878  20.131  25.001  1.00  0.00     0.063 C 
ATOM     20  C   UNL A   1      36.650  21.373  25.291  1.00  0.00    -0.021 A 
ATOM     21  C   UNL A   1      35.844  22.502  25.233  1.00  0.00     0.055 A 
ATOM     22  C   UNL A   1      37.985  21.449  25.675  1.00  0.00     0.006 A 
ATOM     23  C   UNL A   1      36.326  23.706  25.719  1.00  0.00     0.027 A 
ATOM     24  C   UNL A   1      38.503  22.689  26.049  1.00  0.00     0.000 A 
ATOM     25  C   UNL A   1      37.670  23.810  26.091  1.00  0.00     0.002 A 
ENDBRANCH  13  16
ENDBRANCH   8  13
ENDBRANCH   4   7
ENDBRANCH   2   3
ENDBRANCH   1   2
BRANCH   1  26
ATOM     26  C   UNL A   1      32.316  28.831  26.913  1.00  0.00     0.023 C 
BRANCH  26  27
ATOM     27  C   UNL A   1      33.755  29.121  27.311  1.00  0.00     0.116 C 
BRANCH  27  28
ATOM     28  N   UNL A   1      33.939  30.381  28.024  1.00  0.00    -0.352 N 
ATOM     29  C   UNL A   1      35.055  30.884  28.658  1.00  0.00     0.251 C 
ATOM     30  H   UNL A   1      33.144  30.961  28.057  1.00  0.00     0.163 HD
ATOM     31  O   UNL A   1      35.000  31.942  29.274  1.00  0.00    -0.269 OA
BRANCH  29  32
ATOM     32  C   UNL A   1      36.309  30.102  28.642  1.00  0.00     0.039 A 
ATOM     33  C   UNL A   1      36.738  29.438  29.790  1.00  0.00     0.014 A 
ATOM     34  C   UNL A   1      37.113  30.123  27.500  1.00  0.00     0.014 A 
ATOM     35  C   UNL A   1      38.061  29.031  29.884  1.00  0.00     0.010 A 
ATOM     36  C   UNL A   1      38.407  29.596  27.558  1.00  0.00     0.010 A 
ATOM     37  C   UNL A   1      38.920  29.120  28.775  1.00  0.00    -0.014 A 
BRANCH  37  38
ATOM     38  C   UNL A   1      40.351  28.743  28.929  1.00  0.00     0.031 A 
ATOM     39  C   UNL A   1      40.850  27.395  28.472  1.00  0.00     0.074 A 
ATOM     40  C   UNL A   1      41.220  29.647  29.420  1.00  0.00     0.049 A 
ATOM     41  N   UNL A   1      42.062  26.899  28.529  1.00  0.00    -0.248 NA
ATOM     42  C   UNL A   1      39.863  26.480  27.878  1.00  0.00     0.031 C 
ATOM     43  C   UNL A   1      40.870  30.994  29.876  1.00  0.00     0.029 A 
ATOM     44  N   UNL A   1      42.579  29.580  29.596  1.00  0.00    -0.354 N 
ATOM     45  C   UNL A   1      41.977  25.614  28.006  1.00  0.00     0.074 A 
ATOM     46  C   UNL A   1      40.589  25.392  27.665  1.00  0.00     0.031 C 
ATOM     47  C   UNL A   1      41.988  31.645  30.228  1.00  0.00     0.029 A 
ATOM     48  C   UNL A   1      43.121  30.736  30.102  1.00  0.00     0.049 A 
ATOM     49  H   UNL A   1      43.112  28.782  29.382  1.00  0.00     0.167 HD
ATOM     50  C   UNL A   1      42.966  24.704  27.816  1.00  0.00     0.037 A 
ATOM     51  C   UNL A   1      44.386  31.027  30.454  1.00  0.00     0.037 A 
ATOM     52  C   UNL A   1      44.351  24.934  28.140  1.00  0.00     0.049 A 
ATOM     53  C   UNL A   1      45.448  29.978  30.296  1.00  0.00     0.074 A 
ATOM     54  C   UNL A   1      45.431  24.084  27.965  1.00  0.00     0.029 A 
ATOM     55  N   UNL A   1      44.849  26.096  28.711  1.00  0.00    -0.354 N 
ATOM     56  N   UNL A   1      45.352  28.771  29.792  1.00  0.00    -0.248 NA
ATOM     57  C   UNL A   1      46.794  30.331  30.766  1.00  0.00     0.031 C 
ATOM     58  C   UNL A   1      46.571  24.710  28.481  1.00  0.00     0.029 A 
ATOM     59  C   UNL A   1      46.214  25.974  28.923  1.00  0.00     0.049 A 
ATOM     60  H   UNL A   1      44.312  26.890  28.933  1.00  0.00     0.167 HD
ATOM     61  C   UNL A   1      46.627  28.228  29.868  1.00  0.00     0.074 A 
ATOM     62  C   UNL A   1      47.482  29.246  30.441  1.00  0.00     0.031 C 
ATOM     63  C   UNL A   1      47.053  26.995  29.499  1.00  0.00     0.037 A 
BRANCH  50  64
ATOM     64  C   UNL A   1      42.579  23.364  27.255  1.00  0.00     0.057 A 
ATOM     65  C   UNL A   1      42.165  22.330  28.106  1.00  0.00     0.134 A 
ATOM     66  C   UNL A   1      42.640  23.081  25.884  1.00  0.00     0.134 A 
ATOM     67  F   UNL A   1      42.091  22.525  29.430  1.00  0.00    -0.206 F 
ATOM     68  C   UNL A   1      41.825  21.069  27.614  1.00  0.00     0.040 A 
ATOM     69  C   UNL A   1      42.275  21.832  25.377  1.00  0.00     0.040 A 
ATOM     70  F   UNL A   1      43.019  24.027  25.012  1.00  0.00    -0.206 F 
ATOM     71  C   UNL A   1      41.870  20.819  26.244  1.00  0.00     0.006 A 
ENDBRANCH  50  64
BRANCH  51  72
ATOM     72  C   UNL A   1      44.713  32.360  31.021  1.00  0.00     0.057 A 
ATOM     73  C   UNL A   1      44.623  32.608  32.396  1.00  0.00     0.134 A 
ATOM     74  C   UNL A   1      45.143  33.410  30.203  1.00  0.00     0.134 A 
ATOM     75  F   UNL A   1      44.211  31.644  33.234  1.00  0.00    -0.206 F 
ATOM     76  C   UNL A   1      44.941  33.854  32.937  1.00  0.00     0.040 A 
ATOM     77  C   UNL A   1      45.494  34.652  30.734  1.00  0.00     0.040 A 
ATOM     78  F   UNL A   1      45.266  33.228  28.879  1.00  0.00    -0.206 F 
ATOM     79  C   UNL A   1      45.388  34.877  32.105  1.00  0.00     0.006 A 
ENDBRANCH  51  72
BRANCH  63  80
ATOM     80  C   UNL A   1      48.513  26.699  29.677  1.00  0.00     0.057 A 
ATOM     81  C   UNL A   1      48.970  26.026  30.818  1.00  0.00     0.134 A 
ATOM     82  C   UNL A   1      49.469  27.078  28.725  1.00  0.00     0.134 A 
ATOM     83  F   UNL A   1      48.109  25.641  31.772  1.00  0.00    -0.206 F 
ATOM     84  C   UNL A   1      50.323  25.739  31.004  1.00  0.00     0.040 A 
ATOM     85  C   UNL A   1      50.822  26.769  28.885  1.00  0.00     0.040 A 
ATOM     86  F   UNL A   1      49.096  27.711  27.602  1.00  0.00    -0.206 F 
ATOM     87  C   UNL A   1      51.251  26.101  30.030  1.00  0.00     0.006 A 
ENDBRANCH  63  80
ENDBRANCH  37  38
ENDBRANCH  29  32
ENDBRANCH  27  28
ENDBRANCH  26  27
ENDBRANCH   1  26
TORSDOF 13
ENDMDL
