MODEL 1
REMARK VINA RESULT:     -10.8      0.000      0.000
REMARK SMILES COc1ccc2cc([C@H](C)C(=O)NCCCCNC(=O)c3ccc(-c4c5nc(c(-c6c(F)cccc6F)c6ccc([nH]6)c(-c6c(F)cccc6F)c6nc(c(-c7c(F)cccc7F)c7ccc4[nH]7)C=C6)C=C5)cc3)ccc2c1
REMARK SMILES IDX 15 1 14 2 13 3 11 4 12 5 9 7 10 8 8 9 3 10 4 11 78 12 5 13
REMARK SMILES IDX 77 14 6 15 76 16 7 17 75 18 2 19 1 20 16 21 17 22 18 23
REMARK SMILES IDX 19 24 20 26 21 27 22 28 74 29 23 30 73 31 24 32 25 33 26 34
REMARK SMILES IDX 67 35 27 36 72 37 66 38 68 39 28 40 71 41 65 42 64 43 29 45
REMARK SMILES IDX 55 46 38 47 54 48 39 49 42 50 53 51 69 52 40 53 41 54 52 56
REMARK SMILES IDX 70 57 43 58 30 59 31 60 36 61 32 62 33 63 35 64 37 65 34 66
REMARK SMILES IDX 56 67 57 68 62 69 58 70 59 71 61 72 63 73 60 74 44 75 45 76
REMARK SMILES IDX 50 77 46 78 47 79 49 80 51 81 48 82
REMARK H PARENT 13 6 18 25 68 44 42 55
REMARK Flexibility Score: inf
ROOT
ATOM      1  C   UNL A   1      34.253  35.235  28.416  1.00  0.00     0.023 C 
ENDROOT
BRANCH   1   2
ATOM      2  C   UNL A   1      33.433  36.316  29.107  1.00  0.00     0.116 C 
BRANCH   2   3
ATOM      3  N   UNL A   1      32.543  35.802  30.127  1.00  0.00    -0.356 N 
ATOM      4  C   UNL A   1      32.744  35.676  31.473  1.00  0.00     0.227 C 
ATOM      5  O   UNL A   1      31.777  35.328  32.158  1.00  0.00    -0.274 OA
ATOM      6  H   UNL A   1      31.664  35.499  29.803  1.00  0.00     0.163 HD
BRANCH   4   7
ATOM      7  C   UNL A   1      34.112  35.935  32.127  1.00  0.00     0.105 C 
ATOM      8  C   UNL A   1      34.026  37.003  33.225  1.00  0.00     0.023 C 
BRANCH   7   9
ATOM      9  C   UNL A   1      34.852  34.643  32.461  1.00  0.00    -0.035 A 
ATOM     10  C   UNL A   1      37.976  31.205  34.543  1.00  0.00     0.119 A 
ATOM     11  C   UNL A   1      38.014  32.311  35.387  1.00  0.00     0.047 A 
ATOM     12  C   UNL A   1      37.186  31.230  33.394  1.00  0.00     0.055 A 
ATOM     13  C   UNL A   1      37.257  33.446  35.080  1.00  0.00     0.012 A 
ATOM     14  C   UNL A   1      36.394  32.349  33.096  1.00  0.00    -0.015 A 
ATOM     15  C   UNL A   1      36.448  33.483  33.931  1.00  0.00    -0.018 A 
ATOM     16  C   UNL A   1      35.540  32.356  31.988  1.00  0.00     0.009 A 
ATOM     17  C   UNL A   1      35.698  34.623  33.587  1.00  0.00     0.013 A 
ATOM     18  C   UNL A   1      34.753  33.473  31.699  1.00  0.00     0.005 A 
BRANCH  10  19
ATOM     19  O   UNL A   1      38.735  30.082  34.731  1.00  0.00    -0.497 OA
ATOM     20  C   UNL A   1      39.623  29.817  33.649  1.00  0.00     0.278 C 
ENDBRANCH  10  19
ENDBRANCH   7   9
ENDBRANCH   4   7
ENDBRANCH   2   3
ENDBRANCH   1   2
BRANCH   1  21
ATOM     21  C   UNL A   1      33.605  33.856  28.367  1.00  0.00     0.023 C 
BRANCH  21  22
ATOM     22  C   UNL A   1      34.571  32.678  28.385  1.00  0.00     0.116 C 
BRANCH  22  23
ATOM     23  N   UNL A   1      33.934  31.401  28.091  1.00  0.00    -0.352 N 
ATOM     24  C   UNL A   1      34.489  30.147  27.998  1.00  0.00     0.251 C 
ATOM     25  H   UNL A   1      32.963  31.443  27.936  1.00  0.00     0.163 HD
ATOM     26  O   UNL A   1      33.806  29.196  27.626  1.00  0.00    -0.269 OA
BRANCH  24  27
ATOM     27  C   UNL A   1      35.920  29.949  28.308  1.00  0.00     0.039 A 
ATOM     28  C   UNL A   1      36.285  29.577  29.604  1.00  0.00     0.014 A 
ATOM     29  C   UNL A   1      36.896  30.099  27.319  1.00  0.00     0.014 A 
ATOM     30  C   UNL A   1      37.618  29.268  29.886  1.00  0.00     0.010 A 
ATOM     31  C   UNL A   1      38.207  29.710  27.579  1.00  0.00     0.010 A 
ATOM     32  C   UNL A   1      38.582  29.287  28.863  1.00  0.00    -0.014 A 
BRANCH  32  33
ATOM     33  C   UNL A   1      39.983  28.863  29.116  1.00  0.00     0.031 A 
ATOM     34  C   UNL A   1      40.944  29.799  29.796  1.00  0.00     0.074 A 
ATOM     35  C   UNL A   1      40.406  27.659  28.682  1.00  0.00     0.049 A 
ATOM     36  N   UNL A   1      42.221  29.641  30.038  1.00  0.00    -0.248 NA
ATOM     37  C   UNL A   1      40.405  31.095  30.241  1.00  0.00     0.031 C 
ATOM     38  C   UNL A   1      39.587  26.676  27.969  1.00  0.00     0.029 A 
ATOM     39  N   UNL A   1      41.638  27.059  28.769  1.00  0.00    -0.354 N 
ATOM     40  C   UNL A   1      42.637  30.814  30.653  1.00  0.00     0.074 A 
ATOM     41  C   UNL A   1      41.494  31.700  30.696  1.00  0.00     0.031 C 
ATOM     42  C   UNL A   1      40.330  25.588  27.710  1.00  0.00     0.029 A 
ATOM     43  C   UNL A   1      41.686  25.809  28.200  1.00  0.00     0.049 A 
ATOM     44  H   UNL A   1      42.415  27.485  29.199  1.00  0.00     0.167 HD
ATOM     45  C   UNL A   1      43.852  31.118  31.166  1.00  0.00     0.037 A 
ATOM     46  C   UNL A   1      42.710  24.943  28.082  1.00  0.00     0.037 A 
ATOM     47  C   UNL A   1      44.985  30.230  31.144  1.00  0.00     0.049 A 
ATOM     48  C   UNL A   1      44.055  25.315  28.643  1.00  0.00     0.074 A 
ATOM     49  C   UNL A   1      46.251  30.435  31.668  1.00  0.00     0.029 A 
ATOM     50  N   UNL A   1      44.988  28.967  30.575  1.00  0.00    -0.354 N 
ATOM     51  N   UNL A   1      44.417  26.406  29.271  1.00  0.00    -0.248 NA
ATOM     52  C   UNL A   1      45.135  24.329  28.482  1.00  0.00     0.031 C 
ATOM     53  C   UNL A   1      47.029  29.307  31.385  1.00  0.00     0.029 A 
ATOM     54  C   UNL A   1      46.235  28.384  30.724  1.00  0.00     0.049 A 
ATOM     55  H   UNL A   1      44.216  28.546  30.129  1.00  0.00     0.167 HD
ATOM     56  C   UNL A   1      45.751  26.224  29.612  1.00  0.00     0.074 A 
ATOM     57  C   UNL A   1      46.131  24.912  29.132  1.00  0.00     0.031 C 
ATOM     58  C   UNL A   1      46.589  27.068  30.261  1.00  0.00     0.037 A 
BRANCH  45  59
ATOM     59  C   UNL A   1      44.015  32.460  31.814  1.00  0.00     0.057 A 
ATOM     60  C   UNL A   1      44.422  33.584  31.082  1.00  0.00     0.134 A 
ATOM     61  C   UNL A   1      43.717  32.646  33.170  1.00  0.00     0.134 A 
ATOM     62  F   UNL A   1      44.734  33.470  29.782  1.00  0.00    -0.206 F 
ATOM     63  C   UNL A   1      44.545  34.839  31.678  1.00  0.00     0.040 A 
ATOM     64  C   UNL A   1      43.811  33.903  33.772  1.00  0.00     0.040 A 
ATOM     65  F   UNL A   1      43.317  31.615  33.928  1.00  0.00    -0.206 F 
ATOM     66  C   UNL A   1      44.231  35.002  33.026  1.00  0.00     0.006 A 
ENDBRANCH  45  59
BRANCH  46  67
ATOM     67  C   UNL A   1      42.512  23.625  27.424  1.00  0.00     0.057 A 
ATOM     68  C   UNL A   1      42.662  23.481  26.039  1.00  0.00     0.134 A 
ATOM     69  C   UNL A   1      42.128  22.492  28.151  1.00  0.00     0.134 A 
ATOM     70  F   UNL A   1      43.010  24.534  25.285  1.00  0.00    -0.206 F 
ATOM     71  C   UNL A   1      42.406  22.268  25.396  1.00  0.00     0.040 A 
ATOM     72  C   UNL A   1      41.894  21.267  27.525  1.00  0.00     0.040 A 
ATOM     73  F   UNL A   1      41.974  22.561  29.482  1.00  0.00    -0.206 F 
ATOM     74  C   UNL A   1      42.022  21.156  26.142  1.00  0.00     0.006 A 
ENDBRANCH  46  67
BRANCH  58  75
ATOM     75  C   UNL A   1      47.980  26.578  30.535  1.00  0.00     0.057 A 
ATOM     76  C   UNL A   1      49.041  26.826  29.656  1.00  0.00     0.134 A 
ATOM     77  C   UNL A   1      48.266  25.876  31.714  1.00  0.00     0.134 A 
ATOM     78  F   UNL A   1      48.829  27.481  28.503  1.00  0.00    -0.206 F 
ATOM     79  C   UNL A   1      50.332  26.370  29.924  1.00  0.00     0.040 A 
ATOM     80  C   UNL A   1      49.559  25.440  32.007  1.00  0.00     0.040 A 
ATOM     81  F   UNL A   1      47.297  25.614  32.604  1.00  0.00    -0.206 F 
ATOM     82  C   UNL A   1      50.595  25.681  31.107  1.00  0.00     0.006 A 
ENDBRANCH  58  75
ENDBRANCH  32  33
ENDBRANCH  24  27
ENDBRANCH  22  23
ENDBRANCH  21  22
ENDBRANCH   1  21
TORSDOF 13
ENDMDL
MODEL 2
REMARK VINA RESULT:     -10.7      4.072      9.772
REMARK SMILES COc1ccc2cc([C@H](C)C(=O)NCCCCNC(=O)c3ccc(-c4c5nc(c(-c6c(F)cccc6F)c6ccc([nH]6)c(-c6c(F)cccc6F)c6nc(c(-c7c(F)cccc7F)c7ccc4[nH]7)C=C6)C=C5)cc3)ccc2c1
REMARK SMILES IDX 15 1 14 2 13 3 11 4 12 5 9 7 10 8 8 9 3 10 4 11 78 12 5 13
REMARK SMILES IDX 77 14 6 15 76 16 7 17 75 18 2 19 1 20 16 21 17 22 18 23
REMARK SMILES IDX 19 24 20 26 21 27 22 28 74 29 23 30 73 31 24 32 25 33 26 34
REMARK SMILES IDX 67 35 27 36 72 37 66 38 68 39 28 40 71 41 65 42 64 43 29 45
REMARK SMILES IDX 55 46 38 47 54 48 39 49 42 50 53 51 69 52 40 53 41 54 52 56
REMARK SMILES IDX 70 57 43 58 30 59 31 60 36 61 32 62 33 63 35 64 37 65 34 66
REMARK SMILES IDX 56 67 57 68 62 69 58 70 59 71 61 72 63 73 60 74 44 75 45 76
REMARK SMILES IDX 50 77 46 78 47 79 49 80 51 81 48 82
REMARK H PARENT 13 6 18 25 68 44 42 55
REMARK Flexibility Score: inf
ROOT
ATOM      1  C   UNL A   1      31.751  30.368  26.551  1.00  0.00     0.023 C 
ENDROOT
BRANCH   1   2
ATOM      2  C   UNL A   1      33.078  29.811  26.052  1.00  0.00     0.116 C 
BRANCH   2   3
ATOM      3  N   UNL A   1      33.172  29.750  24.608  1.00  0.00    -0.356 N 
ATOM      4  C   UNL A   1      32.641  28.840  23.740  1.00  0.00     0.227 C 
ATOM      5  O   UNL A   1      32.752  29.078  22.533  1.00  0.00    -0.274 OA
ATOM      6  H   UNL A   1      33.697  30.472  24.192  1.00  0.00     0.163 HD
BRANCH   4   7
ATOM      7  C   UNL A   1      31.942  27.556  24.220  1.00  0.00     0.105 C 
ATOM      8  C   UNL A   1      30.480  27.496  23.761  1.00  0.00     0.023 C 
BRANCH   7   9
ATOM      9  C   UNL A   1      32.798  26.312  24.004  1.00  0.00    -0.035 A 
ATOM     10  C   UNL A   1      36.303  22.652  24.489  1.00  0.00     0.119 A 
ATOM     11  C   UNL A   1      36.314  23.350  25.694  1.00  0.00     0.047 A 
ATOM     12  C   UNL A   1      35.438  23.039  23.467  1.00  0.00     0.055 A 
ATOM     13  C   UNL A   1      35.456  24.438  25.875  1.00  0.00     0.012 A 
ATOM     14  C   UNL A   1      34.547  24.107  23.651  1.00  0.00    -0.015 A 
ATOM     15  C   UNL A   1      34.571  24.835  24.858  1.00  0.00    -0.018 A 
ATOM     16  C   UNL A   1      33.622  24.456  22.661  1.00  0.00     0.009 A 
ATOM     17  C   UNL A   1      33.716  25.942  25.006  1.00  0.00     0.013 A 
ATOM     18  C   UNL A   1      32.736  25.518  22.852  1.00  0.00     0.005 A 
BRANCH  10  19
ATOM     19  O   UNL A   1      37.155  21.620  24.203  1.00  0.00    -0.497 OA
ATOM     20  C   UNL A   1      38.107  21.375  25.234  1.00  0.00     0.278 C 
ENDBRANCH  10  19
ENDBRANCH   7   9
ENDBRANCH   4   7
ENDBRANCH   2   3
ENDBRANCH   1   2
BRANCH   1  21
ATOM     21  C   UNL A   1      31.636  31.888  26.539  1.00  0.00     0.023 C 
BRANCH  21  22
ATOM     22  C   UNL A   1      32.736  32.633  27.287  1.00  0.00     0.116 C 
BRANCH  22  23
ATOM     23  N   UNL A   1      32.389  34.010  27.608  1.00  0.00    -0.352 N 
ATOM     24  C   UNL A   1      32.957  34.866  28.522  1.00  0.00     0.251 C 
ATOM     25  H   UNL A   1      31.636  34.384  27.095  1.00  0.00     0.163 HD
ATOM     26  O   UNL A   1      32.451  35.964  28.736  1.00  0.00    -0.269 OA
BRANCH  24  27
ATOM     27  C   UNL A   1      34.156  34.447  29.278  1.00  0.00     0.039 A 
ATOM     28  C   UNL A   1      33.995  33.923  30.562  1.00  0.00     0.014 A 
ATOM     29  C   UNL A   1      35.430  34.542  28.712  1.00  0.00     0.014 A 
ATOM     30  C   UNL A   1      35.101  33.411  31.245  1.00  0.00     0.010 A 
ATOM     31  C   UNL A   1      36.516  33.956  29.357  1.00  0.00     0.010 A 
ATOM     32  C   UNL A   1      36.363  33.381  30.627  1.00  0.00    -0.014 A 
BRANCH  32  33
ATOM     33  C   UNL A   1      37.532  32.748  31.292  1.00  0.00     0.031 A 
ATOM     34  C   UNL A   1      38.188  31.542  30.677  1.00  0.00     0.074 A 
ATOM     35  C   UNL A   1      37.965  33.222  32.477  1.00  0.00     0.049 A 
ATOM     36  N   UNL A   1      39.168  30.808  31.140  1.00  0.00    -0.248 NA
ATOM     37  C   UNL A   1      37.658  31.086  29.381  1.00  0.00     0.031 C 
ATOM     38  C   UNL A   1      37.387  34.356  33.202  1.00  0.00     0.029 A 
ATOM     39  N   UNL A   1      38.990  32.801  33.287  1.00  0.00    -0.354 N 
ATOM     40  C   UNL A   1      39.365  29.804  30.201  1.00  0.00     0.074 A 
ATOM     41  C   UNL A   1      38.365  29.985  29.170  1.00  0.00     0.031 C 
ATOM     42  C   UNL A   1      38.084  34.557  34.332  1.00  0.00     0.029 A 
ATOM     43  C   UNL A   1      39.129  33.544  34.435  1.00  0.00     0.049 A 
ATOM     44  H   UNL A   1      39.572  32.037  33.067  1.00  0.00     0.167 HD
ATOM     45  C   UNL A   1      40.310  28.835  30.180  1.00  0.00     0.037 A 
ATOM     46  C   UNL A   1      39.997  33.419  35.456  1.00  0.00     0.037 A 
ATOM     47  C   UNL A   1      41.318  28.666  31.193  1.00  0.00     0.049 A 
ATOM     48  C   UNL A   1      41.025  32.321  35.416  1.00  0.00     0.074 A 
ATOM     49  C   UNL A   1      42.341  27.733  31.244  1.00  0.00     0.029 A 
ATOM     50  N   UNL A   1      41.435  29.450  32.329  1.00  0.00    -0.354 N 
ATOM     51  N   UNL A   1      41.232  31.414  34.494  1.00  0.00    -0.248 NA
ATOM     52  C   UNL A   1      41.943  32.233  36.561  1.00  0.00     0.031 C 
ATOM     53  C   UNL A   1      43.056  27.934  32.429  1.00  0.00     0.029 A 
ATOM     54  C   UNL A   1      42.505  29.017  33.093  1.00  0.00     0.049 A 
ATOM     55  H   UNL A   1      40.843  30.203  32.560  1.00  0.00     0.167 HD
ATOM     56  C   UNL A   1      42.324  30.673  34.927  1.00  0.00     0.074 A 
ATOM     57  C   UNL A   1      42.744  31.245  36.189  1.00  0.00     0.031 C 
ATOM     58  C   UNL A   1      42.924  29.613  34.336  1.00  0.00     0.037 A 
BRANCH  45  59
ATOM     59  C   UNL A   1      40.313  27.895  29.012  1.00  0.00     0.057 A 
ATOM     60  C   UNL A   1      39.555  26.715  29.019  1.00  0.00     0.134 A 
ATOM     61  C   UNL A   1      41.038  28.190  27.851  1.00  0.00     0.134 A 
ATOM     62  F   UNL A   1      38.848  26.369  30.106  1.00  0.00    -0.206 F 
ATOM     63  C   UNL A   1      39.534  25.854  27.921  1.00  0.00     0.040 A 
ATOM     64  C   UNL A   1      41.003  27.349  26.736  1.00  0.00     0.040 A 
ATOM     65  F   UNL A   1      41.780  29.304  27.775  1.00  0.00    -0.206 F 
ATOM     66  C   UNL A   1      40.253  26.175  26.772  1.00  0.00     0.006 A 
ENDBRANCH  45  59
BRANCH  46  67
ATOM     67  C   UNL A   1      39.958  34.365  36.601  1.00  0.00     0.057 A 
ATOM     68  C   UNL A   1      39.224  34.068  37.757  1.00  0.00     0.134 A 
ATOM     69  C   UNL A   1      40.611  35.602  36.554  1.00  0.00     0.134 A 
ATOM     70  F   UNL A   1      38.560  32.907  37.854  1.00  0.00    -0.206 F 
ATOM     71  C   UNL A   1      39.114  34.979  38.809  1.00  0.00     0.040 A 
ATOM     72  C   UNL A   1      40.532  36.511  37.610  1.00  0.00     0.040 A 
ATOM     73  F   UNL A   1      41.337  35.945  35.479  1.00  0.00    -0.206 F 
ATOM     74  C   UNL A   1      39.773  36.205  38.738  1.00  0.00     0.006 A 
ENDBRANCH  46  67
BRANCH  58  75
ATOM     75  C   UNL A   1      44.129  29.036  35.019  1.00  0.00     0.057 A 
ATOM     76  C   UNL A   1      45.424  29.494  34.751  1.00  0.00     0.134 A 
ATOM     77  C   UNL A   1      43.984  28.031  35.985  1.00  0.00     0.134 A 
ATOM     78  F   UNL A   1      45.631  30.446  33.827  1.00  0.00    -0.206 F 
ATOM     79  C   UNL A   1      46.536  28.955  35.398  1.00  0.00     0.040 A 
ATOM     80  C   UNL A   1      45.086  27.503  36.658  1.00  0.00     0.040 A 
ATOM     81  F   UNL A   1      42.770  27.554  36.296  1.00  0.00    -0.206 F 
ATOM     82  C   UNL A   1      46.368  27.961  36.360  1.00  0.00     0.006 A 
ENDBRANCH  58  75
ENDBRANCH  32  33
ENDBRANCH  24  27
ENDBRANCH  22  23
ENDBRANCH  21  22
ENDBRANCH   1  21
TORSDOF 13
ENDMDL
MODEL 3
REMARK VINA RESULT:     -10.7      3.625      6.899
REMARK SMILES COc1ccc2cc([C@H](C)C(=O)NCCCCNC(=O)c3ccc(-c4c5nc(c(-c6c(F)cccc6F)c6ccc([nH]6)c(-c6c(F)cccc6F)c6nc(c(-c7c(F)cccc7F)c7ccc4[nH]7)C=C6)C=C5)cc3)ccc2c1
REMARK SMILES IDX 15 1 14 2 13 3 11 4 12 5 9 7 10 8 8 9 3 10 4 11 78 12 5 13
REMARK SMILES IDX 77 14 6 15 76 16 7 17 75 18 2 19 1 20 16 21 17 22 18 23
REMARK SMILES IDX 19 24 20 26 21 27 22 28 74 29 23 30 73 31 24 32 25 33 26 34
REMARK SMILES IDX 67 35 27 36 72 37 66 38 68 39 28 40 71 41 65 42 64 43 29 45
REMARK SMILES IDX 55 46 38 47 54 48 39 49 42 50 53 51 69 52 40 53 41 54 52 56
REMARK SMILES IDX 70 57 43 58 30 59 31 60 36 61 32 62 33 63 35 64 37 65 34 66
REMARK SMILES IDX 56 67 57 68 62 69 58 70 59 71 61 72 63 73 60 74 44 75 45 76
REMARK SMILES IDX 50 77 46 78 47 79 49 80 51 81 48 82
REMARK H PARENT 13 6 18 25 68 44 42 55
REMARK Flexibility Score: inf
ROOT
ATOM      1  C   UNL A   1      31.623  30.249  26.522  1.00  0.00     0.023 C 
ENDROOT
BRANCH   1   2
ATOM      2  C   UNL A   1      32.933  29.620  26.064  1.00  0.00     0.116 C 
BRANCH   2   3
ATOM      3  N   UNL A   1      33.102  29.621  24.626  1.00  0.00    -0.356 N 
ATOM      4  C   UNL A   1      32.622  28.745  23.694  1.00  0.00     0.227 C 
ATOM      5  O   UNL A   1      32.795  29.035  22.506  1.00  0.00    -0.274 OA
ATOM      6  H   UNL A   1      33.643  30.362  24.268  1.00  0.00     0.163 HD
BRANCH   4   7
ATOM      7  C   UNL A   1      31.908  27.440  24.084  1.00  0.00     0.105 C 
ATOM      8  C   UNL A   1      30.489  27.370  23.504  1.00  0.00     0.023 C 
BRANCH   7   9
ATOM      9  C   UNL A   1      32.799  26.214  23.909  1.00  0.00    -0.035 A 
ATOM     10  C   UNL A   1      36.369  22.642  24.549  1.00  0.00     0.119 A 
ATOM     11  C   UNL A   1      36.323  23.350  25.747  1.00  0.00     0.047 A 
ATOM     12  C   UNL A   1      35.532  23.000  23.494  1.00  0.00     0.055 A 
ATOM     13  C   UNL A   1      35.434  24.420  25.888  1.00  0.00     0.012 A 
ATOM     14  C   UNL A   1      34.610  24.047  23.637  1.00  0.00    -0.015 A 
ATOM     15  C   UNL A   1      34.575  24.786  24.837  1.00  0.00    -0.018 A 
ATOM     16  C   UNL A   1      33.712  24.366  22.612  1.00  0.00     0.009 A 
ATOM     17  C   UNL A   1      33.691  25.875  24.945  1.00  0.00     0.013 A 
ATOM     18  C   UNL A   1      32.796  25.409  22.763  1.00  0.00     0.005 A 
BRANCH  10  19
ATOM     19  O   UNL A   1      37.254  21.628  24.303  1.00  0.00    -0.497 OA
ATOM     20  C   UNL A   1      38.222  21.463  25.336  1.00  0.00     0.278 C 
ENDBRANCH  10  19
ENDBRANCH   7   9
ENDBRANCH   4   7
ENDBRANCH   2   3
ENDBRANCH   1   2
BRANCH   1  21
ATOM     21  C   UNL A   1      31.602  31.773  26.541  1.00  0.00     0.023 C 
BRANCH  21  22
ATOM     22  C   UNL A   1      32.793  32.434  27.224  1.00  0.00     0.116 C 
BRANCH  22  23
ATOM     23  N   UNL A   1      32.501  33.765  27.738  1.00  0.00    -0.352 N 
ATOM     24  C   UNL A   1      33.204  34.530  28.638  1.00  0.00     0.251 C 
ATOM     25  H   UNL A   1      31.678  34.178  27.390  1.00  0.00     0.163 HD
ATOM     26  O   UNL A   1      32.738  35.593  29.042  1.00  0.00    -0.269 OA
BRANCH  24  27
ATOM     27  C   UNL A   1      34.505  34.054  29.152  1.00  0.00     0.039 A 
ATOM     28  C   UNL A   1      34.537  33.344  30.354  1.00  0.00     0.014 A 
ATOM     29  C   UNL A   1      35.685  34.279  28.437  1.00  0.00     0.014 A 
ATOM     30  C   UNL A   1      35.738  32.783  30.795  1.00  0.00     0.010 A 
ATOM     31  C   UNL A   1      36.862  33.649  28.832  1.00  0.00     0.010 A 
ATOM     32  C   UNL A   1      36.901  32.892  30.013  1.00  0.00    -0.014 A 
BRANCH  32  33
ATOM     33  C   UNL A   1      38.163  32.216  30.409  1.00  0.00     0.031 A 
ATOM     34  C   UNL A   1      39.095  32.872  31.392  1.00  0.00     0.074 A 
ATOM     35  C   UNL A   1      38.500  31.040  29.841  1.00  0.00     0.049 A 
ATOM     36  N   UNL A   1      40.272  32.478  31.805  1.00  0.00    -0.248 NA
ATOM     37  C   UNL A   1      38.655  34.154  31.968  1.00  0.00     0.031 C 
ATOM     38  C   UNL A   1      37.707  30.322  28.841  1.00  0.00     0.029 A 
ATOM     39  N   UNL A   1      39.605  30.246  30.018  1.00  0.00    -0.354 N 
ATOM     40  C   UNL A   1      40.716  33.461  32.679  1.00  0.00     0.074 A 
ATOM     41  C   UNL A   1      39.709  34.501  32.693  1.00  0.00     0.031 C 
ATOM     42  C   UNL A   1      38.337  29.181  28.516  1.00  0.00     0.029 A 
ATOM     43  C   UNL A   1      39.596  29.106  29.251  1.00  0.00     0.049 A 
ATOM     44  H   UNL A   1      40.337  30.472  30.637  1.00  0.00     0.167 HD
ATOM     45  C   UNL A   1      41.843  33.485  33.427  1.00  0.00     0.037 A 
ATOM     46  C   UNL A   1      40.502  28.116  29.147  1.00  0.00     0.037 A 
ATOM     47  C   UNL A   1      42.835  32.442  33.431  1.00  0.00     0.049 A 
ATOM     48  C   UNL A   1      41.756  28.179  29.976  1.00  0.00     0.074 A 
ATOM     49  C   UNL A   1      43.997  32.361  34.181  1.00  0.00     0.029 A 
ATOM     50  N   UNL A   1      42.779  31.297  32.653  1.00  0.00    -0.354 N 
ATOM     51  N   UNL A   1      42.134  29.090  30.839  1.00  0.00    -0.248 NA
ATOM     52  C   UNL A   1      42.709  27.070  29.818  1.00  0.00     0.031 C 
ATOM     53  C   UNL A   1      44.660  31.180  33.831  1.00  0.00     0.029 A 
ATOM     54  C   UNL A   1      43.890  30.507  32.896  1.00  0.00     0.049 A 
ATOM     55  H   UNL A   1      42.056  31.078  32.021  1.00  0.00     0.167 HD
ATOM     56  C   UNL A   1      43.346  28.647  31.353  1.00  0.00     0.074 A 
ATOM     57  C   UNL A   1      43.635  27.380  30.714  1.00  0.00     0.031 C 
ATOM     58  C   UNL A   1      44.150  29.238  32.269  1.00  0.00     0.037 A 
BRANCH  45  59
ATOM     59  C   UNL A   1      42.055  34.669  34.322  1.00  0.00     0.057 A 
ATOM     60  C   UNL A   1      41.619  34.668  35.655  1.00  0.00     0.134 A 
ATOM     61  C   UNL A   1      42.743  35.802  33.869  1.00  0.00     0.134 A 
ATOM     62  F   UNL A   1      40.944  33.619  36.147  1.00  0.00    -0.206 F 
ATOM     63  C   UNL A   1      41.842  35.758  36.497  1.00  0.00     0.040 A 
ATOM     64  C   UNL A   1      42.995  36.888  34.710  1.00  0.00     0.040 A 
ATOM     65  F   UNL A   1      43.192  35.867  32.607  1.00  0.00    -0.206 F 
ATOM     66  C   UNL A   1      42.540  36.869  36.027  1.00  0.00     0.006 A 
ENDBRANCH  45  59
BRANCH  46  67
ATOM     67  C   UNL A   1      40.261  26.963  28.242  1.00  0.00     0.057 A 
ATOM     68  C   UNL A   1      40.826  26.921  26.961  1.00  0.00     0.134 A 
ATOM     69  C   UNL A   1      39.429  25.900  28.613  1.00  0.00     0.134 A 
ATOM     70  F   UNL A   1      41.616  27.920  26.540  1.00  0.00    -0.206 F 
ATOM     71  C   UNL A   1      40.548  25.883  26.070  1.00  0.00     0.040 A 
ATOM     72  C   UNL A   1      39.163  24.842  27.742  1.00  0.00     0.040 A 
ATOM     73  F   UNL A   1      38.862  25.876  29.829  1.00  0.00    -0.206 F 
ATOM     74  C   UNL A   1      39.715  24.837  26.463  1.00  0.00     0.006 A 
ENDBRANCH  46  67
BRANCH  58  75
ATOM     75  C   UNL A   1      45.390  28.496  32.673  1.00  0.00     0.057 A 
ATOM     76  C   UNL A   1      46.617  28.697  32.029  1.00  0.00     0.134 A 
ATOM     77  C   UNL A   1      45.360  27.592  33.743  1.00  0.00     0.134 A 
ATOM     78  F   UNL A   1      46.709  29.539  30.988  1.00  0.00    -0.206 F 
ATOM     79  C   UNL A   1      47.765  28.006  32.418  1.00  0.00     0.040 A 
ATOM     80  C   UNL A   1      46.508  26.916  34.159  1.00  0.00     0.040 A 
ATOM     81  F   UNL A   1      44.218  27.361  34.408  1.00  0.00    -0.206 F 
ATOM     82  C   UNL A   1      47.714  27.117  33.491  1.00  0.00     0.006 A 
ENDBRANCH  58  75
ENDBRANCH  32  33
ENDBRANCH  24  27
ENDBRANCH  22  23
ENDBRANCH  21  22
ENDBRANCH   1  21
TORSDOF 13
ENDMDL
