MODEL 1
REMARK VINA RESULT:      -9.7      0.000      0.000
REMARK SMILES COc1ccc(-c2noc(C[N@H+]3CCCC[C@@H]3C(=O)NCCCCNC(=O)c3ccc(-c4c5nc(c(-c6c(F)cccc6F)c6ccc([nH]6)c(-c6c(F)cccc6F)c6nc(c(-c7c(F)cccc7F)c7ccc4[nH]7)C=C6)C=C5)cc3)n2)cc1OC
REMARK SMILES IDX 21 1 20 2 18 3 19 4 17 6 12 7 13 8 14 10 16 11 15 12 11 13
REMARK SMILES IDX 10 14 7 15 8 16 82 17 9 18 6 19 3 20 4 21 84 22 5 23 83 24
REMARK SMILES IDX 2 25 1 26 85 27 86 28 22 29 23 30 24 31 25 32 26 33 27 35
REMARK SMILES IDX 28 36 29 37 81 38 30 39 80 40 31 41 32 42 33 43 74 44 34 45
REMARK SMILES IDX 79 46 73 47 75 48 35 49 78 50 72 51 71 52 36 54 62 55 45 56
REMARK SMILES IDX 61 57 46 58 49 59 60 60 76 61 47 62 48 63 59 65 77 66 50 67
REMARK SMILES IDX 37 68 38 69 43 70 39 71 40 72 42 73 44 74 41 75 63 76 64 77
REMARK SMILES IDX 69 78 65 79 66 80 68 81 70 82 67 83 51 84 52 85 57 86 53 87
REMARK SMILES IDX 54 88 56 89 58 90 55 91
REMARK H PARENT 20 5 12 9 25 34 75 53 49 64
REMARK Flexibility Score: inf
ROOT
ATOM      1  C   UNL A   1      35.020  32.372  31.341  1.00  0.00     0.116 C 
ENDROOT
BRANCH   1   2
ATOM      2  N   UNL A   1      35.036  32.687  32.757  1.00  0.00    -0.351 N 
ATOM      3  C   UNL A   1      36.093  32.942  33.582  1.00  0.00     0.278 C 
ATOM      4  O   UNL A   1      35.847  33.169  34.770  1.00  0.00    -0.268 OA
ATOM      5  H   UNL A   1      34.151  32.723  33.188  1.00  0.00     0.163 HD
BRANCH   3   6
ATOM      6  C   UNL A   1      37.543  33.005  33.047  1.00  0.00     0.274 C 
ATOM      7  N   UNL A   1      38.482  32.397  34.029  1.00  0.00    -0.317 N 
ATOM      8  C   UNL A   1      39.889  32.555  33.649  1.00  0.00     0.263 C 
ATOM      9  H   UNL A   1      38.340  32.927  34.890  1.00  0.00     0.349 HD
ATOM     10  C   UNL A   1      40.241  34.018  33.385  1.00  0.00     0.062 C 
ATOM     11  C   UNL A   1      37.902  34.442  32.635  1.00  0.00     0.076 C 
ATOM     12  C   UNL A   1      39.373  34.583  32.270  1.00  0.00     0.012 C 
BRANCH   7  13
ATOM     13  C   UNL A   1      38.163  30.976  34.343  1.00  0.00     0.364 C 
BRANCH  13  14
ATOM     14  C   UNL A   1      39.309  30.083  34.696  1.00  0.00     0.282 A 
ATOM     15  C   UNL A   1      40.885  28.709  34.823  1.00  0.00     0.202 A 
ATOM     16  N   UNL A   1      40.751  29.142  36.084  1.00  0.00    -0.057 NA
ATOM     17  N   UNL A   1      40.000  29.267  33.930  1.00  0.00    -0.186 NA
ATOM     18  O   UNL A   1      39.733  30.088  35.993  1.00  0.00    -0.333 OA
BRANCH  15  19
ATOM     19  C   UNL A   1      41.928  27.798  34.410  1.00  0.00     0.027 A 
ATOM     20  C   UNL A   1      43.850  25.939  33.585  1.00  0.00     0.160 A 
ATOM     21  C   UNL A   1      43.747  27.183  32.944  1.00  0.00     0.051 A 
ATOM     22  C   UNL A   1      43.016  25.632  34.668  1.00  0.00     0.161 A 
ATOM     23  C   UNL A   1      42.775  28.103  33.342  1.00  0.00     0.016 A 
ATOM     24  C   UNL A   1      42.069  26.576  35.078  1.00  0.00     0.062 A 
BRANCH  20  25
ATOM     25  O   UNL A   1      44.832  25.072  33.184  1.00  0.00    -0.493 OA
ATOM     26  C   UNL A   1      44.394  24.242  32.107  1.00  0.00     0.278 C 
ENDBRANCH  20  25
BRANCH  22  27
ATOM     27  O   UNL A   1      42.995  24.494  35.428  1.00  0.00    -0.493 OA
ATOM     28  C   UNL A   1      44.195  24.111  36.080  1.00  0.00     0.278 C 
ENDBRANCH  22  27
ENDBRANCH  15  19
ENDBRANCH  13  14
ENDBRANCH   7  13
ENDBRANCH   3   6
ENDBRANCH   1   2
BRANCH   1  29
ATOM     29  C   UNL A   1      34.936  33.644  30.495  1.00  0.00     0.023 C 
BRANCH  29  30
ATOM     30  C   UNL A   1      34.155  33.485  29.191  1.00  0.00     0.023 C 
BRANCH  30  31
ATOM     31  C   UNL A   1      34.838  32.628  28.136  1.00  0.00     0.116 C 
BRANCH  31  32
ATOM     32  N   UNL A   1      34.129  31.385  27.867  1.00  0.00    -0.352 N 
ATOM     33  C   UNL A   1      34.631  30.108  27.826  1.00  0.00     0.251 C 
ATOM     34  H   UNL A   1      33.165  31.473  27.692  1.00  0.00     0.163 HD
ATOM     35  O   UNL A   1      33.930  29.169  27.461  1.00  0.00    -0.269 OA
BRANCH  33  36
ATOM     36  C   UNL A   1      36.042  29.881  28.197  1.00  0.00     0.039 A 
ATOM     37  C   UNL A   1      36.339  29.424  29.483  1.00  0.00     0.014 A 
ATOM     38  C   UNL A   1      37.056  30.072  27.256  1.00  0.00     0.014 A 
ATOM     39  C   UNL A   1      37.656  29.089  29.805  1.00  0.00     0.010 A 
ATOM     40  C   UNL A   1      38.353  29.673  27.557  1.00  0.00     0.010 A 
ATOM     41  C   UNL A   1      38.664  29.176  28.832  1.00  0.00    -0.014 A 
BRANCH  41  42
ATOM     42  C   UNL A   1      40.060  28.761  29.118  1.00  0.00     0.031 A 
ATOM     43  C   UNL A   1      41.002  29.726  29.777  1.00  0.00     0.074 A 
ATOM     44  C   UNL A   1      40.500  27.558  28.703  1.00  0.00     0.049 A 
ATOM     45  N   UNL A   1      42.288  29.613  29.988  1.00  0.00    -0.248 NA
ATOM     46  C   UNL A   1      40.427  31.002  30.230  1.00  0.00     0.031 C 
ATOM     47  C   UNL A   1      39.692  26.548  28.017  1.00  0.00     0.029 A 
ATOM     48  N   UNL A   1      41.746  26.988  28.780  1.00  0.00    -0.354 N 
ATOM     49  C   UNL A   1      42.679  30.811  30.573  1.00  0.00     0.074 A 
ATOM     50  C   UNL A   1      41.504  31.652  30.645  1.00  0.00     0.031 C 
ATOM     51  C   UNL A   1      40.460  25.480  27.747  1.00  0.00     0.029 A 
ATOM     52  C   UNL A   1      41.821  25.744  28.203  1.00  0.00     0.049 A 
ATOM     53  H   UNL A   1      42.515  27.431  29.209  1.00  0.00     0.167 HD
ATOM     54  C   UNL A   1      43.903  31.168  31.028  1.00  0.00     0.037 A 
ATOM     55  C   UNL A   1      42.872  24.918  28.048  1.00  0.00     0.037 A 
ATOM     56  C   UNL A   1      45.060  30.316  30.989  1.00  0.00     0.049 A 
ATOM     57  C   UNL A   1      44.221  25.337  28.563  1.00  0.00     0.074 A 
ATOM     58  C   UNL A   1      46.330  30.564  31.479  1.00  0.00     0.029 A 
ATOM     59  N   UNL A   1      45.087  29.048  30.427  1.00  0.00    -0.354 N 
ATOM     60  N   UNL A   1      44.566  26.450  29.164  1.00  0.00    -0.248 NA
ATOM     61  C   UNL A   1      45.327  24.387  28.380  1.00  0.00     0.031 C 
ATOM     62  C   UNL A   1      47.135  29.458  31.185  1.00  0.00     0.029 A 
ATOM     63  C   UNL A   1      46.354  28.507  30.547  1.00  0.00     0.049 A 
ATOM     64  H   UNL A   1      44.317  28.600  30.006  1.00  0.00     0.167 HD
ATOM     65  C   UNL A   1      45.917  26.321  29.458  1.00  0.00     0.074 A 
ATOM     66  C   UNL A   1      46.328  25.020  28.975  1.00  0.00     0.031 C 
ATOM     67  C   UNL A   1      46.741  27.201  30.077  1.00  0.00     0.037 A 
BRANCH  54  68
ATOM     68  C   UNL A   1      44.046  32.542  31.613  1.00  0.00     0.057 A 
ATOM     69  C   UNL A   1      43.853  32.788  32.979  1.00  0.00     0.134 A 
ATOM     70  C   UNL A   1      44.406  33.628  30.805  1.00  0.00     0.134 A 
ATOM     71  F   UNL A   1      43.493  31.792  33.804  1.00  0.00    -0.206 F 
ATOM     72  C   UNL A   1      43.987  34.068  33.517  1.00  0.00     0.040 A 
ATOM     73  C   UNL A   1      44.569  34.909  31.336  1.00  0.00     0.040 A 
ATOM     74  F   UNL A   1      44.611  33.462  29.490  1.00  0.00    -0.206 F 
ATOM     75  C   UNL A   1      44.353  35.133  32.695  1.00  0.00     0.006 A 
ENDBRANCH  54  68
BRANCH  55  76
ATOM     76  C   UNL A   1      42.689  23.600  27.392  1.00  0.00     0.057 A 
ATOM     77  C   UNL A   1      42.372  22.461  28.141  1.00  0.00     0.134 A 
ATOM     78  C   UNL A   1      42.829  23.443  26.008  1.00  0.00     0.134 A 
ATOM     79  F   UNL A   1      42.244  22.545  29.474  1.00  0.00    -0.206 F 
ATOM     80  C   UNL A   1      42.218  21.210  27.542  1.00  0.00     0.040 A 
ATOM     81  C   UNL A   1      42.655  22.202  25.392  1.00  0.00     0.040 A 
ATOM     82  F   UNL A   1      43.125  24.496  25.233  1.00  0.00    -0.206 F 
ATOM     83  C   UNL A   1      42.355  21.080  26.161  1.00  0.00     0.006 A 
ENDBRANCH  55  76
BRANCH  67  84
ATOM     84  C   UNL A   1      48.158  26.771  30.309  1.00  0.00     0.057 A 
ATOM     85  C   UNL A   1      48.526  26.009  31.424  1.00  0.00     0.134 A 
ATOM     86  C   UNL A   1      49.152  27.074  29.370  1.00  0.00     0.134 A 
ATOM     87  F   UNL A   1      47.621  25.698  32.364  1.00  0.00    -0.206 F 
ATOM     88  C   UNL A   1      49.840  25.573  31.604  1.00  0.00     0.040 A 
ATOM     89  C   UNL A   1      50.464  26.625  29.528  1.00  0.00     0.040 A 
ATOM     90  F   UNL A   1      48.861  27.795  28.277  1.00  0.00    -0.206 F 
ATOM     91  C   UNL A   1      50.811  25.874  30.650  1.00  0.00     0.006 A 
ENDBRANCH  67  84
ENDBRANCH  41  42
ENDBRANCH  33  36
ENDBRANCH  31  32
ENDBRANCH  30  31
ENDBRANCH  29  30
ENDBRANCH   1  29
TORSDOF 16
ENDMDL
MODEL 2
REMARK VINA RESULT:      -9.3      4.485      7.960
REMARK SMILES COc1ccc(-c2noc(C[N@H+]3CCCC[C@@H]3C(=O)NCCCCNC(=O)c3ccc(-c4c5nc(c(-c6c(F)cccc6F)c6ccc([nH]6)c(-c6c(F)cccc6F)c6nc(c(-c7c(F)cccc7F)c7ccc4[nH]7)C=C6)C=C5)cc3)n2)cc1OC
REMARK SMILES IDX 21 1 20 2 18 3 19 4 17 6 12 7 13 8 14 10 16 11 15 12 11 13
REMARK SMILES IDX 10 14 7 15 8 16 82 17 9 18 6 19 3 20 4 21 84 22 5 23 83 24
REMARK SMILES IDX 2 25 1 26 85 27 86 28 22 29 23 30 24 31 25 32 26 33 27 35
REMARK SMILES IDX 28 36 29 37 81 38 30 39 80 40 31 41 32 42 33 43 74 44 34 45
REMARK SMILES IDX 79 46 73 47 75 48 35 49 78 50 72 51 71 52 36 54 62 55 45 56
REMARK SMILES IDX 61 57 46 58 49 59 60 60 76 61 47 62 48 63 59 65 77 66 50 67
REMARK SMILES IDX 37 68 38 69 43 70 39 71 40 72 42 73 44 74 41 75 63 76 64 77
REMARK SMILES IDX 69 78 65 79 66 80 68 81 70 82 67 83 51 84 52 85 57 86 53 87
REMARK SMILES IDX 54 88 56 89 58 90 55 91
REMARK H PARENT 20 5 12 9 25 34 75 53 49 64
REMARK Flexibility Score: inf
ROOT
ATOM      1  C   UNL A   1      31.199  26.558  26.035  1.00  0.00     0.116 C 
ENDROOT
BRANCH   1   2
ATOM      2  N   UNL A   1      30.011  26.658  25.207  1.00  0.00    -0.351 N 
ATOM      3  C   UNL A   1      29.878  27.100  23.922  1.00  0.00     0.278 C 
ATOM      4  O   UNL A   1      28.744  27.105  23.436  1.00  0.00    -0.268 OA
ATOM      5  H   UNL A   1      29.176  26.362  25.636  1.00  0.00     0.163 HD
BRANCH   3   6
ATOM      6  C   UNL A   1      31.104  27.523  23.079  1.00  0.00     0.274 C 
ATOM      7  N   UNL A   1      32.091  26.410  23.011  1.00  0.00    -0.317 N 
ATOM      8  C   UNL A   1      33.342  26.795  22.349  1.00  0.00     0.263 C 
ATOM      9  H   UNL A   1      32.317  26.201  23.984  1.00  0.00     0.349 HD
ATOM     10  C   UNL A   1      33.958  28.039  22.987  1.00  0.00     0.062 C 
ATOM     11  C   UNL A   1      31.681  28.850  23.597  1.00  0.00     0.076 C 
ATOM     12  C   UNL A   1      32.991  29.212  22.912  1.00  0.00     0.012 C 
BRANCH   7  13
ATOM     13  C   UNL A   1      31.530  25.162  22.423  1.00  0.00     0.364 C 
BRANCH  13  14
ATOM     14  C   UNL A   1      31.772  23.889  23.169  1.00  0.00     0.282 A 
ATOM     15  C   UNL A   1      32.350  22.022  23.921  1.00  0.00     0.202 A 
ATOM     16  N   UNL A   1      31.385  22.409  24.766  1.00  0.00    -0.057 NA
ATOM     17  N   UNL A   1      32.614  22.914  22.909  1.00  0.00    -0.186 NA
ATOM     18  O   UNL A   1      31.030  23.670  24.293  1.00  0.00    -0.333 OA
BRANCH  15  19
ATOM     19  C   UNL A   1      33.116  20.809  24.103  1.00  0.00     0.027 A 
ATOM     20  C   UNL A   1      34.613  18.496  24.589  1.00  0.00     0.160 A 
ATOM     21  C   UNL A   1      33.309  18.401  24.080  1.00  0.00     0.051 A 
ATOM     22  C   UNL A   1      35.190  19.751  24.822  1.00  0.00     0.161 A 
ATOM     23  C   UNL A   1      32.553  19.555  23.857  1.00  0.00     0.016 A 
ATOM     24  C   UNL A   1      34.435  20.898  24.561  1.00  0.00     0.062 A 
BRANCH  20  25
ATOM     25  O   UNL A   1      35.332  17.344  24.772  1.00  0.00    -0.493 OA
ATOM     26  C   UNL A   1      34.484  16.194  24.811  1.00  0.00     0.278 C 
ENDBRANCH  20  25
BRANCH  22  27
ATOM     27  O   UNL A   1      36.448  20.035  25.280  1.00  0.00    -0.493 OA
ATOM     28  C   UNL A   1      37.198  21.020  24.586  1.00  0.00     0.278 C 
ENDBRANCH  22  27
ENDBRANCH  15  19
ENDBRANCH  13  14
ENDBRANCH   7  13
ENDBRANCH   3   6
ENDBRANCH   1   2
BRANCH   1  29
ATOM     29  C   UNL A   1      31.421  27.843  26.835  1.00  0.00     0.023 C 
BRANCH  29  30
ATOM     30  C   UNL A   1      32.735  27.882  27.615  1.00  0.00     0.023 C 
BRANCH  30  31
ATOM     31  C   UNL A   1      33.787  28.825  27.048  1.00  0.00     0.116 C 
BRANCH  31  32
ATOM     32  N   UNL A   1      33.725  30.160  27.627  1.00  0.00    -0.352 N 
ATOM     33  C   UNL A   1      34.683  30.820  28.355  1.00  0.00     0.251 C 
ATOM     34  H   UNL A   1      32.887  30.653  27.474  1.00  0.00     0.163 HD
ATOM     35  O   UNL A   1      34.436  31.899  28.886  1.00  0.00    -0.269 OA
BRANCH  33  36
ATOM     36  C   UNL A   1      36.011  30.197  28.522  1.00  0.00     0.039 A 
ATOM     37  C   UNL A   1      36.923  30.252  27.466  1.00  0.00     0.014 A 
ATOM     38  C   UNL A   1      36.364  29.608  29.739  1.00  0.00     0.014 A 
ATOM     39  C   UNL A   1      38.222  29.775  27.655  1.00  0.00     0.010 A 
ATOM     40  C   UNL A   1      37.676  29.199  29.947  1.00  0.00     0.010 A 
ATOM     41  C   UNL A   1      38.617  29.281  28.908  1.00  0.00    -0.014 A 
BRANCH  41  42
ATOM     42  C   UNL A   1      40.008  28.834  29.165  1.00  0.00     0.031 A 
ATOM     43  C   UNL A   1      40.989  29.783  29.790  1.00  0.00     0.074 A 
ATOM     44  C   UNL A   1      40.408  27.616  28.755  1.00  0.00     0.049 A 
ATOM     45  N   UNL A   1      42.277  29.640  29.972  1.00  0.00    -0.248 NA
ATOM     46  C   UNL A   1      40.457  31.078  30.241  1.00  0.00     0.031 C 
ATOM     47  C   UNL A   1      39.559  26.618  28.100  1.00  0.00     0.029 A 
ATOM     48  N   UNL A   1      41.642  27.016  28.809  1.00  0.00    -0.354 N 
ATOM     49  C   UNL A   1      42.711  30.834  30.534  1.00  0.00     0.074 A 
ATOM     50  C   UNL A   1      41.559  31.705  30.623  1.00  0.00     0.031 C 
ATOM     51  C   UNL A   1      40.294  25.529  27.825  1.00  0.00     0.029 A 
ATOM     52  C   UNL A   1      41.672  25.764  28.246  1.00  0.00     0.049 A 
ATOM     53  H   UNL A   1      42.431  27.444  29.214  1.00  0.00     0.167 HD
ATOM     54  C   UNL A   1      43.954  31.166  30.956  1.00  0.00     0.037 A 
ATOM     55  C   UNL A   1      42.698  24.909  28.076  1.00  0.00     0.037 A 
ATOM     56  C   UNL A   1      45.089  30.285  30.899  1.00  0.00     0.049 A 
ATOM     57  C   UNL A   1      44.069  25.301  28.554  1.00  0.00     0.074 A 
ATOM     58  C   UNL A   1      46.375  30.506  31.356  1.00  0.00     0.029 A 
ATOM     59  N   UNL A   1      45.070  29.011  30.352  1.00  0.00    -0.354 N 
ATOM     60  N   UNL A   1      44.455  26.412  29.132  1.00  0.00    -0.248 NA
ATOM     61  C   UNL A   1      45.146  24.321  28.356  1.00  0.00     0.031 C 
ATOM     62  C   UNL A   1      47.145  29.378  31.056  1.00  0.00     0.029 A 
ATOM     63  C   UNL A   1      46.327  28.439  30.448  1.00  0.00     0.049 A 
ATOM     64  H   UNL A   1      44.280  28.577  29.954  1.00  0.00     0.167 HD
ATOM     65  C   UNL A   1      45.809  26.252  29.397  1.00  0.00     0.074 A 
ATOM     66  C   UNL A   1      46.177  24.936  28.919  1.00  0.00     0.031 C 
ATOM     67  C   UNL A   1      46.669  27.118  29.985  1.00  0.00     0.037 A 
BRANCH  54  68
ATOM     68  C   UNL A   1      44.145  32.543  31.520  1.00  0.00     0.057 A 
ATOM     69  C   UNL A   1      43.990  32.809  32.887  1.00  0.00     0.134 A 
ATOM     70  C   UNL A   1      44.514  33.610  30.691  1.00  0.00     0.134 A 
ATOM     71  F   UNL A   1      43.624  31.833  33.732  1.00  0.00    -0.206 F 
ATOM     72  C   UNL A   1      44.168  34.092  33.406  1.00  0.00     0.040 A 
ATOM     73  C   UNL A   1      44.721  34.892  31.203  1.00  0.00     0.040 A 
ATOM     74  F   UNL A   1      44.684  33.423  29.374  1.00  0.00    -0.206 F 
ATOM     75  C   UNL A   1      44.542  35.137  32.563  1.00  0.00     0.006 A 
ENDBRANCH  54  68
BRANCH  55  76
ATOM     76  C   UNL A   1      42.467  23.589  27.440  1.00  0.00     0.057 A 
ATOM     77  C   UNL A   1      42.588  23.427  26.055  1.00  0.00     0.134 A 
ATOM     78  C   UNL A   1      42.119  22.462  28.193  1.00  0.00     0.134 A 
ATOM     79  F   UNL A   1      42.900  24.476  25.278  1.00  0.00    -0.206 F 
ATOM     80  C   UNL A   1      42.354  22.197  25.439  1.00  0.00     0.040 A 
ATOM     81  C   UNL A   1      41.905  21.220  27.592  1.00  0.00     0.040 A 
ATOM     82  F   UNL A   1      41.995  22.549  29.525  1.00  0.00    -0.206 F 
ATOM     83  C   UNL A   1      42.015  21.087  26.210  1.00  0.00     0.006 A 
ENDBRANCH  55  76
BRANCH  67  84
ATOM     84  C   UNL A   1      48.081  26.656  30.189  1.00  0.00     0.057 A 
ATOM     85  C   UNL A   1      48.455  25.892  31.300  1.00  0.00     0.134 A 
ATOM     86  C   UNL A   1      49.061  26.929  29.226  1.00  0.00     0.134 A 
ATOM     87  F   UNL A   1      47.564  25.608  32.262  1.00  0.00    -0.206 F 
ATOM     88  C   UNL A   1      49.762  25.426  31.454  1.00  0.00     0.040 A 
ATOM     89  C   UNL A   1      50.365  26.449  29.359  1.00  0.00     0.040 A 
ATOM     90  F   UNL A   1      48.762  27.649  28.135  1.00  0.00    -0.206 F 
ATOM     91  C   UNL A   1      50.719  25.697  30.477  1.00  0.00     0.006 A 
ENDBRANCH  67  84
ENDBRANCH  41  42
ENDBRANCH  33  36
ENDBRANCH  31  32
ENDBRANCH  30  31
ENDBRANCH  29  30
ENDBRANCH   1  29
TORSDOF 16
ENDMDL
MODEL 3
REMARK VINA RESULT:      -9.3      4.290      9.236
REMARK SMILES COc1ccc(-c2noc(C[N@H+]3CCCC[C@@H]3C(=O)NCCCCNC(=O)c3ccc(-c4c5nc(c(-c6c(F)cccc6F)c6ccc([nH]6)c(-c6c(F)cccc6F)c6nc(c(-c7c(F)cccc7F)c7ccc4[nH]7)C=C6)C=C5)cc3)n2)cc1OC
REMARK SMILES IDX 21 1 20 2 18 3 19 4 17 6 12 7 13 8 14 10 16 11 15 12 11 13
REMARK SMILES IDX 10 14 7 15 8 16 82 17 9 18 6 19 3 20 4 21 84 22 5 23 83 24
REMARK SMILES IDX 2 25 1 26 85 27 86 28 22 29 23 30 24 31 25 32 26 33 27 35
REMARK SMILES IDX 28 36 29 37 81 38 30 39 80 40 31 41 32 42 33 43 74 44 34 45
REMARK SMILES IDX 79 46 73 47 75 48 35 49 78 50 72 51 71 52 36 54 62 55 45 56
REMARK SMILES IDX 61 57 46 58 49 59 60 60 76 61 47 62 48 63 59 65 77 66 50 67
REMARK SMILES IDX 37 68 38 69 43 70 39 71 40 72 42 73 44 74 41 75 63 76 64 77
REMARK SMILES IDX 69 78 65 79 66 80 68 81 70 82 67 83 51 84 52 85 57 86 53 87
REMARK SMILES IDX 54 88 56 89 58 90 55 91
REMARK H PARENT 20 5 12 9 25 34 75 53 49 64
REMARK Flexibility Score: inf
ROOT
ATOM      1  C   UNL A   1      34.433  24.791  25.745  1.00  0.00     0.116 C 
ENDROOT
BRANCH   1   2
ATOM      2  N   UNL A   1      35.439  24.490  24.743  1.00  0.00    -0.351 N 
ATOM      3  C   UNL A   1      35.533  23.426  23.893  1.00  0.00     0.278 C 
ATOM      4  O   UNL A   1      36.506  23.387  23.135  1.00  0.00    -0.268 OA
ATOM      5  H   UNL A   1      36.162  25.154  24.663  1.00  0.00     0.163 HD
BRANCH   3   6
ATOM      6  C   UNL A   1      34.436  22.337  23.833  1.00  0.00     0.274 C 
ATOM      7  N   UNL A   1      33.125  22.946  23.481  1.00  0.00    -0.317 N 
ATOM      8  C   UNL A   1      32.013  21.991  23.550  1.00  0.00     0.263 C 
ATOM      9  H   UNL A   1      32.962  23.651  24.200  1.00  0.00     0.349 HD
ATOM     10  C   UNL A   1      31.951  21.296  24.909  1.00  0.00     0.062 C 
ATOM     11  C   UNL A   1      34.424  21.514  25.131  1.00  0.00     0.076 C 
ATOM     12  C   UNL A   1      33.248  20.550  25.187  1.00  0.00     0.012 C 
BRANCH   7  13
ATOM     13  C   UNL A   1      33.142  23.662  22.175  1.00  0.00     0.364 C 
BRANCH  13  14
ATOM     14  C   UNL A   1      32.853  25.129  22.199  1.00  0.00     0.282 A 
ATOM     15  C   UNL A   1      32.103  27.077  22.370  1.00  0.00     0.202 A 
ATOM     16  N   UNL A   1      33.283  27.254  21.759  1.00  0.00    -0.057 NA
ATOM     17  N   UNL A   1      31.797  25.767  22.653  1.00  0.00    -0.186 NA
ATOM     18  O   UNL A   1      33.803  25.964  21.685  1.00  0.00    -0.333 OA
BRANCH  15  19
ATOM     19  C   UNL A   1      31.256  28.175  22.780  1.00  0.00     0.027 A 
ATOM     20  C   UNL A   1      29.512  30.210  23.584  1.00  0.00     0.160 A 
ATOM     21  C   UNL A   1      30.684  29.953  24.312  1.00  0.00     0.051 A 
ATOM     22  C   UNL A   1      29.224  29.474  22.427  1.00  0.00     0.161 A 
ATOM     23  C   UNL A   1      31.545  28.924  23.923  1.00  0.00     0.016 A 
ATOM     24  C   UNL A   1      30.112  28.470  22.029  1.00  0.00     0.062 A 
BRANCH  20  25
ATOM     25  O   UNL A   1      28.706  31.243  23.981  1.00  0.00    -0.493 OA
ATOM     26  C   UNL A   1      29.165  32.496  23.471  1.00  0.00     0.278 C 
ENDBRANCH  20  25
BRANCH  22  27
ATOM     27  O   UNL A   1      28.156  29.605  21.581  1.00  0.00    -0.493 OA
ATOM     28  C   UNL A   1      28.108  30.754  20.751  1.00  0.00     0.278 C 
ENDBRANCH  22  27
ENDBRANCH  15  19
ENDBRANCH  13  14
ENDBRANCH   7  13
ENDBRANCH   3   6
ENDBRANCH   1   2
BRANCH   1  29
ATOM     29  C   UNL A   1      33.627  26.032  25.359  1.00  0.00     0.023 C 
BRANCH  29  30
ATOM     30  C   UNL A   1      33.520  27.084  26.463  1.00  0.00     0.023 C 
BRANCH  30  31
ATOM     31  C   UNL A   1      34.527  28.221  26.364  1.00  0.00     0.116 C 
BRANCH  31  32
ATOM     32  N   UNL A   1      34.030  29.471  26.919  1.00  0.00    -0.352 N 
ATOM     33  C   UNL A   1      34.653  30.324  27.796  1.00  0.00     0.251 C 
ATOM     34  H   UNL A   1      33.130  29.740  26.625  1.00  0.00     0.163 HD
ATOM     35  O   UNL A   1      34.053  31.282  28.274  1.00  0.00    -0.269 OA
BRANCH  33  36
ATOM     36  C   UNL A   1      36.050  30.053  28.187  1.00  0.00     0.039 A 
ATOM     37  C   UNL A   1      36.308  29.504  29.445  1.00  0.00     0.014 A 
ATOM     38  C   UNL A   1      37.092  30.297  27.288  1.00  0.00     0.014 A 
ATOM     39  C   UNL A   1      37.612  29.130  29.777  1.00  0.00     0.010 A 
ATOM     40  C   UNL A   1      38.376  29.861  27.593  1.00  0.00     0.010 A 
ATOM     41  C   UNL A   1      38.647  29.272  28.839  1.00  0.00    -0.014 A 
BRANCH  41  42
ATOM     42  C   UNL A   1      40.029  28.820  29.131  1.00  0.00     0.031 A 
ATOM     43  C   UNL A   1      40.998  29.764  29.783  1.00  0.00     0.074 A 
ATOM     44  C   UNL A   1      40.436  27.601  28.728  1.00  0.00     0.049 A 
ATOM     45  N   UNL A   1      42.280  29.616  29.998  1.00  0.00    -0.248 NA
ATOM     46  C   UNL A   1      40.458  31.060  30.224  1.00  0.00     0.031 C 
ATOM     47  C   UNL A   1      39.601  26.609  28.049  1.00  0.00     0.029 A 
ATOM     48  N   UNL A   1      41.666  26.997  28.813  1.00  0.00    -0.354 N 
ATOM     49  C   UNL A   1      42.704  30.807  30.574  1.00  0.00     0.074 A 
ATOM     50  C   UNL A   1      41.553  31.682  30.635  1.00  0.00     0.031 C 
ATOM     51  C   UNL A   1      40.339  25.517  27.790  1.00  0.00     0.029 A 
ATOM     52  C   UNL A   1      41.706  25.746  28.247  1.00  0.00     0.049 A 
ATOM     53  H   UNL A   1      42.446  27.422  29.239  1.00  0.00     0.167 HD
ATOM     54  C   UNL A   1      43.936  31.134  31.028  1.00  0.00     0.037 A 
ATOM     55  C   UNL A   1      42.733  24.889  28.101  1.00  0.00     0.037 A 
ATOM     56  C   UNL A   1      45.069  30.249  30.998  1.00  0.00     0.049 A 
ATOM     57  C   UNL A   1      44.093  25.275  28.615  1.00  0.00     0.074 A 
ATOM     58  C   UNL A   1      46.344  30.465  31.489  1.00  0.00     0.029 A 
ATOM     59  N   UNL A   1      45.060  28.976  30.448  1.00  0.00    -0.354 N 
ATOM     60  N   UNL A   1      44.468  26.383  29.206  1.00  0.00    -0.248 NA
ATOM     61  C   UNL A   1      45.172  24.292  28.443  1.00  0.00     0.031 C 
ATOM     62  C   UNL A   1      47.118  29.335  31.206  1.00  0.00     0.029 A 
ATOM     63  C   UNL A   1      46.312  28.400  30.575  1.00  0.00     0.049 A 
ATOM     64  H   UNL A   1      44.279  28.546  30.029  1.00  0.00     0.167 HD
ATOM     65  C   UNL A   1      45.814  26.218  29.505  1.00  0.00     0.074 A 
ATOM     66  C   UNL A   1      46.190  24.901  29.034  1.00  0.00     0.031 C 
ATOM     67  C   UNL A   1      46.662  27.080  30.117  1.00  0.00     0.037 A 
BRANCH  54  68
ATOM     68  C   UNL A   1      44.117  32.509  31.601  1.00  0.00     0.057 A 
ATOM     69  C   UNL A   1      44.444  33.607  30.796  1.00  0.00     0.134 A 
ATOM     70  C   UNL A   1      43.936  32.742  32.970  1.00  0.00     0.134 A 
ATOM     71  F   UNL A   1      44.644  33.448  29.478  1.00  0.00    -0.206 F 
ATOM     72  C   UNL A   1      44.612  34.884  31.334  1.00  0.00     0.040 A 
ATOM     73  C   UNL A   1      44.075  34.018  33.516  1.00  0.00     0.040 A 
ATOM     74  F   UNL A   1      43.617  31.735  33.797  1.00  0.00    -0.206 F 
ATOM     75  C   UNL A   1      44.420  35.093  32.699  1.00  0.00     0.006 A 
ENDBRANCH  54  68
BRANCH  55  76
ATOM     76  C   UNL A   1      42.515  23.571  27.456  1.00  0.00     0.057 A 
ATOM     77  C   UNL A   1      42.642  23.419  26.070  1.00  0.00     0.134 A 
ATOM     78  C   UNL A   1      42.171  22.437  28.200  1.00  0.00     0.134 A 
ATOM     79  F   UNL A   1      42.950  24.474  25.301  1.00  0.00    -0.206 F 
ATOM     80  C   UNL A   1      42.420  22.191  25.446  1.00  0.00     0.040 A 
ATOM     81  C   UNL A   1      41.968  21.197  27.591  1.00  0.00     0.040 A 
ATOM     82  F   UNL A   1      42.041  22.515  29.533  1.00  0.00    -0.206 F 
ATOM     83  C   UNL A   1      42.086  21.074  26.209  1.00  0.00     0.006 A 
ENDBRANCH  55  76
BRANCH  67  84
ATOM     84  C   UNL A   1      48.066  26.612  30.356  1.00  0.00     0.057 A 
ATOM     85  C   UNL A   1      48.425  25.909  31.512  1.00  0.00     0.134 A 
ATOM     86  C   UNL A   1      49.055  26.816  29.385  1.00  0.00     0.134 A 
ATOM     87  F   UNL A   1      47.525  25.693  32.483  1.00  0.00    -0.206 F 
ATOM     88  C   UNL A   1      49.724  25.436  31.701  1.00  0.00     0.040 A 
ATOM     89  C   UNL A   1      50.351  26.328  29.553  1.00  0.00     0.040 A 
ATOM     90  F   UNL A   1      48.771  27.475  28.252  1.00  0.00    -0.206 F 
ATOM     91  C   UNL A   1      50.690  25.638  30.715  1.00  0.00     0.006 A 
ENDBRANCH  67  84
ENDBRANCH  41  42
ENDBRANCH  33  36
ENDBRANCH  31  32
ENDBRANCH  30  31
ENDBRANCH  29  30
ENDBRANCH   1  29
TORSDOF 16
ENDMDL
