MODEL 1
REMARK VINA RESULT:     -12.6      0.000      0.000
REMARK SMILES Cc1cccc(C(=O)NCCCCNC(=O)c2ccc(-c3c4nc(c(-c5c(F)cccc5F)c5ccc([nH]5)c(-c5c(F)cccc5F)c5nc(c(-c6c(F)cccc6F)c6ccc3[nH]6)C=C5)C=C4)cc2)c1OC[C@@H]1C[C@H]2CC[C@@H]1C2
REMARK SMILES IDX 11 1 10 2 9 3 7 4 8 5 6 7 1 8 2 9 3 10 71 11 4 12 5 13 72 14
REMARK SMILES IDX 73 15 74 16 75 17 79 18 76 19 78 20 80 21 77 22 12 23 13 24
REMARK SMILES IDX 14 25 15 26 16 28 17 29 18 30 70 31 19 32 69 33 20 34 21 35
REMARK SMILES IDX 22 36 63 37 23 38 68 39 62 40 64 41 24 42 67 43 61 44 60 45
REMARK SMILES IDX 25 47 51 48 34 49 50 50 35 51 38 52 49 53 65 54 36 55 37 56
REMARK SMILES IDX 48 58 66 59 39 60 26 61 27 62 32 63 28 64 29 65 31 66 33 67
REMARK SMILES IDX 30 68 52 69 53 70 58 71 54 72 55 73 57 74 59 75 56 76 40 77
REMARK SMILES IDX 41 78 46 79 42 80 43 81 45 82 47 83 44 84
REMARK H PARENT 9 6 14 27 64 46 38 57
REMARK Flexibility Score: inf
ROOT
ATOM      1  C   UNL A   1      33.204  29.087  26.903  1.00  0.00     0.023 C 
ENDROOT
BRANCH   1   2
ATOM      2  C   UNL A   1      32.803  30.084  25.805  1.00  0.00     0.116 C 
BRANCH   2   3
ATOM      3  N   UNL A   1      33.362  29.719  24.528  1.00  0.00    -0.352 N 
ATOM      4  C   UNL A   1      33.380  28.573  23.786  1.00  0.00     0.255 C 
ATOM      5  O   UNL A   1      33.983  28.690  22.708  1.00  0.00    -0.269 OA
ATOM      6  H   UNL A   1      33.838  30.463  24.093  1.00  0.00     0.163 HD
BRANCH   4   7
ATOM      7  C   UNL A   1      32.765  27.235  24.100  1.00  0.00     0.082 A 
ATOM      8  C   UNL A   1      29.886  25.420  25.857  1.00  0.00     0.048 C 
ATOM      9  C   UNL A   1      31.147  25.693  25.078  1.00  0.00    -0.008 A 
ATOM     10  C   UNL A   1      32.157  24.723  25.219  1.00  0.00     0.007 A 
ATOM     11  C   UNL A   1      31.422  26.908  24.407  1.00  0.00     0.134 A 
ATOM     12  C   UNL A   1      33.448  24.978  24.792  1.00  0.00     0.001 A 
ATOM     13  C   UNL A   1      33.750  26.231  24.273  1.00  0.00     0.018 A 
BRANCH  11  14
ATOM     14  O   UNL A   1      30.438  27.820  24.184  1.00  0.00    -0.492 OA
BRANCH  14  15
ATOM     15  C   UNL A   1      29.953  28.086  22.849  1.00  0.00     0.233 C 
BRANCH  15  16
ATOM     16  C   UNL A   1      29.691  29.549  22.424  1.00  0.00     0.030 C 
ATOM     17  C   UNL A   1      29.677  30.524  23.640  1.00  0.00     0.011 C 
ATOM     18  C   UNL A   1      28.246  29.742  21.884  1.00  0.00    -0.004 C 
ATOM     19  C   UNL A   1      28.274  31.159  23.589  1.00  0.00    -0.010 C 
ATOM     20  C   UNL A   1      28.145  31.112  21.195  1.00  0.00     0.004 C 
ATOM     21  C   UNL A   1      27.422  29.976  23.154  1.00  0.00     0.007 C 
ATOM     22  C   UNL A   1      28.181  32.092  22.373  1.00  0.00     0.004 C 
ENDBRANCH  15  16
ENDBRANCH  14  15
ENDBRANCH  11  14
ENDBRANCH   4   7
ENDBRANCH   2   3
ENDBRANCH   1   2
BRANCH   1  23
ATOM     23  C   UNL A   1      34.430  29.481  27.727  1.00  0.00     0.023 C 
BRANCH  23  24
ATOM     24  C   UNL A   1      34.876  30.913  27.485  1.00  0.00     0.116 C 
BRANCH  24  25
ATOM     25  N   UNL A   1      35.526  31.554  28.621  1.00  0.00    -0.352 N 
ATOM     26  C   UNL A   1      36.556  31.098  29.431  1.00  0.00     0.251 C 
ATOM     27  H   UNL A   1      35.180  32.447  28.851  1.00  0.00     0.163 HD
ATOM     28  O   UNL A   1      36.910  31.762  30.392  1.00  0.00    -0.269 OA
BRANCH  26  29
ATOM     29  C   UNL A   1      37.337  29.894  29.035  1.00  0.00     0.039 A 
ATOM     30  C   UNL A   1      37.428  28.853  29.969  1.00  0.00     0.014 A 
ATOM     31  C   UNL A   1      38.167  29.895  27.920  1.00  0.00     0.014 A 
ATOM     32  C   UNL A   1      38.541  28.017  29.948  1.00  0.00     0.010 A 
ATOM     33  C   UNL A   1      39.331  29.156  27.967  1.00  0.00     0.010 A 
ATOM     34  C   UNL A   1      39.554  28.283  29.035  1.00  0.00    -0.014 A 
BRANCH  34  35
ATOM     35  C   UNL A   1      40.927  27.825  29.209  1.00  0.00     0.031 A 
ATOM     36  C   UNL A   1      41.345  26.510  28.687  1.00  0.00     0.074 A 
ATOM     37  C   UNL A   1      41.830  28.667  29.766  1.00  0.00     0.049 A 
ATOM     38  N   UNL A   1      42.446  25.926  29.015  1.00  0.00    -0.248 NA
ATOM     39  C   UNL A   1      40.507  25.694  27.809  1.00  0.00     0.031 C 
ATOM     40  C   UNL A   1      43.286  28.556  29.741  1.00  0.00     0.029 A 
ATOM     41  N   UNL A   1      41.578  29.710  30.674  1.00  0.00    -0.354 N 
ATOM     42  C   UNL A   1      42.595  24.827  28.206  1.00  0.00     0.074 A 
ATOM     43  C   UNL A   1      41.314  24.655  27.573  1.00  0.00     0.031 C 
ATOM     44  C   UNL A   1      43.793  29.265  30.763  1.00  0.00     0.029 A 
ATOM     45  C   UNL A   1      42.672  29.717  31.566  1.00  0.00     0.049 A 
ATOM     46  H   UNL A   1      40.799  30.312  30.685  1.00  0.00     0.167 HD
ATOM     47  C   UNL A   1      43.832  24.274  28.082  1.00  0.00     0.037 A 
ATOM     48  C   UNL A   1      42.512  29.436  32.892  1.00  0.00     0.037 A 
ATOM     49  C   UNL A   1      44.719  24.754  29.142  1.00  0.00     0.049 A 
ATOM     50  C   UNL A   1      43.299  28.241  33.373  1.00  0.00     0.074 A 
ATOM     51  C   UNL A   1      45.765  25.658  29.178  1.00  0.00     0.029 A 
ATOM     52  N   UNL A   1      44.388  24.478  30.467  1.00  0.00    -0.354 N 
ATOM     53  N   UNL A   1      43.796  27.330  32.583  1.00  0.00    -0.248 NA
ATOM     54  C   UNL A   1      43.562  27.964  34.782  1.00  0.00     0.031 C 
ATOM     55  C   UNL A   1      45.983  26.010  30.539  1.00  0.00     0.029 A 
ATOM     56  C   UNL A   1      45.108  25.280  31.328  1.00  0.00     0.049 A 
ATOM     57  H   UNL A   1      43.729  23.803  30.750  1.00  0.00     0.167 HD
ATOM     58  C   UNL A   1      44.374  26.341  33.335  1.00  0.00     0.074 A 
ATOM     59  C   UNL A   1      44.234  26.802  34.703  1.00  0.00     0.031 C 
ATOM     60  C   UNL A   1      44.887  25.210  32.769  1.00  0.00     0.037 A 
BRANCH  47  61
ATOM     61  C   UNL A   1      44.306  23.436  26.912  1.00  0.00     0.057 A 
ATOM     62  C   UNL A   1      45.202  23.981  25.968  1.00  0.00     0.134 A 
ATOM     63  C   UNL A   1      43.825  22.155  26.570  1.00  0.00     0.134 A 
ATOM     64  F   UNL A   1      45.735  25.199  26.136  1.00  0.00    -0.206 F 
ATOM     65  C   UNL A   1      45.575  23.314  24.791  1.00  0.00     0.040 A 
ATOM     66  C   UNL A   1      44.229  21.458  25.422  1.00  0.00     0.040 A 
ATOM     67  F   UNL A   1      42.888  21.522  27.282  1.00  0.00    -0.206 F 
ATOM     68  C   UNL A   1      45.097  22.042  24.518  1.00  0.00     0.006 A 
ENDBRANCH  47  61
BRANCH  48  69
ATOM     69  C   UNL A   1      41.202  29.869  33.439  1.00  0.00     0.057 A 
ATOM     70  C   UNL A   1      41.024  31.228  33.733  1.00  0.00     0.134 A 
ATOM     71  C   UNL A   1      40.049  29.091  33.307  1.00  0.00     0.134 A 
ATOM     72  F   UNL A   1      42.095  32.019  33.890  1.00  0.00    -0.206 F 
ATOM     73  C   UNL A   1      39.760  31.822  33.766  1.00  0.00     0.040 A 
ATOM     74  C   UNL A   1      38.775  29.670  33.353  1.00  0.00     0.040 A 
ATOM     75  F   UNL A   1      40.136  27.787  33.009  1.00  0.00    -0.206 F 
ATOM     76  C   UNL A   1      38.630  31.046  33.538  1.00  0.00     0.006 A 
ENDBRANCH  48  69
BRANCH  60  77
ATOM     77  C   UNL A   1      45.275  23.957  33.519  1.00  0.00     0.057 A 
ATOM     78  C   UNL A   1      46.556  23.713  34.042  1.00  0.00     0.134 A 
ATOM     79  C   UNL A   1      44.297  23.002  33.872  1.00  0.00     0.134 A 
ATOM     80  F   UNL A   1      47.556  24.592  33.895  1.00  0.00    -0.206 F 
ATOM     81  C   UNL A   1      46.856  22.573  34.802  1.00  0.00     0.040 A 
ATOM     82  C   UNL A   1      44.572  21.890  34.674  1.00  0.00     0.040 A 
ATOM     83  F   UNL A   1      43.022  23.122  33.471  1.00  0.00    -0.206 F 
ATOM     84  C   UNL A   1      45.861  21.662  35.129  1.00  0.00     0.006 A 
ENDBRANCH  60  77
ENDBRANCH  34  35
ENDBRANCH  26  29
ENDBRANCH  24  25
ENDBRANCH  23  24
ENDBRANCH   1  23
TORSDOF 14
ENDMDL
MODEL 2
REMARK VINA RESULT:     -12.4      4.734     10.096
REMARK SMILES Cc1cccc(C(=O)NCCCCNC(=O)c2ccc(-c3c4nc(c(-c5c(F)cccc5F)c5ccc([nH]5)c(-c5c(F)cccc5F)c5nc(c(-c6c(F)cccc6F)c6ccc3[nH]6)C=C5)C=C4)cc2)c1OC[C@@H]1C[C@H]2CC[C@@H]1C2
REMARK SMILES IDX 11 1 10 2 9 3 7 4 8 5 6 7 1 8 2 9 3 10 71 11 4 12 5 13 72 14
REMARK SMILES IDX 73 15 74 16 75 17 79 18 76 19 78 20 80 21 77 22 12 23 13 24
REMARK SMILES IDX 14 25 15 26 16 28 17 29 18 30 70 31 19 32 69 33 20 34 21 35
REMARK SMILES IDX 22 36 63 37 23 38 68 39 62 40 64 41 24 42 67 43 61 44 60 45
REMARK SMILES IDX 25 47 51 48 34 49 50 50 35 51 38 52 49 53 65 54 36 55 37 56
REMARK SMILES IDX 48 58 66 59 39 60 26 61 27 62 32 63 28 64 29 65 31 66 33 67
REMARK SMILES IDX 30 68 52 69 53 70 58 71 54 72 55 73 57 74 59 75 56 76 40 77
REMARK SMILES IDX 41 78 46 79 42 80 43 81 45 82 47 83 44 84
REMARK H PARENT 9 6 14 27 64 46 38 57
REMARK Flexibility Score: inf
ROOT
ATOM      1  C   UNL A   1      37.320  21.292  24.908  1.00  0.00     0.023 C 
ENDROOT
BRANCH   1   2
ATOM      2  C   UNL A   1      36.279  22.336  25.343  1.00  0.00     0.116 C 
BRANCH   2   3
ATOM      3  N   UNL A   1      35.519  21.884  26.481  1.00  0.00    -0.352 N 
ATOM      4  C   UNL A   1      34.211  21.989  26.860  1.00  0.00     0.255 C 
ATOM      5  O   UNL A   1      33.963  21.437  27.942  1.00  0.00    -0.269 OA
ATOM      6  H   UNL A   1      36.066  21.388  27.133  1.00  0.00     0.163 HD
BRANCH   4   7
ATOM      7  C   UNL A   1      33.072  22.659  26.139  1.00  0.00     0.082 A 
ATOM      8  C   UNL A   1      31.713  23.785  22.740  1.00  0.00     0.048 C 
ATOM      9  C   UNL A   1      31.852  23.546  24.221  1.00  0.00    -0.008 A 
ATOM     10  C   UNL A   1      31.286  24.540  25.041  1.00  0.00     0.007 A 
ATOM     11  C   UNL A   1      32.653  22.529  24.793  1.00  0.00     0.134 A 
ATOM     12  C   UNL A   1      31.576  24.593  26.392  1.00  0.00     0.001 A 
ATOM     13  C   UNL A   1      32.484  23.685  26.921  1.00  0.00     0.018 A 
BRANCH  11  14
ATOM     14  O   UNL A   1      33.137  21.512  24.032  1.00  0.00    -0.492 OA
BRANCH  14  15
ATOM     15  C   UNL A   1      32.439  20.249  23.938  1.00  0.00     0.233 C 
BRANCH  15  16
ATOM     16  C   UNL A   1      32.942  19.051  24.773  1.00  0.00     0.030 C 
ATOM     17  C   UNL A   1      34.473  18.812  24.603  1.00  0.00     0.011 C 
ATOM     18  C   UNL A   1      32.381  17.702  24.242  1.00  0.00    -0.004 C 
ATOM     19  C   UNL A   1      34.567  17.373  24.060  1.00  0.00    -0.010 C 
ATOM     20  C   UNL A   1      32.651  16.601  25.280  1.00  0.00     0.004 C 
ATOM     21  C   UNL A   1      33.363  17.323  23.130  1.00  0.00     0.007 C 
ATOM     22  C   UNL A   1      34.165  16.386  25.166  1.00  0.00     0.004 C 
ENDBRANCH  15  16
ENDBRANCH  14  15
ENDBRANCH  11  14
ENDBRANCH   4   7
ENDBRANCH   2   3
ENDBRANCH   1   2
BRANCH   1  23
ATOM     23  C   UNL A   1      38.657  21.358  25.646  1.00  0.00     0.023 C 
BRANCH  23  24
ATOM     24  C   UNL A   1      39.040  22.768  26.062  1.00  0.00     0.116 C 
BRANCH  24  25
ATOM     25  N   UNL A   1      40.433  22.934  26.458  1.00  0.00    -0.352 N 
ATOM     26  C   UNL A   1      41.116  24.073  26.858  1.00  0.00     0.251 C 
ATOM     27  H   UNL A   1      40.974  22.110  26.437  1.00  0.00     0.163 HD
ATOM     28  O   UNL A   1      42.316  24.015  27.076  1.00  0.00    -0.269 OA
BRANCH  26  29
ATOM     29  C   UNL A   1      40.363  25.316  27.184  1.00  0.00     0.039 A 
ATOM     30  C   UNL A   1      40.628  26.449  26.404  1.00  0.00     0.014 A 
ATOM     31  C   UNL A   1      39.640  25.444  28.365  1.00  0.00     0.014 A 
ATOM     32  C   UNL A   1      40.453  27.713  26.960  1.00  0.00     0.010 A 
ATOM     33  C   UNL A   1      39.582  26.684  28.968  1.00  0.00     0.010 A 
ATOM     34  C   UNL A   1      40.075  27.804  28.295  1.00  0.00    -0.014 A 
BRANCH  34  35
ATOM     35  C   UNL A   1      40.316  28.986  29.113  1.00  0.00     0.031 A 
ATOM     36  C   UNL A   1      39.280  30.030  29.236  1.00  0.00     0.074 A 
ATOM     37  C   UNL A   1      41.459  29.059  29.835  1.00  0.00     0.049 A 
ATOM     38  N   UNL A   1      39.501  31.205  29.718  1.00  0.00    -0.248 NA
ATOM     39  C   UNL A   1      37.915  29.866  28.738  1.00  0.00     0.031 C 
ATOM     40  C   UNL A   1      41.758  29.959  30.946  1.00  0.00     0.029 A 
ATOM     41  N   UNL A   1      42.690  28.444  29.548  1.00  0.00    -0.354 N 
ATOM     42  C   UNL A   1      38.289  31.836  29.855  1.00  0.00     0.074 A 
ATOM     43  C   UNL A   1      37.360  31.021  29.117  1.00  0.00     0.031 C 
ATOM     44  C   UNL A   1      43.090  30.066  31.073  1.00  0.00     0.029 A 
ATOM     45  C   UNL A   1      43.683  29.365  29.948  1.00  0.00     0.049 A 
ATOM     46  H   UNL A   1      42.831  27.554  29.150  1.00  0.00     0.167 HD
ATOM     47  C   UNL A   1      38.205  32.910  30.686  1.00  0.00     0.037 A 
ATOM     48  C   UNL A   1      44.530  29.938  29.044  1.00  0.00     0.037 A 
ATOM     49  C   UNL A   1      39.540  33.416  31.008  1.00  0.00     0.049 A 
ATOM     50  C   UNL A   1      44.449  31.443  28.985  1.00  0.00     0.074 A 
ATOM     51  C   UNL A   1      40.345  33.345  32.131  1.00  0.00     0.029 A 
ATOM     52  N   UNL A   1      40.345  33.888  29.973  1.00  0.00    -0.354 N 
ATOM     53  N   UNL A   1      43.448  32.138  29.451  1.00  0.00    -0.248 NA
ATOM     54  C   UNL A   1      45.474  32.282  28.370  1.00  0.00     0.031 C 
ATOM     55  C   UNL A   1      41.671  33.670  31.731  1.00  0.00     0.029 A 
ATOM     56  C   UNL A   1      41.658  33.990  30.383  1.00  0.00     0.049 A 
ATOM     57  H   UNL A   1      40.020  34.116  29.072  1.00  0.00     0.167 HD
ATOM     58  C   UNL A   1      43.640  33.464  29.163  1.00  0.00     0.074 A 
ATOM     59  C   UNL A   1      44.939  33.507  28.519  1.00  0.00     0.031 C 
ATOM     60  C   UNL A   1      42.697  34.409  29.448  1.00  0.00     0.037 A 
BRANCH  47  61
ATOM     61  C   UNL A   1      36.940  33.407  31.355  1.00  0.00     0.057 A 
ATOM     62  C   UNL A   1      36.698  33.119  32.714  1.00  0.00     0.134 A 
ATOM     63  C   UNL A   1      35.861  34.041  30.703  1.00  0.00     0.134 A 
ATOM     64  F   UNL A   1      37.616  32.501  33.470  1.00  0.00    -0.206 F 
ATOM     65  C   UNL A   1      35.491  33.428  33.360  1.00  0.00     0.040 A 
ATOM     66  C   UNL A   1      34.669  34.399  31.351  1.00  0.00     0.040 A 
ATOM     67  F   UNL A   1      35.859  34.297  29.392  1.00  0.00    -0.206 F 
ATOM     68  C   UNL A   1      34.473  34.081  32.682  1.00  0.00     0.006 A 
ENDBRANCH  47  61
BRANCH  48  69
ATOM     69  C   UNL A   1      44.860  29.057  27.897  1.00  0.00     0.057 A 
ATOM     70  C   UNL A   1      45.815  28.048  28.090  1.00  0.00     0.134 A 
ATOM     71  C   UNL A   1      44.015  28.928  26.792  1.00  0.00     0.134 A 
ATOM     72  F   UNL A   1      46.666  28.129  29.123  1.00  0.00    -0.206 F 
ATOM     73  C   UNL A   1      45.848  26.895  27.302  1.00  0.00     0.040 A 
ATOM     74  C   UNL A   1      44.047  27.784  25.984  1.00  0.00     0.040 A 
ATOM     75  F   UNL A   1      43.065  29.842  26.551  1.00  0.00    -0.206 F 
ATOM     76  C   UNL A   1      44.934  26.745  26.266  1.00  0.00     0.006 A 
ENDBRANCH  48  69
BRANCH  60  77
ATOM     77  C   UNL A   1      42.692  35.824  28.918  1.00  0.00     0.057 A 
ATOM     78  C   UNL A   1      41.941  36.252  27.811  1.00  0.00     0.134 A 
ATOM     79  C   UNL A   1      43.349  36.855  29.625  1.00  0.00     0.134 A 
ATOM     80  F   UNL A   1      41.167  35.408  27.116  1.00  0.00    -0.206 F 
ATOM     81  C   UNL A   1      41.901  37.592  27.398  1.00  0.00     0.040 A 
ATOM     82  C   UNL A   1      43.271  38.202  29.256  1.00  0.00     0.040 A 
ATOM     83  F   UNL A   1      44.076  36.600  30.723  1.00  0.00    -0.206 F 
ATOM     84  C   UNL A   1      42.558  38.573  28.127  1.00  0.00     0.006 A 
ENDBRANCH  60  77
ENDBRANCH  34  35
ENDBRANCH  26  29
ENDBRANCH  24  25
ENDBRANCH  23  24
ENDBRANCH   1  23
TORSDOF 14
ENDMDL
MODEL 3
REMARK VINA RESULT:     -12.3      2.071      3.587
REMARK SMILES Cc1cccc(C(=O)NCCCCNC(=O)c2ccc(-c3c4nc(c(-c5c(F)cccc5F)c5ccc([nH]5)c(-c5c(F)cccc5F)c5nc(c(-c6c(F)cccc6F)c6ccc3[nH]6)C=C5)C=C4)cc2)c1OC[C@@H]1C[C@H]2CC[C@@H]1C2
REMARK SMILES IDX 11 1 10 2 9 3 7 4 8 5 6 7 1 8 2 9 3 10 71 11 4 12 5 13 72 14
REMARK SMILES IDX 73 15 74 16 75 17 79 18 76 19 78 20 80 21 77 22 12 23 13 24
REMARK SMILES IDX 14 25 15 26 16 28 17 29 18 30 70 31 19 32 69 33 20 34 21 35
REMARK SMILES IDX 22 36 63 37 23 38 68 39 62 40 64 41 24 42 67 43 61 44 60 45
REMARK SMILES IDX 25 47 51 48 34 49 50 50 35 51 38 52 49 53 65 54 36 55 37 56
REMARK SMILES IDX 48 58 66 59 39 60 26 61 27 62 32 63 28 64 29 65 31 66 33 67
REMARK SMILES IDX 30 68 52 69 53 70 58 71 54 72 55 73 57 74 59 75 56 76 40 77
REMARK SMILES IDX 41 78 46 79 42 80 43 81 45 82 47 83 44 84
REMARK H PARENT 9 6 14 27 64 46 38 57
REMARK Flexibility Score: inf
ROOT
ATOM      1  C   UNL A   1      33.114  28.910  26.968  1.00  0.00     0.023 C 
ENDROOT
BRANCH   1   2
ATOM      2  C   UNL A   1      32.249  29.581  25.889  1.00  0.00     0.116 C 
BRANCH   2   3
ATOM      3  N   UNL A   1      32.949  29.677  24.633  1.00  0.00    -0.352 N 
ATOM      4  C   UNL A   1      33.286  28.785  23.656  1.00  0.00     0.255 C 
ATOM      5  O   UNL A   1      33.900  29.297  22.708  1.00  0.00    -0.269 OA
ATOM      6  H   UNL A   1      33.254  30.593  24.435  1.00  0.00     0.163 HD
BRANCH   4   7
ATOM      7  C   UNL A   1      32.997  27.309  23.585  1.00  0.00     0.082 A 
ATOM      8  C   UNL A   1      30.263  24.628  23.497  1.00  0.00     0.048 C 
ATOM      9  C   UNL A   1      31.610  25.302  23.527  1.00  0.00    -0.008 A 
ATOM     10  C   UNL A   1      32.622  24.585  24.194  1.00  0.00     0.007 A 
ATOM     11  C   UNL A   1      31.845  26.636  23.114  1.00  0.00     0.134 A 
ATOM     12  C   UNL A   1      33.815  25.195  24.536  1.00  0.00     0.001 A 
ATOM     13  C   UNL A   1      33.981  26.548  24.264  1.00  0.00     0.018 A 
BRANCH  11  14
ATOM     14  O   UNL A   1      30.914  27.316  22.393  1.00  0.00    -0.492 OA
BRANCH  14  15
ATOM     15  C   UNL A   1      29.916  28.136  23.042  1.00  0.00     0.233 C 
BRANCH  15  16
ATOM     16  C   UNL A   1      29.652  29.561  22.507  1.00  0.00     0.030 C 
ATOM     17  C   UNL A   1      29.554  30.614  23.652  1.00  0.00     0.011 C 
ATOM     18  C   UNL A   1      28.236  29.688  21.878  1.00  0.00    -0.004 C 
ATOM     19  C   UNL A   1      28.145  31.214  23.483  1.00  0.00    -0.010 C 
ATOM     20  C   UNL A   1      28.150  31.007  21.094  1.00  0.00     0.004 C 
ATOM     21  C   UNL A   1      27.340  29.987  23.082  1.00  0.00     0.007 C 
ATOM     22  C   UNL A   1      28.103  32.063  22.204  1.00  0.00     0.004 C 
ENDBRANCH  15  16
ENDBRANCH  14  15
ENDBRANCH  11  14
ENDBRANCH   4   7
ENDBRANCH   2   3
ENDBRANCH   1   2
BRANCH   1  23
ATOM     23  C   UNL A   1      34.602  29.256  26.919  1.00  0.00     0.023 C 
BRANCH  23  24
ATOM     24  C   UNL A   1      35.021  30.246  27.993  1.00  0.00     0.116 C 
BRANCH  24  25
ATOM     25  N   UNL A   1      34.218  31.460  28.054  1.00  0.00    -0.352 N 
ATOM     26  C   UNL A   1      34.380  32.596  28.833  1.00  0.00     0.251 C 
ATOM     27  H   UNL A   1      33.441  31.477  27.450  1.00  0.00     0.163 HD
ATOM     28  O   UNL A   1      33.543  33.484  28.792  1.00  0.00    -0.269 OA
BRANCH  26  29
ATOM     29  C   UNL A   1      35.647  32.809  29.587  1.00  0.00     0.039 A 
ATOM     30  C   UNL A   1      36.680  33.486  28.926  1.00  0.00     0.014 A 
ATOM     31  C   UNL A   1      35.910  32.140  30.777  1.00  0.00     0.014 A 
ATOM     32  C   UNL A   1      38.000  33.224  29.280  1.00  0.00     0.010 A 
ATOM     33  C   UNL A   1      37.213  31.778  31.052  1.00  0.00     0.010 A 
ATOM     34  C   UNL A   1      38.249  32.251  30.242  1.00  0.00    -0.014 A 
BRANCH  34  35
ATOM     35  C   UNL A   1      39.522  31.553  30.361  1.00  0.00     0.031 A 
ATOM     36  C   UNL A   1      39.725  30.255  29.690  1.00  0.00     0.074 A 
ATOM     37  C   UNL A   1      40.543  32.162  31.012  1.00  0.00     0.049 A 
ATOM     38  N   UNL A   1      40.707  29.461  29.947  1.00  0.00    -0.248 NA
ATOM     39  C   UNL A   1      38.779  29.697  28.724  1.00  0.00     0.031 C 
ATOM     40  C   UNL A   1      41.960  31.812  30.973  1.00  0.00     0.029 A 
ATOM     41  N   UNL A   1      40.451  33.122  32.034  1.00  0.00    -0.354 N 
ATOM     42  C   UNL A   1      40.686  28.452  29.016  1.00  0.00     0.074 A 
ATOM     43  C   UNL A   1      39.406  28.571  28.368  1.00  0.00     0.031 C 
ATOM     44  C   UNL A   1      42.559  32.304  32.069  1.00  0.00     0.029 A 
ATOM     45  C   UNL A   1      41.514  32.843  32.921  1.00  0.00     0.049 A 
ATOM     46  H   UNL A   1      39.783  33.841  32.115  1.00  0.00     0.167 HD
ATOM     47  C   UNL A   1      41.815  27.717  28.827  1.00  0.00     0.037 A 
ATOM     48  C   UNL A   1      41.285  32.442  34.205  1.00  0.00     0.037 A 
ATOM     49  C   UNL A   1      42.750  27.917  29.935  1.00  0.00     0.049 A 
ATOM     50  C   UNL A   1      41.853  31.086  34.543  1.00  0.00     0.074 A 
ATOM     51  C   UNL A   1      43.931  28.623  30.075  1.00  0.00     0.029 A 
ATOM     52  N   UNL A   1      42.353  27.551  31.220  1.00  0.00    -0.354 N 
ATOM     53  N   UNL A   1      42.205  30.201  33.653  1.00  0.00    -0.248 NA
ATOM     54  C   UNL A   1      42.039  30.608  35.911  1.00  0.00     0.031 C 
ATOM     55  C   UNL A   1      44.179  28.775  31.467  1.00  0.00     0.029 A 
ATOM     56  C   UNL A   1      43.180  28.116  32.167  1.00  0.00     0.049 A 
ATOM     57  H   UNL A   1      41.585  26.968  31.423  1.00  0.00     0.167 HD
ATOM     58  C   UNL A   1      42.595  29.049  34.284  1.00  0.00     0.074 A 
ATOM     59  C   UNL A   1      42.509  29.367  35.697  1.00  0.00     0.031 C 
ATOM     60  C   UNL A   1      42.924  27.920  33.590  1.00  0.00     0.037 A 
BRANCH  47  61
ATOM     61  C   UNL A   1      42.165  26.951  27.568  1.00  0.00     0.057 A 
ATOM     62  C   UNL A   1      42.626  25.621  27.654  1.00  0.00     0.134 A 
ATOM     63  C   UNL A   1      42.210  27.489  26.264  1.00  0.00     0.134 A 
ATOM     64  F   UNL A   1      42.666  24.971  28.825  1.00  0.00    -0.206 F 
ATOM     65  C   UNL A   1      43.096  24.900  26.545  1.00  0.00     0.040 A 
ATOM     66  C   UNL A   1      42.630  26.761  25.141  1.00  0.00     0.040 A 
ATOM     67  F   UNL A   1      41.915  28.765  26.000  1.00  0.00    -0.206 F 
ATOM     68  C   UNL A   1      43.090  25.465  25.279  1.00  0.00     0.006 A 
ENDBRANCH  47  61
BRANCH  48  69
ATOM     69  C   UNL A   1      40.055  33.023  34.799  1.00  0.00     0.057 A 
ATOM     70  C   UNL A   1      38.889  32.244  34.802  1.00  0.00     0.134 A 
ATOM     71  C   UNL A   1      40.096  34.109  35.677  1.00  0.00     0.134 A 
ATOM     72  F   UNL A   1      38.786  31.201  33.966  1.00  0.00    -0.206 F 
ATOM     73  C   UNL A   1      37.861  32.448  35.726  1.00  0.00     0.040 A 
ATOM     74  C   UNL A   1      39.066  34.335  36.598  1.00  0.00     0.040 A 
ATOM     75  F   UNL A   1      41.183  34.890  35.745  1.00  0.00    -0.206 F 
ATOM     76  C   UNL A   1      37.967  33.478  36.654  1.00  0.00     0.006 A 
ENDBRANCH  48  69
BRANCH  60  77
ATOM     77  C   UNL A   1      43.084  26.543  34.190  1.00  0.00     0.057 A 
ATOM     78  C   UNL A   1      42.057  25.839  34.841  1.00  0.00     0.134 A 
ATOM     79  C   UNL A   1      44.272  25.807  33.987  1.00  0.00     0.134 A 
ATOM     80  F   UNL A   1      40.834  26.362  34.996  1.00  0.00    -0.206 F 
ATOM     81  C   UNL A   1      42.222  24.529  35.315  1.00  0.00     0.040 A 
ATOM     82  C   UNL A   1      44.429  24.482  34.406  1.00  0.00     0.040 A 
ATOM     83  F   UNL A   1      45.326  26.339  33.349  1.00  0.00    -0.206 F 
ATOM     84  C   UNL A   1      43.408  23.843  35.089  1.00  0.00     0.006 A 
ENDBRANCH  60  77
ENDBRANCH  34  35
ENDBRANCH  26  29
ENDBRANCH  24  25
ENDBRANCH  23  24
ENDBRANCH   1  23
TORSDOF 14
ENDMDL
