MODEL 1
REMARK VINA RESULT:     -12.0      0.000      0.000
REMARK SMILES Cc1ccc(C)c(-n2nc(C)c(/C=C(/C#N)C(=O)NCCCCNC(=O)c3ccc(-c4c5nc(c(-c6c(F)cccc6F)c6ccc([nH]6)c(-c6c(F)cccc6F)c6nc(c(-c7c(F)cccc7F)c7ccc4[nH]7)C=C6)C=C5)cc3)c2Cl)c1
REMARK SMILES IDX 21 1 20 2 19 3 17 4 18 5 14 7 13 8 12 9 8 10 9 11 81 12
REMARK SMILES IDX 10 13 82 14 11 15 7 16 1 17 2 18 3 19 83 20 4 21 5 22 6 23
REMARK SMILES IDX 15 24 16 25 22 26 23 27 24 28 25 29 26 31 27 32 28 33 80 34
REMARK SMILES IDX 29 35 79 36 30 37 31 38 32 39 73 40 33 41 78 42 72 43 74 44
REMARK SMILES IDX 34 45 77 46 71 47 70 48 35 50 61 51 44 52 60 53 45 54 48 55
REMARK SMILES IDX 59 56 75 57 46 58 47 59 58 61 76 62 49 63 36 64 37 65 42 66
REMARK SMILES IDX 38 67 39 68 41 69 43 70 40 71 62 72 63 73 68 74 64 75 65 76
REMARK SMILES IDX 67 77 69 78 66 79 50 80 51 81 56 82 52 83 53 84 55 85 57 86
REMARK SMILES IDX 54 87
REMARK H PARENT 19 6 24 30 74 49 48 60
REMARK Flexibility Score: inf
ROOT
ATOM      1  C   UNL A   1      37.560  22.160  25.953  1.00  0.00     0.023 C 
ENDROOT
BRANCH   1   2
ATOM      2  C   UNL A   1      36.227  21.489  25.573  1.00  0.00     0.116 C 
BRANCH   2   3
ATOM      3  N   UNL A   1      35.330  21.436  26.718  1.00  0.00    -0.351 N 
ATOM      4  C   UNL A   1      33.976  21.510  26.844  1.00  0.00     0.261 C 
ATOM      5  O   UNL A   1      33.547  21.848  27.947  1.00  0.00    -0.268 OA
ATOM      6  H   UNL A   1      35.799  21.325  27.576  1.00  0.00     0.163 HD
BRANCH   4   7
ATOM      7  C   UNL A   1      33.036  21.185  25.718  1.00  0.00     0.117 C 
ATOM      8  C   UNL A   1      32.703  22.084  24.772  1.00  0.00     0.038 C 
BRANCH   8   9
ATOM      9  C   UNL A   1      33.085  23.471  24.645  1.00  0.00     0.036 A 
ATOM     10  N   UNL A   1      33.027  25.687  24.955  1.00  0.00    -0.221 N 
ATOM     11  N   UNL A   1      33.973  25.496  24.005  1.00  0.00    -0.171 NA
ATOM     12  C   UNL A   1      32.509  24.485  25.381  1.00  0.00     0.140 A 
ATOM     13  C   UNL A   1      34.036  24.167  23.831  1.00  0.00     0.069 A 
ATOM     14  Cl  UNL A   1      31.235  24.433  26.526  1.00  0.00    -0.061 Cl
ATOM     15  C   UNL A   1      35.061  23.674  22.869  1.00  0.00     0.069 C 
BRANCH  10  16
ATOM     16  C   UNL A   1      32.838  26.990  25.484  1.00  0.00     0.069 A 
ATOM     17  C   UNL A   1      34.848  29.396  27.660  1.00  0.00     0.044 C 
ATOM     18  C   UNL A   1      33.756  28.817  26.810  1.00  0.00    -0.049 A 
ATOM     19  C   UNL A   1      32.629  29.582  26.502  1.00  0.00     0.004 A 
ATOM     20  C   UNL A   1      33.849  27.514  26.310  1.00  0.00     0.032 A 
ATOM     21  C   UNL A   1      31.623  29.065  25.682  1.00  0.00     0.006 A 
ATOM     22  C   UNL A   1      31.713  27.767  25.149  1.00  0.00    -0.025 A 
ATOM     23  C   UNL A   1      30.553  27.286  24.320  1.00  0.00     0.047 C 
ENDBRANCH  10  16
ENDBRANCH   8   9
BRANCH   7  24
ATOM     24  C   UNL A   1      32.714  19.702  25.615  1.00  0.00     0.105 C 
ATOM     25  N   UNL A   1      32.447  18.473  25.530  1.00  0.00    -0.192 NA
ENDBRANCH   7  24
ENDBRANCH   4   7
ENDBRANCH   2   3
ENDBRANCH   1   2
BRANCH   1  26
ATOM     26  C   UNL A   1      38.835  21.428  25.485  1.00  0.00     0.023 C 
BRANCH  26  27
ATOM     27  C   UNL A   1      39.967  21.247  26.511  1.00  0.00     0.116 C 
BRANCH  27  28
ATOM     28  N   UNL A   1      41.278  21.742  26.054  1.00  0.00    -0.352 N 
ATOM     29  C   UNL A   1      41.893  22.993  26.039  1.00  0.00     0.251 C 
ATOM     30  H   UNL A   1      41.845  21.032  25.676  1.00  0.00     0.163 HD
ATOM     31  O   UNL A   1      42.892  23.167  25.365  1.00  0.00    -0.269 OA
BRANCH  29  32
ATOM     32  C   UNL A   1      41.378  24.110  26.867  1.00  0.00     0.039 A 
ATOM     33  C   UNL A   1      40.206  24.829  26.610  1.00  0.00     0.014 A 
ATOM     34  C   UNL A   1      42.219  24.602  27.829  1.00  0.00     0.014 A 
ATOM     35  C   UNL A   1      40.018  26.067  27.258  1.00  0.00     0.010 A 
ATOM     36  C   UNL A   1      41.793  25.499  28.747  1.00  0.00     0.010 A 
ATOM     37  C   UNL A   1      40.889  26.426  28.285  1.00  0.00    -0.014 A 
BRANCH  37  38
ATOM     38  C   UNL A   1      40.971  27.703  28.975  1.00  0.00     0.031 A 
ATOM     39  C   UNL A   1      42.012  28.627  28.462  1.00  0.00     0.074 A 
ATOM     40  C   UNL A   1      39.909  28.230  29.627  1.00  0.00     0.049 A 
ATOM     41  N   UNL A   1      43.148  28.922  28.999  1.00  0.00    -0.248 NA
ATOM     42  C   UNL A   1      41.846  29.151  27.094  1.00  0.00     0.031 C 
ATOM     43  C   UNL A   1      38.549  27.694  29.772  1.00  0.00     0.029 A 
ATOM     44  N   UNL A   1      39.809  29.457  30.209  1.00  0.00    -0.354 N 
ATOM     45  C   UNL A   1      43.745  29.815  28.113  1.00  0.00     0.074 A 
ATOM     46  C   UNL A   1      43.061  29.646  26.865  1.00  0.00     0.031 C 
ATOM     47  C   UNL A   1      37.729  28.665  30.244  1.00  0.00     0.029 A 
ATOM     48  C   UNL A   1      38.520  29.846  30.547  1.00  0.00     0.049 A 
ATOM     49  H   UNL A   1      40.594  30.027  30.377  1.00  0.00     0.167 HD
ATOM     50  C   UNL A   1      44.535  30.841  28.539  1.00  0.00     0.037 A 
ATOM     51  C   UNL A   1      38.150  31.074  30.992  1.00  0.00     0.037 A 
ATOM     52  C   UNL A   1      44.843  30.695  29.943  1.00  0.00     0.049 A 
ATOM     53  C   UNL A   1      39.390  31.790  31.405  1.00  0.00     0.074 A 
ATOM     54  C   UNL A   1      45.411  29.705  30.722  1.00  0.00     0.029 A 
ATOM     55  N   UNL A   1      44.190  31.525  30.825  1.00  0.00    -0.354 N 
ATOM     56  N   UNL A   1      40.125  31.465  32.431  1.00  0.00    -0.248 NA
ATOM     57  C   UNL A   1      40.051  32.624  30.411  1.00  0.00     0.031 C 
ATOM     58  C   UNL A   1      44.663  29.716  31.937  1.00  0.00     0.029 A 
ATOM     59  C   UNL A   1      43.725  30.745  31.850  1.00  0.00     0.049 A 
ATOM     60  H   UNL A   1      44.078  32.499  30.736  1.00  0.00     0.167 HD
ATOM     61  C   UNL A   1      41.434  31.696  32.026  1.00  0.00     0.074 A 
ATOM     62  C   UNL A   1      41.318  32.502  30.814  1.00  0.00     0.031 C 
ATOM     63  C   UNL A   1      42.472  30.972  32.537  1.00  0.00     0.037 A 
BRANCH  50  64
ATOM     64  C   UNL A   1      44.719  32.165  27.818  1.00  0.00     0.057 A 
ATOM     65  C   UNL A   1      45.897  32.358  27.071  1.00  0.00     0.134 A 
ATOM     66  C   UNL A   1      43.949  33.333  28.008  1.00  0.00     0.134 A 
ATOM     67  F   UNL A   1      46.719  31.333  26.802  1.00  0.00    -0.206 F 
ATOM     68  C   UNL A   1      46.324  33.621  26.642  1.00  0.00     0.040 A 
ATOM     69  C   UNL A   1      44.337  34.588  27.530  1.00  0.00     0.040 A 
ATOM     70  F   UNL A   1      42.831  33.366  28.738  1.00  0.00    -0.206 F 
ATOM     71  C   UNL A   1      45.547  34.744  26.880  1.00  0.00     0.006 A 
ENDBRANCH  50  64
BRANCH  51  72
ATOM     72  C   UNL A   1      36.851  31.777  30.869  1.00  0.00     0.057 A 
ATOM     73  C   UNL A   1      36.055  32.036  31.997  1.00  0.00     0.134 A 
ATOM     74  C   UNL A   1      36.476  32.442  29.688  1.00  0.00     0.134 A 
ATOM     75  F   UNL A   1      36.351  31.478  33.180  1.00  0.00    -0.206 F 
ATOM     76  C   UNL A   1      34.966  32.918  31.960  1.00  0.00     0.040 A 
ATOM     77  C   UNL A   1      35.388  33.322  29.639  1.00  0.00     0.040 A 
ATOM     78  F   UNL A   1      37.199  32.323  28.566  1.00  0.00    -0.206 F 
ATOM     79  C   UNL A   1      34.636  33.574  30.779  1.00  0.00     0.006 A 
ENDBRANCH  51  72
BRANCH  63  80
ATOM     80  C   UNL A   1      42.218  30.126  33.753  1.00  0.00     0.057 A 
ATOM     81  C   UNL A   1      41.816  28.783  33.702  1.00  0.00     0.134 A 
ATOM     82  C   UNL A   1      42.565  30.634  35.009  1.00  0.00     0.134 A 
ATOM     83  F   UNL A   1      41.558  28.180  32.536  1.00  0.00    -0.206 F 
ATOM     84  C   UNL A   1      41.730  27.994  34.852  1.00  0.00     0.040 A 
ATOM     85  C   UNL A   1      42.516  29.847  36.162  1.00  0.00     0.040 A 
ATOM     86  F   UNL A   1      43.012  31.895  35.129  1.00  0.00    -0.206 F 
ATOM     87  C   UNL A   1      42.090  28.524  36.087  1.00  0.00     0.006 A 
ENDBRANCH  63  80
ENDBRANCH  37  38
ENDBRANCH  29  32
ENDBRANCH  27  28
ENDBRANCH  26  27
ENDBRANCH   1  26
TORSDOF 14
ENDMDL
MODEL 2
REMARK VINA RESULT:     -11.9      3.749      8.691
REMARK SMILES Cc1ccc(C)c(-n2nc(C)c(/C=C(/C#N)C(=O)NCCCCNC(=O)c3ccc(-c4c5nc(c(-c6c(F)cccc6F)c6ccc([nH]6)c(-c6c(F)cccc6F)c6nc(c(-c7c(F)cccc7F)c7ccc4[nH]7)C=C6)C=C5)cc3)c2Cl)c1
REMARK SMILES IDX 21 1 20 2 19 3 17 4 18 5 14 7 13 8 12 9 8 10 9 11 81 12
REMARK SMILES IDX 10 13 82 14 11 15 7 16 1 17 2 18 3 19 83 20 4 21 5 22 6 23
REMARK SMILES IDX 15 24 16 25 22 26 23 27 24 28 25 29 26 31 27 32 28 33 80 34
REMARK SMILES IDX 29 35 79 36 30 37 31 38 32 39 73 40 33 41 78 42 72 43 74 44
REMARK SMILES IDX 34 45 77 46 71 47 70 48 35 50 61 51 44 52 60 53 45 54 48 55
REMARK SMILES IDX 59 56 75 57 46 58 47 59 58 61 76 62 49 63 36 64 37 65 42 66
REMARK SMILES IDX 38 67 39 68 41 69 43 70 40 71 62 72 63 73 68 74 64 75 65 76
REMARK SMILES IDX 67 77 69 78 66 79 50 80 51 81 56 82 52 83 53 84 55 85 57 86
REMARK SMILES IDX 54 87
REMARK H PARENT 19 6 24 30 74 49 48 60
REMARK Flexibility Score: inf
ROOT
ATOM      1  C   UNL A   1      33.839  29.085  26.567  1.00  0.00     0.023 C 
ENDROOT
BRANCH   1   2
ATOM      2  C   UNL A   1      32.853  29.676  25.543  1.00  0.00     0.116 C 
BRANCH   2   3
ATOM      3  N   UNL A   1      33.383  29.569  24.193  1.00  0.00    -0.351 N 
ATOM      4  C   UNL A   1      33.026  28.826  23.108  1.00  0.00     0.261 C 
ATOM      5  O   UNL A   1      33.898  28.644  22.258  1.00  0.00    -0.268 OA
ATOM      6  H   UNL A   1      34.160  30.151  24.031  1.00  0.00     0.163 HD
BRANCH   4   7
ATOM      7  C   UNL A   1      31.644  28.265  22.928  1.00  0.00     0.117 C 
ATOM      8  C   UNL A   1      31.239  27.134  23.534  1.00  0.00     0.038 C 
BRANCH   8   9
ATOM      9  C   UNL A   1      31.977  26.230  24.386  1.00  0.00     0.036 A 
ATOM     10  N   UNL A   1      33.374  24.578  24.959  1.00  0.00    -0.221 N 
ATOM     11  N   UNL A   1      32.786  24.951  26.120  1.00  0.00    -0.171 NA
ATOM     12  C   UNL A   1      32.933  25.356  23.912  1.00  0.00     0.140 A 
ATOM     13  C   UNL A   1      31.967  25.962  25.792  1.00  0.00     0.069 A 
ATOM     14  Cl  UNL A   1      33.454  25.050  22.309  1.00  0.00    -0.061 Cl
ATOM     15  C   UNL A   1      31.233  26.609  26.916  1.00  0.00     0.069 C 
BRANCH  10  16
ATOM     16  C   UNL A   1      34.428  23.629  24.997  1.00  0.00     0.069 A 
ATOM     17  C   UNL A   1      38.061  23.594  26.167  1.00  0.00     0.044 C 
ATOM     18  C   UNL A   1      36.739  23.155  25.612  1.00  0.00    -0.049 A 
ATOM     19  C   UNL A   1      36.552  21.828  25.217  1.00  0.00     0.004 A 
ATOM     20  C   UNL A   1      35.676  24.057  25.485  1.00  0.00     0.032 A 
ATOM     21  C   UNL A   1      35.314  21.400  24.730  1.00  0.00     0.006 A 
ATOM     22  C   UNL A   1      34.228  22.286  24.622  1.00  0.00    -0.025 A 
ATOM     23  C   UNL A   1      32.953  21.739  24.039  1.00  0.00     0.047 C 
ENDBRANCH  10  16
ENDBRANCH   8   9
BRANCH   7  24
ATOM     24  C   UNL A   1      30.698  29.220  22.216  1.00  0.00     0.105 C 
ATOM     25  N   UNL A   1      29.913  30.012  21.627  1.00  0.00    -0.192 NA
ENDBRANCH   7  24
ENDBRANCH   4   7
ENDBRANCH   2   3
ENDBRANCH   1   2
BRANCH   1  26
ATOM     26  C   UNL A   1      34.956  30.034  27.047  1.00  0.00     0.023 C 
BRANCH  26  27
ATOM     27  C   UNL A   1      35.615  29.728  28.403  1.00  0.00     0.116 C 
BRANCH  27  28
ATOM     28  N   UNL A   1      36.271  30.890  29.030  1.00  0.00    -0.352 N 
ATOM     29  C   UNL A   1      37.587  31.195  29.371  1.00  0.00     0.251 C 
ATOM     30  H   UNL A   1      35.639  31.610  29.257  1.00  0.00     0.163 HD
ATOM     31  O   UNL A   1      37.817  32.130  30.117  1.00  0.00    -0.269 OA
BRANCH  29  32
ATOM     32  C   UNL A   1      38.723  30.427  28.808  1.00  0.00     0.039 A 
ATOM     33  C   UNL A   1      38.665  29.626  27.663  1.00  0.00     0.014 A 
ATOM     34  C   UNL A   1      39.849  30.335  29.582  1.00  0.00     0.014 A 
ATOM     35  C   UNL A   1      39.697  28.693  27.438  1.00  0.00     0.010 A 
ATOM     36  C   UNL A   1      40.997  29.808  29.099  1.00  0.00     0.010 A 
ATOM     37  C   UNL A   1      40.838  28.749  28.238  1.00  0.00    -0.014 A 
BRANCH  37  38
ATOM     38  C   UNL A   1      41.941  27.803  28.281  1.00  0.00     0.031 A 
ATOM     39  C   UNL A   1      42.691  27.773  29.560  1.00  0.00     0.074 A 
ATOM     40  C   UNL A   1      41.965  26.700  27.497  1.00  0.00     0.049 A 
ATOM     41  N   UNL A   1      43.861  28.260  29.806  1.00  0.00    -0.248 NA
ATOM     42  C   UNL A   1      41.978  27.301  30.761  1.00  0.00     0.031 C 
ATOM     43  C   UNL A   1      40.975  26.237  26.515  1.00  0.00     0.029 A 
ATOM     44  N   UNL A   1      42.866  25.678  27.516  1.00  0.00    -0.354 N 
ATOM     45  C   UNL A   1      44.093  27.980  31.151  1.00  0.00     0.074 A 
ATOM     46  C   UNL A   1      42.807  27.706  31.721  1.00  0.00     0.031 C 
ATOM     47  C   UNL A   1      41.246  24.954  26.172  1.00  0.00     0.029 A 
ATOM     48  C   UNL A   1      42.487  24.545  26.810  1.00  0.00     0.049 A 
ATOM     49  H   UNL A   1      43.722  25.739  27.998  1.00  0.00     0.167 HD
ATOM     50  C   UNL A   1      45.336  27.687  31.628  1.00  0.00     0.037 A 
ATOM     51  C   UNL A   1      43.138  23.354  26.808  1.00  0.00     0.037 A 
ATOM     52  C   UNL A   1      46.341  27.958  30.625  1.00  0.00     0.049 A 
ATOM     53  C   UNL A   1      44.495  23.587  27.377  1.00  0.00     0.074 A 
ATOM     54  C   UNL A   1      46.700  29.062  29.874  1.00  0.00     0.029 A 
ATOM     55  N   UNL A   1      46.905  26.880  29.984  1.00  0.00    -0.354 N 
ATOM     56  N   UNL A   1      45.432  24.280  26.794  1.00  0.00    -0.248 NA
ATOM     57  C   UNL A   1      44.668  23.396  28.811  1.00  0.00     0.031 C 
ATOM     58  C   UNL A   1      47.022  28.542  28.585  1.00  0.00     0.029 A 
ATOM     59  C   UNL A   1      46.896  27.153  28.642  1.00  0.00     0.049 A 
ATOM     60  H   UNL A   1      47.251  26.063  30.411  1.00  0.00     0.167 HD
ATOM     61  C   UNL A   1      46.079  24.951  27.824  1.00  0.00     0.074 A 
ATOM     62  C   UNL A   1      45.631  24.291  29.046  1.00  0.00     0.031 C 
ATOM     63  C   UNL A   1      46.682  26.158  27.614  1.00  0.00     0.037 A 
BRANCH  50  64
ATOM     64  C   UNL A   1      45.630  26.809  32.830  1.00  0.00     0.057 A 
ATOM     65  C   UNL A   1      46.515  27.296  33.811  1.00  0.00     0.134 A 
ATOM     66  C   UNL A   1      45.304  25.442  32.965  1.00  0.00     0.134 A 
ATOM     67  F   UNL A   1      46.902  28.580  33.814  1.00  0.00    -0.206 F 
ATOM     68  C   UNL A   1      47.107  26.472  34.776  1.00  0.00     0.040 A 
ATOM     69  C   UNL A   1      45.842  24.624  33.963  1.00  0.00     0.040 A 
ATOM     70  F   UNL A   1      44.528  24.782  32.100  1.00  0.00    -0.206 F 
ATOM     71  C   UNL A   1      46.778  25.126  34.848  1.00  0.00     0.006 A 
ENDBRANCH  50  64
BRANCH  51  72
ATOM     72  C   UNL A   1      42.613  21.985  26.585  1.00  0.00     0.057 A 
ATOM     73  C   UNL A   1      43.280  21.079  25.745  1.00  0.00     0.134 A 
ATOM     74  C   UNL A   1      41.593  21.442  27.386  1.00  0.00     0.134 A 
ATOM     75  F   UNL A   1      44.292  21.491  24.968  1.00  0.00    -0.206 F 
ATOM     76  C   UNL A   1      42.968  19.713  25.718  1.00  0.00     0.040 A 
ATOM     77  C   UNL A   1      41.270  20.080  27.364  1.00  0.00     0.040 A 
ATOM     78  F   UNL A   1      40.931  22.199  28.273  1.00  0.00    -0.206 F 
ATOM     79  C   UNL A   1      41.966  19.207  26.539  1.00  0.00     0.006 A 
ENDBRANCH  51  72
BRANCH  63  80
ATOM     80  C   UNL A   1      46.889  26.612  26.196  1.00  0.00     0.057 A 
ATOM     81  C   UNL A   1      45.976  27.406  25.487  1.00  0.00     0.134 A 
ATOM     82  C   UNL A   1      48.132  26.389  25.594  1.00  0.00     0.134 A 
ATOM     83  F   UNL A   1      44.800  27.756  26.021  1.00  0.00    -0.206 F 
ATOM     84  C   UNL A   1      46.273  27.923  24.223  1.00  0.00     0.040 A 
ATOM     85  C   UNL A   1      48.456  26.928  24.348  1.00  0.00     0.040 A 
ATOM     86  F   UNL A   1      49.078  25.685  26.238  1.00  0.00    -0.206 F 
ATOM     87  C   UNL A   1      47.522  27.693  23.653  1.00  0.00     0.006 A 
ENDBRANCH  63  80
ENDBRANCH  37  38
ENDBRANCH  29  32
ENDBRANCH  27  28
ENDBRANCH  26  27
ENDBRANCH   1  26
TORSDOF 14
ENDMDL
MODEL 3
REMARK VINA RESULT:     -11.9      3.295      7.789
REMARK SMILES Cc1ccc(C)c(-n2nc(C)c(/C=C(/C#N)C(=O)NCCCCNC(=O)c3ccc(-c4c5nc(c(-c6c(F)cccc6F)c6ccc([nH]6)c(-c6c(F)cccc6F)c6nc(c(-c7c(F)cccc7F)c7ccc4[nH]7)C=C6)C=C5)cc3)c2Cl)c1
REMARK SMILES IDX 21 1 20 2 19 3 17 4 18 5 14 7 13 8 12 9 8 10 9 11 81 12
REMARK SMILES IDX 10 13 82 14 11 15 7 16 1 17 2 18 3 19 83 20 4 21 5 22 6 23
REMARK SMILES IDX 15 24 16 25 22 26 23 27 24 28 25 29 26 31 27 32 28 33 80 34
REMARK SMILES IDX 29 35 79 36 30 37 31 38 32 39 73 40 33 41 78 42 72 43 74 44
REMARK SMILES IDX 34 45 77 46 71 47 70 48 35 50 61 51 44 52 60 53 45 54 48 55
REMARK SMILES IDX 59 56 75 57 46 58 47 59 58 61 76 62 49 63 36 64 37 65 42 66
REMARK SMILES IDX 38 67 39 68 41 69 43 70 40 71 62 72 63 73 68 74 64 75 65 76
REMARK SMILES IDX 67 77 69 78 66 79 50 80 51 81 56 82 52 83 53 84 55 85 57 86
REMARK SMILES IDX 54 87
REMARK H PARENT 19 6 24 30 74 49 48 60
REMARK Flexibility Score: inf
ROOT
ATOM      1  C   UNL A   1      32.442  29.914  26.651  1.00  0.00     0.023 C 
ENDROOT
BRANCH   1   2
ATOM      2  C   UNL A   1      31.555  30.010  25.396  1.00  0.00     0.116 C 
BRANCH   2   3
ATOM      3  N   UNL A   1      32.345  29.823  24.189  1.00  0.00    -0.351 N 
ATOM      4  C   UNL A   1      32.308  28.905  23.183  1.00  0.00     0.261 C 
ATOM      5  O   UNL A   1      33.344  28.761  22.534  1.00  0.00    -0.268 OA
ATOM      6  H   UNL A   1      33.053  30.498  24.077  1.00  0.00     0.163 HD
BRANCH   4   7
ATOM      7  C   UNL A   1      31.075  28.112  22.854  1.00  0.00     0.117 C 
ATOM      8  C   UNL A   1      30.849  26.885  23.359  1.00  0.00     0.038 C 
BRANCH   8   9
ATOM      9  C   UNL A   1      31.681  26.075  24.219  1.00  0.00     0.036 A 
ATOM     10  N   UNL A   1      33.201  24.540  24.807  1.00  0.00    -0.221 N 
ATOM     11  N   UNL A   1      32.650  24.947  25.975  1.00  0.00    -0.171 NA
ATOM     12  C   UNL A   1      32.663  25.231  23.744  1.00  0.00     0.140 A 
ATOM     13  C   UNL A   1      31.756  25.889  25.636  1.00  0.00     0.069 A 
ATOM     14  Cl  UNL A   1      33.121  24.862  22.134  1.00  0.00    -0.061 Cl
ATOM     15  C   UNL A   1      31.043  26.558  26.760  1.00  0.00     0.069 C 
BRANCH  10  16
ATOM     16  C   UNL A   1      34.310  23.657  24.841  1.00  0.00     0.069 A 
ATOM     17  C   UNL A   1      37.968  23.869  25.908  1.00  0.00     0.044 C 
ATOM     18  C   UNL A   1      36.660  23.337  25.403  1.00  0.00    -0.049 A 
ATOM     19  C   UNL A   1      36.542  21.991  25.051  1.00  0.00     0.004 A 
ATOM     20  C   UNL A   1      35.543  24.171  25.282  1.00  0.00     0.032 A 
ATOM     21  C   UNL A   1      35.319  21.477  24.612  1.00  0.00     0.006 A 
ATOM     22  C   UNL A   1      34.180  22.294  24.510  1.00  0.00    -0.025 A 
ATOM     23  C   UNL A   1      32.924  21.656  23.979  1.00  0.00     0.047 C 
ENDBRANCH  10  16
ENDBRANCH   8   9
BRANCH   7  24
ATOM     24  C   UNL A   1      30.019  28.923  22.119  1.00  0.00     0.105 C 
ATOM     25  N   UNL A   1      29.144  29.596  21.509  1.00  0.00    -0.192 NA
ENDBRANCH   7  24
ENDBRANCH   4   7
ENDBRANCH   2   3
ENDBRANCH   1   2
BRANCH   1  26
ATOM     26  C   UNL A   1      33.899  29.470  26.409  1.00  0.00     0.023 C 
BRANCH  26  27
ATOM     27  C   UNL A   1      34.722  29.037  27.634  1.00  0.00     0.116 C 
BRANCH  27  28
ATOM     28  N   UNL A   1      35.177  30.155  28.480  1.00  0.00    -0.352 N 
ATOM     29  C   UNL A   1      36.250  30.341  29.350  1.00  0.00     0.251 C 
ATOM     30  H   UNL A   1      34.594  30.946  28.416  1.00  0.00     0.163 HD
ATOM     31  O   UNL A   1      36.246  31.284  30.121  1.00  0.00    -0.269 OA
BRANCH  29  32
ATOM     32  C   UNL A   1      37.423  29.436  29.324  1.00  0.00     0.039 A 
ATOM     33  C   UNL A   1      37.766  28.533  30.336  1.00  0.00     0.014 A 
ATOM     34  C   UNL A   1      38.345  29.650  28.335  1.00  0.00     0.014 A 
ATOM     35  C   UNL A   1      39.069  27.995  30.347  1.00  0.00     0.010 A 
ATOM     36  C   UNL A   1      39.360  28.783  28.115  1.00  0.00     0.010 A 
ATOM     37  C   UNL A   1      39.893  28.208  29.244  1.00  0.00    -0.014 A 
BRANCH  37  38
ATOM     38  C   UNL A   1      41.303  27.879  29.110  1.00  0.00     0.031 A 
ATOM     39  C   UNL A   1      41.591  26.675  28.294  1.00  0.00     0.074 A 
ATOM     40  C   UNL A   1      42.269  28.820  29.228  1.00  0.00     0.049 A 
ATOM     41  N   UNL A   1      41.954  25.505  28.704  1.00  0.00    -0.248 NA
ATOM     42  C   UNL A   1      41.261  26.727  26.858  1.00  0.00     0.031 C 
ATOM     43  C   UNL A   1      42.134  30.261  29.487  1.00  0.00     0.029 A 
ATOM     44  N   UNL A   1      43.606  28.680  29.011  1.00  0.00    -0.354 N 
ATOM     45  C   UNL A   1      42.075  24.739  27.547  1.00  0.00     0.074 A 
ATOM     46  C   UNL A   1      41.336  25.436  26.536  1.00  0.00     0.031 C 
ATOM     47  C   UNL A   1      43.317  30.875  29.239  1.00  0.00     0.029 A 
ATOM     48  C   UNL A   1      44.316  29.868  28.921  1.00  0.00     0.049 A 
ATOM     49  H   UNL A   1      44.036  27.799  28.924  1.00  0.00     0.167 HD
ATOM     50  C   UNL A   1      43.020  23.765  27.418  1.00  0.00     0.037 A 
ATOM     51  C   UNL A   1      45.619  29.992  28.560  1.00  0.00     0.037 A 
ATOM     52  C   UNL A   1      43.652  23.500  28.689  1.00  0.00     0.049 A 
ATOM     53  C   UNL A   1      46.235  28.638  28.646  1.00  0.00     0.074 A 
ATOM     54  C   UNL A   1      43.206  23.142  29.948  1.00  0.00     0.029 A 
ATOM     55  N   UNL A   1      44.928  23.981  28.876  1.00  0.00    -0.354 N 
ATOM     56  N   UNL A   1      46.439  27.986  29.757  1.00  0.00    -0.248 NA
ATOM     57  C   UNL A   1      46.237  27.820  27.440  1.00  0.00     0.031 C 
ATOM     58  C   UNL A   1      44.026  23.879  30.854  1.00  0.00     0.029 A 
ATOM     59  C   UNL A   1      44.956  24.596  30.100  1.00  0.00     0.049 A 
ATOM     60  H   UNL A   1      45.680  23.898  28.247  1.00  0.00     0.167 HD
ATOM     61  C   UNL A   1      46.187  26.656  29.447  1.00  0.00     0.074 A 
ATOM     62  C   UNL A   1      46.166  26.604  27.988  1.00  0.00     0.031 C 
ATOM     63  C   UNL A   1      45.729  25.784  30.392  1.00  0.00     0.037 A 
BRANCH  50  64
ATOM     64  C   UNL A   1      43.648  23.320  26.109  1.00  0.00     0.057 A 
ATOM     65  C   UNL A   1      43.688  21.941  25.825  1.00  0.00     0.134 A 
ATOM     66  C   UNL A   1      44.424  24.118  25.242  1.00  0.00     0.134 A 
ATOM     67  F   UNL A   1      42.988  21.065  26.560  1.00  0.00    -0.206 F 
ATOM     68  C   UNL A   1      44.511  21.395  24.832  1.00  0.00     0.040 A 
ATOM     69  C   UNL A   1      45.202  23.588  24.208  1.00  0.00     0.040 A 
ATOM     70  F   UNL A   1      44.562  25.439  25.385  1.00  0.00    -0.206 F 
ATOM     71  C   UNL A   1      45.280  22.220  24.025  1.00  0.00     0.006 A 
ENDBRANCH  50  64
BRANCH  51  72
ATOM     72  C   UNL A   1      46.323  31.126  27.916  1.00  0.00     0.057 A 
ATOM     73  C   UNL A   1      45.742  31.831  26.850  1.00  0.00     0.134 A 
ATOM     74  C   UNL A   1      47.464  31.714  28.491  1.00  0.00     0.134 A 
ATOM     75  F   UNL A   1      44.631  31.372  26.258  1.00  0.00    -0.206 F 
ATOM     76  C   UNL A   1      46.249  33.057  26.397  1.00  0.00     0.040 A 
ATOM     77  C   UNL A   1      47.982  32.936  28.044  1.00  0.00     0.040 A 
ATOM     78  F   UNL A   1      48.065  31.164  29.556  1.00  0.00    -0.206 F 
ATOM     79  C   UNL A   1      47.368  33.619  27.003  1.00  0.00     0.006 A 
ENDBRANCH  51  72
BRANCH  63  80
ATOM     80  C   UNL A   1      45.779  26.206  31.833  1.00  0.00     0.057 A 
ATOM     81  C   UNL A   1      44.684  26.734  32.533  1.00  0.00     0.134 A 
ATOM     82  C   UNL A   1      46.920  25.902  32.583  1.00  0.00     0.134 A 
ATOM     83  F   UNL A   1      43.516  26.965  31.921  1.00  0.00    -0.206 F 
ATOM     84  C   UNL A   1      44.734  26.979  33.908  1.00  0.00     0.040 A 
ATOM     85  C   UNL A   1      46.973  26.110  33.963  1.00  0.00     0.040 A 
ATOM     86  F   UNL A   1      47.988  25.342  31.992  1.00  0.00    -0.206 F 
ATOM     87  C   UNL A   1      45.879  26.658  34.630  1.00  0.00     0.006 A 
ENDBRANCH  63  80
ENDBRANCH  37  38
ENDBRANCH  29  32
ENDBRANCH  27  28
ENDBRANCH  26  27
ENDBRANCH   1  26
TORSDOF 14
ENDMDL
