MODEL 1
REMARK VINA RESULT:     -11.1      0.000      0.000
REMARK SMILES C[C@H](C(=O)NCCCCNC(=O)c1ccc(-c2c3nc(c(-c4c(F)cccc4F)c4ccc([nH]4)c(-c4c(F)cccc4F)c4nc(c(-c5c(F)cccc5F)c5ccc2[nH]5)C=C4)C=C3)cc1)n1ccc(C(=O)N(C)Cc2cnn(C)c2)n1
REMARK SMILES IDX 6 1 5 2 3 3 4 4 2 6 1 7 67 8 68 9 82 10 69 11 70 12 71 13
REMARK SMILES IDX 72 14 73 15 74 16 75 17 76 18 77 19 81 20 78 21 79 22 80 23
REMARK SMILES IDX 7 24 8 25 9 26 10 27 11 28 12 30 13 31 14 32 66 33 15 34
REMARK SMILES IDX 65 35 16 36 17 37 18 38 59 39 19 40 64 41 58 42 60 43 20 44
REMARK SMILES IDX 63 45 57 46 56 47 21 49 47 50 30 51 46 52 31 53 34 54 45 55
REMARK SMILES IDX 61 56 32 57 33 58 44 60 62 61 35 62 22 63 23 64 28 65 24 66
REMARK SMILES IDX 25 67 27 68 29 69 26 70 48 71 49 72 54 73 50 74 51 75 53 76
REMARK SMILES IDX 55 77 52 78 36 79 37 80 42 81 38 82 39 83 41 84 43 85 40 86
REMARK H PARENT 5 5 10 29 60 48 34 59
REMARK Flexibility Score: inf
ROOT
ATOM      1  C   UNL A   1      36.324  23.335  25.387  1.00  0.00     0.116 C 
ENDROOT
BRANCH   1   2
ATOM      2  N   UNL A   1      35.708  22.510  26.411  1.00  0.00    -0.354 N 
ATOM      3  C   UNL A   1      34.447  22.007  26.528  1.00  0.00     0.244 C 
ATOM      4  O   UNL A   1      34.205  21.460  27.613  1.00  0.00    -0.273 OA
ATOM      5  H   UNL A   1      36.309  22.272  27.153  1.00  0.00     0.163 HD
BRANCH   3   6
ATOM      6  C   UNL A   1      33.421  21.961  25.389  1.00  0.00     0.193 C 
ATOM      7  C   UNL A   1      32.668  20.625  25.404  1.00  0.00     0.044 C 
BRANCH   6   8
ATOM      8  N   UNL A   1      32.471  23.070  25.358  1.00  0.00    -0.260 N 
ATOM      9  C   UNL A   1      31.140  23.028  25.068  1.00  0.00     0.110 A 
ATOM     10  N   UNL A   1      32.916  24.319  25.620  1.00  0.00    -0.167 NA
ATOM     11  C   UNL A   1      30.668  24.293  25.321  1.00  0.00     0.056 A 
ATOM     12  C   UNL A   1      31.804  25.073  25.690  1.00  0.00     0.150 A 
BRANCH  12  13
ATOM     13  C   UNL A   1      31.733  26.467  26.175  1.00  0.00     0.274 C 
ATOM     14  O   UNL A   1      30.799  26.773  26.924  1.00  0.00    -0.267 OA
BRANCH  13  15
ATOM     15  N   UNL A   1      32.653  27.443  25.761  1.00  0.00    -0.336 N 
ATOM     16  C   UNL A   1      33.530  28.226  26.618  1.00  0.00     0.147 C 
BRANCH  15  17
ATOM     17  C   UNL A   1      32.864  27.580  24.322  1.00  0.00     0.158 C 
BRANCH  17  18
ATOM     18  C   UNL A   1      31.674  28.200  23.663  1.00  0.00     0.009 A 
ATOM     19  C   UNL A   1      30.976  27.738  22.519  1.00  0.00     0.140 A 
ATOM     20  C   UNL A   1      30.946  29.307  24.060  1.00  0.00     0.113 A 
ATOM     21  N   UNL A   1      29.918  28.492  22.215  1.00  0.00    -0.181 NA
ATOM     22  N   UNL A   1      29.904  29.419  23.184  1.00  0.00    -0.275 N 
ATOM     23  C   UNL A   1      28.813  30.362  23.230  1.00  0.00     0.173 C 
ENDBRANCH  17  18
ENDBRANCH  15  17
ENDBRANCH  13  15
ENDBRANCH  12  13
ENDBRANCH   6   8
ENDBRANCH   3   6
ENDBRANCH   1   2
BRANCH   1  24
ATOM     24  C   UNL A   1      36.995  22.466  24.320  1.00  0.00     0.023 C 
BRANCH  24  25
ATOM     25  C   UNL A   1      37.490  21.110  24.825  1.00  0.00     0.023 C 
BRANCH  25  26
ATOM     26  C   UNL A   1      38.727  21.170  25.710  1.00  0.00     0.116 C 
BRANCH  26  27
ATOM     27  N   UNL A   1      39.568  19.984  25.618  1.00  0.00    -0.352 N 
ATOM     28  C   UNL A   1      40.889  19.849  25.977  1.00  0.00     0.251 C 
ATOM     29  H   UNL A   1      39.137  19.178  25.253  1.00  0.00     0.163 HD
ATOM     30  O   UNL A   1      41.497  18.804  25.772  1.00  0.00    -0.269 OA
BRANCH  28  31
ATOM     31  C   UNL A   1      41.585  21.007  26.571  1.00  0.00     0.039 A 
ATOM     32  C   UNL A   1      42.145  21.963  25.721  1.00  0.00     0.014 A 
ATOM     33  C   UNL A   1      41.602  21.187  27.956  1.00  0.00     0.014 A 
ATOM     34  C   UNL A   1      42.640  23.153  26.257  1.00  0.00     0.010 A 
ATOM     35  C   UNL A   1      42.038  22.396  28.483  1.00  0.00     0.010 A 
ATOM     36  C   UNL A   1      42.541  23.398  27.636  1.00  0.00    -0.014 A 
BRANCH  36  37
ATOM     37  C   UNL A   1      42.905  24.712  28.220  1.00  0.00     0.031 A 
ATOM     38  C   UNL A   1      41.844  25.747  28.458  1.00  0.00     0.074 A 
ATOM     39  C   UNL A   1      44.205  25.011  28.417  1.00  0.00     0.049 A 
ATOM     40  N   UNL A   1      41.979  26.999  28.811  1.00  0.00    -0.248 NA
ATOM     41  C   UNL A   1      40.451  25.327  28.240  1.00  0.00     0.031 C 
ATOM     42  C   UNL A   1      45.331  24.109  28.168  1.00  0.00     0.029 A 
ATOM     43  N   UNL A   1      44.799  26.173  28.845  1.00  0.00    -0.354 N 
ATOM     44  C   UNL A   1      40.695  27.525  28.825  1.00  0.00     0.074 A 
ATOM     45  C   UNL A   1      39.796  26.465  28.422  1.00  0.00     0.031 C 
ATOM     46  C   UNL A   1      46.479  24.751  28.444  1.00  0.00     0.029 A 
ATOM     47  C   UNL A   1      46.172  26.117  28.852  1.00  0.00     0.049 A 
ATOM     48  H   UNL A   1      44.290  26.969  29.121  1.00  0.00     0.167 HD
ATOM     49  C   UNL A   1      40.302  28.776  29.159  1.00  0.00     0.037 A 
ATOM     50  C   UNL A   1      47.083  27.069  29.132  1.00  0.00     0.037 A 
ATOM     51  C   UNL A   1      41.192  29.811  29.611  1.00  0.00     0.049 A 
ATOM     52  C   UNL A   1      46.616  28.445  29.515  1.00  0.00     0.074 A 
ATOM     53  C   UNL A   1      40.875  31.071  30.086  1.00  0.00     0.029 A 
ATOM     54  N   UNL A   1      42.574  29.706  29.640  1.00  0.00    -0.354 N 
ATOM     55  N   UNL A   1      45.391  28.902  29.612  1.00  0.00    -0.248 NA
ATOM     56  C   UNL A   1      47.656  29.438  29.823  1.00  0.00     0.031 C 
ATOM     57  C   UNL A   1      42.068  31.744  30.367  1.00  0.00     0.029 A 
ATOM     58  C   UNL A   1      43.125  30.891  30.096  1.00  0.00     0.049 A 
ATOM     59  H   UNL A   1      43.086  28.908  29.376  1.00  0.00     0.167 HD
ATOM     60  C   UNL A   1      45.512  30.228  30.005  1.00  0.00     0.074 A 
ATOM     61  C   UNL A   1      46.927  30.499  30.145  1.00  0.00     0.031 C 
ATOM     62  C   UNL A   1      44.537  31.141  30.229  1.00  0.00     0.037 A 
BRANCH  49  63
ATOM     63  C   UNL A   1      38.842  29.099  29.056  1.00  0.00     0.057 A 
ATOM     64  C   UNL A   1      37.995  29.043  30.167  1.00  0.00     0.134 A 
ATOM     65  C   UNL A   1      38.294  29.527  27.840  1.00  0.00     0.134 A 
ATOM     66  F   UNL A   1      38.459  28.631  31.358  1.00  0.00    -0.206 F 
ATOM     67  C   UNL A   1      36.646  29.389  30.072  1.00  0.00     0.040 A 
ATOM     68  C   UNL A   1      36.952  29.894  27.738  1.00  0.00     0.040 A 
ATOM     69  F   UNL A   1      39.055  29.605  26.739  1.00  0.00    -0.206 F 
ATOM     70  C   UNL A   1      36.123  29.823  28.855  1.00  0.00     0.006 A 
ENDBRANCH  49  63
BRANCH  50  71
ATOM     71  C   UNL A   1      48.531  26.761  29.050  1.00  0.00     0.057 A 
ATOM     72  C   UNL A   1      49.256  27.008  27.879  1.00  0.00     0.134 A 
ATOM     73  C   UNL A   1      49.220  26.197  30.130  1.00  0.00     0.134 A 
ATOM     74  F   UNL A   1      48.645  27.527  26.805  1.00  0.00    -0.206 F 
ATOM     75  C   UNL A   1      50.611  26.686  27.777  1.00  0.00     0.040 A 
ATOM     76  C   UNL A   1      50.579  25.890  30.051  1.00  0.00     0.040 A 
ATOM     77  F   UNL A   1      48.582  25.941  31.282  1.00  0.00    -0.206 F 
ATOM     78  C   UNL A   1      51.277  26.128  28.868  1.00  0.00     0.006 A 
ENDBRANCH  50  71
BRANCH  62  79
ATOM     79  C   UNL A   1      44.965  32.510  30.659  1.00  0.00     0.057 A 
ATOM     80  C   UNL A   1      45.163  33.539  29.732  1.00  0.00     0.134 A 
ATOM     81  C   UNL A   1      45.131  32.815  32.015  1.00  0.00     0.134 A 
ATOM     82  F   UNL A   1      45.033  33.304  28.417  1.00  0.00    -0.206 F 
ATOM     83  C   UNL A   1      45.522  34.825  30.138  1.00  0.00     0.040 A 
ATOM     84  C   UNL A   1      45.471  34.101  32.436  1.00  0.00     0.040 A 
ATOM     85  F   UNL A   1      44.950  31.873  32.953  1.00  0.00    -0.206 F 
ATOM     86  C   UNL A   1      45.669  35.110  31.495  1.00  0.00     0.006 A 
ENDBRANCH  62  79
ENDBRANCH  36  37
ENDBRANCH  28  31
ENDBRANCH  26  27
ENDBRANCH  25  26
ENDBRANCH  24  25
ENDBRANCH   1  24
TORSDOF 16
ENDMDL
MODEL 2
REMARK VINA RESULT:     -10.9      4.298      9.341
REMARK SMILES C[C@H](C(=O)NCCCCNC(=O)c1ccc(-c2c3nc(c(-c4c(F)cccc4F)c4ccc([nH]4)c(-c4c(F)cccc4F)c4nc(c(-c5c(F)cccc5F)c5ccc2[nH]5)C=C4)C=C3)cc1)n1ccc(C(=O)N(C)Cc2cnn(C)c2)n1
REMARK SMILES IDX 6 1 5 2 3 3 4 4 2 6 1 7 67 8 68 9 82 10 69 11 70 12 71 13
REMARK SMILES IDX 72 14 73 15 74 16 75 17 76 18 77 19 81 20 78 21 79 22 80 23
REMARK SMILES IDX 7 24 8 25 9 26 10 27 11 28 12 30 13 31 14 32 66 33 15 34
REMARK SMILES IDX 65 35 16 36 17 37 18 38 59 39 19 40 64 41 58 42 60 43 20 44
REMARK SMILES IDX 63 45 57 46 56 47 21 49 47 50 30 51 46 52 31 53 34 54 45 55
REMARK SMILES IDX 61 56 32 57 33 58 44 60 62 61 35 62 22 63 23 64 28 65 24 66
REMARK SMILES IDX 25 67 27 68 29 69 26 70 48 71 49 72 54 73 50 74 51 75 53 76
REMARK SMILES IDX 55 77 52 78 36 79 37 80 42 81 38 82 39 83 41 84 43 85 40 86
REMARK H PARENT 5 5 10 29 60 48 34 59
REMARK Flexibility Score: inf
ROOT
ATOM      1  C   UNL A   1      32.730  30.009  26.097  1.00  0.00     0.116 C 
ENDROOT
BRANCH   1   2
ATOM      2  N   UNL A   1      33.196  29.658  24.767  1.00  0.00    -0.354 N 
ATOM      3  C   UNL A   1      32.639  28.892  23.789  1.00  0.00     0.244 C 
ATOM      4  O   UNL A   1      33.378  28.671  22.819  1.00  0.00    -0.273 OA
ATOM      5  H   UNL A   1      34.071  30.043  24.532  1.00  0.00     0.163 HD
BRANCH   3   6
ATOM      6  C   UNL A   1      31.174  28.437  23.768  1.00  0.00     0.193 C 
ATOM      7  C   UNL A   1      30.580  28.618  22.365  1.00  0.00     0.044 C 
BRANCH   6   8
ATOM      8  N   UNL A   1      30.934  27.077  24.241  1.00  0.00    -0.260 N 
ATOM      9  C   UNL A   1      30.037  26.168  23.765  1.00  0.00     0.110 A 
ATOM     10  N   UNL A   1      31.646  26.616  25.294  1.00  0.00    -0.167 NA
ATOM     11  C   UNL A   1      30.303  25.001  24.439  1.00  0.00     0.056 A 
ATOM     12  C   UNL A   1      31.336  25.310  25.374  1.00  0.00     0.150 A 
BRANCH  12  13
ATOM     13  C   UNL A   1      32.020  24.308  26.218  1.00  0.00     0.274 C 
ATOM     14  O   UNL A   1      31.459  23.947  27.258  1.00  0.00    -0.267 OA
BRANCH  13  15
ATOM     15  N   UNL A   1      33.295  23.816  25.897  1.00  0.00    -0.336 N 
ATOM     16  C   UNL A   1      34.294  23.325  26.834  1.00  0.00     0.147 C 
BRANCH  15  17
ATOM     17  C   UNL A   1      33.593  23.635  24.478  1.00  0.00     0.158 C 
BRANCH  17  18
ATOM     18  C   UNL A   1      33.033  22.344  23.975  1.00  0.00     0.009 A 
ATOM     19  C   UNL A   1      32.358  22.108  22.751  1.00  0.00     0.140 A 
ATOM     20  C   UNL A   1      33.114  21.086  24.545  1.00  0.00     0.113 A 
ATOM     21  N   UNL A   1      32.031  20.827  22.574  1.00  0.00    -0.181 NA
ATOM     22  N   UNL A   1      32.529  20.223  23.664  1.00  0.00    -0.275 N 
ATOM     23  C   UNL A   1      32.446  18.786  23.763  1.00  0.00     0.173 C 
ENDBRANCH  17  18
ENDBRANCH  15  17
ENDBRANCH  13  15
ENDBRANCH  12  13
ENDBRANCH   6   8
ENDBRANCH   3   6
ENDBRANCH   1   2
BRANCH   1  24
ATOM     24  C   UNL A   1      31.431  30.816  26.022  1.00  0.00     0.023 C 
BRANCH  24  25
ATOM     25  C   UNL A   1      31.364  32.003  26.984  1.00  0.00     0.023 C 
BRANCH  25  26
ATOM     26  C   UNL A   1      32.503  33.003  26.846  1.00  0.00     0.116 C 
BRANCH  26  27
ATOM     27  N   UNL A   1      32.352  34.179  27.692  1.00  0.00    -0.352 N 
ATOM     28  C   UNL A   1      33.155  34.590  28.729  1.00  0.00     0.251 C 
ATOM     29  H   UNL A   1      31.576  34.753  27.496  1.00  0.00     0.163 HD
ATOM     30  O   UNL A   1      32.863  35.568  29.409  1.00  0.00    -0.269 OA
BRANCH  28  31
ATOM     31  C   UNL A   1      34.360  33.799  29.050  1.00  0.00     0.039 A 
ATOM     32  C   UNL A   1      35.612  34.308  28.700  1.00  0.00     0.014 A 
ATOM     33  C   UNL A   1      34.251  32.607  29.771  1.00  0.00     0.014 A 
ATOM     34  C   UNL A   1      36.765  33.670  29.158  1.00  0.00     0.010 A 
ATOM     35  C   UNL A   1      35.398  32.009  30.278  1.00  0.00     0.010 A 
ATOM     36  C   UNL A   1      36.664  32.547  29.993  1.00  0.00    -0.014 A 
BRANCH  36  37
ATOM     37  C   UNL A   1      37.858  31.942  30.631  1.00  0.00     0.031 A 
ATOM     38  C   UNL A   1      38.625  30.866  29.919  1.00  0.00     0.074 A 
ATOM     39  C   UNL A   1      38.173  32.278  31.898  1.00  0.00     0.049 A 
ATOM     40  N   UNL A   1      39.594  30.110  30.366  1.00  0.00    -0.248 NA
ATOM     41  C   UNL A   1      38.229  30.582  28.530  1.00  0.00     0.031 C 
ATOM     42  C   UNL A   1      37.468  33.267  32.715  1.00  0.00     0.029 A 
ATOM     43  N   UNL A   1      39.152  31.797  32.732  1.00  0.00    -0.354 N 
ATOM     44  C   UNL A   1      39.900  29.240  29.330  1.00  0.00     0.074 A 
ATOM     45  C   UNL A   1      39.000  29.543  28.239  1.00  0.00     0.031 C 
ATOM     46  C   UNL A   1      38.033  33.318  33.932  1.00  0.00     0.029 A 
ATOM     47  C   UNL A   1      39.115  32.341  33.994  1.00  0.00     0.049 A 
ATOM     48  H   UNL A   1      39.817  31.127  32.453  1.00  0.00     0.167 HD
ATOM     49  C   UNL A   1      40.858  28.285  29.289  1.00  0.00     0.037 A 
ATOM     50  C   UNL A   1      39.853  32.064  35.086  1.00  0.00     0.037 A 
ATOM     51  C   UNL A   1      41.786  28.022  30.356  1.00  0.00     0.049 A 
ATOM     52  C   UNL A   1      40.919  31.009  35.006  1.00  0.00     0.074 A 
ATOM     53  C   UNL A   1      42.867  27.158  30.363  1.00  0.00     0.029 A 
ATOM     54  N   UNL A   1      41.741  28.619  31.606  1.00  0.00    -0.354 N 
ATOM     55  N   UNL A   1      41.258  30.255  33.988  1.00  0.00    -0.248 NA
ATOM     56  C   UNL A   1      41.702  30.761  36.226  1.00  0.00     0.031 C 
ATOM     57  C   UNL A   1      43.453  27.204  31.631  1.00  0.00     0.029 A 
ATOM     58  C   UNL A   1      42.757  28.119  32.403  1.00  0.00     0.049 A 
ATOM     59  H   UNL A   1      41.085  29.298  31.885  1.00  0.00     0.167 HD
ATOM     60  C   UNL A   1      42.301  29.457  34.438  1.00  0.00     0.074 A 
ATOM     61  C   UNL A   1      42.551  29.828  35.816  1.00  0.00     0.031 C 
ATOM     62  C   UNL A   1      42.989  28.501  33.771  1.00  0.00     0.037 A 
BRANCH  49  63
ATOM     63  C   UNL A   1      40.959  27.451  28.048  1.00  0.00     0.057 A 
ATOM     64  C   UNL A   1      41.759  27.834  26.966  1.00  0.00     0.134 A 
ATOM     65  C   UNL A   1      40.292  26.223  27.962  1.00  0.00     0.134 A 
ATOM     66  F   UNL A   1      42.415  29.004  26.985  1.00  0.00    -0.206 F 
ATOM     67  C   UNL A   1      41.882  27.029  25.832  1.00  0.00     0.040 A 
ATOM     68  C   UNL A   1      40.423  25.401  26.842  1.00  0.00     0.040 A 
ATOM     69  F   UNL A   1      39.512  25.798  28.967  1.00  0.00    -0.206 F 
ATOM     70  C   UNL A   1      41.219  25.805  25.772  1.00  0.00     0.006 A 
ENDBRANCH  49  63
BRANCH  50  71
ATOM     71  C   UNL A   1      39.604  32.789  36.356  1.00  0.00     0.057 A 
ATOM     72  C   UNL A   1      38.616  32.361  37.249  1.00  0.00     0.134 A 
ATOM     73  C   UNL A   1      40.333  33.934  36.697  1.00  0.00     0.134 A 
ATOM     74  F   UNL A   1      37.871  31.283  36.965  1.00  0.00    -0.206 F 
ATOM     75  C   UNL A   1      38.347  33.058  38.429  1.00  0.00     0.040 A 
ATOM     76  C   UNL A   1      40.090  34.629  37.884  1.00  0.00     0.040 A 
ATOM     77  F   UNL A   1      41.297  34.392  35.885  1.00  0.00    -0.206 F 
ATOM     78  C   UNL A   1      39.088  34.194  38.750  1.00  0.00     0.006 A 
ENDBRANCH  50  71
BRANCH  62  79
ATOM     79  C   UNL A   1      44.083  27.798  34.515  1.00  0.00     0.057 A 
ATOM     80  C   UNL A   1      45.378  28.326  34.581  1.00  0.00     0.134 A 
ATOM     81  C   UNL A   1      43.827  26.612  35.212  1.00  0.00     0.134 A 
ATOM     82  F   UNL A   1      45.687  29.452  33.920  1.00  0.00    -0.206 F 
ATOM     83  C   UNL A   1      46.385  27.690  35.308  1.00  0.00     0.040 A 
ATOM     84  C   UNL A   1      44.820  25.978  35.959  1.00  0.00     0.040 A 
ATOM     85  F   UNL A   1      42.605  26.060  35.193  1.00  0.00    -0.206 F 
ATOM     86  C   UNL A   1      46.105  26.517  36.007  1.00  0.00     0.006 A 
ENDBRANCH  62  79
ENDBRANCH  36  37
ENDBRANCH  28  31
ENDBRANCH  26  27
ENDBRANCH  25  26
ENDBRANCH  24  25
ENDBRANCH   1  24
TORSDOF 16
ENDMDL
MODEL 3
REMARK VINA RESULT:     -10.9      1.534      2.244
REMARK SMILES C[C@H](C(=O)NCCCCNC(=O)c1ccc(-c2c3nc(c(-c4c(F)cccc4F)c4ccc([nH]4)c(-c4c(F)cccc4F)c4nc(c(-c5c(F)cccc5F)c5ccc2[nH]5)C=C4)C=C3)cc1)n1ccc(C(=O)N(C)Cc2cnn(C)c2)n1
REMARK SMILES IDX 6 1 5 2 3 3 4 4 2 6 1 7 67 8 68 9 82 10 69 11 70 12 71 13
REMARK SMILES IDX 72 14 73 15 74 16 75 17 76 18 77 19 81 20 78 21 79 22 80 23
REMARK SMILES IDX 7 24 8 25 9 26 10 27 11 28 12 30 13 31 14 32 66 33 15 34
REMARK SMILES IDX 65 35 16 36 17 37 18 38 59 39 19 40 64 41 58 42 60 43 20 44
REMARK SMILES IDX 63 45 57 46 56 47 21 49 47 50 30 51 46 52 31 53 34 54 45 55
REMARK SMILES IDX 61 56 32 57 33 58 44 60 62 61 35 62 22 63 23 64 28 65 24 66
REMARK SMILES IDX 25 67 27 68 29 69 26 70 48 71 49 72 54 73 50 74 51 75 53 76
REMARK SMILES IDX 55 77 52 78 36 79 37 80 42 81 38 82 39 83 41 84 43 85 40 86
REMARK H PARENT 5 5 10 29 60 48 34 59
REMARK Flexibility Score: inf
ROOT
ATOM      1  C   UNL A   1      36.012  22.931  25.105  1.00  0.00     0.116 C 
ENDROOT
BRANCH   1   2
ATOM      2  N   UNL A   1      35.183  22.007  25.858  1.00  0.00    -0.354 N 
ATOM      3  C   UNL A   1      34.023  21.368  25.538  1.00  0.00     0.244 C 
ATOM      4  O   UNL A   1      33.491  20.758  26.476  1.00  0.00    -0.273 OA
ATOM      5  H   UNL A   1      35.520  21.807  26.761  1.00  0.00     0.163 HD
BRANCH   3   6
ATOM      6  C   UNL A   1      33.455  21.256  24.118  1.00  0.00     0.193 C 
ATOM      7  C   UNL A   1      32.590  19.996  23.988  1.00  0.00     0.044 C 
BRANCH   6   8
ATOM      8  N   UNL A   1      32.714  22.422  23.646  1.00  0.00    -0.260 N 
ATOM      9  C   UNL A   1      31.545  22.926  24.130  1.00  0.00     0.110 A 
ATOM     10  N   UNL A   1      33.189  23.114  22.586  1.00  0.00    -0.167 NA
ATOM     11  C   UNL A   1      31.343  24.104  23.453  1.00  0.00     0.056 A 
ATOM     12  C   UNL A   1      32.408  24.205  22.509  1.00  0.00     0.150 A 
BRANCH  12  13
ATOM     13  C   UNL A   1      32.654  25.388  21.657  1.00  0.00     0.274 C 
ATOM     14  O   UNL A   1      33.196  25.209  20.561  1.00  0.00    -0.267 OA
BRANCH  13  15
ATOM     15  N   UNL A   1      32.346  26.687  22.088  1.00  0.00    -0.336 N 
ATOM     16  C   UNL A   1      31.016  27.226  22.331  1.00  0.00     0.147 C 
BRANCH  15  17
ATOM     17  C   UNL A   1      33.470  27.535  22.479  1.00  0.00     0.158 C 
BRANCH  17  18
ATOM     18  C   UNL A   1      33.497  27.739  23.959  1.00  0.00     0.009 A 
ATOM     19  C   UNL A   1      33.693  26.762  24.967  1.00  0.00     0.140 A 
ATOM     20  C   UNL A   1      33.415  28.923  24.670  1.00  0.00     0.113 A 
ATOM     21  N   UNL A   1      33.717  27.279  26.196  1.00  0.00    -0.181 NA
ATOM     22  N   UNL A   1      33.577  28.597  25.986  1.00  0.00    -0.275 N 
ATOM     23  C   UNL A   1      33.661  29.495  27.111  1.00  0.00     0.173 C 
ENDBRANCH  17  18
ENDBRANCH  15  17
ENDBRANCH  13  15
ENDBRANCH  12  13
ENDBRANCH   6   8
ENDBRANCH   3   6
ENDBRANCH   1   2
BRANCH   1  24
ATOM     24  C   UNL A   1      37.105  22.180  24.340  1.00  0.00     0.023 C 
BRANCH  24  25
ATOM     25  C   UNL A   1      37.561  20.878  24.999  1.00  0.00     0.023 C 
BRANCH  25  26
ATOM     26  C   UNL A   1      38.878  20.972  25.757  1.00  0.00     0.116 C 
BRANCH  26  27
ATOM     27  N   UNL A   1      39.661  19.745  25.721  1.00  0.00    -0.352 N 
ATOM     28  C   UNL A   1      40.993  19.577  26.019  1.00  0.00     0.251 C 
ATOM     29  H   UNL A   1      39.175  18.933  25.448  1.00  0.00     0.163 HD
ATOM     30  O   UNL A   1      41.544  18.491  25.871  1.00  0.00    -0.269 OA
BRANCH  28  31
ATOM     31  C   UNL A   1      41.771  20.745  26.474  1.00  0.00     0.039 A 
ATOM     32  C   UNL A   1      42.281  21.628  25.519  1.00  0.00     0.014 A 
ATOM     33  C   UNL A   1      41.915  21.010  27.838  1.00  0.00     0.014 A 
ATOM     34  C   UNL A   1      42.854  22.831  25.933  1.00  0.00     0.010 A 
ATOM     35  C   UNL A   1      42.430  22.234  28.246  1.00  0.00     0.010 A 
ATOM     36  C   UNL A   1      42.884  23.164  27.296  1.00  0.00    -0.014 A 
BRANCH  36  37
ATOM     37  C   UNL A   1      43.335  24.499  27.761  1.00  0.00     0.031 A 
ATOM     38  C   UNL A   1      42.324  25.547  28.124  1.00  0.00     0.074 A 
ATOM     39  C   UNL A   1      44.649  24.799  27.736  1.00  0.00     0.049 A 
ATOM     40  N   UNL A   1      42.511  26.812  28.400  1.00  0.00    -0.248 NA
ATOM     41  C   UNL A   1      40.915  25.126  28.149  1.00  0.00     0.031 C 
ATOM     42  C   UNL A   1      45.722  23.882  27.346  1.00  0.00     0.029 A 
ATOM     43  N   UNL A   1      45.302  25.974  28.016  1.00  0.00    -0.354 N 
ATOM     44  C   UNL A   1      41.245  27.344  28.598  1.00  0.00     0.074 A 
ATOM     45  C   UNL A   1      40.296  26.274  28.387  1.00  0.00     0.031 C 
ATOM     46  C   UNL A   1      46.898  24.529  27.408  1.00  0.00     0.029 A 
ATOM     47  C   UNL A   1      46.659  25.912  27.805  1.00  0.00     0.049 A 
ATOM     48  H   UNL A   1      44.843  26.782  28.337  1.00  0.00     0.167 HD
ATOM     49  C   UNL A   1      40.909  28.610  28.940  1.00  0.00     0.037 A 
ATOM     50  C   UNL A   1      47.601  26.870  27.896  1.00  0.00     0.037 A 
ATOM     51  C   UNL A   1      41.859  29.658  29.201  1.00  0.00     0.049 A 
ATOM     52  C   UNL A   1      47.199  28.262  28.294  1.00  0.00     0.074 A 
ATOM     53  C   UNL A   1      41.620  30.938  29.670  1.00  0.00     0.029 A 
ATOM     54  N   UNL A   1      43.227  29.547  29.013  1.00  0.00    -0.354 N 
ATOM     55  N   UNL A   1      46.005  28.729  28.566  1.00  0.00    -0.248 NA
ATOM     56  C   UNL A   1      48.273  29.262  28.390  1.00  0.00     0.031 C 
ATOM     57  C   UNL A   1      42.842  31.615  29.728  1.00  0.00     0.029 A 
ATOM     58  C   UNL A   1      43.843  30.747  29.327  1.00  0.00     0.049 A 
ATOM     59  H   UNL A   1      43.692  28.737  28.703  1.00  0.00     0.167 HD
ATOM     60  C   UNL A   1      46.185  30.069  28.882  1.00  0.00     0.074 A 
ATOM     61  C   UNL A   1      47.605  30.338  28.782  1.00  0.00     0.031 C 
ATOM     62  C   UNL A   1      45.257  30.995  29.221  1.00  0.00     0.037 A 
BRANCH  49  63
ATOM     63  C   UNL A   1      39.451  28.935  29.059  1.00  0.00     0.057 A 
ATOM     64  C   UNL A   1      38.698  29.357  27.958  1.00  0.00     0.134 A 
ATOM     65  C   UNL A   1      38.784  28.768  30.278  1.00  0.00     0.134 A 
ATOM     66  F   UNL A   1      39.283  29.546  26.765  1.00  0.00    -0.206 F 
ATOM     67  C   UNL A   1      37.330  29.615  28.068  1.00  0.00     0.040 A 
ATOM     68  C   UNL A   1      37.414  29.003  30.396  1.00  0.00     0.040 A 
ATOM     69  F   UNL A   1      39.450  28.363  31.370  1.00  0.00    -0.206 F 
ATOM     70  C   UNL A   1      36.683  29.430  29.289  1.00  0.00     0.006 A 
ENDBRANCH  49  63
BRANCH  50  71
ATOM     71  C   UNL A   1      49.018  26.552  27.596  1.00  0.00     0.057 A 
ATOM     72  C   UNL A   1      49.537  26.717  26.308  1.00  0.00     0.134 A 
ATOM     73  C   UNL A   1      49.880  26.058  28.582  1.00  0.00     0.134 A 
ATOM     74  F   UNL A   1      48.753  27.166  25.317  1.00  0.00    -0.206 F 
ATOM     75  C   UNL A   1      50.859  26.384  26.004  1.00  0.00     0.040 A 
ATOM     76  C   UNL A   1      51.210  25.741  28.299  1.00  0.00     0.040 A 
ATOM     77  F   UNL A   1      49.444  25.882  29.839  1.00  0.00    -0.206 F 
ATOM     78  C   UNL A   1      51.700  25.897  27.004  1.00  0.00     0.006 A 
ENDBRANCH  50  71
BRANCH  62  79
ATOM     79  C   UNL A   1      45.747  32.378  29.522  1.00  0.00     0.057 A 
ATOM     80  C   UNL A   1      45.800  33.366  28.532  1.00  0.00     0.134 A 
ATOM     81  C   UNL A   1      46.119  32.739  30.822  1.00  0.00     0.134 A 
ATOM     82  F   UNL A   1      45.470  33.075  27.264  1.00  0.00    -0.206 F 
ATOM     83  C   UNL A   1      46.218  34.665  28.823  1.00  0.00     0.040 A 
ATOM     84  C   UNL A   1      46.519  34.040  31.130  1.00  0.00     0.040 A 
ATOM     85  F   UNL A   1      46.083  31.839  31.816  1.00  0.00    -0.206 F 
ATOM     86  C   UNL A   1      46.571  35.006  30.128  1.00  0.00     0.006 A 
ENDBRANCH  62  79
ENDBRANCH  36  37
ENDBRANCH  28  31
ENDBRANCH  26  27
ENDBRANCH  25  26
ENDBRANCH  24  25
ENDBRANCH   1  24
TORSDOF 16
ENDMDL
