MODEL 1
REMARK VINA RESULT:     -11.3      0.000      0.000
REMARK SMILES O=C(CN(Cc1ccccc1Cl)S(=O)(=O)c1ccc(Cl)cc1)NCCCCNC(=O)c1ccc(-c2c3nc(c(-c4c(F)cccc4F)c4ccc([nH]4)c(-c4c(F)cccc4F)c4nc(c(-c5c(F)cccc5F)c5ccc2[nH]5)C=C4)C=C3)cc1
REMARK SMILES IDX 25 1 24 2 23 3 1 4 2 5 3 7 4 8 5 9 6 10 7 11 11 12 8 13
REMARK SMILES IDX 10 14 12 15 9 16 13 17 14 18 15 19 16 20 17 21 22 22 18 23
REMARK SMILES IDX 21 24 19 25 20 26 26 27 27 28 28 29 29 30 30 32 31 33 32 34
REMARK SMILES IDX 84 35 33 36 83 37 34 38 35 39 36 40 77 41 37 42 82 43 76 44
REMARK SMILES IDX 78 45 38 46 81 47 75 48 74 49 39 51 65 52 48 53 64 54 49 55
REMARK SMILES IDX 52 56 63 57 79 58 50 59 51 60 62 62 80 63 53 64 40 65 41 66
REMARK SMILES IDX 46 67 42 68 43 69 45 70 47 71 44 72 66 73 67 74 72 75 68 76
REMARK SMILES IDX 69 77 71 78 73 79 70 80 54 81 55 82 60 83 56 84 57 85 59 86
REMARK SMILES IDX 61 87 58 88
REMARK H PARENT 23 6 28 31 78 50 52 61
REMARK Flexibility Score: inf
ROOT
ATOM      1  C   UNL A   1      31.799  29.093  25.657  1.00  0.00     0.023 C 
ENDROOT
BRANCH   1   2
ATOM      2  C   UNL A   1      31.253  29.006  24.235  1.00  0.00     0.116 C 
BRANCH   2   3
ATOM      3  N   UNL A   1      31.506  27.724  23.606  1.00  0.00    -0.355 N 
ATOM      4  O   UNL A   1      29.830  26.613  24.705  1.00  0.00    -0.274 OA
ATOM      5  C   UNL A   1      30.692  26.634  23.829  1.00  0.00     0.235 C 
ATOM      6  H   UNL A   1      32.279  27.630  23.002  1.00  0.00     0.163 HD
BRANCH   5   7
ATOM      7  C   UNL A   1      31.010  25.401  23.002  1.00  0.00     0.202 C 
BRANCH   7   8
ATOM      8  N   UNL A   1      32.063  24.417  23.444  1.00  0.00    -0.184 NA
BRANCH   8   9
ATOM      9  C   UNL A   1      31.407  23.135  23.850  1.00  0.00     0.140 C 
BRANCH   9  10
ATOM     10  C   UNL A   1      32.229  22.041  24.519  1.00  0.00    -0.014 A 
ATOM     11  C   UNL A   1      32.627  20.896  23.806  1.00  0.00     0.006 A 
ATOM     12  C   UNL A   1      32.692  22.145  25.847  1.00  0.00     0.045 A 
ATOM     13  C   UNL A   1      33.401  19.885  24.384  1.00  0.00     0.000 A 
ATOM     14  C   UNL A   1      33.477  21.135  26.426  1.00  0.00     0.021 A 
ATOM     15  Cl  UNL A   1      32.345  23.512  26.848  1.00  0.00    -0.084 Cl
ATOM     16  C   UNL A   1      33.825  20.002  25.697  1.00  0.00     0.002 A 
ENDBRANCH   9  10
ENDBRANCH   8   9
BRANCH   8  17
ATOM     17  S   UNL A   1      33.498  24.450  22.527  1.00  0.00     0.243 S 
ATOM     18  O   UNL A   1      33.396  23.491  21.450  1.00  0.00    -0.207 OA
ATOM     19  O   UNL A   1      33.739  25.846  22.230  1.00  0.00    -0.207 OA
BRANCH  17  20
ATOM     20  C   UNL A   1      34.893  23.951  23.538  1.00  0.00     0.082 A 
ATOM     21  C   UNL A   1      35.121  24.467  24.817  1.00  0.00     0.023 A 
ATOM     22  C   UNL A   1      35.689  22.887  23.083  1.00  0.00     0.023 A 
ATOM     23  C   UNL A   1      36.181  23.987  25.596  1.00  0.00     0.022 A 
ATOM     24  C   UNL A   1      36.719  22.378  23.880  1.00  0.00     0.022 A 
ATOM     25  C   UNL A   1      36.972  22.942  25.127  1.00  0.00     0.041 A 
ATOM     26  Cl  UNL A   1      38.242  22.324  26.107  1.00  0.00    -0.084 Cl
ENDBRANCH  17  20
ENDBRANCH   8  17
ENDBRANCH   7   8
ENDBRANCH   5   7
ENDBRANCH   2   3
ENDBRANCH   1   2
BRANCH   1  27
ATOM     27  C   UNL A   1      33.232  28.587  25.839  1.00  0.00     0.023 C 
BRANCH  27  28
ATOM     28  C   UNL A   1      33.805  28.698  27.249  1.00  0.00     0.116 C 
BRANCH  28  29
ATOM     29  N   UNL A   1      33.798  30.055  27.771  1.00  0.00    -0.352 N 
ATOM     30  C   UNL A   1      34.790  30.758  28.411  1.00  0.00     0.251 C 
ATOM     31  H   UNL A   1      32.953  30.545  27.646  1.00  0.00     0.163 HD
ATOM     32  O   UNL A   1      34.550  31.869  28.876  1.00  0.00    -0.269 OA
BRANCH  30  33
ATOM     33  C   UNL A   1      36.143  30.176  28.579  1.00  0.00     0.039 A 
ATOM     34  C   UNL A   1      37.034  30.232  27.501  1.00  0.00     0.014 A 
ATOM     35  C   UNL A   1      36.533  29.563  29.772  1.00  0.00     0.014 A 
ATOM     36  C   UNL A   1      38.336  29.745  27.645  1.00  0.00     0.010 A 
ATOM     37  C   UNL A   1      37.850  29.134  29.935  1.00  0.00     0.010 A 
ATOM     38  C   UNL A   1      38.767  29.226  28.877  1.00  0.00    -0.014 A 
BRANCH  38  39
ATOM     39  C   UNL A   1      40.175  28.797  29.081  1.00  0.00     0.031 A 
ATOM     40  C   UNL A   1      41.182  29.742  29.676  1.00  0.00     0.074 A 
ATOM     41  C   UNL A   1      40.566  27.577  28.664  1.00  0.00     0.049 A 
ATOM     42  N   UNL A   1      42.470  29.576  29.848  1.00  0.00    -0.248 NA
ATOM     43  C   UNL A   1      40.680  31.054  30.111  1.00  0.00     0.031 C 
ATOM     44  C   UNL A   1      39.701  26.578  28.035  1.00  0.00     0.029 A 
ATOM     45  N   UNL A   1      41.800  26.973  28.697  1.00  0.00    -0.354 N 
ATOM     46  C   UNL A   1      42.934  30.766  30.391  1.00  0.00     0.074 A 
ATOM     47  C   UNL A   1      41.799  31.660  30.486  1.00  0.00     0.031 C 
ATOM     48  C   UNL A   1      40.425  25.481  27.757  1.00  0.00     0.029 A 
ATOM     49  C   UNL A   1      41.810  25.711  28.155  1.00  0.00     0.049 A 
ATOM     50  H   UNL A   1      42.601  27.406  29.072  1.00  0.00     0.167 HD
ATOM     51  C   UNL A   1      44.190  31.082  30.790  1.00  0.00     0.037 A 
ATOM     52  C   UNL A   1      42.822  24.838  27.991  1.00  0.00     0.037 A 
ATOM     53  C   UNL A   1      45.314  30.185  30.731  1.00  0.00     0.049 A 
ATOM     54  C   UNL A   1      44.204  25.211  28.448  1.00  0.00     0.074 A 
ATOM     55  C   UNL A   1      46.607  30.394  31.179  1.00  0.00     0.029 A 
ATOM     56  N   UNL A   1      45.279  28.908  30.196  1.00  0.00    -0.354 N 
ATOM     57  N   UNL A   1      44.616  26.319  29.012  1.00  0.00    -0.248 NA
ATOM     58  C   UNL A   1      45.261  24.209  28.248  1.00  0.00     0.031 C 
ATOM     59  C   UNL A   1      47.363  29.254  30.883  1.00  0.00     0.029 A 
ATOM     60  C   UNL A   1      46.531  28.323  30.284  1.00  0.00     0.049 A 
ATOM     61  H   UNL A   1      44.481  28.479  29.809  1.00  0.00     0.167 HD
ATOM     62  C   UNL A   1      45.970  26.139  29.258  1.00  0.00     0.074 A 
ATOM     63  C   UNL A   1      46.310  24.812  28.790  1.00  0.00     0.031 C 
ATOM     64  C   UNL A   1      46.853  26.998  29.822  1.00  0.00     0.037 A 
BRANCH  51  65
ATOM     65  C   UNL A   1      44.416  32.463  31.331  1.00  0.00     0.057 A 
ATOM     66  C   UNL A   1      44.282  32.751  32.694  1.00  0.00     0.134 A 
ATOM     67  C   UNL A   1      44.810  33.507  30.484  1.00  0.00     0.134 A 
ATOM     68  F   UNL A   1      43.897  31.796  33.556  1.00  0.00    -0.206 F 
ATOM     69  C   UNL A   1      44.511  34.033  33.196  1.00  0.00     0.040 A 
ATOM     70  C   UNL A   1      45.063  34.789  30.976  1.00  0.00     0.040 A 
ATOM     71  F   UNL A   1      44.962  33.296  29.168  1.00  0.00    -0.206 F 
ATOM     72  C   UNL A   1      44.909  35.056  32.335  1.00  0.00     0.006 A 
ENDBRANCH  51  65
BRANCH  52  73
ATOM     73  C   UNL A   1      42.564  23.510  27.383  1.00  0.00     0.057 A 
ATOM     74  C   UNL A   1      42.695  23.315  26.004  1.00  0.00     0.134 A 
ATOM     75  C   UNL A   1      42.172  22.413  28.158  1.00  0.00     0.134 A 
ATOM     76  F   UNL A   1      43.048  24.336  25.209  1.00  0.00    -0.206 F 
ATOM     77  C   UNL A   1      42.431  22.078  25.413  1.00  0.00     0.040 A 
ATOM     78  C   UNL A   1      41.923  21.166  27.583  1.00  0.00     0.040 A 
ATOM     79  F   UNL A   1      42.032  22.537  29.486  1.00  0.00    -0.206 F 
ATOM     80  C   UNL A   1      42.047  20.998  26.205  1.00  0.00     0.006 A 
ENDBRANCH  52  73
BRANCH  64  81
ATOM     81  C   UNL A   1      48.262  26.517  29.996  1.00  0.00     0.057 A 
ATOM     82  C   UNL A   1      49.249  26.768  29.035  1.00  0.00     0.134 A 
ATOM     83  C   UNL A   1      48.643  25.824  31.152  1.00  0.00     0.134 A 
ATOM     84  F   UNL A   1      48.945  27.413  27.900  1.00  0.00    -0.206 F 
ATOM     85  C   UNL A   1      50.564  26.331  29.211  1.00  0.00     0.040 A 
ATOM     86  C   UNL A   1      49.957  25.402  31.350  1.00  0.00     0.040 A 
ATOM     87  F   UNL A   1      47.744  25.557  32.112  1.00  0.00    -0.206 F 
ATOM     88  C   UNL A   1      50.922  25.651  30.375  1.00  0.00     0.006 A 
ENDBRANCH  64  81
ENDBRANCH  38  39
ENDBRANCH  30  33
ENDBRANCH  28  29
ENDBRANCH  27  28
ENDBRANCH   1  27
TORSDOF 16
ENDMDL
MODEL 2
REMARK VINA RESULT:     -11.3      3.036      8.098
REMARK SMILES O=C(CN(Cc1ccccc1Cl)S(=O)(=O)c1ccc(Cl)cc1)NCCCCNC(=O)c1ccc(-c2c3nc(c(-c4c(F)cccc4F)c4ccc([nH]4)c(-c4c(F)cccc4F)c4nc(c(-c5c(F)cccc5F)c5ccc2[nH]5)C=C4)C=C3)cc1
REMARK SMILES IDX 25 1 24 2 23 3 1 4 2 5 3 7 4 8 5 9 6 10 7 11 11 12 8 13
REMARK SMILES IDX 10 14 12 15 9 16 13 17 14 18 15 19 16 20 17 21 22 22 18 23
REMARK SMILES IDX 21 24 19 25 20 26 26 27 27 28 28 29 29 30 30 32 31 33 32 34
REMARK SMILES IDX 84 35 33 36 83 37 34 38 35 39 36 40 77 41 37 42 82 43 76 44
REMARK SMILES IDX 78 45 38 46 81 47 75 48 74 49 39 51 65 52 48 53 64 54 49 55
REMARK SMILES IDX 52 56 63 57 79 58 50 59 51 60 62 62 80 63 53 64 40 65 41 66
REMARK SMILES IDX 46 67 42 68 43 69 45 70 47 71 44 72 66 73 67 74 72 75 68 76
REMARK SMILES IDX 69 77 71 78 73 79 70 80 54 81 55 82 60 83 56 84 57 85 59 86
REMARK SMILES IDX 61 87 58 88
REMARK H PARENT 23 6 28 31 78 50 52 61
REMARK Flexibility Score: inf
ROOT
ATOM      1  C   UNL A   1      35.616  21.602  24.628  1.00  0.00     0.023 C 
ENDROOT
BRANCH   1   2
ATOM      2  C   UNL A   1      34.576  21.547  25.744  1.00  0.00     0.116 C 
BRANCH   2   3
ATOM      3  N   UNL A   1      33.405  22.359  25.472  1.00  0.00    -0.355 N 
ATOM      4  O   UNL A   1      32.329  20.767  24.221  1.00  0.00    -0.274 OA
ATOM      5  C   UNL A   1      32.314  21.854  24.798  1.00  0.00     0.235 C 
ATOM      6  H   UNL A   1      33.388  23.295  25.778  1.00  0.00     0.163 HD
BRANCH   5   7
ATOM      7  C   UNL A   1      31.117  22.782  24.702  1.00  0.00     0.202 C 
BRANCH   7   8
ATOM      8  N   UNL A   1      31.284  24.279  24.782  1.00  0.00    -0.184 NA
BRANCH   8   9
ATOM      9  C   UNL A   1      30.787  24.903  23.516  1.00  0.00     0.140 C 
BRANCH   9  10
ATOM     10  C   UNL A   1      30.954  26.401  23.294  1.00  0.00    -0.014 A 
ATOM     11  C   UNL A   1      29.902  27.295  23.566  1.00  0.00     0.006 A 
ATOM     12  C   UNL A   1      32.173  26.974  22.880  1.00  0.00     0.045 A 
ATOM     13  C   UNL A   1      30.031  28.676  23.393  1.00  0.00     0.000 A 
ATOM     14  C   UNL A   1      32.307  28.363  22.715  1.00  0.00     0.021 A 
ATOM     15  Cl  UNL A   1      33.585  26.027  22.559  1.00  0.00    -0.084 Cl
ATOM     16  C   UNL A   1      31.234  29.213  22.965  1.00  0.00     0.002 A 
ENDBRANCH   9  10
ENDBRANCH   8   9
BRANCH   8  17
ATOM     17  S   UNL A   1      30.959  24.951  26.314  1.00  0.00     0.243 S 
ATOM     18  O   UNL A   1      29.567  25.338  26.376  1.00  0.00    -0.207 OA
ATOM     19  O   UNL A   1      31.489  24.006  27.274  1.00  0.00    -0.207 OA
BRANCH  17  20
ATOM     20  C   UNL A   1      31.926  26.441  26.556  1.00  0.00     0.082 A 
ATOM     21  C   UNL A   1      33.261  26.548  26.155  1.00  0.00     0.023 A 
ATOM     22  C   UNL A   1      31.262  27.587  27.024  1.00  0.00     0.023 A 
ATOM     23  C   UNL A   1      33.948  27.759  26.298  1.00  0.00     0.022 A 
ATOM     24  C   UNL A   1      31.938  28.808  27.123  1.00  0.00     0.022 A 
ATOM     25  C   UNL A   1      33.283  28.885  26.776  1.00  0.00     0.041 A 
ATOM     26  Cl  UNL A   1      34.119  30.382  26.904  1.00  0.00    -0.084 Cl
ENDBRANCH  17  20
ENDBRANCH   8  17
ENDBRANCH   7   8
ENDBRANCH   5   7
ENDBRANCH   2   3
ENDBRANCH   1   2
BRANCH   1  27
ATOM     27  C   UNL A   1      36.073  23.008  24.232  1.00  0.00     0.023 C 
BRANCH  27  28
ATOM     28  C   UNL A   1      37.136  23.641  25.126  1.00  0.00     0.116 C 
BRANCH  28  29
ATOM     29  N   UNL A   1      38.251  22.754  25.414  1.00  0.00    -0.352 N 
ATOM     30  C   UNL A   1      39.405  22.992  26.122  1.00  0.00     0.251 C 
ATOM     31  H   UNL A   1      38.166  21.845  25.048  1.00  0.00     0.163 HD
ATOM     32  O   UNL A   1      40.285  22.135  26.163  1.00  0.00    -0.269 OA
BRANCH  30  33
ATOM     33  C   UNL A   1      39.619  24.287  26.809  1.00  0.00     0.039 A 
ATOM     34  C   UNL A   1      39.094  24.456  28.096  1.00  0.00     0.014 A 
ATOM     35  C   UNL A   1      40.309  25.336  26.197  1.00  0.00     0.014 A 
ATOM     36  C   UNL A   1      39.328  25.643  28.795  1.00  0.00     0.010 A 
ATOM     37  C   UNL A   1      40.594  26.496  26.918  1.00  0.00     0.010 A 
ATOM     38  C   UNL A   1      40.113  26.659  28.227  1.00  0.00    -0.014 A 
BRANCH  38  39
ATOM     39  C   UNL A   1      40.457  27.886  28.991  1.00  0.00     0.031 A 
ATOM     40  C   UNL A   1      41.784  28.003  29.688  1.00  0.00     0.074 A 
ATOM     41  C   UNL A   1      39.545  28.869  29.120  1.00  0.00     0.049 A 
ATOM     42  N   UNL A   1      42.225  28.955  30.472  1.00  0.00    -0.248 NA
ATOM     43  C   UNL A   1      42.731  26.893  29.499  1.00  0.00     0.031 C 
ATOM     44  C   UNL A   1      38.205  28.864  28.530  1.00  0.00     0.029 A 
ATOM     45  N   UNL A   1      39.602  30.060  29.801  1.00  0.00    -0.354 N 
ATOM     46  C   UNL A   1      43.488  28.550  30.884  1.00  0.00     0.074 A 
ATOM     47  C   UNL A   1      43.728  27.250  30.295  1.00  0.00     0.031 C 
ATOM     48  C   UNL A   1      37.575  30.003  28.859  1.00  0.00     0.029 A 
ATOM     49  C   UNL A   1      38.450  30.803  29.711  1.00  0.00     0.049 A 
ATOM     50  H   UNL A   1      40.395  30.352  30.307  1.00  0.00     0.167 HD
ATOM     51  C   UNL A   1      44.374  29.209  31.670  1.00  0.00     0.037 A 
ATOM     52  C   UNL A   1      38.131  31.991  30.258  1.00  0.00     0.037 A 
ATOM     53  C   UNL A   1      44.153  30.518  32.228  1.00  0.00     0.049 A 
ATOM     54  C   UNL A   1      39.134  32.703  31.121  1.00  0.00     0.074 A 
ATOM     55  C   UNL A   1      45.022  31.292  32.976  1.00  0.00     0.029 A 
ATOM     56  N   UNL A   1      42.982  31.246  32.095  1.00  0.00    -0.354 N 
ATOM     57  N   UNL A   1      40.346  32.334  31.454  1.00  0.00    -0.248 NA
ATOM     58  C   UNL A   1      38.726  34.000  31.679  1.00  0.00     0.031 C 
ATOM     59  C   UNL A   1      44.364  32.477  33.326  1.00  0.00     0.029 A 
ATOM     60  C   UNL A   1      43.098  32.453  32.764  1.00  0.00     0.049 A 
ATOM     61  H   UNL A   1      42.185  30.948  31.600  1.00  0.00     0.167 HD
ATOM     62  C   UNL A   1      40.854  33.361  32.238  1.00  0.00     0.074 A 
ATOM     63  C   UNL A   1      39.822  34.374  32.323  1.00  0.00     0.031 C 
ATOM     64  C   UNL A   1      42.067  33.456  32.834  1.00  0.00     0.037 A 
BRANCH  51  65
ATOM     65  C   UNL A   1      45.673  28.522  31.972  1.00  0.00     0.057 A 
ATOM     66  C   UNL A   1      46.798  28.680  31.155  1.00  0.00     0.134 A 
ATOM     67  C   UNL A   1      45.810  27.725  33.115  1.00  0.00     0.134 A 
ATOM     68  F   UNL A   1      46.727  29.423  30.039  1.00  0.00    -0.206 F 
ATOM     69  C   UNL A   1      48.009  28.053  31.450  1.00  0.00     0.040 A 
ATOM     70  C   UNL A   1      47.022  27.110  33.434  1.00  0.00     0.040 A 
ATOM     71  F   UNL A   1      44.772  27.537  33.945  1.00  0.00    -0.206 F 
ATOM     72  C   UNL A   1      48.125  27.270  32.598  1.00  0.00     0.006 A 
ENDBRANCH  51  65
BRANCH  52  73
ATOM     73  C   UNL A   1      36.805  32.598  29.989  1.00  0.00     0.057 A 
ATOM     74  C   UNL A   1      35.705  32.308  30.804  1.00  0.00     0.134 A 
ATOM     75  C   UNL A   1      36.602  33.468  28.913  1.00  0.00     0.134 A 
ATOM     76  F   UNL A   1      35.835  31.464  31.838  1.00  0.00    -0.206 F 
ATOM     77  C   UNL A   1      34.444  32.850  30.550  1.00  0.00     0.040 A 
ATOM     78  C   UNL A   1      35.351  34.033  28.658  1.00  0.00     0.040 A 
ATOM     79  F   UNL A   1      37.618  33.786  28.098  1.00  0.00    -0.206 F 
ATOM     80  C   UNL A   1      34.267  33.720  29.475  1.00  0.00     0.006 A 
ENDBRANCH  52  73
BRANCH  64  81
ATOM     81  C   UNL A   1      42.358  34.711  33.600  1.00  0.00     0.057 A 
ATOM     82  C   UNL A   1      42.927  35.833  32.986  1.00  0.00     0.134 A 
ATOM     83  C   UNL A   1      42.032  34.809  34.959  1.00  0.00     0.134 A 
ATOM     84  F   UNL A   1      43.275  35.797  31.691  1.00  0.00    -0.206 F 
ATOM     85  C   UNL A   1      43.180  37.005  33.703  1.00  0.00     0.040 A 
ATOM     86  C   UNL A   1      42.259  35.981  35.680  1.00  0.00     0.040 A 
ATOM     87  F   UNL A   1      41.479  33.770  35.603  1.00  0.00    -0.206 F 
ATOM     88  C   UNL A   1      42.840  37.082  35.053  1.00  0.00     0.006 A 
ENDBRANCH  64  81
ENDBRANCH  38  39
ENDBRANCH  30  33
ENDBRANCH  28  29
ENDBRANCH  27  28
ENDBRANCH   1  27
TORSDOF 16
ENDMDL
MODEL 3
REMARK VINA RESULT:     -11.3      2.524      7.493
REMARK SMILES O=C(CN(Cc1ccccc1Cl)S(=O)(=O)c1ccc(Cl)cc1)NCCCCNC(=O)c1ccc(-c2c3nc(c(-c4c(F)cccc4F)c4ccc([nH]4)c(-c4c(F)cccc4F)c4nc(c(-c5c(F)cccc5F)c5ccc2[nH]5)C=C4)C=C3)cc1
REMARK SMILES IDX 25 1 24 2 23 3 1 4 2 5 3 7 4 8 5 9 6 10 7 11 11 12 8 13
REMARK SMILES IDX 10 14 12 15 9 16 13 17 14 18 15 19 16 20 17 21 22 22 18 23
REMARK SMILES IDX 21 24 19 25 20 26 26 27 27 28 28 29 29 30 30 32 31 33 32 34
REMARK SMILES IDX 84 35 33 36 83 37 34 38 35 39 36 40 77 41 37 42 82 43 76 44
REMARK SMILES IDX 78 45 38 46 81 47 75 48 74 49 39 51 65 52 48 53 64 54 49 55
REMARK SMILES IDX 52 56 63 57 79 58 50 59 51 60 62 62 80 63 53 64 40 65 41 66
REMARK SMILES IDX 46 67 42 68 43 69 45 70 47 71 44 72 66 73 67 74 72 75 68 76
REMARK SMILES IDX 69 77 71 78 73 79 70 80 54 81 55 82 60 83 56 84 57 85 59 86
REMARK SMILES IDX 61 87 58 88
REMARK H PARENT 23 6 28 31 78 50 52 61
REMARK Flexibility Score: inf
ROOT
ATOM      1  C   UNL A   1      36.376  20.657  24.941  1.00  0.00     0.023 C 
ENDROOT
BRANCH   1   2
ATOM      2  C   UNL A   1      35.034  19.930  24.956  1.00  0.00     0.116 C 
BRANCH   2   3
ATOM      3  N   UNL A   1      33.917  20.803  25.263  1.00  0.00    -0.355 N 
ATOM      4  O   UNL A   1      32.418  19.711  23.916  1.00  0.00    -0.274 OA
ATOM      5  C   UNL A   1      32.651  20.556  24.779  1.00  0.00     0.235 C 
ATOM      6  H   UNL A   1      34.067  21.592  25.834  1.00  0.00     0.163 HD
BRANCH   5   7
ATOM      7  C   UNL A   1      31.563  21.483  25.290  1.00  0.00     0.202 C 
BRANCH   7   8
ATOM      8  N   UNL A   1      31.691  22.980  25.158  1.00  0.00    -0.184 NA
BRANCH   8   9
ATOM      9  C   UNL A   1      31.133  23.414  23.839  1.00  0.00     0.140 C 
BRANCH   9  10
ATOM     10  C   UNL A   1      31.677  24.665  23.161  1.00  0.00    -0.014 A 
ATOM     11  C   UNL A   1      30.889  25.825  23.044  1.00  0.00     0.006 A 
ATOM     12  C   UNL A   1      33.000  24.755  22.685  1.00  0.00     0.045 A 
ATOM     13  C   UNL A   1      31.365  26.996  22.448  1.00  0.00     0.000 A 
ATOM     14  C   UNL A   1      33.483  25.934  22.094  1.00  0.00     0.021 A 
ATOM     15  Cl  UNL A   1      34.122  23.444  22.802  1.00  0.00    -0.084 Cl
ATOM     16  C   UNL A   1      32.664  27.052  21.969  1.00  0.00     0.002 A 
ENDBRANCH   9  10
ENDBRANCH   8   9
BRANCH   8  17
ATOM     17  S   UNL A   1      31.399  23.848  26.595  1.00  0.00     0.243 S 
ATOM     18  O   UNL A   1      29.973  23.950  26.807  1.00  0.00    -0.207 OA
ATOM     19  O   UNL A   1      32.236  23.229  27.602  1.00  0.00    -0.207 OA
BRANCH  17  20
ATOM     20  C   UNL A   1      32.025  25.523  26.447  1.00  0.00     0.082 A 
ATOM     21  C   UNL A   1      33.347  25.806  26.091  1.00  0.00     0.023 A 
ATOM     22  C   UNL A   1      31.104  26.579  26.540  1.00  0.00     0.023 A 
ATOM     23  C   UNL A   1      33.764  27.130  25.914  1.00  0.00     0.022 A 
ATOM     24  C   UNL A   1      31.512  27.899  26.319  1.00  0.00     0.022 A 
ATOM     25  C   UNL A   1      32.844  28.171  26.023  1.00  0.00     0.041 A 
ATOM     26  Cl  UNL A   1      33.352  29.792  25.757  1.00  0.00    -0.084 Cl
ENDBRANCH  17  20
ENDBRANCH   8  17
ENDBRANCH   7   8
ENDBRANCH   5   7
ENDBRANCH   2   3
ENDBRANCH   1   2
BRANCH   1  27
ATOM     27  C   UNL A   1      37.609  19.750  24.948  1.00  0.00     0.023 C 
BRANCH  27  28
ATOM     28  C   UNL A   1      38.826  20.284  25.698  1.00  0.00     0.116 C 
BRANCH  28  29
ATOM     29  N   UNL A   1      39.943  19.354  25.724  1.00  0.00    -0.352 N 
ATOM     30  C   UNL A   1      41.253  19.560  26.086  1.00  0.00     0.251 C 
ATOM     31  H   UNL A   1      39.728  18.437  25.439  1.00  0.00     0.163 HD
ATOM     32  O   UNL A   1      42.077  18.662  25.934  1.00  0.00    -0.269 OA
BRANCH  30  33
ATOM     33  C   UNL A   1      41.692  20.868  26.625  1.00  0.00     0.039 A 
ATOM     34  C   UNL A   1      42.178  21.831  25.733  1.00  0.00     0.014 A 
ATOM     35  C   UNL A   1      41.649  21.148  27.993  1.00  0.00     0.014 A 
ATOM     36  C   UNL A   1      42.545  23.096  26.201  1.00  0.00     0.010 A 
ATOM     37  C   UNL A   1      41.957  22.429  28.452  1.00  0.00     0.010 A 
ATOM     38  C   UNL A   1      42.401  23.418  27.560  1.00  0.00    -0.014 A 
BRANCH  38  39
ATOM     39  C   UNL A   1      42.690  24.787  28.062  1.00  0.00     0.031 A 
ATOM     40  C   UNL A   1      44.082  25.168  28.480  1.00  0.00     0.074 A 
ATOM     41  C   UNL A   1      41.681  25.668  28.210  1.00  0.00     0.049 A 
ATOM     42  N   UNL A   1      44.507  26.281  29.024  1.00  0.00    -0.248 NA
ATOM     43  C   UNL A   1      45.132  24.155  28.285  1.00  0.00     0.031 C 
ATOM     44  C   UNL A   1      40.278  25.414  27.881  1.00  0.00     0.029 A 
ATOM     45  N   UNL A   1      41.682  26.956  28.689  1.00  0.00    -0.354 N 
ATOM     46  C   UNL A   1      45.864  26.096  29.254  1.00  0.00     0.074 A 
ATOM     47  C   UNL A   1      46.185  24.751  28.826  1.00  0.00     0.031 C 
ATOM     48  C   UNL A   1      39.557  26.515  28.151  1.00  0.00     0.029 A 
ATOM     49  C   UNL A   1      40.438  27.538  28.703  1.00  0.00     0.049 A 
ATOM     50  H   UNL A   1      42.497  27.416  28.994  1.00  0.00     0.167 HD
ATOM     51  C   UNL A   1      46.764  26.972  29.760  1.00  0.00     0.037 A 
ATOM     52  C   UNL A   1      40.048  28.758  29.121  1.00  0.00     0.037 A 
ATOM     53  C   UNL A   1      46.457  28.323  30.153  1.00  0.00     0.049 A 
ATOM     54  C   UNL A   1      41.069  29.713  29.673  1.00  0.00     0.074 A 
ATOM     55  C   UNL A   1      47.318  29.305  30.610  1.00  0.00     0.029 A 
ATOM     56  N   UNL A   1      45.189  28.882  30.132  1.00  0.00    -0.354 N 
ATOM     57  N   UNL A   1      42.358  29.543  29.831  1.00  0.00    -0.248 NA
ATOM     58  C   UNL A   1      40.578  31.031  30.102  1.00  0.00     0.031 C 
ATOM     59  C   UNL A   1      46.566  30.449  30.897  1.00  0.00     0.029 A 
ATOM     60  C   UNL A   1      45.242  30.189  30.585  1.00  0.00     0.049 A 
ATOM     61  H   UNL A   1      44.371  28.418  29.838  1.00  0.00     0.167 HD
ATOM     62  C   UNL A   1      42.837  30.738  30.351  1.00  0.00     0.074 A 
ATOM     63  C   UNL A   1      41.702  31.628  30.475  1.00  0.00     0.031 C 
ATOM     64  C   UNL A   1      44.106  31.067  30.695  1.00  0.00     0.037 A 
BRANCH  51  65
ATOM     65  C   UNL A   1      48.178  26.496  29.918  1.00  0.00     0.057 A 
ATOM     66  C   UNL A   1      48.606  25.829  31.072  1.00  0.00     0.134 A 
ATOM     67  C   UNL A   1      49.111  26.672  28.888  1.00  0.00     0.134 A 
ATOM     68  F   UNL A   1      47.763  25.638  32.099  1.00  0.00    -0.206 F 
ATOM     69  C   UNL A   1      49.918  25.372  31.207  1.00  0.00     0.040 A 
ATOM     70  C   UNL A   1      50.420  26.201  29.001  1.00  0.00     0.040 A 
ATOM     71  F   UNL A   1      48.763  27.298  27.753  1.00  0.00    -0.206 F 
ATOM     72  C   UNL A   1      50.828  25.552  30.165  1.00  0.00     0.006 A 
ENDBRANCH  51  65
BRANCH  52  73
ATOM     73  C   UNL A   1      38.624  29.158  29.012  1.00  0.00     0.057 A 
ATOM     74  C   UNL A   1      38.098  29.609  27.797  1.00  0.00     0.134 A 
ATOM     75  C   UNL A   1      37.763  29.111  30.114  1.00  0.00     0.134 A 
ATOM     76  F   UNL A   1      38.882  29.695  26.712  1.00  0.00    -0.206 F 
ATOM     77  C   UNL A   1      36.767  30.014  27.683  1.00  0.00     0.040 A 
ATOM     78  C   UNL A   1      36.425  29.494  30.010  1.00  0.00     0.040 A 
ATOM     79  F   UNL A   1      38.209  28.685  31.304  1.00  0.00    -0.206 F 
ATOM     80  C   UNL A   1      35.925  29.953  28.793  1.00  0.00     0.006 A 
ENDBRANCH  52  73
BRANCH  64  81
ATOM     81  C   UNL A   1      44.338  32.457  31.205  1.00  0.00     0.057 A 
ATOM     82  C   UNL A   1      44.621  33.521  30.339  1.00  0.00     0.134 A 
ATOM     83  C   UNL A   1      44.244  32.741  32.573  1.00  0.00     0.134 A 
ATOM     84  F   UNL A   1      44.739  33.312  29.020  1.00  0.00    -0.206 F 
ATOM     85  C   UNL A   1      44.821  34.817  30.820  1.00  0.00     0.040 A 
ATOM     86  C   UNL A   1      44.419  34.035  33.063  1.00  0.00     0.040 A 
ATOM     87  F   UNL A   1      43.970  31.766  33.453  1.00  0.00    -0.206 F 
ATOM     88  C   UNL A   1      44.713  35.077  32.186  1.00  0.00     0.006 A 
ENDBRANCH  64  81
ENDBRANCH  38  39
ENDBRANCH  30  33
ENDBRANCH  28  29
ENDBRANCH  27  28
ENDBRANCH   1  27
TORSDOF 16
ENDMDL
