MODEL 1
REMARK VINA RESULT:     -12.2      0.000      0.000
REMARK SMILES O=C(NCCCCNC(=O)[C@@H]1CN(c2nc(-c3ccccc3)no2)CC[NH2+]1)c1ccc(-c2c3nc(c(-c4c(F)cccc4F)c4ccc([nH]4)c(-c4c(F)cccc4F)c4nc(c(-c5c(F)cccc5F)c5ccc2[nH]5)C=C4)C=C3)cc1
REMARK SMILES IDX 5 1 4 2 3 3 1 4 2 5 28 7 29 8 81 9 30 10 80 11 31 12 32 13
REMARK SMILES IDX 33 14 74 15 34 16 79 17 73 18 75 19 35 20 78 21 72 22 71 23
REMARK SMILES IDX 36 25 62 26 45 27 61 28 46 29 49 30 60 31 76 32 47 33 48 34
REMARK SMILES IDX 59 36 77 37 50 38 37 39 38 40 43 41 39 42 40 43 42 44 44 45
REMARK SMILES IDX 41 46 63 47 64 48 69 49 65 50 66 51 68 52 70 53 67 54 51 55
REMARK SMILES IDX 52 56 57 57 53 58 54 59 56 60 58 61 55 62 6 63 7 64 8 65
REMARK SMILES IDX 9 66 10 68 11 69 12 70 27 71 13 72 26 73 25 76 14 77 15 78
REMARK SMILES IDX 24 79 16 80 23 81 17 82 18 83 22 84 19 85 21 86 20 87
REMARK H PARENT 3 6 75 24 49 35 8 67 27 74 27 75
REMARK Flexibility Score: inf
ROOT
ATOM      1  C   UNL A   1      37.688  19.803  24.973  1.00  0.00     0.023 C 
ENDROOT
BRANCH   1   2
ATOM      2  C   UNL A   1      38.886  20.208  25.819  1.00  0.00     0.116 C 
BRANCH   2   3
ATOM      3  N   UNL A   1      39.954  19.220  25.810  1.00  0.00    -0.352 N 
ATOM      4  O   UNL A   1      42.087  18.480  25.891  1.00  0.00    -0.269 OA
ATOM      5  C   UNL A   1      41.293  19.402  26.056  1.00  0.00     0.251 C 
ATOM      6  H   UNL A   1      39.679  18.298  25.600  1.00  0.00     0.163 HD
BRANCH   5   7
ATOM      7  C   UNL A   1      41.777  20.727  26.493  1.00  0.00     0.039 A 
ATOM      8  C   UNL A   1      41.963  21.001  27.849  1.00  0.00     0.014 A 
ATOM      9  C   UNL A   1      42.029  21.711  25.533  1.00  0.00     0.014 A 
ATOM     10  C   UNL A   1      42.264  22.294  28.255  1.00  0.00     0.010 A 
ATOM     11  C   UNL A   1      42.418  22.991  25.939  1.00  0.00     0.010 A 
ATOM     12  C   UNL A   1      42.512  23.298  27.304  1.00  0.00    -0.014 A 
BRANCH  12  13
ATOM     13  C   UNL A   1      42.943  24.638  27.772  1.00  0.00     0.031 A 
ATOM     14  C   UNL A   1      44.390  25.041  27.771  1.00  0.00     0.074 A 
ATOM     15  C   UNL A   1      41.994  25.510  28.165  1.00  0.00     0.049 A 
ATOM     16  N   UNL A   1      44.923  26.187  28.116  1.00  0.00    -0.248 NA
ATOM     17  C   UNL A   1      45.367  24.033  27.333  1.00  0.00     0.031 C 
ATOM     18  C   UNL A   1      40.559  25.221  28.223  1.00  0.00     0.029 A 
ATOM     19  N   UNL A   1      42.087  26.817  28.569  1.00  0.00    -0.354 N 
ATOM     20  C   UNL A   1      46.293  26.036  27.953  1.00  0.00     0.074 A 
ATOM     21  C   UNL A   1      46.515  24.678  27.499  1.00  0.00     0.031 C 
ATOM     22  C   UNL A   1      39.901  26.330  28.587  1.00  0.00     0.029 A 
ATOM     23  C   UNL A   1      40.869  27.389  28.847  1.00  0.00     0.049 A 
ATOM     24  H   UNL A   1      42.941  27.298  28.652  1.00  0.00     0.167 HD
ATOM     25  C   UNL A   1      47.273  26.948  28.157  1.00  0.00     0.037 A 
ATOM     26  C   UNL A   1      40.565  28.626  29.278  1.00  0.00     0.037 A 
ATOM     27  C   UNL A   1      47.044  28.302  28.595  1.00  0.00     0.049 A 
ATOM     28  C   UNL A   1      41.672  29.609  29.508  1.00  0.00     0.074 A 
ATOM     29  C   UNL A   1      47.970  29.311  28.800  1.00  0.00     0.029 A 
ATOM     30  N   UNL A   1      45.800  28.837  28.897  1.00  0.00    -0.354 N 
ATOM     31  N   UNL A   1      42.961  29.457  29.323  1.00  0.00    -0.248 NA
ATOM     32  C   UNL A   1      41.285  30.932  30.014  1.00  0.00     0.031 C 
ATOM     33  C   UNL A   1      47.290  30.444  29.262  1.00  0.00     0.029 A 
ATOM     34  C   UNL A   1      45.937  30.153  29.305  1.00  0.00     0.049 A 
ATOM     35  H   UNL A   1      44.946  28.351  28.831  1.00  0.00     0.167 HD
ATOM     36  C   UNL A   1      43.538  30.667  29.680  1.00  0.00     0.074 A 
ATOM     37  C   UNL A   1      42.457  31.549  30.067  1.00  0.00     0.031 C 
ATOM     38  C   UNL A   1      44.848  31.014  29.694  1.00  0.00     0.037 A 
BRANCH  25  39
ATOM     39  C   UNL A   1      48.691  26.518  27.921  1.00  0.00     0.057 A 
ATOM     40  C   UNL A   1      49.461  25.924  28.930  1.00  0.00     0.134 A 
ATOM     41  C   UNL A   1      49.274  26.642  26.653  1.00  0.00     0.134 A 
ATOM     42  F   UNL A   1      48.966  25.786  30.170  1.00  0.00    -0.206 F 
ATOM     43  C   UNL A   1      50.762  25.478  28.689  1.00  0.00     0.040 A 
ATOM     44  C   UNL A   1      50.566  26.181  26.394  1.00  0.00     0.040 A 
ATOM     45  F   UNL A   1      48.590  27.195  25.641  1.00  0.00    -0.206 F 
ATOM     46  C   UNL A   1      51.315  25.600  27.415  1.00  0.00     0.006 A 
ENDBRANCH  25  39
BRANCH  26  47
ATOM     47  C   UNL A   1      39.149  28.991  29.526  1.00  0.00     0.057 A 
ATOM     48  C   UNL A   1      38.567  28.818  30.786  1.00  0.00     0.134 A 
ATOM     49  C   UNL A   1      38.350  29.532  28.512  1.00  0.00     0.134 A 
ATOM     50  F   UNL A   1      39.279  28.290  31.792  1.00  0.00    -0.206 F 
ATOM     51  C   UNL A   1      37.235  29.158  31.026  1.00  0.00     0.040 A 
ATOM     52  C   UNL A   1      37.025  29.901  28.745  1.00  0.00     0.040 A 
ATOM     53  F   UNL A   1      38.854  29.730  27.285  1.00  0.00    -0.206 F 
ATOM     54  C   UNL A   1      36.462  29.708  30.004  1.00  0.00     0.006 A 
ENDBRANCH  26  47
BRANCH  38  55
ATOM     55  C   UNL A   1      45.171  32.411  30.130  1.00  0.00     0.057 A 
ATOM     56  C   UNL A   1      45.452  32.715  31.468  1.00  0.00     0.134 A 
ATOM     57  C   UNL A   1      45.208  33.459  29.204  1.00  0.00     0.134 A 
ATOM     58  F   UNL A   1      45.416  31.756  32.405  1.00  0.00    -0.206 F 
ATOM     59  C   UNL A   1      45.735  34.020  31.873  1.00  0.00     0.040 A 
ATOM     60  C   UNL A   1      45.514  34.763  29.592  1.00  0.00     0.040 A 
ATOM     61  F   UNL A   1      44.953  33.231  27.907  1.00  0.00    -0.206 F 
ATOM     62  C   UNL A   1      45.771  35.048  30.933  1.00  0.00     0.006 A 
ENDBRANCH  38  55
ENDBRANCH  12  13
ENDBRANCH   5   7
ENDBRANCH   2   3
ENDBRANCH   1   2
BRANCH   1  63
ATOM     63  C   UNL A   1      36.717  20.935  24.642  1.00  0.00     0.023 C 
BRANCH  63  64
ATOM     64  C   UNL A   1      35.697  21.246  25.737  1.00  0.00     0.116 C 
BRANCH  64  65
ATOM     65  N   UNL A   1      34.595  20.299  25.746  1.00  0.00    -0.351 N 
ATOM     66  C   UNL A   1      33.313  20.467  25.299  1.00  0.00     0.280 C 
ATOM     67  H   UNL A   1      34.799  19.414  26.127  1.00  0.00     0.163 HD
ATOM     68  O   UNL A   1      32.511  19.545  25.464  1.00  0.00    -0.268 OA
BRANCH  66  69
ATOM     69  C   UNL A   1      32.910  21.811  24.677  1.00  0.00     0.292 C 
ATOM     70  C   UNL A   1      31.615  22.264  25.380  1.00  0.00     0.197 C 
ATOM     71  N   UNL A   1      32.740  21.668  23.199  1.00  0.00    -0.333 N 
ATOM     72  N   UNL A   1      31.114  23.496  24.785  1.00  0.00    -0.312 N 
ATOM     73  C   UNL A   1      32.216  22.933  22.645  1.00  0.00     0.283 C 
ATOM     74  H   UNL A   1      32.083  20.913  23.002  1.00  0.00     0.347 HD
ATOM     75  H   UNL A   1      33.640  21.454  22.770  1.00  0.00     0.347 HD
ATOM     76  C   UNL A   1      30.933  23.471  23.335  1.00  0.00     0.183 C 
BRANCH  72  77
ATOM     77  C   UNL A   1      31.207  24.659  25.462  1.00  0.00     0.324 A 
ATOM     78  N   UNL A   1      32.209  25.506  25.526  1.00  0.00    -0.171 NA
ATOM     79  O   UNL A   1      30.142  25.038  26.233  1.00  0.00    -0.315 OA
ATOM     80  C   UNL A   1      31.719  26.481  26.366  1.00  0.00     0.204 A 
ATOM     81  N   UNL A   1      30.491  26.238  26.846  1.00  0.00    -0.055 NA
BRANCH  80  82
ATOM     82  C   UNL A   1      32.419  27.723  26.623  1.00  0.00     0.023 A 
ATOM     83  C   UNL A   1      31.726  28.868  27.037  1.00  0.00     0.012 A 
ATOM     84  C   UNL A   1      33.798  27.796  26.387  1.00  0.00     0.012 A 
ATOM     85  C   UNL A   1      32.410  30.076  27.199  1.00  0.00     0.001 A 
ATOM     86  C   UNL A   1      34.475  29.007  26.544  1.00  0.00     0.001 A 
ATOM     87  C   UNL A   1      33.780  30.146  26.947  1.00  0.00     0.000 A 
ENDBRANCH  80  82
ENDBRANCH  72  77
ENDBRANCH  66  69
ENDBRANCH  64  65
ENDBRANCH  63  64
ENDBRANCH   1  63
TORSDOF 13
ENDMDL
MODEL 2
REMARK VINA RESULT:     -12.2      2.946      7.198
REMARK SMILES O=C(NCCCCNC(=O)[C@@H]1CN(c2nc(-c3ccccc3)no2)CC[NH2+]1)c1ccc(-c2c3nc(c(-c4c(F)cccc4F)c4ccc([nH]4)c(-c4c(F)cccc4F)c4nc(c(-c5c(F)cccc5F)c5ccc2[nH]5)C=C4)C=C3)cc1
REMARK SMILES IDX 5 1 4 2 3 3 1 4 2 5 28 7 29 8 81 9 30 10 80 11 31 12 32 13
REMARK SMILES IDX 33 14 74 15 34 16 79 17 73 18 75 19 35 20 78 21 72 22 71 23
REMARK SMILES IDX 36 25 62 26 45 27 61 28 46 29 49 30 60 31 76 32 47 33 48 34
REMARK SMILES IDX 59 36 77 37 50 38 37 39 38 40 43 41 39 42 40 43 42 44 44 45
REMARK SMILES IDX 41 46 63 47 64 48 69 49 65 50 66 51 68 52 70 53 67 54 51 55
REMARK SMILES IDX 52 56 57 57 53 58 54 59 56 60 58 61 55 62 6 63 7 64 8 65
REMARK SMILES IDX 9 66 10 68 11 69 12 70 27 71 13 72 26 73 25 76 14 77 15 78
REMARK SMILES IDX 24 79 16 80 23 81 17 82 18 83 22 84 19 85 21 86 20 87
REMARK H PARENT 3 6 75 24 49 35 8 67 27 74 27 75
REMARK Flexibility Score: inf
ROOT
ATOM      1  C   UNL A   1      35.635  23.464  26.230  1.00  0.00     0.023 C 
ENDROOT
BRANCH   1   2
ATOM      2  C   UNL A   1      36.915  23.901  25.533  1.00  0.00     0.116 C 
BRANCH   2   3
ATOM      3  N   UNL A   1      37.970  22.901  25.594  1.00  0.00    -0.352 N 
ATOM      4  O   UNL A   1      40.044  22.106  26.007  1.00  0.00    -0.269 OA
ATOM      5  C   UNL A   1      39.224  23.009  26.145  1.00  0.00     0.251 C 
ATOM      6  H   UNL A   1      37.756  22.031  25.186  1.00  0.00     0.163 HD
BRANCH   5   7
ATOM      7  C   UNL A   1      39.590  24.237  26.880  1.00  0.00     0.039 A 
ATOM      8  C   UNL A   1      39.222  24.397  28.217  1.00  0.00     0.014 A 
ATOM      9  C   UNL A   1      40.292  25.246  26.216  1.00  0.00     0.014 A 
ATOM     10  C   UNL A   1      39.432  25.616  28.847  1.00  0.00     0.010 A 
ATOM     11  C   UNL A   1      40.581  26.441  26.880  1.00  0.00     0.010 A 
ATOM     12  C   UNL A   1      40.128  26.645  28.191  1.00  0.00    -0.014 A 
BRANCH  12  13
ATOM     13  C   UNL A   1      40.435  27.891  28.935  1.00  0.00     0.031 A 
ATOM     14  C   UNL A   1      39.420  28.990  29.077  1.00  0.00     0.074 A 
ATOM     15  C   UNL A   1      41.643  28.002  29.520  1.00  0.00     0.049 A 
ATOM     16  N   UNL A   1      39.523  30.124  29.724  1.00  0.00    -0.248 NA
ATOM     17  C   UNL A   1      38.125  28.799  28.405  1.00  0.00     0.031 C 
ATOM     18  C   UNL A   1      42.713  27.005  29.435  1.00  0.00     0.029 A 
ATOM     19  N   UNL A   1      42.168  28.986  30.317  1.00  0.00    -0.354 N 
ATOM     20  C   UNL A   1      38.319  30.788  29.526  1.00  0.00     0.074 A 
ATOM     21  C   UNL A   1      37.506  29.940  28.679  1.00  0.00     0.031 C 
ATOM     22  C   UNL A   1      43.746  27.401  30.191  1.00  0.00     0.029 A 
ATOM     23  C   UNL A   1      43.436  28.706  30.764  1.00  0.00     0.049 A 
ATOM     24  H   UNL A   1      41.685  29.812  30.546  1.00  0.00     0.167 HD
ATOM     25  C   UNL A   1      37.929  31.990  30.014  1.00  0.00     0.037 A 
ATOM     26  C   UNL A   1      44.267  29.426  31.539  1.00  0.00     0.037 A 
ATOM     27  C   UNL A   1      38.738  32.822  30.868  1.00  0.00     0.049 A 
ATOM     28  C   UNL A   1      43.812  30.759  32.051  1.00  0.00     0.074 A 
ATOM     29  C   UNL A   1      38.418  34.042  31.439  1.00  0.00     0.029 A 
ATOM     30  N   UNL A   1      40.029  32.519  31.275  1.00  0.00    -0.354 N 
ATOM     31  N   UNL A   1      42.659  31.359  31.877  1.00  0.00    -0.248 NA
ATOM     32  C   UNL A   1      44.773  31.517  32.862  1.00  0.00     0.031 C 
ATOM     33  C   UNL A   1      39.529  34.495  32.159  1.00  0.00     0.029 A 
ATOM     34  C   UNL A   1      40.526  33.538  32.071  1.00  0.00     0.049 A 
ATOM     35  H   UNL A   1      40.520  31.701  31.032  1.00  0.00     0.167 HD
ATOM     36  C   UNL A   1      42.753  32.561  32.563  1.00  0.00     0.074 A 
ATOM     37  C   UNL A   1      44.064  32.591  33.177  1.00  0.00     0.031 C 
ATOM     38  C   UNL A   1      41.838  33.554  32.668  1.00  0.00     0.037 A 
BRANCH  25  39
ATOM     39  C   UNL A   1      36.568  32.492  29.630  1.00  0.00     0.057 A 
ATOM     40  C   UNL A   1      35.437  32.236  30.416  1.00  0.00     0.134 A 
ATOM     41  C   UNL A   1      36.396  33.293  28.493  1.00  0.00     0.134 A 
ATOM     42  F   UNL A   1      35.531  31.467  31.511  1.00  0.00    -0.206 F 
ATOM     43  C   UNL A   1      34.183  32.751  30.081  1.00  0.00     0.040 A 
ATOM     44  C   UNL A   1      35.152  33.831  28.159  1.00  0.00     0.040 A 
ATOM     45  F   UNL A   1      37.439  33.582  27.701  1.00  0.00    -0.206 F 
ATOM     46  C   UNL A   1      34.040  33.557  28.953  1.00  0.00     0.006 A 
ENDBRANCH  25  39
BRANCH  26  47
ATOM     47  C   UNL A   1      45.614  28.898  31.863  1.00  0.00     0.057 A 
ATOM     48  C   UNL A   1      45.834  28.133  33.014  1.00  0.00     0.134 A 
ATOM     49  C   UNL A   1      46.710  29.135  31.024  1.00  0.00     0.134 A 
ATOM     50  F   UNL A   1      44.827  27.886  33.863  1.00  0.00    -0.206 F 
ATOM     51  C   UNL A   1      47.100  27.635  33.326  1.00  0.00     0.040 A 
ATOM     52  C   UNL A   1      47.974  28.620  31.310  1.00  0.00     0.040 A 
ATOM     53  F   UNL A   1      46.560  29.854  29.901  1.00  0.00    -0.206 F 
ATOM     54  C   UNL A   1      48.173  27.873  32.469  1.00  0.00     0.006 A 
ENDBRANCH  26  47
BRANCH  38  55
ATOM     55  C   UNL A   1      42.227  34.746  33.489  1.00  0.00     0.057 A 
ATOM     56  C   UNL A   1      41.936  34.819  34.858  1.00  0.00     0.134 A 
ATOM     57  C   UNL A   1      42.907  35.824  32.910  1.00  0.00     0.134 A 
ATOM     58  F   UNL A   1      41.272  33.826  35.466  1.00  0.00    -0.206 F 
ATOM     59  C   UNL A   1      42.285  35.938  35.615  1.00  0.00     0.040 A 
ATOM     60  C   UNL A   1      43.282  36.936  33.663  1.00  0.00     0.040 A 
ATOM     61  F   UNL A   1      43.219  35.810  31.606  1.00  0.00    -0.206 F 
ATOM     62  C   UNL A   1      42.964  36.998  35.019  1.00  0.00     0.006 A 
ENDBRANCH  38  55
ENDBRANCH  12  13
ENDBRANCH   5   7
ENDBRANCH   2   3
ENDBRANCH   1   2
BRANCH   1  63
ATOM     63  C   UNL A   1      35.479  21.955  26.409  1.00  0.00     0.023 C 
BRANCH  63  64
ATOM     64  C   UNL A   1      34.259  21.529  27.225  1.00  0.00     0.116 C 
BRANCH  64  65
ATOM     65  N   UNL A   1      33.482  20.501  26.554  1.00  0.00    -0.351 N 
ATOM     66  C   UNL A   1      32.649  20.619  25.474  1.00  0.00     0.280 C 
ATOM     67  H   UNL A   1      33.565  19.593  26.927  1.00  0.00     0.163 HD
ATOM     68  O   UNL A   1      32.029  19.620  25.102  1.00  0.00    -0.268 OA
BRANCH  66  69
ATOM     69  C   UNL A   1      32.470  21.994  24.817  1.00  0.00     0.292 C 
ATOM     70  C   UNL A   1      31.205  22.627  25.431  1.00  0.00     0.197 C 
ATOM     71  N   UNL A   1      32.378  21.852  23.332  1.00  0.00    -0.333 N 
ATOM     72  N   UNL A   1      30.912  23.905  24.796  1.00  0.00    -0.312 N 
ATOM     73  C   UNL A   1      32.063  23.167  22.736  1.00  0.00     0.283 C 
ATOM     74  H   UNL A   1      31.640  21.188  23.098  1.00  0.00     0.347 HD
ATOM     75  H   UNL A   1      33.266  21.514  22.965  1.00  0.00     0.347 HD
ATOM     76  C   UNL A   1      30.823  23.881  23.337  1.00  0.00     0.183 C 
BRANCH  72  77
ATOM     77  C   UNL A   1      31.117  25.056  25.468  1.00  0.00     0.324 A 
ATOM     78  N   UNL A   1      32.171  25.839  25.476  1.00  0.00    -0.171 NA
ATOM     79  O   UNL A   1      30.124  25.496  26.301  1.00  0.00    -0.315 OA
ATOM     80  C   UNL A   1      31.792  26.837  26.346  1.00  0.00     0.204 A 
ATOM     81  N   UNL A   1      30.582  26.668  26.896  1.00  0.00    -0.055 NA
BRANCH  80  82
ATOM     82  C   UNL A   1      32.582  28.032  26.564  1.00  0.00     0.023 A 
ATOM     83  C   UNL A   1      33.981  27.991  26.508  1.00  0.00     0.012 A 
ATOM     84  C   UNL A   1      31.938  29.229  26.905  1.00  0.00     0.012 A 
ATOM     85  C   UNL A   1      34.725  29.137  26.803  1.00  0.00     0.001 A 
ATOM     86  C   UNL A   1      32.685  30.368  27.206  1.00  0.00     0.001 A 
ATOM     87  C   UNL A   1      34.078  30.321  27.157  1.00  0.00     0.000 A 
ENDBRANCH  80  82
ENDBRANCH  72  77
ENDBRANCH  66  69
ENDBRANCH  64  65
ENDBRANCH  63  64
ENDBRANCH   1  63
TORSDOF 13
ENDMDL
MODEL 3
REMARK VINA RESULT:     -12.0      4.494      9.774
REMARK SMILES O=C(NCCCCNC(=O)[C@@H]1CN(c2nc(-c3ccccc3)no2)CC[NH2+]1)c1ccc(-c2c3nc(c(-c4c(F)cccc4F)c4ccc([nH]4)c(-c4c(F)cccc4F)c4nc(c(-c5c(F)cccc5F)c5ccc2[nH]5)C=C4)C=C3)cc1
REMARK SMILES IDX 5 1 4 2 3 3 1 4 2 5 28 7 29 8 81 9 30 10 80 11 31 12 32 13
REMARK SMILES IDX 33 14 74 15 34 16 79 17 73 18 75 19 35 20 78 21 72 22 71 23
REMARK SMILES IDX 36 25 62 26 45 27 61 28 46 29 49 30 60 31 76 32 47 33 48 34
REMARK SMILES IDX 59 36 77 37 50 38 37 39 38 40 43 41 39 42 40 43 42 44 44 45
REMARK SMILES IDX 41 46 63 47 64 48 69 49 65 50 66 51 68 52 70 53 67 54 51 55
REMARK SMILES IDX 52 56 57 57 53 58 54 59 56 60 58 61 55 62 6 63 7 64 8 65
REMARK SMILES IDX 9 66 10 68 11 69 12 70 27 71 13 72 26 73 25 76 14 77 15 78
REMARK SMILES IDX 24 79 16 80 23 81 17 82 18 83 22 84 19 85 21 86 20 87
REMARK H PARENT 3 6 75 24 49 35 8 67 27 74 27 75
REMARK Flexibility Score: inf
ROOT
ATOM      1  C   UNL A   1      31.419  31.757  26.528  1.00  0.00     0.023 C 
ENDROOT
BRANCH   1   2
ATOM      2  C   UNL A   1      32.687  32.486  26.948  1.00  0.00     0.116 C 
BRANCH   2   3
ATOM      3  N   UNL A   1      32.435  33.823  27.462  1.00  0.00    -0.352 N 
ATOM      4  O   UNL A   1      32.663  35.573  28.872  1.00  0.00    -0.269 OA
ATOM      5  C   UNL A   1      33.078  34.487  28.479  1.00  0.00     0.251 C 
ATOM      6  H   UNL A   1      31.707  34.319  27.022  1.00  0.00     0.163 HD
BRANCH   5   7
ATOM      7  C   UNL A   1      34.256  33.867  29.118  1.00  0.00     0.039 A 
ATOM      8  C   UNL A   1      35.547  34.244  28.740  1.00  0.00     0.014 A 
ATOM      9  C   UNL A   1      34.066  32.884  30.092  1.00  0.00     0.014 A 
ATOM     10  C   UNL A   1      36.640  33.545  29.231  1.00  0.00     0.010 A 
ATOM     11  C   UNL A   1      35.173  32.240  30.652  1.00  0.00     0.010 A 
ATOM     12  C   UNL A   1      36.467  32.547  30.205  1.00  0.00    -0.014 A 
BRANCH  12  13
ATOM     13  C   UNL A   1      37.666  31.900  30.791  1.00  0.00     0.031 A 
ATOM     14  C   UNL A   1      38.116  32.205  32.191  1.00  0.00     0.074 A 
ATOM     15  C   UNL A   1      38.328  30.994  30.046  1.00  0.00     0.049 A 
ATOM     16  N   UNL A   1      39.123  31.697  32.858  1.00  0.00    -0.248 NA
ATOM     17  C   UNL A   1      37.346  33.210  32.940  1.00  0.00     0.031 C 
ATOM     18  C   UNL A   1      37.989  30.631  28.667  1.00  0.00     0.029 A 
ATOM     19  N   UNL A   1      39.404  30.199  30.344  1.00  0.00    -0.354 N 
ATOM     20  C   UNL A   1      39.118  32.328  34.095  1.00  0.00     0.074 A 
ATOM     21  C   UNL A   1      38.022  33.274  34.081  1.00  0.00     0.031 C 
ATOM     22  C   UNL A   1      38.806  29.650  28.257  1.00  0.00     0.029 A 
ATOM     23  C   UNL A   1      39.761  29.358  29.318  1.00  0.00     0.049 A 
ATOM     24  H   UNL A   1      39.874  30.227  31.208  1.00  0.00     0.167 HD
ATOM     25  C   UNL A   1      39.949  32.129  35.147  1.00  0.00     0.037 A 
ATOM     26  C   UNL A   1      40.759  28.460  29.234  1.00  0.00     0.037 A 
ATOM     27  C   UNL A   1      41.030  31.175  35.159  1.00  0.00     0.049 A 
ATOM     28  C   UNL A   1      41.670  28.273  30.409  1.00  0.00     0.074 A 
ATOM     29  C   UNL A   1      41.906  30.878  36.189  1.00  0.00     0.029 A 
ATOM     30  N   UNL A   1      41.381  30.363  34.091  1.00  0.00    -0.354 N 
ATOM     31  N   UNL A   1      41.635  28.858  31.582  1.00  0.00    -0.248 NA
ATOM     32  C   UNL A   1      42.763  27.306  30.249  1.00  0.00     0.031 C 
ATOM     33  C   UNL A   1      42.812  29.915  35.731  1.00  0.00     0.029 A 
ATOM     34  C   UNL A   1      42.474  29.581  34.430  1.00  0.00     0.049 A 
ATOM     35  H   UNL A   1      40.922  30.346  33.220  1.00  0.00     0.167 HD
ATOM     36  C   UNL A   1      42.693  28.325  32.302  1.00  0.00     0.074 A 
ATOM     37  C   UNL A   1      43.335  27.351  31.443  1.00  0.00     0.031 C 
ATOM     38  C   UNL A   1      43.103  28.622  33.559  1.00  0.00     0.037 A 
BRANCH  25  39
ATOM     39  C   UNL A   1      39.736  32.964  36.375  1.00  0.00     0.057 A 
ATOM     40  C   UNL A   1      40.404  34.180  36.567  1.00  0.00     0.134 A 
ATOM     41  C   UNL A   1      38.806  32.578  37.349  1.00  0.00     0.134 A 
ATOM     42  F   UNL A   1      41.316  34.603  35.677  1.00  0.00    -0.206 F 
ATOM     43  C   UNL A   1      40.162  34.978  37.687  1.00  0.00     0.040 A 
ATOM     44  C   UNL A   1      38.539  33.377  38.462  1.00  0.00     0.040 A 
ATOM     45  F   UNL A   1      38.126  31.428  37.224  1.00  0.00    -0.206 F 
ATOM     46  C   UNL A   1      39.221  34.579  38.635  1.00  0.00     0.006 A 
ENDBRANCH  25  39
BRANCH  26  47
ATOM     47  C   UNL A   1      40.945  27.682  27.986  1.00  0.00     0.057 A 
ATOM     48  C   UNL A   1      41.716  28.181  26.930  1.00  0.00     0.134 A 
ATOM     49  C   UNL A   1      40.367  26.417  27.824  1.00  0.00     0.134 A 
ATOM     50  F   UNL A   1      42.282  29.393  27.021  1.00  0.00    -0.206 F 
ATOM     51  C   UNL A   1      41.894  27.455  25.752  1.00  0.00     0.040 A 
ATOM     52  C   UNL A   1      40.559  25.670  26.662  1.00  0.00     0.040 A 
ATOM     53  F   UNL A   1      39.625  25.882  28.804  1.00  0.00    -0.206 F 
ATOM     54  C   UNL A   1      41.319  26.192  25.619  1.00  0.00     0.006 A 
ENDBRANCH  26  47
BRANCH  38  55
ATOM     55  C   UNL A   1      44.292  27.870  34.075  1.00  0.00     0.057 A 
ATOM     56  C   UNL A   1      44.158  26.610  34.674  1.00  0.00     0.134 A 
ATOM     57  C   UNL A   1      45.581  28.404  33.966  1.00  0.00     0.134 A 
ATOM     58  F   UNL A   1      42.948  26.053  34.822  1.00  0.00    -0.206 F 
ATOM     59  C   UNL A   1      45.266  25.920  35.170  1.00  0.00     0.040 A 
ATOM     60  C   UNL A   1      46.697  27.713  34.436  1.00  0.00     0.040 A 
ATOM     61  F   UNL A   1      45.774  29.604  33.398  1.00  0.00    -0.206 F 
ATOM     62  C   UNL A   1      46.540  26.470  35.047  1.00  0.00     0.006 A 
ENDBRANCH  38  55
ENDBRANCH  12  13
ENDBRANCH   5   7
ENDBRANCH   2   3
ENDBRANCH   1   2
BRANCH   1  63
ATOM     63  C   UNL A   1      31.535  30.235  26.472  1.00  0.00     0.023 C 
BRANCH  63  64
ATOM     64  C   UNL A   1      32.365  29.698  25.307  1.00  0.00     0.116 C 
BRANCH  64  65
ATOM     65  N   UNL A   1      31.637  29.737  24.050  1.00  0.00    -0.351 N 
ATOM     66  C   UNL A   1      31.128  28.699  23.318  1.00  0.00     0.280 C 
ATOM     67  H   UNL A   1      31.488  30.635  23.673  1.00  0.00     0.163 HD
ATOM     68  O   UNL A   1      30.596  28.953  22.234  1.00  0.00    -0.268 OA
BRANCH  66  69
ATOM     69  C   UNL A   1      31.300  27.265  23.837  1.00  0.00     0.292 C 
ATOM     70  C   UNL A   1      31.714  26.395  22.634  1.00  0.00     0.197 C 
ATOM     71  N   UNL A   1      30.037  26.791  24.480  1.00  0.00    -0.333 N 
ATOM     72  N   UNL A   1      31.813  24.995  23.024  1.00  0.00    -0.312 N 
ATOM     73  C   UNL A   1      30.180  25.367  24.842  1.00  0.00     0.283 C 
ATOM     74  H   UNL A   1      29.260  26.900  23.828  1.00  0.00     0.347 HD
ATOM     75  H   UNL A   1      29.853  27.341  25.319  1.00  0.00     0.347 HD
ATOM     76  C   UNL A   1      30.635  24.437  23.686  1.00  0.00     0.183 C 
BRANCH  72  77
ATOM     77  C   UNL A   1      33.023  24.408  23.132  1.00  0.00     0.324 A 
ATOM     78  N   UNL A   1      33.845  24.376  24.156  1.00  0.00    -0.171 NA
ATOM     79  O   UNL A   1      33.525  23.770  22.030  1.00  0.00    -0.315 OA
ATOM     80  C   UNL A   1      34.904  23.649  23.663  1.00  0.00     0.204 A 
ATOM     81  N   UNL A   1      34.781  23.283  22.380  1.00  0.00    -0.055 NA
BRANCH  80  82
ATOM     82  C   UNL A   1      36.012  23.212  24.489  1.00  0.00     0.023 A 
ATOM     83  C   UNL A   1      36.548  24.050  25.475  1.00  0.00     0.012 A 
ATOM     84  C   UNL A   1      36.598  21.962  24.250  1.00  0.00     0.012 A 
ATOM     85  C   UNL A   1      37.668  23.641  26.205  1.00  0.00     0.001 A 
ATOM     86  C   UNL A   1      37.720  21.561  24.975  1.00  0.00     0.001 A 
ATOM     87  C   UNL A   1      38.256  22.402  25.950  1.00  0.00     0.000 A 
ENDBRANCH  80  82
ENDBRANCH  72  77
ENDBRANCH  66  69
ENDBRANCH  64  65
ENDBRANCH  63  64
ENDBRANCH   1  63
TORSDOF 13
ENDMDL
