MODEL 1
REMARK VINA RESULT:     -13.2      0.000      0.000
REMARK SMILES Cc1nn(C(C)C)c(C)c1S(=O)(=O)Nc1cccc(C(=O)NCCCCNC(=O)c2ccc(-c3c4nc(c(-c5c(F)cccc5F)c5ccc([nH]5)c(-c5c(F)cccc5F)c5nc(c(-c6c(F)cccc6F)c6ccc3[nH]6)C=C5)C=C4)cc2)c1C
REMARK SMILES IDX 23 1 22 2 20 3 21 4 19 6 15 7 16 8 84 9 17 10 85 11 18 12
REMARK SMILES IDX 14 13 11 15 12 16 13 17 10 18 1 19 2 20 3 21 4 22 8 23 9 24
REMARK SMILES IDX 5 25 6 26 7 27 24 28 25 29 26 30 27 31 28 32 29 34 30 35
REMARK SMILES IDX 31 36 83 37 32 38 82 39 33 40 34 41 35 42 76 43 36 44 81 45
REMARK SMILES IDX 75 46 77 47 37 48 80 49 74 50 73 51 38 53 64 54 47 55 63 56
REMARK SMILES IDX 48 57 51 58 62 59 78 60 49 61 50 62 61 64 79 65 52 66 39 67
REMARK SMILES IDX 40 68 45 69 41 70 42 71 44 72 46 73 43 74 65 75 66 76 71 77
REMARK SMILES IDX 67 78 68 79 70 80 72 81 69 82 53 83 54 84 59 85 55 86 56 87
REMARK SMILES IDX 58 88 60 89 57 90
REMARK H PARENT 22 5 14 14 27 33 77 52 51 63
REMARK Flexibility Score: inf
ROOT
ATOM      1  C   UNL A   1      32.396  29.330  24.616  1.00  0.00     0.116 C 
ENDROOT
BRANCH   1   2
ATOM      2  N   UNL A   1      31.387  29.402  23.575  1.00  0.00    -0.352 N 
ATOM      3  C   UNL A   1      30.808  28.504  22.714  1.00  0.00     0.251 C 
ATOM      4  O   UNL A   1      29.931  28.995  22.003  1.00  0.00    -0.269 OA
ATOM      5  H   UNL A   1      31.034  30.312  23.459  1.00  0.00     0.163 HD
BRANCH   3   6
ATOM      6  C   UNL A   1      31.129  27.029  22.648  1.00  0.00     0.044 A 
ATOM      7  C   UNL A   1      30.981  24.789  23.624  1.00  0.00     0.053 A 
ATOM      8  C   UNL A   1      31.988  24.332  22.778  1.00  0.00     0.027 A 
ATOM      9  C   UNL A   1      30.439  26.094  23.467  1.00  0.00    -0.014 A 
ATOM     10  C   UNL A   1      32.550  25.199  21.855  1.00  0.00     0.003 A 
ATOM     11  C   UNL A   1      29.194  26.448  24.251  1.00  0.00     0.047 C 
ATOM     12  C   UNL A   1      32.147  26.534  21.821  1.00  0.00     0.014 A 
BRANCH   7  13
ATOM     13  N   UNL A   1      30.526  24.028  24.739  1.00  0.00    -0.279 N 
ATOM     14  H   UNL A   1      29.564  23.819  24.771  1.00  0.00     0.180 HD
BRANCH  13  15
ATOM     15  S   UNL A   1      31.461  23.460  25.989  1.00  0.00     0.265 S 
ATOM     16  O   UNL A   1      31.305  22.029  26.075  1.00  0.00    -0.201 OA
ATOM     17  O   UNL A   1      31.113  24.304  27.123  1.00  0.00    -0.201 OA
BRANCH  15  18
ATOM     18  C   UNL A   1      33.163  23.686  25.830  1.00  0.00     0.131 A 
ATOM     19  C   UNL A   1      33.608  26.303  25.872  1.00  0.00     0.070 C 
ATOM     20  C   UNL A   1      33.939  24.866  25.739  1.00  0.00     0.080 A 
ATOM     21  N   UNL A   1      35.225  24.579  25.497  1.00  0.00    -0.176 NA
ATOM     22  N   UNL A   1      35.298  23.240  25.547  1.00  0.00    -0.266 N 
ATOM     23  C   UNL A   1      34.087  22.646  25.787  1.00  0.00     0.056 A 
ATOM     24  C   UNL A   1      33.916  21.181  25.968  1.00  0.00     0.068 C 
BRANCH  22  25
ATOM     25  C   UNL A   1      36.597  22.597  25.354  1.00  0.00     0.101 C 
ATOM     26  C   UNL A   1      36.850  22.310  23.875  1.00  0.00     0.033 C 
ATOM     27  C   UNL A   1      37.732  23.422  25.963  1.00  0.00     0.033 C 
ENDBRANCH  22  25
ENDBRANCH  15  18
ENDBRANCH  13  15
ENDBRANCH   7  13
ENDBRANCH   3   6
ENDBRANCH   1   2
BRANCH   1  28
ATOM     28  C   UNL A   1      31.791  29.502  26.018  1.00  0.00     0.023 C 
BRANCH  28  29
ATOM     29  C   UNL A   1      32.486  30.537  26.906  1.00  0.00     0.023 C 
BRANCH  29  30
ATOM     30  C   UNL A   1      33.934  30.210  27.218  1.00  0.00     0.116 C 
BRANCH  30  31
ATOM     31  N   UNL A   1      34.681  31.288  27.851  1.00  0.00    -0.352 N 
ATOM     32  C   UNL A   1      35.864  31.254  28.566  1.00  0.00     0.251 C 
ATOM     33  H   UNL A   1      34.280  32.182  27.754  1.00  0.00     0.163 HD
ATOM     34  O   UNL A   1      36.267  32.286  29.101  1.00  0.00    -0.269 OA
BRANCH  32  35
ATOM     35  C   UNL A   1      36.728  30.042  28.572  1.00  0.00     0.039 A 
ATOM     36  C   UNL A   1      36.817  29.301  29.761  1.00  0.00     0.014 A 
ATOM     37  C   UNL A   1      37.597  29.756  27.527  1.00  0.00     0.014 A 
ATOM     38  C   UNL A   1      37.930  28.496  29.992  1.00  0.00     0.010 A 
ATOM     39  C   UNL A   1      38.761  29.074  27.798  1.00  0.00     0.010 A 
ATOM     40  C   UNL A   1      38.957  28.501  29.057  1.00  0.00    -0.014 A 
BRANCH  40  41
ATOM     41  C   UNL A   1      40.313  28.037  29.310  1.00  0.00     0.031 A 
ATOM     42  C   UNL A   1      40.750  26.725  28.788  1.00  0.00     0.074 A 
ATOM     43  C   UNL A   1      41.204  28.915  29.822  1.00  0.00     0.049 A 
ATOM     44  N   UNL A   1      41.887  26.184  29.058  1.00  0.00    -0.248 NA
ATOM     45  C   UNL A   1      39.900  25.874  27.959  1.00  0.00     0.031 C 
ATOM     46  C   UNL A   1      42.661  28.849  29.755  1.00  0.00     0.029 A 
ATOM     47  N   UNL A   1      40.947  29.972  30.710  1.00  0.00    -0.354 N 
ATOM     48  C   UNL A   1      42.043  25.095  28.235  1.00  0.00     0.074 A 
ATOM     49  C   UNL A   1      40.738  24.873  27.670  1.00  0.00     0.031 C 
ATOM     50  C   UNL A   1      43.178  29.596  30.744  1.00  0.00     0.029 A 
ATOM     51  C   UNL A   1      42.066  30.019  31.575  1.00  0.00     0.049 A 
ATOM     52  H   UNL A   1      40.156  30.557  30.726  1.00  0.00     0.167 HD
ATOM     53  C   UNL A   1      43.300  24.604  28.048  1.00  0.00     0.037 A 
ATOM     54  C   UNL A   1      41.945  29.729  32.903  1.00  0.00     0.037 A 
ATOM     55  C   UNL A   1      44.208  25.149  29.060  1.00  0.00     0.049 A 
ATOM     56  C   UNL A   1      42.791  28.559  33.354  1.00  0.00     0.074 A 
ATOM     57  C   UNL A   1      45.193  26.122  29.039  1.00  0.00     0.029 A 
ATOM     58  N   UNL A   1      43.958  24.870  30.402  1.00  0.00    -0.354 N 
ATOM     59  N   UNL A   1      43.265  27.650  32.547  1.00  0.00    -0.248 NA
ATOM     60  C   UNL A   1      43.165  28.319  34.745  1.00  0.00     0.031 C 
ATOM     61  C   UNL A   1      45.460  26.496  30.385  1.00  0.00     0.029 A 
ATOM     62  C   UNL A   1      44.673  25.719  31.219  1.00  0.00     0.049 A 
ATOM     63  H   UNL A   1      43.353  24.162  30.722  1.00  0.00     0.167 HD
ATOM     64  C   UNL A   1      43.970  26.718  33.266  1.00  0.00     0.074 A 
ATOM     65  C   UNL A   1      43.892  27.192  34.635  1.00  0.00     0.031 C 
ATOM     66  C   UNL A   1      44.546  25.633  32.669  1.00  0.00     0.037 A 
BRANCH  53  67
ATOM     67  C   UNL A   1      43.776  23.790  26.857  1.00  0.00     0.057 A 
ATOM     68  C   UNL A   1      44.430  24.431  25.782  1.00  0.00     0.134 A 
ATOM     69  C   UNL A   1      43.522  22.423  26.629  1.00  0.00     0.134 A 
ATOM     70  F   UNL A   1      44.752  25.731  25.831  1.00  0.00    -0.206 F 
ATOM     71  C   UNL A   1      44.771  23.778  24.587  1.00  0.00     0.040 A 
ATOM     72  C   UNL A   1      43.890  21.750  25.453  1.00  0.00     0.040 A 
ATOM     73  F   UNL A   1      42.865  21.652  27.498  1.00  0.00    -0.206 F 
ATOM     74  C   UNL A   1      44.504  22.429  24.418  1.00  0.00     0.006 A 
ENDBRANCH  53  67
BRANCH  54  75
ATOM     75  C   UNL A   1      40.619  30.103  33.461  1.00  0.00     0.057 A 
ATOM     76  C   UNL A   1      40.396  31.452  33.793  1.00  0.00     0.134 A 
ATOM     77  C   UNL A   1      39.492  29.298  33.280  1.00  0.00     0.134 A 
ATOM     78  F   UNL A   1      41.436  32.279  33.982  1.00  0.00    -0.206 F 
ATOM     79  C   UNL A   1      39.113  32.005  33.815  1.00  0.00     0.040 A 
ATOM     80  C   UNL A   1      38.200  29.839  33.316  1.00  0.00     0.040 A 
ATOM     81  F   UNL A   1      39.622  28.008  32.939  1.00  0.00    -0.206 F 
ATOM     82  C   UNL A   1      38.011  31.203  33.539  1.00  0.00     0.006 A 
ENDBRANCH  54  75
BRANCH  66  83
ATOM     83  C   UNL A   1      45.104  24.418  33.377  1.00  0.00     0.057 A 
ATOM     84  C   UNL A   1      46.362  24.364  33.996  1.00  0.00     0.134 A 
ATOM     85  C   UNL A   1      44.288  23.281  33.595  1.00  0.00     0.134 A 
ATOM     86  F   UNL A   1      47.200  25.409  33.976  1.00  0.00    -0.206 F 
ATOM     87  C   UNL A   1      46.799  23.248  34.725  1.00  0.00     0.040 A 
ATOM     88  C   UNL A   1      44.692  22.188  34.367  1.00  0.00     0.040 A 
ATOM     89  F   UNL A   1      43.049  23.194  33.090  1.00  0.00    -0.206 F 
ATOM     90  C   UNL A   1      45.959  22.161  34.924  1.00  0.00     0.006 A 
ENDBRANCH  66  83
ENDBRANCH  40  41
ENDBRANCH  32  35
ENDBRANCH  30  31
ENDBRANCH  29  30
ENDBRANCH  28  29
ENDBRANCH   1  28
TORSDOF 15
ENDMDL
MODEL 2
REMARK VINA RESULT:     -12.9      3.496      8.764
REMARK SMILES Cc1nn(C(C)C)c(C)c1S(=O)(=O)Nc1cccc(C(=O)NCCCCNC(=O)c2ccc(-c3c4nc(c(-c5c(F)cccc5F)c5ccc([nH]5)c(-c5c(F)cccc5F)c5nc(c(-c6c(F)cccc6F)c6ccc3[nH]6)C=C5)C=C4)cc2)c1C
REMARK SMILES IDX 23 1 22 2 20 3 21 4 19 6 15 7 16 8 84 9 17 10 85 11 18 12
REMARK SMILES IDX 14 13 11 15 12 16 13 17 10 18 1 19 2 20 3 21 4 22 8 23 9 24
REMARK SMILES IDX 5 25 6 26 7 27 24 28 25 29 26 30 27 31 28 32 29 34 30 35
REMARK SMILES IDX 31 36 83 37 32 38 82 39 33 40 34 41 35 42 76 43 36 44 81 45
REMARK SMILES IDX 75 46 77 47 37 48 80 49 74 50 73 51 38 53 64 54 47 55 63 56
REMARK SMILES IDX 48 57 51 58 62 59 78 60 49 61 50 62 61 64 79 65 52 66 39 67
REMARK SMILES IDX 40 68 45 69 41 70 42 71 44 72 46 73 43 74 65 75 66 76 71 77
REMARK SMILES IDX 67 78 68 79 70 80 72 81 69 82 53 83 54 84 59 85 55 86 56 87
REMARK SMILES IDX 58 88 60 89 57 90
REMARK H PARENT 22 5 14 14 27 33 77 52 51 63
REMARK Flexibility Score: inf
ROOT
ATOM      1  C   UNL A   1      35.158  21.326  25.768  1.00  0.00     0.116 C 
ENDROOT
BRANCH   1   2
ATOM      2  N   UNL A   1      34.100  20.340  25.631  1.00  0.00    -0.352 N 
ATOM      3  C   UNL A   1      32.756  20.383  25.361  1.00  0.00     0.251 C 
ATOM      4  O   UNL A   1      32.230  19.272  25.288  1.00  0.00    -0.269 OA
ATOM      5  H   UNL A   1      34.427  19.422  25.763  1.00  0.00     0.163 HD
BRANCH   3   6
ATOM      6  C   UNL A   1      31.958  21.640  25.104  1.00  0.00     0.044 A 
ATOM      7  C   UNL A   1      31.448  23.564  23.680  1.00  0.00     0.053 A 
ATOM      8  C   UNL A   1      30.765  24.182  24.724  1.00  0.00     0.027 A 
ATOM      9  C   UNL A   1      31.920  22.229  23.812  1.00  0.00    -0.014 A 
ATOM     10  C   UNL A   1      30.652  23.534  25.943  1.00  0.00     0.003 A 
ATOM     11  C   UNL A   1      32.438  21.531  22.573  1.00  0.00     0.047 C 
ATOM     12  C   UNL A   1      31.272  22.299  26.134  1.00  0.00     0.014 A 
BRANCH   7  13
ATOM     13  N   UNL A   1      31.798  24.260  22.487  1.00  0.00    -0.279 N 
ATOM     14  H   UNL A   1      31.660  23.783  21.637  1.00  0.00     0.180 HD
BRANCH  13  15
ATOM     15  S   UNL A   1      32.416  25.799  22.394  1.00  0.00     0.265 S 
ATOM     16  O   UNL A   1      31.381  26.690  21.931  1.00  0.00    -0.201 OA
ATOM     17  O   UNL A   1      33.650  25.656  21.636  1.00  0.00    -0.201 OA
BRANCH  15  18
ATOM     18  C   UNL A   1      32.937  26.502  23.879  1.00  0.00     0.131 A 
ATOM     19  C   UNL A   1      34.714  24.841  24.944  1.00  0.00     0.070 C 
ATOM     20  C   UNL A   1      33.827  26.024  24.871  1.00  0.00     0.080 A 
ATOM     21  N   UNL A   1      33.849  26.842  25.931  1.00  0.00    -0.176 NA
ATOM     22  N   UNL A   1      33.080  27.886  25.583  1.00  0.00    -0.266 N 
ATOM     23  C   UNL A   1      32.534  27.755  24.334  1.00  0.00     0.056 A 
ATOM     24  C   UNL A   1      31.712  28.809  23.685  1.00  0.00     0.068 C 
BRANCH  22  25
ATOM     25  C   UNL A   1      32.923  28.992  26.527  1.00  0.00     0.101 C 
ATOM     26  C   UNL A   1      31.908  28.641  27.614  1.00  0.00     0.033 C 
ATOM     27  C   UNL A   1      34.263  29.414  27.132  1.00  0.00     0.033 C 
ENDBRANCH  22  25
ENDBRANCH  15  18
ENDBRANCH  13  15
ENDBRANCH   7  13
ENDBRANCH   3   6
ENDBRANCH   1   2
BRANCH   1  28
ATOM     28  C   UNL A   1      35.996  21.454  24.487  1.00  0.00     0.023 C 
BRANCH  28  29
ATOM     29  C   UNL A   1      37.399  22.034  24.679  1.00  0.00     0.023 C 
BRANCH  29  30
ATOM     30  C   UNL A   1      37.779  22.259  26.131  1.00  0.00     0.116 C 
BRANCH  30  31
ATOM     31  N   UNL A   1      39.198  22.109  26.421  1.00  0.00    -0.352 N 
ATOM     32  C   UNL A   1      40.164  23.066  26.672  1.00  0.00     0.251 C 
ATOM     33  H   UNL A   1      39.521  21.179  26.441  1.00  0.00     0.163 HD
ATOM     34  O   UNL A   1      41.335  22.713  26.796  1.00  0.00    -0.269 OA
BRANCH  32  35
ATOM     35  C   UNL A   1      39.795  24.482  26.945  1.00  0.00     0.039 A 
ATOM     36  C   UNL A   1      40.344  25.478  26.122  1.00  0.00     0.014 A 
ATOM     37  C   UNL A   1      39.113  24.853  28.097  1.00  0.00     0.014 A 
ATOM     38  C   UNL A   1      40.451  26.784  26.594  1.00  0.00     0.010 A 
ATOM     39  C   UNL A   1      39.334  26.104  28.626  1.00  0.00     0.010 A 
ATOM     40  C   UNL A   1      40.064  27.050  27.901  1.00  0.00    -0.014 A 
BRANCH  40  41
ATOM     41  C   UNL A   1      40.451  28.230  28.658  1.00  0.00     0.031 A 
ATOM     42  C   UNL A   1      39.481  29.327  28.858  1.00  0.00     0.074 A 
ATOM     43  C   UNL A   1      41.613  28.195  29.349  1.00  0.00     0.049 A 
ATOM     44  N   UNL A   1      39.768  30.453  29.412  1.00  0.00    -0.248 NA
ATOM     45  C   UNL A   1      38.101  29.266  28.381  1.00  0.00     0.031 C 
ATOM     46  C   UNL A   1      42.000  29.022  30.489  1.00  0.00     0.029 A 
ATOM     47  N   UNL A   1      42.789  27.509  29.006  1.00  0.00    -0.354 N 
ATOM     48  C   UNL A   1      38.592  31.129  29.631  1.00  0.00     0.074 A 
ATOM     49  C   UNL A   1      37.609  30.412  28.862  1.00  0.00     0.031 C 
ATOM     50  C   UNL A   1      43.339  29.031  30.586  1.00  0.00     0.029 A 
ATOM     51  C   UNL A   1      43.850  28.352  29.410  1.00  0.00     0.049 A 
ATOM     52  H   UNL A   1      42.860  26.626  28.576  1.00  0.00     0.167 HD
ATOM     53  C   UNL A   1      38.592  32.140  30.544  1.00  0.00     0.037 A 
ATOM     54  C   UNL A   1      44.685  28.925  28.494  1.00  0.00     0.037 A 
ATOM     55  C   UNL A   1      39.967  32.528  30.866  1.00  0.00     0.049 A 
ATOM     56  C   UNL A   1      44.680  30.437  28.522  1.00  0.00     0.074 A 
ATOM     57  C   UNL A   1      40.796  32.304  31.952  1.00  0.00     0.029 A 
ATOM     58  N   UNL A   1      40.777  33.025  29.847  1.00  0.00    -0.354 N 
ATOM     59  N   UNL A   1      43.717  31.152  29.036  1.00  0.00    -0.248 NA
ATOM     60  C   UNL A   1      45.752  31.261  27.970  1.00  0.00     0.031 C 
ATOM     61  C   UNL A   1      42.130  32.577  31.541  1.00  0.00     0.029 A 
ATOM     62  C   UNL A   1      42.102  33.010  30.226  1.00  0.00     0.049 A 
ATOM     63  H   UNL A   1      40.447  33.344  28.976  1.00  0.00     0.167 HD
ATOM     64  C   UNL A   1      44.002  32.485  28.884  1.00  0.00     0.074 A 
ATOM     65  C   UNL A   1      45.295  32.500  28.227  1.00  0.00     0.031 C 
ATOM     66  C   UNL A   1      43.140  33.459  29.305  1.00  0.00     0.037 A 
BRANCH  53  67
ATOM     67  C   UNL A   1      37.382  32.663  31.301  1.00  0.00     0.057 A 
ATOM     68  C   UNL A   1      37.052  32.120  32.562  1.00  0.00     0.134 A 
ATOM     69  C   UNL A   1      36.433  33.585  30.817  1.00  0.00     0.134 A 
ATOM     70  F   UNL A   1      37.846  31.229  33.172  1.00  0.00    -0.206 F 
ATOM     71  C   UNL A   1      35.876  32.444  33.257  1.00  0.00     0.040 A 
ATOM     72  C   UNL A   1      35.272  33.945  31.519  1.00  0.00     0.040 A 
ATOM     73  F   UNL A   1      36.532  34.168  29.621  1.00  0.00    -0.206 F 
ATOM     74  C   UNL A   1      34.979  33.364  32.738  1.00  0.00     0.006 A 
ENDBRANCH  53  67
BRANCH  54  75
ATOM     75  C   UNL A   1      44.889  28.083  27.287  1.00  0.00     0.057 A 
ATOM     76  C   UNL A   1      45.765  26.986  27.383  1.00  0.00     0.134 A 
ATOM     77  C   UNL A   1      43.970  28.072  26.235  1.00  0.00     0.134 A 
ATOM     78  F   UNL A   1      46.674  26.936  28.371  1.00  0.00    -0.206 F 
ATOM     79  C   UNL A   1      45.645  25.870  26.552  1.00  0.00     0.040 A 
ATOM     80  C   UNL A   1      43.852  26.964  25.386  1.00  0.00     0.040 A 
ATOM     81  F   UNL A   1      43.086  29.069  26.090  1.00  0.00    -0.206 F 
ATOM     82  C   UNL A   1      44.659  25.842  25.571  1.00  0.00     0.006 A 
ENDBRANCH  54  75
BRANCH  66  83
ATOM     83  C   UNL A   1      43.216  34.929  28.954  1.00  0.00     0.057 A 
ATOM     84  C   UNL A   1      42.938  35.459  27.686  1.00  0.00     0.134 A 
ATOM     85  C   UNL A   1      43.425  35.895  29.967  1.00  0.00     0.134 A 
ATOM     86  F   UNL A   1      42.606  34.674  26.652  1.00  0.00    -0.206 F 
ATOM     87  C   UNL A   1      42.925  36.839  27.429  1.00  0.00     0.040 A 
ATOM     88  C   UNL A   1      43.358  37.272  29.735  1.00  0.00     0.040 A 
ATOM     89  F   UNL A   1      43.675  35.544  31.237  1.00  0.00    -0.206 F 
ATOM     90  C   UNL A   1      43.122  37.750  28.457  1.00  0.00     0.006 A 
ENDBRANCH  66  83
ENDBRANCH  40  41
ENDBRANCH  32  35
ENDBRANCH  30  31
ENDBRANCH  29  30
ENDBRANCH  28  29
ENDBRANCH   1  28
TORSDOF 15
ENDMDL
MODEL 3
REMARK VINA RESULT:     -12.6      1.523      2.224
REMARK SMILES Cc1nn(C(C)C)c(C)c1S(=O)(=O)Nc1cccc(C(=O)NCCCCNC(=O)c2ccc(-c3c4nc(c(-c5c(F)cccc5F)c5ccc([nH]5)c(-c5c(F)cccc5F)c5nc(c(-c6c(F)cccc6F)c6ccc3[nH]6)C=C5)C=C4)cc2)c1C
REMARK SMILES IDX 23 1 22 2 20 3 21 4 19 6 15 7 16 8 84 9 17 10 85 11 18 12
REMARK SMILES IDX 14 13 11 15 12 16 13 17 10 18 1 19 2 20 3 21 4 22 8 23 9 24
REMARK SMILES IDX 5 25 6 26 7 27 24 28 25 29 26 30 27 31 28 32 29 34 30 35
REMARK SMILES IDX 31 36 83 37 32 38 82 39 33 40 34 41 35 42 76 43 36 44 81 45
REMARK SMILES IDX 75 46 77 47 37 48 80 49 74 50 73 51 38 53 64 54 47 55 63 56
REMARK SMILES IDX 48 57 51 58 62 59 78 60 49 61 50 62 61 64 79 65 52 66 39 67
REMARK SMILES IDX 40 68 45 69 41 70 42 71 44 72 46 73 43 74 65 75 66 76 71 77
REMARK SMILES IDX 67 78 68 79 70 80 72 81 69 82 53 83 54 84 59 85 55 86 56 87
REMARK SMILES IDX 58 88 60 89 57 90
REMARK H PARENT 22 5 14 14 27 33 77 52 51 63
REMARK Flexibility Score: inf
ROOT
ATOM      1  C   UNL A   1      31.719  29.268  24.173  1.00  0.00     0.116 C 
ENDROOT
BRANCH   1   2
ATOM      2  N   UNL A   1      30.539  28.453  23.949  1.00  0.00    -0.352 N 
ATOM      3  C   UNL A   1      30.303  27.128  23.684  1.00  0.00     0.251 C 
ATOM      4  O   UNL A   1      29.108  26.842  23.610  1.00  0.00    -0.269 OA
ATOM      5  H   UNL A   1      29.708  28.978  23.999  1.00  0.00     0.163 HD
BRANCH   3   6
ATOM      6  C   UNL A   1      31.368  26.064  23.552  1.00  0.00     0.044 A 
ATOM      7  C   UNL A   1      33.164  24.737  24.554  1.00  0.00     0.053 A 
ATOM      8  C   UNL A   1      33.606  24.346  23.293  1.00  0.00     0.027 A 
ATOM      9  C   UNL A   1      31.957  25.474  24.703  1.00  0.00    -0.014 A 
ATOM     10  C   UNL A   1      32.930  24.783  22.166  1.00  0.00     0.003 A 
ATOM     11  C   UNL A   1      31.405  25.662  26.099  1.00  0.00     0.047 C 
ATOM     12  C   UNL A   1      31.850  25.657  22.300  1.00  0.00     0.014 A 
BRANCH   7  13
ATOM     13  N   UNL A   1      33.938  24.517  25.730  1.00  0.00    -0.279 N 
ATOM     14  H   UNL A   1      34.223  25.315  26.230  1.00  0.00     0.180 HD
BRANCH  13  15
ATOM     15  S   UNL A   1      34.405  23.043  26.337  1.00  0.00     0.265 S 
ATOM     16  O   UNL A   1      34.082  22.993  27.741  1.00  0.00    -0.201 OA
ATOM     17  O   UNL A   1      35.784  22.883  25.898  1.00  0.00    -0.201 OA
BRANCH  15  18
ATOM     18  C   UNL A   1      33.613  21.662  25.677  1.00  0.00     0.131 A 
ATOM     19  C   UNL A   1      31.006  22.162  25.725  1.00  0.00     0.070 C 
ATOM     20  C   UNL A   1      32.238  21.368  25.515  1.00  0.00     0.080 A 
ATOM     21  N   UNL A   1      32.062  20.117  25.070  1.00  0.00    -0.176 NA
ATOM     22  N   UNL A   1      33.300  19.653  24.838  1.00  0.00    -0.266 N 
ATOM     23  C   UNL A   1      34.279  20.559  25.148  1.00  0.00     0.056 A 
ATOM     24  C   UNL A   1      35.725  20.317  24.905  1.00  0.00     0.068 C 
BRANCH  22  25
ATOM     25  C   UNL A   1      33.457  18.301  24.303  1.00  0.00     0.101 C 
ATOM     26  C   UNL A   1      33.114  17.252  25.360  1.00  0.00     0.033 C 
ATOM     27  C   UNL A   1      32.633  18.097  23.030  1.00  0.00     0.033 C 
ENDBRANCH  22  25
ENDBRANCH  15  18
ENDBRANCH  13  15
ENDBRANCH   7  13
ENDBRANCH   3   6
ENDBRANCH   1   2
BRANCH   1  28
ATOM     28  C   UNL A   1      31.858  29.690  25.644  1.00  0.00     0.023 C 
BRANCH  28  29
ATOM     29  C   UNL A   1      33.295  29.805  26.157  1.00  0.00     0.023 C 
BRANCH  29  30
ATOM     30  C   UNL A   1      33.402  30.343  27.572  1.00  0.00     0.116 C 
BRANCH  30  31
ATOM     31  N   UNL A   1      34.269  31.504  27.719  1.00  0.00    -0.352 N 
ATOM     32  C   UNL A   1      35.584  31.589  28.138  1.00  0.00     0.251 C 
ATOM     33  H   UNL A   1      33.853  32.364  27.483  1.00  0.00     0.163 HD
ATOM     34  O   UNL A   1      36.093  32.699  28.281  1.00  0.00    -0.269 OA
BRANCH  32  35
ATOM     35  C   UNL A   1      36.432  30.373  28.270  1.00  0.00     0.039 A 
ATOM     36  C   UNL A   1      36.469  29.725  29.514  1.00  0.00     0.014 A 
ATOM     37  C   UNL A   1      37.335  29.999  27.282  1.00  0.00     0.014 A 
ATOM     38  C   UNL A   1      37.562  28.930  29.848  1.00  0.00     0.010 A 
ATOM     39  C   UNL A   1      38.481  29.329  27.650  1.00  0.00     0.010 A 
ATOM     40  C   UNL A   1      38.623  28.853  28.955  1.00  0.00    -0.014 A 
BRANCH  40  41
ATOM     41  C   UNL A   1      39.963  28.397  29.294  1.00  0.00     0.031 A 
ATOM     42  C   UNL A   1      40.427  27.073  28.832  1.00  0.00     0.074 A 
ATOM     43  C   UNL A   1      40.825  29.289  29.831  1.00  0.00     0.049 A 
ATOM     44  N   UNL A   1      41.547  26.540  29.177  1.00  0.00    -0.248 NA
ATOM     45  C   UNL A   1      39.623  26.199  27.980  1.00  0.00     0.031 C 
ATOM     46  C   UNL A   1      42.284  29.223  29.845  1.00  0.00     0.029 A 
ATOM     47  N   UNL A   1      40.521  30.369  30.675  1.00  0.00    -0.354 N 
ATOM     48  C   UNL A   1      41.747  25.429  28.393  1.00  0.00     0.074 A 
ATOM     49  C   UNL A   1      40.475  25.191  27.764  1.00  0.00     0.031 C 
ATOM     50  C   UNL A   1      42.746  29.996  30.841  1.00  0.00     0.029 A 
ATOM     51  C   UNL A   1      41.590  30.440  31.597  1.00  0.00     0.049 A 
ATOM     52  H   UNL A   1      39.730  30.953  30.632  1.00  0.00     0.167 HD
ATOM     53  C   UNL A   1      43.012  24.935  28.288  1.00  0.00     0.037 A 
ATOM     54  C   UNL A   1      41.397  30.185  32.925  1.00  0.00     0.037 A 
ATOM     55  C   UNL A   1      43.865  25.507  29.334  1.00  0.00     0.049 A 
ATOM     56  C   UNL A   1      42.217  29.029  33.452  1.00  0.00     0.074 A 
ATOM     57  C   UNL A   1      44.849  26.480  29.340  1.00  0.00     0.029 A 
ATOM     58  N   UNL A   1      43.541  25.263  30.667  1.00  0.00    -0.354 N 
ATOM     59  N   UNL A   1      42.733  28.099  32.697  1.00  0.00    -0.248 NA
ATOM     60  C   UNL A   1      42.513  28.825  34.867  1.00  0.00     0.031 C 
ATOM     61  C   UNL A   1      45.043  26.890  30.688  1.00  0.00     0.029 A 
ATOM     62  C   UNL A   1      44.211  26.134  31.499  1.00  0.00     0.049 A 
ATOM     63  H   UNL A   1      42.919  24.564  30.972  1.00  0.00     0.167 HD
ATOM     64  C   UNL A   1      43.397  27.187  33.477  1.00  0.00     0.074 A 
ATOM     65  C   UNL A   1      43.245  27.697  34.827  1.00  0.00     0.031 C 
ATOM     66  C   UNL A   1      44.005  26.087  32.942  1.00  0.00     0.037 A 
BRANCH  53  67
ATOM     67  C   UNL A   1      43.552  24.090  27.147  1.00  0.00     0.057 A 
ATOM     68  C   UNL A   1      44.209  24.710  26.061  1.00  0.00     0.134 A 
ATOM     69  C   UNL A   1      43.360  22.704  26.974  1.00  0.00     0.134 A 
ATOM     70  F   UNL A   1      44.476  26.023  26.059  1.00  0.00    -0.206 F 
ATOM     71  C   UNL A   1      44.607  24.020  24.905  1.00  0.00     0.040 A 
ATOM     72  C   UNL A   1      43.786  21.996  25.839  1.00  0.00     0.040 A 
ATOM     73  F   UNL A   1      42.711  21.946  27.860  1.00  0.00    -0.206 F 
ATOM     74  C   UNL A   1      44.399  22.655  24.790  1.00  0.00     0.006 A 
ENDBRANCH  53  67
BRANCH  54  75
ATOM     75  C   UNL A   1      40.043  30.573  33.400  1.00  0.00     0.057 A 
ATOM     76  C   UNL A   1      39.792  31.934  33.649  1.00  0.00     0.134 A 
ATOM     77  C   UNL A   1      38.933  29.746  33.208  1.00  0.00     0.134 A 
ATOM     78  F   UNL A   1      40.815  32.782  33.843  1.00  0.00    -0.206 F 
ATOM     79  C   UNL A   1      38.505  32.473  33.582  1.00  0.00     0.040 A 
ATOM     80  C   UNL A   1      37.636  30.273  33.155  1.00  0.00     0.040 A 
ATOM     81  F   UNL A   1      39.090  28.442  32.942  1.00  0.00    -0.206 F 
ATOM     82  C   UNL A   1      37.424  31.645  33.296  1.00  0.00     0.006 A 
ENDBRANCH  54  75
BRANCH  66  83
ATOM     83  C   UNL A   1      44.523  24.891  33.711  1.00  0.00     0.057 A 
ATOM     84  C   UNL A   1      43.711  23.963  34.380  1.00  0.00     0.134 A 
ATOM     85  C   UNL A   1      45.895  24.547  33.659  1.00  0.00     0.134 A 
ATOM     86  F   UNL A   1      42.378  24.092  34.415  1.00  0.00    -0.206 F 
ATOM     87  C   UNL A   1      44.227  22.815  34.999  1.00  0.00     0.040 A 
ATOM     88  C   UNL A   1      46.412  23.377  34.222  1.00  0.00     0.040 A 
ATOM     89  F   UNL A   1      46.793  25.321  33.031  1.00  0.00    -0.206 F 
ATOM     90  C   UNL A   1      45.578  22.511  34.910  1.00  0.00     0.006 A 
ENDBRANCH  66  83
ENDBRANCH  40  41
ENDBRANCH  32  35
ENDBRANCH  30  31
ENDBRANCH  29  30
ENDBRANCH  28  29
ENDBRANCH   1  28
TORSDOF 15
ENDMDL
