MODEL 1
REMARK VINA RESULT:     -11.2      0.000      0.000
REMARK SMILES C[C@H]1C[NH+](CC[C@@H]2CCC[C@]2([NH3+])C(=O)NCCCCNC(=O)c2ccc(-c3c4nc(c(-c5c(F)cccc5F)c5ccc([nH]5)c(-c5c(F)cccc5F)c5nc(c(-c6c(F)cccc6F)c6ccc3[nH]6)C=C5)C=C4)cc2)C[C@H](C)O1
REMARK SMILES IDX 17 1 16 2 15 3 13 4 14 5 11 7 7 8 8 9 9 10 10 11 6 12 5 13
REMARK SMILES IDX 4 14 1 15 2 16 3 17 80 18 78 19 77 20 79 22 12 23 18 27
REMARK SMILES IDX 19 28 20 29 21 30 22 32 23 33 24 34 76 35 25 36 75 37 26 38
REMARK SMILES IDX 27 39 28 40 69 41 29 42 74 43 68 44 70 45 30 46 73 47 67 48
REMARK SMILES IDX 66 49 31 51 57 52 40 53 56 54 41 55 44 56 55 57 71 58 42 59
REMARK SMILES IDX 43 60 54 62 72 63 45 64 32 65 33 66 38 67 34 68 35 69 37 70
REMARK SMILES IDX 39 71 36 72 58 73 59 74 64 75 60 76 61 77 63 78 65 79 62 80
REMARK SMILES IDX 46 81 47 82 52 83 48 84 49 85 51 86 53 87 50 88
REMARK H PARENT 15 6 4 21 12 24 12 25 12 26 20 31 70 50 44 61
REMARK Flexibility Score: inf
ROOT
ATOM      1  C   UNL A   1      37.213  22.287  24.359  1.00  0.00     0.023 C 
ENDROOT
BRANCH   1   2
ATOM      2  C   UNL A   1      36.998  23.439  25.364  1.00  0.00     0.116 C 
BRANCH   2   3
ATOM      3  N   UNL A   1      35.681  24.074  25.195  1.00  0.00    -0.351 N 
ATOM      4  C   UNL A   1      34.542  23.564  25.774  1.00  0.00     0.281 C 
ATOM      5  O   UNL A   1      34.594  23.033  26.889  1.00  0.00    -0.268 OA
ATOM      6  H   UNL A   1      35.613  24.890  24.650  1.00  0.00     0.163 HD
BRANCH   4   7
ATOM      7  C   UNL A   1      33.153  23.647  24.993  1.00  0.00     0.177 C 
ATOM      8  C   UNL A   1      32.488  22.361  24.450  1.00  0.00     0.066 C 
ATOM      9  C   UNL A   1      33.294  22.077  23.174  1.00  0.00     0.011 C 
ATOM     10  C   UNL A   1      33.592  23.470  22.596  1.00  0.00     0.008 C 
ATOM     11  C   UNL A   1      33.307  24.476  23.711  1.00  0.00     0.079 C 
BRANCH   8  12
ATOM     12  C   UNL A   1      32.095  21.143  25.324  1.00  0.00     0.072 C 
BRANCH  12  13
ATOM     13  C   UNL A   1      33.119  20.091  25.753  1.00  0.00     0.262 C 
BRANCH  13  14
ATOM     14  N   UNL A   1      33.253  18.749  25.158  1.00  0.00    -0.331 N 
ATOM     15  C   UNL A   1      32.143  15.193  26.035  1.00  0.00     0.045 C 
ATOM     16  C   UNL A   1      32.682  16.349  25.209  1.00  0.00     0.170 C 
ATOM     17  C   UNL A   1      32.776  17.656  26.030  1.00  0.00     0.294 C 
ATOM     18  O   UNL A   1      33.977  15.951  24.729  1.00  0.00    -0.364 OA
ATOM     19  C   UNL A   1      34.594  16.965  23.928  1.00  0.00     0.170 C 
ATOM     20  C   UNL A   1      34.556  18.349  24.623  1.00  0.00     0.294 C 
ATOM     21  H   UNL A   1      32.643  18.882  24.352  1.00  0.00     0.348 HD
ATOM     22  C   UNL A   1      34.024  16.959  22.508  1.00  0.00     0.045 C 
ENDBRANCH  13  14
ENDBRANCH  12  13
ENDBRANCH   8  12
BRANCH   7  23
ATOM     23  N   UNL A   1      32.177  24.383  25.840  1.00  0.00    -0.345 N 
ATOM     24  H   UNL A   1      32.313  25.386  25.721  1.00  0.00     0.345 HD
ATOM     25  H   UNL A   1      32.322  24.134  26.818  1.00  0.00     0.345 HD
ATOM     26  H   UNL A   1      31.229  24.132  25.562  1.00  0.00     0.345 HD
ENDBRANCH   7  23
ENDBRANCH   4   7
ENDBRANCH   2   3
ENDBRANCH   1   2
BRANCH   1  27
ATOM     27  C   UNL A   1      37.623  20.945  24.955  1.00  0.00     0.023 C 
BRANCH  27  28
ATOM     28  C   UNL A   1      38.834  20.981  25.882  1.00  0.00     0.116 C 
BRANCH  28  29
ATOM     29  N   UNL A   1      39.748  19.848  25.738  1.00  0.00    -0.352 N 
ATOM     30  C   UNL A   1      41.097  19.775  26.035  1.00  0.00     0.251 C 
ATOM     31  H   UNL A   1      39.349  19.024  25.380  1.00  0.00     0.163 HD
ATOM     32  O   UNL A   1      41.732  18.745  25.818  1.00  0.00    -0.269 OA
BRANCH  30  33
ATOM     33  C   UNL A   1      41.793  20.973  26.562  1.00  0.00     0.039 A 
ATOM     34  C   UNL A   1      42.314  21.914  25.669  1.00  0.00     0.014 A 
ATOM     35  C   UNL A   1      41.833  21.216  27.935  1.00  0.00     0.014 A 
ATOM     36  C   UNL A   1      42.743  23.157  26.147  1.00  0.00     0.010 A 
ATOM     37  C   UNL A   1      42.167  22.486  28.396  1.00  0.00     0.010 A 
ATOM     38  C   UNL A   1      42.603  23.481  27.507  1.00  0.00    -0.014 A 
BRANCH  38  39
ATOM     39  C   UNL A   1      42.863  24.854  28.020  1.00  0.00     0.031 A 
ATOM     40  C   UNL A   1      44.249  25.251  28.453  1.00  0.00     0.074 A 
ATOM     41  C   UNL A   1      41.838  25.712  28.200  1.00  0.00     0.049 A 
ATOM     42  N   UNL A   1      44.652  26.354  29.032  1.00  0.00    -0.248 NA
ATOM     43  C   UNL A   1      45.316  24.260  28.241  1.00  0.00     0.031 C 
ATOM     44  C   UNL A   1      40.433  25.437  27.891  1.00  0.00     0.029 A 
ATOM     45  N   UNL A   1      41.817  26.990  28.704  1.00  0.00    -0.354 N 
ATOM     46  C   UNL A   1      46.008  26.176  29.281  1.00  0.00     0.074 A 
ATOM     47  C   UNL A   1      46.346  24.841  28.837  1.00  0.00     0.031 C 
ATOM     48  C   UNL A   1      39.695  26.520  28.182  1.00  0.00     0.029 A 
ATOM     49  C   UNL A   1      40.563  27.554  28.734  1.00  0.00     0.049 A 
ATOM     50  H   UNL A   1      42.625  27.459  29.016  1.00  0.00     0.167 HD
ATOM     51  C   UNL A   1      46.897  27.051  29.805  1.00  0.00     0.037 A 
ATOM     52  C   UNL A   1      40.158  28.766  29.160  1.00  0.00     0.037 A 
ATOM     53  C   UNL A   1      46.575  28.396  30.203  1.00  0.00     0.049 A 
ATOM     54  C   UNL A   1      41.170  29.733  29.711  1.00  0.00     0.074 A 
ATOM     55  C   UNL A   1      47.424  29.385  30.669  1.00  0.00     0.029 A 
ATOM     56  N   UNL A   1      45.301  28.943  30.175  1.00  0.00    -0.354 N 
ATOM     57  N   UNL A   1      42.462  29.576  29.868  1.00  0.00    -0.248 NA
ATOM     58  C   UNL A   1      40.668  31.048  30.137  1.00  0.00     0.031 C 
ATOM     59  C   UNL A   1      46.658  30.520  30.954  1.00  0.00     0.029 A 
ATOM     60  C   UNL A   1      45.339  30.250  30.628  1.00  0.00     0.049 A 
ATOM     61  H   UNL A   1      44.490  28.471  29.877  1.00  0.00     0.167 HD
ATOM     62  C   UNL A   1      42.931  30.778  30.383  1.00  0.00     0.074 A 
ATOM     63  C   UNL A   1      41.788  31.659  30.500  1.00  0.00     0.031 C 
ATOM     64  C   UNL A   1      44.196  31.121  30.726  1.00  0.00     0.037 A 
BRANCH  51  65
ATOM     65  C   UNL A   1      48.313  26.582  29.964  1.00  0.00     0.057 A 
ATOM     66  C   UNL A   1      48.729  25.861  31.091  1.00  0.00     0.134 A 
ATOM     67  C   UNL A   1      49.268  26.836  28.972  1.00  0.00     0.134 A 
ATOM     68  F   UNL A   1      47.866  25.594  32.084  1.00  0.00    -0.206 F 
ATOM     69  C   UNL A   1      50.051  25.437  31.241  1.00  0.00     0.040 A 
ATOM     70  C   UNL A   1      50.586  26.394  29.098  1.00  0.00     0.040 A 
ATOM     71  F   UNL A   1      48.936  27.515  27.863  1.00  0.00    -0.206 F 
ATOM     72  C   UNL A   1      50.982  25.698  30.238  1.00  0.00     0.006 A 
ENDBRANCH  51  65
BRANCH  52  73
ATOM     73  C   UNL A   1      38.729  29.158  29.051  1.00  0.00     0.057 A 
ATOM     74  C   UNL A   1      37.879  29.083  30.161  1.00  0.00     0.134 A 
ATOM     75  C   UNL A   1      38.174  29.594  27.842  1.00  0.00     0.134 A 
ATOM     76  F   UNL A   1      38.347  28.651  31.341  1.00  0.00    -0.206 F 
ATOM     77  C   UNL A   1      36.524  29.407  30.070  1.00  0.00     0.040 A 
ATOM     78  C   UNL A   1      36.826  29.945  27.743  1.00  0.00     0.040 A 
ATOM     79  F   UNL A   1      38.937  29.694  26.744  1.00  0.00    -0.206 F 
ATOM     80  C   UNL A   1      35.996  29.844  28.857  1.00  0.00     0.006 A 
ENDBRANCH  52  73
BRANCH  64  81
ATOM     81  C   UNL A   1      44.420  32.517  31.223  1.00  0.00     0.057 A 
ATOM     82  C   UNL A   1      44.681  33.580  30.349  1.00  0.00     0.134 A 
ATOM     83  C   UNL A   1      44.329  32.809  32.590  1.00  0.00     0.134 A 
ATOM     84  F   UNL A   1      44.794  33.363  29.030  1.00  0.00    -0.206 F 
ATOM     85  C   UNL A   1      44.861  34.882  30.820  1.00  0.00     0.040 A 
ATOM     86  C   UNL A   1      44.482  34.110  33.070  1.00  0.00     0.040 A 
ATOM     87  F   UNL A   1      44.075  31.836  33.478  1.00  0.00    -0.206 F 
ATOM     88  C   UNL A   1      44.753  35.151  32.183  1.00  0.00     0.006 A 
ENDBRANCH  64  81
ENDBRANCH  38  39
ENDBRANCH  30  33
ENDBRANCH  28  29
ENDBRANCH  27  28
ENDBRANCH   1  27
TORSDOF 15
ENDMDL
MODEL 2
REMARK VINA RESULT:     -11.1      2.316      7.314
REMARK SMILES C[C@H]1C[NH+](CC[C@@H]2CCC[C@]2([NH3+])C(=O)NCCCCNC(=O)c2ccc(-c3c4nc(c(-c5c(F)cccc5F)c5ccc([nH]5)c(-c5c(F)cccc5F)c5nc(c(-c6c(F)cccc6F)c6ccc3[nH]6)C=C5)C=C4)cc2)C[C@H](C)O1
REMARK SMILES IDX 17 1 16 2 15 3 13 4 14 5 11 7 7 8 8 9 9 10 10 11 6 12 5 13
REMARK SMILES IDX 4 14 1 15 2 16 3 17 80 18 78 19 77 20 79 22 12 23 18 27
REMARK SMILES IDX 19 28 20 29 21 30 22 32 23 33 24 34 76 35 25 36 75 37 26 38
REMARK SMILES IDX 27 39 28 40 69 41 29 42 74 43 68 44 70 45 30 46 73 47 67 48
REMARK SMILES IDX 66 49 31 51 57 52 40 53 56 54 41 55 44 56 55 57 71 58 42 59
REMARK SMILES IDX 43 60 54 62 72 63 45 64 32 65 33 66 38 67 34 68 35 69 37 70
REMARK SMILES IDX 39 71 36 72 58 73 59 74 64 75 60 76 61 77 63 78 65 79 62 80
REMARK SMILES IDX 46 81 47 82 52 83 48 84 49 85 51 86 53 87 50 88
REMARK H PARENT 15 6 4 21 12 24 12 25 12 26 20 31 70 50 44 61
REMARK Flexibility Score: inf
ROOT
ATOM      1  C   UNL A   1      32.861  29.647  24.918  1.00  0.00     0.023 C 
ENDROOT
BRANCH   1   2
ATOM      2  C   UNL A   1      31.410  29.355  25.359  1.00  0.00     0.116 C 
BRANCH   2   3
ATOM      3  N   UNL A   1      30.920  28.078  24.818  1.00  0.00    -0.351 N 
ATOM      4  C   UNL A   1      31.069  26.890  25.496  1.00  0.00     0.281 C 
ATOM      5  O   UNL A   1      30.991  26.863  26.729  1.00  0.00    -0.268 OA
ATOM      6  H   UNL A   1      30.470  28.073  23.943  1.00  0.00     0.163 HD
BRANCH   4   7
ATOM      7  C   UNL A   1      31.357  25.547  24.683  1.00  0.00     0.177 C 
ATOM      8  C   UNL A   1      32.369  24.512  25.225  1.00  0.00     0.066 C 
ATOM      9  C   UNL A   1      33.722  25.136  24.854  1.00  0.00     0.011 C 
ATOM     10  C   UNL A   1      33.473  25.795  23.488  1.00  0.00     0.008 C 
ATOM     11  C   UNL A   1      31.958  25.870  23.308  1.00  0.00     0.079 C 
BRANCH   8  12
ATOM     12  C   UNL A   1      32.262  23.827  26.612  1.00  0.00     0.072 C 
BRANCH  12  13
ATOM     13  C   UNL A   1      33.199  22.690  27.027  1.00  0.00     0.262 C 
BRANCH  13  14
ATOM     14  N   UNL A   1      34.072  21.937  26.110  1.00  0.00    -0.331 N 
ATOM     15  C   UNL A   1      34.037  18.497  24.432  1.00  0.00     0.045 C 
ATOM     16  C   UNL A   1      34.451  19.929  24.726  1.00  0.00     0.170 C 
ATOM     17  C   UNL A   1      33.663  20.531  25.913  1.00  0.00     0.294 C 
ATOM     18  O   UNL A   1      35.861  19.908  25.003  1.00  0.00    -0.364 OA
ATOM     19  C   UNL A   1      36.376  21.212  25.295  1.00  0.00     0.170 C 
ATOM     20  C   UNL A   1      35.516  21.945  26.355  1.00  0.00     0.294 C 
ATOM     21  H   UNL A   1      33.923  22.494  25.269  1.00  0.00     0.348 HD
ATOM     22  C   UNL A   1      36.602  22.009  24.009  1.00  0.00     0.045 C 
ENDBRANCH  13  14
ENDBRANCH  12  13
ENDBRANCH   8  12
BRANCH   7  23
ATOM     23  N   UNL A   1      30.061  24.870  24.413  1.00  0.00    -0.345 N 
ATOM     24  H   UNL A   1      29.444  25.506  23.909  1.00  0.00     0.345 HD
ATOM     25  H   UNL A   1      29.627  24.605  25.297  1.00  0.00     0.345 HD
ATOM     26  H   UNL A   1      30.224  24.036  23.849  1.00  0.00     0.345 HD
ENDBRANCH   7  23
ENDBRANCH   4   7
ENDBRANCH   2   3
ENDBRANCH   1   2
BRANCH   1  27
ATOM     27  C   UNL A   1      33.959  29.136  25.845  1.00  0.00     0.023 C 
BRANCH  27  28
ATOM     28  C   UNL A   1      33.621  29.149  27.333  1.00  0.00     0.116 C 
BRANCH  28  29
ATOM     29  N   UNL A   1      33.804  30.443  27.990  1.00  0.00    -0.352 N 
ATOM     30  C   UNL A   1      34.938  30.963  28.586  1.00  0.00     0.251 C 
ATOM     31  H   UNL A   1      33.011  31.024  28.010  1.00  0.00     0.163 HD
ATOM     32  O   UNL A   1      34.912  32.066  29.130  1.00  0.00    -0.269 OA
BRANCH  30  33
ATOM     33  C   UNL A   1      36.180  30.154  28.623  1.00  0.00     0.039 A 
ATOM     34  C   UNL A   1      37.026  30.145  27.509  1.00  0.00     0.014 A 
ATOM     35  C   UNL A   1      36.558  29.497  29.794  1.00  0.00     0.014 A 
ATOM     36  C   UNL A   1      38.310  29.597  27.622  1.00  0.00     0.010 A 
ATOM     37  C   UNL A   1      37.865  29.043  29.932  1.00  0.00     0.010 A 
ATOM     38  C   UNL A   1      38.766  29.109  28.858  1.00  0.00    -0.014 A 
BRANCH  38  39
ATOM     39  C   UNL A   1      40.183  28.701  29.067  1.00  0.00     0.031 A 
ATOM     40  C   UNL A   1      41.172  29.671  29.654  1.00  0.00     0.074 A 
ATOM     41  C   UNL A   1      40.610  27.498  28.630  1.00  0.00     0.049 A 
ATOM     42  N   UNL A   1      42.467  29.546  29.804  1.00  0.00    -0.248 NA
ATOM     43  C   UNL A   1      40.639  30.971  30.094  1.00  0.00     0.031 C 
ATOM     44  C   UNL A   1      39.777  26.484  27.978  1.00  0.00     0.029 A 
ATOM     45  N   UNL A   1      41.860  26.928  28.654  1.00  0.00    -0.354 N 
ATOM     46  C   UNL A   1      42.904  30.758  30.326  1.00  0.00     0.074 A 
ATOM     47  C   UNL A   1      41.746  31.621  30.417  1.00  0.00     0.031 C 
ATOM     48  C   UNL A   1      40.530  25.409  27.693  1.00  0.00     0.029 A 
ATOM     49  C   UNL A   1      41.905  25.667  28.106  1.00  0.00     0.049 A 
ATOM     50  H   UNL A   1      42.650  27.380  29.030  1.00  0.00     0.167 HD
ATOM     51  C   UNL A   1      44.150  31.112  30.720  1.00  0.00     0.037 A 
ATOM     52  C   UNL A   1      42.938  24.817  27.950  1.00  0.00     0.037 A 
ATOM     53  C   UNL A   1      45.294  30.240  30.677  1.00  0.00     0.049 A 
ATOM     54  C   UNL A   1      44.307  25.221  28.423  1.00  0.00     0.074 A 
ATOM     55  C   UNL A   1      46.580  30.482  31.128  1.00  0.00     0.029 A 
ATOM     56  N   UNL A   1      45.288  28.956  30.155  1.00  0.00    -0.354 N 
ATOM     57  N   UNL A   1      44.689  26.343  28.985  1.00  0.00    -0.248 NA
ATOM     58  C   UNL A   1      45.388  24.240  28.246  1.00  0.00     0.031 C 
ATOM     59  C   UNL A   1      47.360  29.355  30.850  1.00  0.00     0.029 A 
ATOM     60  C   UNL A   1      46.550  28.397  30.260  1.00  0.00     0.049 A 
ATOM     61  H   UNL A   1      44.502  28.508  29.766  1.00  0.00     0.167 HD
ATOM     62  C   UNL A   1      46.043  26.191  29.255  1.00  0.00     0.074 A 
ATOM     63  C   UNL A   1      46.414  24.865  28.806  1.00  0.00     0.031 C 
ATOM     64  C   UNL A   1      46.902  27.071  29.824  1.00  0.00     0.037 A 
BRANCH  51  65
ATOM     65  C   UNL A   1      44.335  32.504  31.249  1.00  0.00     0.057 A 
ATOM     66  C   UNL A   1      44.637  33.580  30.403  1.00  0.00     0.134 A 
ATOM     67  C   UNL A   1      44.192  32.777  32.615  1.00  0.00     0.134 A 
ATOM     68  F   UNL A   1      44.799  33.384  29.085  1.00  0.00    -0.206 F 
ATOM     69  C   UNL A   1      44.820  34.871  30.901  1.00  0.00     0.040 A 
ATOM     70  C   UNL A   1      44.346  34.068  33.121  1.00  0.00     0.040 A 
ATOM     71  F   UNL A   1      43.897  31.794  33.479  1.00  0.00    -0.206 F 
ATOM     72  C   UNL A   1      44.669  35.119  32.264  1.00  0.00     0.006 A 
ENDBRANCH  51  65
BRANCH  52  73
ATOM     73  C   UNL A   1      42.718  23.475  27.351  1.00  0.00     0.057 A 
ATOM     74  C   UNL A   1      42.887  23.268  25.976  1.00  0.00     0.134 A 
ATOM     75  C   UNL A   1      42.318  22.379  28.124  1.00  0.00     0.134 A 
ATOM     76  F   UNL A   1      43.247  24.285  25.181  1.00  0.00    -0.206 F 
ATOM     77  C   UNL A   1      42.645  22.026  25.388  1.00  0.00     0.040 A 
ATOM     78  C   UNL A   1      42.096  21.125  27.552  1.00  0.00     0.040 A 
ATOM     79  F   UNL A   1      42.146  22.510  29.447  1.00  0.00    -0.206 F 
ATOM     80  C   UNL A   1      42.253  20.948  26.179  1.00  0.00     0.006 A 
ENDBRANCH  52  73
BRANCH  64  81
ATOM     81  C   UNL A   1      48.316  26.618  30.031  1.00  0.00     0.057 A 
ATOM     82  C   UNL A   1      49.323  26.889  29.097  1.00  0.00     0.134 A 
ATOM     83  C   UNL A   1      48.682  25.941  31.201  1.00  0.00     0.134 A 
ATOM     84  F   UNL A   1      49.033  27.522  27.950  1.00  0.00    -0.206 F 
ATOM     85  C   UNL A   1      50.643  26.487  29.312  1.00  0.00     0.040 A 
ATOM     86  C   UNL A   1      50.002  25.555  31.439  1.00  0.00     0.040 A 
ATOM     87  F   UNL A   1      47.765  25.657  32.138  1.00  0.00    -0.206 F 
ATOM     88  C   UNL A   1      50.986  25.825  30.489  1.00  0.00     0.006 A 
ENDBRANCH  64  81
ENDBRANCH  38  39
ENDBRANCH  30  33
ENDBRANCH  28  29
ENDBRANCH  27  28
ENDBRANCH   1  27
TORSDOF 15
ENDMDL
MODEL 3
REMARK VINA RESULT:     -11.1      2.453      7.509
REMARK SMILES C[C@H]1C[NH+](CC[C@@H]2CCC[C@]2([NH3+])C(=O)NCCCCNC(=O)c2ccc(-c3c4nc(c(-c5c(F)cccc5F)c5ccc([nH]5)c(-c5c(F)cccc5F)c5nc(c(-c6c(F)cccc6F)c6ccc3[nH]6)C=C5)C=C4)cc2)C[C@H](C)O1
REMARK SMILES IDX 17 1 16 2 15 3 13 4 14 5 11 7 7 8 8 9 9 10 10 11 6 12 5 13
REMARK SMILES IDX 4 14 1 15 2 16 3 17 80 18 78 19 77 20 79 22 12 23 18 27
REMARK SMILES IDX 19 28 20 29 21 30 22 32 23 33 24 34 76 35 25 36 75 37 26 38
REMARK SMILES IDX 27 39 28 40 69 41 29 42 74 43 68 44 70 45 30 46 73 47 67 48
REMARK SMILES IDX 66 49 31 51 57 52 40 53 56 54 41 55 44 56 55 57 71 58 42 59
REMARK SMILES IDX 43 60 54 62 72 63 45 64 32 65 33 66 38 67 34 68 35 69 37 70
REMARK SMILES IDX 39 71 36 72 58 73 59 74 64 75 60 76 61 77 63 78 65 79 62 80
REMARK SMILES IDX 46 81 47 82 52 83 48 84 49 85 51 86 53 87 50 88
REMARK H PARENT 15 6 4 21 12 24 12 25 12 26 20 31 70 50 44 61
REMARK Flexibility Score: inf
ROOT
ATOM      1  C   UNL A   1      31.505  29.176  26.572  1.00  0.00     0.023 C 
ENDROOT
BRANCH   1   2
ATOM      2  C   UNL A   1      31.652  27.837  27.326  1.00  0.00     0.116 C 
BRANCH   2   3
ATOM      3  N   UNL A   1      30.981  26.734  26.620  1.00  0.00    -0.351 N 
ATOM      4  C   UNL A   1      31.636  25.946  25.702  1.00  0.00     0.281 C 
ATOM      5  O   UNL A   1      32.826  25.655  25.867  1.00  0.00    -0.268 OA
ATOM      6  H   UNL A   1      30.033  26.555  26.811  1.00  0.00     0.163 HD
BRANCH   4   7
ATOM      7  C   UNL A   1      30.856  25.420  24.412  1.00  0.00     0.177 C 
ATOM      8  C   UNL A   1      31.515  25.503  23.017  1.00  0.00     0.066 C 
ATOM      9  C   UNL A   1      31.327  26.980  22.642  1.00  0.00     0.011 C 
ATOM     10  C   UNL A   1      29.946  27.342  23.211  1.00  0.00     0.008 C 
ATOM     11  C   UNL A   1      29.573  26.233  24.193  1.00  0.00     0.079 C 
BRANCH   8  12
ATOM     12  C   UNL A   1      32.871  24.847  22.649  1.00  0.00     0.072 C 
BRANCH  12  13
ATOM     13  C   UNL A   1      33.246  23.442  23.125  1.00  0.00     0.262 C 
BRANCH  13  14
ATOM     14  N   UNL A   1      33.983  23.137  24.363  1.00  0.00    -0.331 N 
ATOM     15  C   UNL A   1      37.454  23.889  25.791  1.00  0.00     0.045 C 
ATOM     16  C   UNL A   1      36.001  23.444  25.751  1.00  0.00     0.170 C 
ATOM     17  C   UNL A   1      35.407  23.529  24.325  1.00  0.00     0.294 C 
ATOM     18  O   UNL A   1      35.963  22.094  26.243  1.00  0.00    -0.364 OA
ATOM     19  C   UNL A   1      34.636  21.558  26.255  1.00  0.00     0.170 C 
ATOM     20  C   UNL A   1      33.915  21.777  24.901  1.00  0.00     0.294 C 
ATOM     21  H   UNL A   1      33.448  23.723  25.005  1.00  0.00     0.348 HD
ATOM     22  C   UNL A   1      33.856  22.063  27.471  1.00  0.00     0.045 C 
ENDBRANCH  13  14
ENDBRANCH  12  13
ENDBRANCH   8  12
BRANCH   7  23
ATOM     23  N   UNL A   1      30.416  24.022  24.664  1.00  0.00    -0.345 N 
ATOM     24  H   UNL A   1      31.146  23.377  24.365  1.00  0.00     0.345 HD
ATOM     25  H   UNL A   1      29.562  23.836  24.138  1.00  0.00     0.345 HD
ATOM     26  H   UNL A   1      30.237  23.896  25.659  1.00  0.00     0.345 HD
ENDBRANCH   7  23
ENDBRANCH   4   7
ENDBRANCH   2   3
ENDBRANCH   1   2
BRANCH   1  27
ATOM     27  C   UNL A   1      32.794  29.796  26.045  1.00  0.00     0.023 C 
BRANCH  27  28
ATOM     28  C   UNL A   1      33.999  29.696  26.976  1.00  0.00     0.116 C 
BRANCH  28  29
ATOM     29  N   UNL A   1      34.074  30.744  27.993  1.00  0.00    -0.352 N 
ATOM     30  C   UNL A   1      35.112  31.046  28.856  1.00  0.00     0.251 C 
ATOM     31  H   UNL A   1      33.277  31.314  28.074  1.00  0.00     0.163 HD
ATOM     32  O   UNL A   1      34.997  31.949  29.683  1.00  0.00    -0.269 OA
BRANCH  30  33
ATOM     33  C   UNL A   1      36.350  30.231  28.822  1.00  0.00     0.039 A 
ATOM     34  C   UNL A   1      37.181  30.293  27.699  1.00  0.00     0.014 A 
ATOM     35  C   UNL A   1      36.739  29.496  29.941  1.00  0.00     0.014 A 
ATOM     36  C   UNL A   1      38.464  29.734  27.758  1.00  0.00     0.010 A 
ATOM     37  C   UNL A   1      38.046  29.028  30.032  1.00  0.00     0.010 A 
ATOM     38  C   UNL A   1      38.934  29.162  28.952  1.00  0.00    -0.014 A 
BRANCH  38  39
ATOM     39  C   UNL A   1      40.351  28.735  29.115  1.00  0.00     0.031 A 
ATOM     40  C   UNL A   1      41.371  29.691  29.671  1.00  0.00     0.074 A 
ATOM     41  C   UNL A   1      40.748  27.527  28.663  1.00  0.00     0.049 A 
ATOM     42  N   UNL A   1      42.668  29.549  29.779  1.00  0.00    -0.248 NA
ATOM     43  C   UNL A   1      40.870  30.997  30.130  1.00  0.00     0.031 C 
ATOM     44  C   UNL A   1      39.881  26.526  28.037  1.00  0.00     0.029 A 
ATOM     45  N   UNL A   1      41.990  26.941  28.646  1.00  0.00    -0.354 N 
ATOM     46  C   UNL A   1      43.138  30.754  30.288  1.00  0.00     0.074 A 
ATOM     47  C   UNL A   1      41.996  31.633  30.417  1.00  0.00     0.031 C 
ATOM     48  C   UNL A   1      40.610  25.441  27.727  1.00  0.00     0.029 A 
ATOM     49  C   UNL A   1      42.001  25.681  28.095  1.00  0.00     0.049 A 
ATOM     50  H   UNL A   1      42.798  27.382  28.997  1.00  0.00     0.167 HD
ATOM     51  C   UNL A   1      44.401  31.091  30.641  1.00  0.00     0.037 A 
ATOM     52  C   UNL A   1      43.017  24.817  27.905  1.00  0.00     0.037 A 
ATOM     53  C   UNL A   1      45.531  30.205  30.560  1.00  0.00     0.049 A 
ATOM     54  C   UNL A   1      44.406  25.203  28.334  1.00  0.00     0.074 A 
ATOM     55  C   UNL A   1      46.834  30.428  30.970  1.00  0.00     0.029 A 
ATOM     56  N   UNL A   1      45.491  28.922  30.038  1.00  0.00    -0.354 N 
ATOM     57  N   UNL A   1      44.820  26.318  28.884  1.00  0.00    -0.248 NA
ATOM     58  C   UNL A   1      45.467  24.207  28.121  1.00  0.00     0.031 C 
ATOM     59  C   UNL A   1      47.590  29.291  30.666  1.00  0.00     0.029 A 
ATOM     60  C   UNL A   1      46.748  28.346  30.102  1.00  0.00     0.049 A 
ATOM     61  H   UNL A   1      44.687  28.484  29.674  1.00  0.00     0.167 HD
ATOM     62  C   UNL A   1      46.181  26.148  29.110  1.00  0.00     0.074 A 
ATOM     63  C   UNL A   1      46.519  24.818  28.648  1.00  0.00     0.031 C 
ATOM     64  C   UNL A   1      47.069  27.016  29.652  1.00  0.00     0.037 A 
BRANCH  51  65
ATOM     65  C   UNL A   1      44.621  32.480  31.166  1.00  0.00     0.057 A 
ATOM     66  C   UNL A   1      44.935  33.548  30.315  1.00  0.00     0.134 A 
ATOM     67  C   UNL A   1      44.500  32.758  32.533  1.00  0.00     0.134 A 
ATOM     68  F   UNL A   1      45.077  33.347  28.995  1.00  0.00    -0.206 F 
ATOM     69  C   UNL A   1      45.151  34.836  30.809  1.00  0.00     0.040 A 
ATOM     70  C   UNL A   1      44.688  34.046  33.035  1.00  0.00     0.040 A 
ATOM     71  F   UNL A   1      44.195  31.782  33.403  1.00  0.00    -0.206 F 
ATOM     72  C   UNL A   1      45.022  35.088  32.172  1.00  0.00     0.006 A 
ENDBRANCH  51  65
BRANCH  52  73
ATOM     73  C   UNL A   1      42.760  23.479  27.312  1.00  0.00     0.057 A 
ATOM     74  C   UNL A   1      42.354  22.406  28.115  1.00  0.00     0.134 A 
ATOM     75  C   UNL A   1      42.932  23.233  25.945  1.00  0.00     0.134 A 
ATOM     76  F   UNL A   1      42.194  22.574  29.435  1.00  0.00    -0.206 F 
ATOM     77  C   UNL A   1      42.148  21.132  27.584  1.00  0.00     0.040 A 
ATOM     78  C   UNL A   1      42.706  21.969  25.397  1.00  0.00     0.040 A 
ATOM     79  F   UNL A   1      43.313  24.220  25.122  1.00  0.00    -0.206 F 
ATOM     80  C   UNL A   1      42.320  20.912  26.219  1.00  0.00     0.006 A 
ENDBRANCH  52  73
BRANCH  64  81
ATOM     81  C   UNL A   1      48.482  26.544  29.813  1.00  0.00     0.057 A 
ATOM     82  C   UNL A   1      49.464  26.813  28.852  1.00  0.00     0.134 A 
ATOM     83  C   UNL A   1      48.874  25.850  30.965  1.00  0.00     0.134 A 
ATOM     84  F   UNL A   1      49.149  27.461  27.721  1.00  0.00    -0.206 F 
ATOM     85  C   UNL A   1      50.785  26.393  29.024  1.00  0.00     0.040 A 
ATOM     86  C   UNL A   1      50.196  25.447  31.160  1.00  0.00     0.040 A 
ATOM     87  F   UNL A   1      47.982  25.567  31.926  1.00  0.00    -0.206 F 
ATOM     88  C   UNL A   1      51.155  25.715  30.185  1.00  0.00     0.006 A 
ENDBRANCH  64  81
ENDBRANCH  38  39
ENDBRANCH  30  33
ENDBRANCH  28  29
ENDBRANCH  27  28
ENDBRANCH   1  27
TORSDOF 15
ENDMDL
