MODEL 1
REMARK VINA RESULT:     -13.3      0.000      0.000
REMARK SMILES Cc1ccc(S(=O)(=O)n2cc(C(=O)C(=O)NCC(=O)N[C@@H](Cc3c[nH]c4ccccc34)C(=O)NCCCCNC(=O)c3ccc(-c4c5nc(c(-c6c(F)cccc6F)c6ccc([nH]6)c(-c6c(F)cccc6F)c6nc(c(-c7c(F)cccc7F)c7ccc4[nH]7)C=C6)C=C5)cc3)c3ccccc32)cc1
REMARK SMILES IDX 32 1 33 2 34 3 21 5 20 6 18 7 19 8 17 10 16 11 14 12 15 13
REMARK SMILES IDX 12 15 13 16 11 17 9 18 10 19 101 20 96 21 100 22 97 23 99 24
REMARK SMILES IDX 98 25 6 26 7 27 8 28 5 29 1 30 2 31 3 32 103 33 4 34 102 35
REMARK SMILES IDX 22 36 23 37 24 38 31 39 25 40 26 41 30 42 27 44 29 45 28 46
REMARK SMILES IDX 35 47 36 48 37 49 38 50 39 51 40 52 41 54 42 55 43 56 95 57
REMARK SMILES IDX 44 58 94 59 45 60 46 61 47 62 88 63 48 64 93 65 87 66 89 67
REMARK SMILES IDX 49 68 92 69 86 70 85 71 50 73 76 74 59 75 75 76 60 77 63 78
REMARK SMILES IDX 74 79 90 80 61 81 62 82 73 84 91 85 64 86 51 87 52 88 57 89
REMARK SMILES IDX 53 90 54 91 56 92 58 93 55 94 77 95 78 96 83 97 79 98 80 99
REMARK SMILES IDX 82 100 84 101 81 102 65 103 66 104 71 105 67 106 68 107
REMARK SMILES IDX 70 108 72 109 69 110
REMARK H PARENT 34 4 20 9 16 14 25 43 39 53 89 72 63 83
REMARK Flexibility Score: inf
ROOT
ATOM      1  C   UNL A   1      33.242  29.422  24.919  1.00  0.00     0.242 C 
ATOM      2  O   UNL A   1      33.541  29.477  23.719  1.00  0.00    -0.273 OA
ATOM      3  N   UNL A   1      34.279  29.523  25.803  1.00  0.00    -0.354 N 
ATOM      4  H   UNL A   1      35.143  29.194  25.466  1.00  0.00     0.163 HD
ENDROOT
BRANCH   1   5
ATOM      5  C   UNL A   1      31.748  29.335  25.319  1.00  0.00     0.175 C 
BRANCH   5   6
ATOM      6  N   UNL A   1      31.508  28.946  26.712  1.00  0.00    -0.342 N 
ATOM      7  C   UNL A   1      31.526  27.681  27.235  1.00  0.00     0.240 C 
ATOM      8  O   UNL A   1      31.675  27.551  28.449  1.00  0.00    -0.273 OA
ATOM      9  H   UNL A   1      31.313  29.675  27.342  1.00  0.00     0.164 HD
BRANCH   7  10
ATOM     10  C   UNL A   1      31.418  26.468  26.291  1.00  0.00     0.216 C 
BRANCH  10  11
ATOM     11  N   UNL A   1      30.669  25.389  26.946  1.00  0.00    -0.340 N 
ATOM     12  C   UNL A   1      30.495  24.077  26.539  1.00  0.00     0.292 C 
ATOM     13  O   UNL A   1      29.724  23.332  27.134  1.00  0.00    -0.265 OA
ATOM     14  H   UNL A   1      30.229  25.631  27.793  1.00  0.00     0.164 HD
BRANCH  12  15
ATOM     15  C   UNL A   1      31.267  23.560  25.321  1.00  0.00     0.252 C 
ATOM     16  O   UNL A   1      30.662  23.580  24.249  1.00  0.00    -0.283 OA
BRANCH  15  17
ATOM     17  C   UNL A   1      32.583  22.916  25.460  1.00  0.00     0.054 A 
ATOM     18  N   UNL A   1      34.729  22.362  25.926  1.00  0.00    -0.240 N 
ATOM     19  C   UNL A   1      33.790  23.392  25.991  1.00  0.00     0.117 A 
ATOM     20  C   UNL A   1      34.043  21.192  25.555  1.00  0.00     0.065 A 
ATOM     21  C   UNL A   1      32.872  21.619  24.939  1.00  0.00     0.012 A 
ATOM     22  C   UNL A   1      34.498  19.863  25.435  1.00  0.00     0.028 A 
ATOM     23  C   UNL A   1      32.236  20.749  24.026  1.00  0.00     0.011 A 
ATOM     24  C   UNL A   1      33.908  19.057  24.464  1.00  0.00     0.002 A 
ATOM     25  C   UNL A   1      32.815  19.508  23.738  1.00  0.00     0.001 A 
BRANCH  18  26
ATOM     26  S   UNL A   1      36.297  22.421  25.164  1.00  0.00     0.268 S 
ATOM     27  O   UNL A   1      36.773  23.750  25.515  1.00  0.00    -0.201 OA
ATOM     28  O   UNL A   1      35.977  22.076  23.784  1.00  0.00    -0.201 OA
BRANCH  26  29
ATOM     29  C   UNL A   1      37.672  21.373  25.455  1.00  0.00     0.088 A 
ATOM     30  C   UNL A   1      41.629  19.797  26.180  1.00  0.00     0.044 C 
ATOM     31  C   UNL A   1      40.227  20.290  25.964  1.00  0.00    -0.051 A 
ATOM     32  C   UNL A   1      39.949  21.593  26.351  1.00  0.00     0.005 A 
ATOM     33  C   UNL A   1      39.209  19.529  25.345  1.00  0.00     0.005 A 
ATOM     34  C   UNL A   1      38.692  22.112  26.110  1.00  0.00     0.022 A 
ATOM     35  C   UNL A   1      37.920  20.065  25.079  1.00  0.00     0.022 A 
ENDBRANCH  26  29
ENDBRANCH  18  26
ENDBRANCH  15  17
ENDBRANCH  12  15
ENDBRANCH  10  11
ENDBRANCH   7  10
ENDBRANCH   5   6
BRANCH   5  36
ATOM     36  C   UNL A   1      30.870  30.507  24.840  1.00  0.00     0.072 C 
BRANCH  36  37
ATOM     37  C   UNL A   1      29.956  30.179  23.708  1.00  0.00    -0.020 A 
ATOM     38  C   UNL A   1      29.657  28.904  23.270  1.00  0.00     0.087 A 
ATOM     39  C   UNL A   1      29.209  31.082  22.887  1.00  0.00     0.003 A 
ATOM     40  N   UNL A   1      28.921  29.007  22.125  1.00  0.00    -0.361 N 
ATOM     41  C   UNL A   1      28.673  30.328  21.845  1.00  0.00     0.046 A 
ATOM     42  C   UNL A   1      28.956  32.470  22.908  1.00  0.00     0.010 A 
ATOM     43  H   UNL A   1      28.612  28.246  21.581  1.00  0.00     0.166 HD
ATOM     44  C   UNL A   1      27.997  30.905  20.767  1.00  0.00     0.026 A 
ATOM     45  C   UNL A   1      28.204  33.050  21.878  1.00  0.00     0.001 A 
ATOM     46  C   UNL A   1      27.757  32.280  20.809  1.00  0.00     0.002 A 
ENDBRANCH  36  37
ENDBRANCH   5  36
ENDBRANCH   1   5
BRANCH   3  47
ATOM     47  C   UNL A   1      34.309  30.038  27.161  1.00  0.00     0.116 C 
BRANCH  47  48
ATOM     48  C   UNL A   1      33.889  31.503  27.288  1.00  0.00     0.023 C 
BRANCH  48  49
ATOM     49  C   UNL A   1      34.810  32.380  28.141  1.00  0.00     0.023 C 
BRANCH  49  50
ATOM     50  C   UNL A   1      34.608  32.268  29.648  1.00  0.00     0.116 C 
BRANCH  50  51
ATOM     51  N   UNL A   1      34.093  33.456  30.301  1.00  0.00    -0.352 N 
ATOM     52  C   UNL A   1      34.515  34.121  31.449  1.00  0.00     0.251 C 
ATOM     53  H   UNL A   1      33.315  33.862  29.856  1.00  0.00     0.163 HD
ATOM     54  O   UNL A   1      33.835  35.020  31.883  1.00  0.00    -0.269 OA
BRANCH  52  55
ATOM     55  C   UNL A   1      35.865  33.864  32.047  1.00  0.00     0.039 A 
ATOM     56  C   UNL A   1      36.961  34.527  31.463  1.00  0.00     0.014 A 
ATOM     57  C   UNL A   1      36.106  32.846  32.958  1.00  0.00     0.014 A 
ATOM     58  C   UNL A   1      38.238  33.981  31.564  1.00  0.00     0.010 A 
ATOM     59  C   UNL A   1      37.332  32.228  32.962  1.00  0.00     0.010 A 
ATOM     60  C   UNL A   1      38.372  32.755  32.199  1.00  0.00    -0.014 A 
BRANCH  60  61
ATOM     61  C   UNL A   1      39.505  31.861  32.060  1.00  0.00     0.031 A 
ATOM     62  C   UNL A   1      39.409  30.700  31.155  1.00  0.00     0.074 A 
ATOM     63  C   UNL A   1      40.677  32.256  32.603  1.00  0.00     0.049 A 
ATOM     64  N   UNL A   1      40.262  29.740  31.108  1.00  0.00    -0.248 NA
ATOM     65  C   UNL A   1      38.290  30.520  30.236  1.00  0.00     0.031 C 
ATOM     66  C   UNL A   1      42.022  31.806  32.264  1.00  0.00     0.029 A 
ATOM     67  N   UNL A   1      40.894  33.089  33.686  1.00  0.00    -0.354 N 
ATOM     68  C   UNL A   1      39.956  28.952  30.019  1.00  0.00     0.074 A 
ATOM     69  C   UNL A   1      38.695  29.457  29.534  1.00  0.00     0.031 C 
ATOM     70  C   UNL A   1      42.861  32.158  33.256  1.00  0.00     0.029 A 
ATOM     71  C   UNL A   1      42.049  32.675  34.347  1.00  0.00     0.049 A 
ATOM     72  H   UNL A   1      40.325  33.849  33.948  1.00  0.00     0.167 HD
ATOM     73  C   UNL A   1      40.874  28.036  29.593  1.00  0.00     0.037 A 
ATOM     74  C   UNL A   1      41.996  32.100  35.588  1.00  0.00     0.037 A 
ATOM     75  C   UNL A   1      42.026  28.021  30.492  1.00  0.00     0.049 A 
ATOM     76  C   UNL A   1      42.452  30.656  35.595  1.00  0.00     0.074 A 
ATOM     77  C   UNL A   1      43.235  28.698  30.462  1.00  0.00     0.029 A 
ATOM     78  N   UNL A   1      41.877  27.531  31.785  1.00  0.00    -0.354 N 
ATOM     79  N   UNL A   1      42.432  29.878  34.546  1.00  0.00    -0.248 NA
ATOM     80  C   UNL A   1      42.968  29.980  36.782  1.00  0.00     0.031 C 
ATOM     81  C   UNL A   1      43.768  28.692  31.776  1.00  0.00     0.029 A 
ATOM     82  C   UNL A   1      42.906  27.978  32.591  1.00  0.00     0.049 A 
ATOM     83  H   UNL A   1      41.142  26.949  32.084  1.00  0.00     0.167 HD
ATOM     84  C   UNL A   1      42.900  28.639  34.890  1.00  0.00     0.074 A 
ATOM     85  C   UNL A   1      43.235  28.755  36.297  1.00  0.00     0.031 C 
ATOM     86  C   UNL A   1      42.965  27.609  33.997  1.00  0.00     0.037 A 
BRANCH  73  87
ATOM     87  C   UNL A   1      40.864  27.366  28.237  1.00  0.00     0.057 A 
ATOM     88  C   UNL A   1      40.169  26.153  28.044  1.00  0.00     0.134 A 
ATOM     89  C   UNL A   1      41.547  27.822  27.096  1.00  0.00     0.134 A 
ATOM     90  F   UNL A   1      39.391  25.629  29.000  1.00  0.00    -0.206 F 
ATOM     91  C   UNL A   1      40.239  25.410  26.858  1.00  0.00     0.040 A 
ATOM     92  C   UNL A   1      41.667  27.065  25.920  1.00  0.00     0.040 A 
ATOM     93  F   UNL A   1      42.081  29.047  27.039  1.00  0.00    -0.206 F 
ATOM     94  C   UNL A   1      41.020  25.846  25.801  1.00  0.00     0.006 A 
ENDBRANCH  73  87
BRANCH  74  95
ATOM     95  C   UNL A   1      40.914  32.638  36.460  1.00  0.00     0.057 A 
ATOM     96  C   UNL A   1      41.094  33.901  37.041  1.00  0.00     0.134 A 
ATOM     97  C   UNL A   1      39.601  32.160  36.376  1.00  0.00     0.134 A 
ATOM     98  F   UNL A   1      42.330  34.402  37.187  1.00  0.00    -0.206 F 
ATOM     99  C   UNL A   1      40.012  34.725  37.368  1.00  0.00     0.040 A 
ATOM    100  C   UNL A   1      38.510  32.971  36.716  1.00  0.00     0.040 A 
ATOM    101  F   UNL A   1      39.344  30.962  35.835  1.00  0.00    -0.206 F 
ATOM    102  C   UNL A   1      38.713  34.276  37.161  1.00  0.00     0.006 A 
ENDBRANCH  74  95
BRANCH  86 103
ATOM    103  C   UNL A   1      43.156  26.160  34.363  1.00  0.00     0.057 A 
ATOM    104  C   UNL A   1      42.202  25.402  35.058  1.00  0.00     0.134 A 
ATOM    105  C   UNL A   1      44.252  25.430  33.854  1.00  0.00     0.134 A 
ATOM    106  F   UNL A   1      41.061  25.948  35.502  1.00  0.00    -0.206 F 
ATOM    107  C   UNL A   1      42.350  24.028  35.275  1.00  0.00     0.040 A 
ATOM    108  C   UNL A   1      44.381  24.047  34.015  1.00  0.00     0.040 A 
ATOM    109  F   UNL A   1      45.228  26.023  33.150  1.00  0.00    -0.206 F 
ATOM    110  C   UNL A   1      43.434  23.343  34.741  1.00  0.00     0.006 A 
ENDBRANCH  86 103
ENDBRANCH  60  61
ENDBRANCH  52  55
ENDBRANCH  50  51
ENDBRANCH  49  50
ENDBRANCH  48  49
ENDBRANCH  47  48
ENDBRANCH   3  47
TORSDOF 20
ENDMDL
MODEL 2
REMARK VINA RESULT:     -13.0      1.379      2.311
REMARK SMILES Cc1ccc(S(=O)(=O)n2cc(C(=O)C(=O)NCC(=O)N[C@@H](Cc3c[nH]c4ccccc34)C(=O)NCCCCNC(=O)c3ccc(-c4c5nc(c(-c6c(F)cccc6F)c6ccc([nH]6)c(-c6c(F)cccc6F)c6nc(c(-c7c(F)cccc7F)c7ccc4[nH]7)C=C6)C=C5)cc3)c3ccccc32)cc1
REMARK SMILES IDX 32 1 33 2 34 3 21 5 20 6 18 7 19 8 17 10 16 11 14 12 15 13
REMARK SMILES IDX 12 15 13 16 11 17 9 18 10 19 101 20 96 21 100 22 97 23 99 24
REMARK SMILES IDX 98 25 6 26 7 27 8 28 5 29 1 30 2 31 3 32 103 33 4 34 102 35
REMARK SMILES IDX 22 36 23 37 24 38 31 39 25 40 26 41 30 42 27 44 29 45 28 46
REMARK SMILES IDX 35 47 36 48 37 49 38 50 39 51 40 52 41 54 42 55 43 56 95 57
REMARK SMILES IDX 44 58 94 59 45 60 46 61 47 62 88 63 48 64 93 65 87 66 89 67
REMARK SMILES IDX 49 68 92 69 86 70 85 71 50 73 76 74 59 75 75 76 60 77 63 78
REMARK SMILES IDX 74 79 90 80 61 81 62 82 73 84 91 85 64 86 51 87 52 88 57 89
REMARK SMILES IDX 53 90 54 91 56 92 58 93 55 94 77 95 78 96 83 97 79 98 80 99
REMARK SMILES IDX 82 100 84 101 81 102 65 103 66 104 71 105 67 106 68 107
REMARK SMILES IDX 70 108 72 109 69 110
REMARK H PARENT 34 4 20 9 16 14 25 43 39 53 89 72 63 83
REMARK Flexibility Score: inf
ROOT
ATOM      1  C   UNL A   1      33.277  29.713  25.244  1.00  0.00     0.242 C 
ATOM      2  O   UNL A   1      33.707  29.708  24.084  1.00  0.00    -0.273 OA
ATOM      3  N   UNL A   1      34.190  29.979  26.224  1.00  0.00    -0.354 N 
ATOM      4  H   UNL A   1      35.113  29.711  26.012  1.00  0.00     0.163 HD
ENDROOT
BRANCH   1   5
ATOM      5  C   UNL A   1      31.760  29.510  25.485  1.00  0.00     0.175 C 
BRANCH   5   6
ATOM      6  N   UNL A   1      31.411  29.026  26.824  1.00  0.00    -0.342 N 
ATOM      7  C   UNL A   1      31.431  27.732  27.269  1.00  0.00     0.240 C 
ATOM      8  O   UNL A   1      31.475  27.531  28.483  1.00  0.00    -0.273 OA
ATOM      9  H   UNL A   1      31.132  29.707  27.476  1.00  0.00     0.164 HD
BRANCH   7  10
ATOM     10  C   UNL A   1      31.456  26.578  26.249  1.00  0.00     0.216 C 
BRANCH  10  11
ATOM     11  N   UNL A   1      30.758  25.409  26.797  1.00  0.00    -0.340 N 
ATOM     12  C   UNL A   1      30.462  24.203  26.184  1.00  0.00     0.292 C 
ATOM     13  O   UNL A   1      29.751  23.375  26.741  1.00  0.00    -0.265 OA
ATOM     14  H   UNL A   1      30.460  25.493  27.732  1.00  0.00     0.164 HD
BRANCH  12  15
ATOM     15  C   UNL A   1      31.022  23.914  24.788  1.00  0.00     0.252 C 
ATOM     16  O   UNL A   1      30.366  24.350  23.841  1.00  0.00    -0.283 OA
BRANCH  15  17
ATOM     17  C   UNL A   1      32.174  23.021  24.589  1.00  0.00     0.054 A 
ATOM     18  N   UNL A   1      33.582  21.299  24.160  1.00  0.00    -0.240 N 
ATOM     19  C   UNL A   1      32.238  21.653  24.289  1.00  0.00     0.117 A 
ATOM     20  C   UNL A   1      34.331  22.489  24.166  1.00  0.00     0.065 A 
ATOM     21  C   UNL A   1      33.525  23.441  24.781  1.00  0.00     0.012 A 
ATOM     22  C   UNL A   1      35.711  22.703  23.976  1.00  0.00     0.028 A 
ATOM     23  C   UNL A   1      34.143  24.554  25.390  1.00  0.00     0.011 A 
ATOM     24  C   UNL A   1      36.308  23.759  24.661  1.00  0.00     0.002 A 
ATOM     25  C   UNL A   1      35.539  24.652  25.393  1.00  0.00     0.001 A 
BRANCH  18  26
ATOM     26  S   UNL A   1      34.422  20.041  25.028  1.00  0.00     0.268 S 
ATOM     27  O   UNL A   1      34.168  20.387  26.418  1.00  0.00    -0.201 OA
ATOM     28  O   UNL A   1      35.764  20.127  24.464  1.00  0.00    -0.201 OA
BRANCH  26  29
ATOM     29  C   UNL A   1      34.143  18.312  24.949  1.00  0.00     0.088 A 
ATOM     30  C   UNL A   1      32.658  14.300  25.555  1.00  0.00     0.044 C 
ATOM     31  C   UNL A   1      33.189  15.677  25.278  1.00  0.00    -0.051 A 
ATOM     32  C   UNL A   1      32.349  16.745  25.554  1.00  0.00     0.005 A 
ATOM     33  C   UNL A   1      34.498  15.940  24.812  1.00  0.00     0.005 A 
ATOM     34  C   UNL A   1      32.819  18.033  25.379  1.00  0.00     0.022 A 
ATOM     35  C   UNL A   1      34.991  17.262  24.648  1.00  0.00     0.022 A 
ENDBRANCH  26  29
ENDBRANCH  18  26
ENDBRANCH  15  17
ENDBRANCH  12  15
ENDBRANCH  10  11
ENDBRANCH   7  10
ENDBRANCH   5   6
BRANCH   5  36
ATOM     36  C   UNL A   1      30.856  30.651  24.981  1.00  0.00     0.072 C 
BRANCH  36  37
ATOM     37  C   UNL A   1      29.987  30.294  23.822  1.00  0.00    -0.020 A 
ATOM     38  C   UNL A   1      29.764  29.011  23.361  1.00  0.00     0.087 A 
ATOM     39  C   UNL A   1      29.216  31.169  22.994  1.00  0.00     0.003 A 
ATOM     40  N   UNL A   1      29.051  29.093  22.200  1.00  0.00    -0.361 N 
ATOM     41  C   UNL A   1      28.744  30.404  21.929  1.00  0.00     0.046 A 
ATOM     42  C   UNL A   1      28.893  32.542  23.026  1.00  0.00     0.010 A 
ATOM     43  H   UNL A   1      28.794  28.325  21.639  1.00  0.00     0.166 HD
ATOM     44  C   UNL A   1      28.066  30.961  20.842  1.00  0.00     0.026 A 
ATOM     45  C   UNL A   1      28.137  33.097  21.985  1.00  0.00     0.001 A 
ATOM     46  C   UNL A   1      27.756  32.321  20.895  1.00  0.00     0.002 A 
ENDBRANCH  36  37
ENDBRANCH   5  36
ENDBRANCH   1   5
BRANCH   3  47
ATOM     47  C   UNL A   1      34.017  30.592  27.529  1.00  0.00     0.116 C 
BRANCH  47  48
ATOM     48  C   UNL A   1      33.719  32.091  27.485  1.00  0.00     0.023 C 
BRANCH  48  49
ATOM     49  C   UNL A   1      34.608  32.966  28.374  1.00  0.00     0.023 C 
BRANCH  49  50
ATOM     50  C   UNL A   1      34.594  32.617  29.857  1.00  0.00     0.116 C 
BRANCH  50  51
ATOM     51  N   UNL A   1      33.990  33.608  30.727  1.00  0.00    -0.352 N 
ATOM     52  C   UNL A   1      34.380  34.086  31.976  1.00  0.00     0.251 C 
ATOM     53  H   UNL A   1      33.164  34.011  30.376  1.00  0.00     0.163 HD
ATOM     54  O   UNL A   1      33.632  34.818  32.578  1.00  0.00    -0.269 OA
BRANCH  52  55
ATOM     55  C   UNL A   1      35.765  33.855  32.500  1.00  0.00     0.039 A 
ATOM     56  C   UNL A   1      36.818  34.521  31.843  1.00  0.00     0.014 A 
ATOM     57  C   UNL A   1      36.072  32.856  33.411  1.00  0.00     0.014 A 
ATOM     58  C   UNL A   1      38.106  33.992  31.879  1.00  0.00     0.010 A 
ATOM     59  C   UNL A   1      37.304  32.253  33.355  1.00  0.00     0.010 A 
ATOM     60  C   UNL A   1      38.292  32.778  32.526  1.00  0.00    -0.014 A 
BRANCH  60  61
ATOM     61  C   UNL A   1      39.426  31.896  32.337  1.00  0.00     0.031 A 
ATOM     62  C   UNL A   1      39.314  30.756  31.408  1.00  0.00     0.074 A 
ATOM     63  C   UNL A   1      40.609  32.287  32.859  1.00  0.00     0.049 A 
ATOM     64  N   UNL A   1      40.171  29.803  31.317  1.00  0.00    -0.248 NA
ATOM     65  C   UNL A   1      38.172  30.589  30.513  1.00  0.00     0.031 C 
ATOM     66  C   UNL A   1      41.948  31.854  32.475  1.00  0.00     0.029 A 
ATOM     67  N   UNL A   1      40.849  33.095  33.955  1.00  0.00    -0.354 N 
ATOM     68  C   UNL A   1      39.843  29.038  30.217  1.00  0.00     0.074 A 
ATOM     69  C   UNL A   1      38.566  29.546  29.777  1.00  0.00     0.031 C 
ATOM     70  C   UNL A   1      42.810  32.188  33.453  1.00  0.00     0.029 A 
ATOM     71  C   UNL A   1      42.023  32.674  34.576  1.00  0.00     0.049 A 
ATOM     72  H   UNL A   1      40.282  33.845  34.249  1.00  0.00     0.167 HD
ATOM     73  C   UNL A   1      40.755  28.139  29.746  1.00  0.00     0.037 A 
ATOM     74  C   UNL A   1      42.006  32.070  35.805  1.00  0.00     0.037 A 
ATOM     75  C   UNL A   1      41.929  28.111  30.616  1.00  0.00     0.049 A 
ATOM     76  C   UNL A   1      42.471  30.629  35.766  1.00  0.00     0.074 A 
ATOM     77  C   UNL A   1      43.133  28.797  30.570  1.00  0.00     0.029 A 
ATOM     78  N   UNL A   1      41.817  27.590  31.899  1.00  0.00    -0.354 N 
ATOM     79  N   UNL A   1      42.429  29.876  34.700  1.00  0.00    -0.248 NA
ATOM     80  C   UNL A   1      43.022  29.930  36.923  1.00  0.00     0.031 C 
ATOM     81  C   UNL A   1      43.700  28.764  31.869  1.00  0.00     0.029 A 
ATOM     82  C   UNL A   1      42.864  28.025  32.690  1.00  0.00     0.049 A 
ATOM     83  H   UNL A   1      41.094  26.996  32.203  1.00  0.00     0.167 HD
ATOM     84  C   UNL A   1      42.913  28.632  35.002  1.00  0.00     0.074 A 
ATOM     85  C   UNL A   1      43.283  28.718  36.402  1.00  0.00     0.031 C 
ATOM     86  C   UNL A   1      42.961  27.624  34.084  1.00  0.00     0.037 A 
BRANCH  73  87
ATOM     87  C   UNL A   1      40.713  27.500  28.376  1.00  0.00     0.057 A 
ATOM     88  C   UNL A   1      40.014  26.292  28.171  1.00  0.00     0.134 A 
ATOM     89  C   UNL A   1      41.372  27.982  27.231  1.00  0.00     0.134 A 
ATOM     90  F   UNL A   1      39.257  25.746  29.131  1.00  0.00    -0.206 F 
ATOM     91  C   UNL A   1      40.057  25.577  26.966  1.00  0.00     0.040 A 
ATOM     92  C   UNL A   1      41.465  27.254  26.036  1.00  0.00     0.040 A 
ATOM     93  F   UNL A   1      41.905  29.208  27.190  1.00  0.00    -0.206 F 
ATOM     94  C   UNL A   1      40.814  26.037  25.902  1.00  0.00     0.006 A 
ENDBRANCH  73  87
BRANCH  74  95
ATOM     95  C   UNL A   1      40.943  32.580  36.716  1.00  0.00     0.057 A 
ATOM     96  C   UNL A   1      41.172  33.783  37.398  1.00  0.00     0.134 A 
ATOM     97  C   UNL A   1      39.612  32.165  36.593  1.00  0.00     0.134 A 
ATOM     98  F   UNL A   1      42.427  34.219  37.584  1.00  0.00    -0.206 F 
ATOM     99  C   UNL A   1      40.124  34.622  37.789  1.00  0.00     0.040 A 
ATOM    100  C   UNL A   1      38.554  32.990  36.997  1.00  0.00     0.040 A 
ATOM    101  F   UNL A   1      39.308  31.026  35.957  1.00  0.00    -0.206 F 
ATOM    102  C   UNL A   1      38.808  34.246  37.546  1.00  0.00     0.006 A 
ENDBRANCH  74  95
BRANCH  86 103
ATOM    103  C   UNL A   1      43.171  26.168  34.411  1.00  0.00     0.057 A 
ATOM    104  C   UNL A   1      42.237  25.387  35.108  1.00  0.00     0.134 A 
ATOM    105  C   UNL A   1      44.261  25.459  33.862  1.00  0.00     0.134 A 
ATOM    106  F   UNL A   1      41.102  25.912  35.589  1.00  0.00    -0.206 F 
ATOM    107  C   UNL A   1      42.400  24.009  35.289  1.00  0.00     0.040 A 
ATOM    108  C   UNL A   1      44.403  24.074  33.986  1.00  0.00     0.040 A 
ATOM    109  F   UNL A   1      45.217  26.076  33.152  1.00  0.00    -0.206 F 
ATOM    110  C   UNL A   1      43.477  23.345  34.715  1.00  0.00     0.006 A 
ENDBRANCH  86 103
ENDBRANCH  60  61
ENDBRANCH  52  55
ENDBRANCH  50  51
ENDBRANCH  49  50
ENDBRANCH  48  49
ENDBRANCH  47  48
ENDBRANCH   3  47
TORSDOF 20
ENDMDL
MODEL 3
REMARK VINA RESULT:     -12.5      3.638      9.829
REMARK SMILES Cc1ccc(S(=O)(=O)n2cc(C(=O)C(=O)NCC(=O)N[C@@H](Cc3c[nH]c4ccccc34)C(=O)NCCCCNC(=O)c3ccc(-c4c5nc(c(-c6c(F)cccc6F)c6ccc([nH]6)c(-c6c(F)cccc6F)c6nc(c(-c7c(F)cccc7F)c7ccc4[nH]7)C=C6)C=C5)cc3)c3ccccc32)cc1
REMARK SMILES IDX 32 1 33 2 34 3 21 5 20 6 18 7 19 8 17 10 16 11 14 12 15 13
REMARK SMILES IDX 12 15 13 16 11 17 9 18 10 19 101 20 96 21 100 22 97 23 99 24
REMARK SMILES IDX 98 25 6 26 7 27 8 28 5 29 1 30 2 31 3 32 103 33 4 34 102 35
REMARK SMILES IDX 22 36 23 37 24 38 31 39 25 40 26 41 30 42 27 44 29 45 28 46
REMARK SMILES IDX 35 47 36 48 37 49 38 50 39 51 40 52 41 54 42 55 43 56 95 57
REMARK SMILES IDX 44 58 94 59 45 60 46 61 47 62 88 63 48 64 93 65 87 66 89 67
REMARK SMILES IDX 49 68 92 69 86 70 85 71 50 73 76 74 59 75 75 76 60 77 63 78
REMARK SMILES IDX 74 79 90 80 61 81 62 82 73 84 91 85 64 86 51 87 52 88 57 89
REMARK SMILES IDX 53 90 54 91 56 92 58 93 55 94 77 95 78 96 83 97 79 98 80 99
REMARK SMILES IDX 82 100 84 101 81 102 65 103 66 104 71 105 67 106 68 107
REMARK SMILES IDX 70 108 72 109 69 110
REMARK H PARENT 34 4 20 9 16 14 25 43 39 53 89 72 63 83
REMARK Flexibility Score: inf
ROOT
ATOM      1  C   UNL A   1      41.721  25.191  26.026  1.00  0.00     0.242 C 
ATOM      2  O   UNL A   1      41.443  25.896  25.047  1.00  0.00    -0.273 OA
ATOM      3  N   UNL A   1      43.046  24.921  26.216  1.00  0.00    -0.354 N 
ATOM      4  H   UNL A   1      43.588  24.908  25.394  1.00  0.00     0.163 HD
ENDROOT
BRANCH   1   5
ATOM      5  C   UNL A   1      40.586  24.754  26.985  1.00  0.00     0.175 C 
BRANCH   5   6
ATOM      6  N   UNL A   1      40.356  23.307  27.043  1.00  0.00    -0.342 N 
ATOM      7  C   UNL A   1      39.308  22.612  26.503  1.00  0.00     0.240 C 
ATOM      8  O   UNL A   1      39.443  21.403  26.314  1.00  0.00    -0.273 OA
ATOM      9  H   UNL A   1      41.030  22.777  27.524  1.00  0.00     0.164 HD
BRANCH   7  10
ATOM     10  C   UNL A   1      38.026  23.364  26.097  1.00  0.00     0.216 C 
BRANCH  10  11
ATOM     11  N   UNL A   1      37.788  23.207  24.657  1.00  0.00    -0.340 N 
ATOM     12  C   UNL A   1      36.586  23.085  23.981  1.00  0.00     0.292 C 
ATOM     13  O   UNL A   1      36.564  22.824  22.783  1.00  0.00    -0.265 OA
ATOM     14  H   UNL A   1      38.595  23.186  24.094  1.00  0.00     0.164 HD
BRANCH  12  15
ATOM     15  C   UNL A   1      35.271  23.264  24.747  1.00  0.00     0.252 C 
ATOM     16  O   UNL A   1      34.798  22.247  25.254  1.00  0.00    -0.283 OA
BRANCH  15  17
ATOM     17  C   UNL A   1      34.535  24.538  24.726  1.00  0.00     0.054 A 
ATOM     18  N   UNL A   1      33.558  26.529  25.185  1.00  0.00    -0.240 N 
ATOM     19  C   UNL A   1      34.255  25.458  25.746  1.00  0.00     0.117 A 
ATOM     20  C   UNL A   1      33.600  26.371  23.789  1.00  0.00     0.065 A 
ATOM     21  C   UNL A   1      33.855  25.022  23.567  1.00  0.00     0.012 A 
ATOM     22  C   UNL A   1      33.134  27.212  22.758  1.00  0.00     0.028 A 
ATOM     23  C   UNL A   1      33.458  24.455  22.337  1.00  0.00     0.011 A 
ATOM     24  C   UNL A   1      32.667  26.615  21.590  1.00  0.00     0.002 A 
ATOM     25  C   UNL A   1      32.791  25.247  21.396  1.00  0.00     0.001 A 
BRANCH  18  26
ATOM     26  S   UNL A   1      32.006  27.147  25.687  1.00  0.00     0.268 S 
ATOM     27  O   UNL A   1      32.340  27.926  26.870  1.00  0.00    -0.201 OA
ATOM     28  O   UNL A   1      31.212  25.929  25.787  1.00  0.00    -0.201 OA
BRANCH  26  29
ATOM     29  C   UNL A   1      30.916  28.177  24.779  1.00  0.00     0.088 A 
ATOM     30  C   UNL A   1      28.070  29.744  21.932  1.00  0.00     0.044 C 
ATOM     31  C   UNL A   1      29.034  29.246  22.969  1.00  0.00    -0.051 A 
ATOM     32  C   UNL A   1      29.023  27.886  23.239  1.00  0.00     0.005 A 
ATOM     33  C   UNL A   1      29.976  30.066  23.631  1.00  0.00     0.005 A 
ATOM     34  C   UNL A   1      29.940  27.371  24.136  1.00  0.00     0.022 A 
ATOM     35  C   UNL A   1      30.932  29.539  24.540  1.00  0.00     0.022 A 
ENDBRANCH  26  29
ENDBRANCH  18  26
ENDBRANCH  15  17
ENDBRANCH  12  15
ENDBRANCH  10  11
ENDBRANCH   7  10
ENDBRANCH   5   6
BRANCH   5  36
ATOM     36  C   UNL A   1      40.591  25.439  28.365  1.00  0.00     0.072 C 
BRANCH  36  37
ATOM     37  C   UNL A   1      40.708  26.925  28.324  1.00  0.00    -0.020 A 
ATOM     38  C   UNL A   1      39.674  27.797  28.042  1.00  0.00     0.087 A 
ATOM     39  C   UNL A   1      41.864  27.727  28.580  1.00  0.00     0.003 A 
ATOM     40  N   UNL A   1      40.192  29.055  27.939  1.00  0.00    -0.361 N 
ATOM     41  C   UNL A   1      41.537  29.033  28.218  1.00  0.00     0.046 A 
ATOM     42  C   UNL A   1      43.167  27.472  29.057  1.00  0.00     0.010 A 
ATOM     43  H   UNL A   1      39.678  29.861  27.702  1.00  0.00     0.166 HD
ATOM     44  C   UNL A   1      42.474  30.069  28.201  1.00  0.00     0.026 A 
ATOM     45  C   UNL A   1      44.093  28.521  29.129  1.00  0.00     0.001 A 
ATOM     46  C   UNL A   1      43.757  29.794  28.678  1.00  0.00     0.002 A 
ENDBRANCH  36  37
ENDBRANCH   5  36
ENDBRANCH   1   5
BRANCH   3  47
ATOM     47  C   UNL A   1      43.784  24.649  27.437  1.00  0.00     0.116 C 
BRANCH  47  48
ATOM     48  C   UNL A   1      43.866  23.167  27.805  1.00  0.00     0.023 C 
BRANCH  48  49
ATOM     49  C   UNL A   1      43.214  22.782  29.137  1.00  0.00     0.023 C 
BRANCH  49  50
ATOM     50  C   UNL A   1      43.642  23.615  30.339  1.00  0.00     0.116 C 
BRANCH  50  51
ATOM     51  N   UNL A   1      43.594  22.937  31.620  1.00  0.00    -0.352 N 
ATOM     52  C   UNL A   1      44.076  23.313  32.871  1.00  0.00     0.251 C 
ATOM     53  H   UNL A   1      43.143  22.062  31.603  1.00  0.00     0.163 HD
ATOM     54  O   UNL A   1      44.042  22.511  33.773  1.00  0.00    -0.269 OA
BRANCH  52  55
ATOM     55  C   UNL A   1      44.468  24.730  33.161  1.00  0.00     0.039 A 
ATOM     56  C   UNL A   1      43.898  25.333  34.299  1.00  0.00     0.014 A 
ATOM     57  C   UNL A   1      45.148  25.528  32.252  1.00  0.00     0.014 A 
ATOM     58  C   UNL A   1      43.759  26.717  34.357  1.00  0.00     0.010 A 
ATOM     59  C   UNL A   1      44.906  26.879  32.235  1.00  0.00     0.010 A 
ATOM     60  C   UNL A   1      44.143  27.456  33.248  1.00  0.00    -0.014 A 
BRANCH  60  61
ATOM     61  C   UNL A   1      43.723  28.813  32.961  1.00  0.00     0.031 A 
ATOM     62  C   UNL A   1      42.402  29.052  32.350  1.00  0.00     0.074 A 
ATOM     63  C   UNL A   1      44.474  29.815  33.467  1.00  0.00     0.049 A 
ATOM     64  N   UNL A   1      42.013  30.179  31.870  1.00  0.00    -0.248 NA
ATOM     65  C   UNL A   1      41.409  27.992  32.203  1.00  0.00     0.031 C 
ATOM     66  C   UNL A   1      44.083  31.199  33.709  1.00  0.00     0.029 A 
ATOM     67  N   UNL A   1      45.824  29.819  33.770  1.00  0.00    -0.354 N 
ATOM     68  C   UNL A   1      40.670  30.077  31.576  1.00  0.00     0.074 A 
ATOM     69  C   UNL A   1      40.352  28.682  31.762  1.00  0.00     0.031 C 
ATOM     70  C   UNL A   1      45.192  31.944  33.870  1.00  0.00     0.029 A 
ATOM     71  C   UNL A   1      46.331  31.097  33.547  1.00  0.00     0.049 A 
ATOM     72  H   UNL A   1      46.342  29.045  34.091  1.00  0.00     0.167 HD
ATOM     73  C   UNL A   1      39.965  31.216  31.318  1.00  0.00     0.037 A 
ATOM     74  C   UNL A   1      47.195  31.355  32.515  1.00  0.00     0.037 A 
ATOM     75  C   UNL A   1      40.859  32.373  31.323  1.00  0.00     0.049 A 
ATOM     76  C   UNL A   1      46.615  32.285  31.471  1.00  0.00     0.074 A 
ATOM     77  C   UNL A   1      41.219  33.262  32.323  1.00  0.00     0.029 A 
ATOM     78  N   UNL A   1      41.798  32.515  30.308  1.00  0.00    -0.354 N 
ATOM     79  N   UNL A   1      45.335  32.449  31.268  1.00  0.00    -0.248 NA
ATOM     80  C   UNL A   1      47.432  33.103  30.579  1.00  0.00     0.031 C 
ATOM     81  C   UNL A   1      42.440  33.874  31.940  1.00  0.00     0.029 A 
ATOM     82  C   UNL A   1      42.797  33.388  30.693  1.00  0.00     0.049 A 
ATOM     83  H   UNL A   1      41.757  32.058  29.437  1.00  0.00     0.167 HD
ATOM     84  C   UNL A   1      45.147  33.347  30.253  1.00  0.00     0.074 A 
ATOM     85  C   UNL A   1      46.488  33.738  29.862  1.00  0.00     0.031 C 
ATOM     86  C   UNL A   1      43.906  33.691  29.802  1.00  0.00     0.037 A 
BRANCH  73  87
ATOM     87  C   UNL A   1      38.457  31.325  31.340  1.00  0.00     0.057 A 
ATOM     88  C   UNL A   1      37.735  31.494  30.139  1.00  0.00     0.134 A 
ATOM     89  C   UNL A   1      37.655  31.323  32.495  1.00  0.00     0.134 A 
ATOM     90  F   UNL A   1      38.334  31.426  28.943  1.00  0.00    -0.206 F 
ATOM     91  C   UNL A   1      36.357  31.745  30.103  1.00  0.00     0.040 A 
ATOM     92  C   UNL A   1      36.285  31.622  32.477  1.00  0.00     0.040 A 
ATOM     93  F   UNL A   1      38.143  30.970  33.689  1.00  0.00    -0.206 F 
ATOM     94  C   UNL A   1      35.630  31.847  31.277  1.00  0.00     0.006 A 
ENDBRANCH  73  87
BRANCH  74  95
ATOM     95  C   UNL A   1      48.124  30.231  32.210  1.00  0.00     0.057 A 
ATOM     96  C   UNL A   1      49.208  30.010  33.071  1.00  0.00     0.134 A 
ATOM     97  C   UNL A   1      47.738  29.164  31.391  1.00  0.00     0.134 A 
ATOM     98  F   UNL A   1      49.653  31.002  33.856  1.00  0.00    -0.206 F 
ATOM     99  C   UNL A   1      49.772  28.741  33.239  1.00  0.00     0.040 A 
ATOM    100  C   UNL A   1      48.308  27.892  31.538  1.00  0.00     0.040 A 
ATOM    101  F   UNL A   1      46.713  29.294  30.538  1.00  0.00    -0.206 F 
ATOM    102  C   UNL A   1      49.289  27.666  32.502  1.00  0.00     0.006 A 
ENDBRANCH  74  95
BRANCH  86 103
ATOM    103  C   UNL A   1      43.625  34.406  28.506  1.00  0.00     0.057 A 
ATOM    104  C   UNL A   1      43.897  33.860  27.243  1.00  0.00     0.134 A 
ATOM    105  C   UNL A   1      42.893  35.613  28.496  1.00  0.00     0.134 A 
ATOM    106  F   UNL A   1      44.491  32.666  27.108  1.00  0.00    -0.206 F 
ATOM    107  C   UNL A   1      43.513  34.491  26.055  1.00  0.00     0.040 A 
ATOM    108  C   UNL A   1      42.453  36.222  27.318  1.00  0.00     0.040 A 
ATOM    109  F   UNL A   1      42.544  36.235  29.633  1.00  0.00    -0.206 F 
ATOM    110  C   UNL A   1      42.775  35.668  26.089  1.00  0.00     0.006 A 
ENDBRANCH  86 103
ENDBRANCH  60  61
ENDBRANCH  52  55
ENDBRANCH  50  51
ENDBRANCH  49  50
ENDBRANCH  48  49
ENDBRANCH  47  48
ENDBRANCH   3  47
TORSDOF 20
ENDMDL
