MODEL 1
REMARK VINA RESULT:     -10.5      0.000      0.000
REMARK SMILES C=CC[N@H+](CC(=O)NCCCCNC(=O)c1ccc(-c2c3nc(c(-c4c(F)cccc4F)c4ccc([nH]4)c(-c4c(F)cccc4F)c4nc(c(-c5c(F)cccc5F)c5ccc2[nH]5)C=C4)C=C3)cc1)Cc1ccc([N+](=O)[O-])o1
REMARK SMILES IDX 9 1 8 2 6 3 7 4 5 6 4 7 3 9 2 10 1 11 70 12 71 13 72 14
REMARK SMILES IDX 78 15 73 16 74 17 75 18 76 19 77 20 10 21 11 22 12 23 13 24
REMARK SMILES IDX 14 25 15 27 16 28 17 29 69 30 18 31 68 32 19 33 20 34 21 35
REMARK SMILES IDX 62 36 22 37 67 38 61 39 63 40 23 41 66 42 60 43 59 44 24 46
REMARK SMILES IDX 50 47 33 48 49 49 34 50 37 51 48 52 64 53 35 54 36 55 47 57
REMARK SMILES IDX 65 58 38 59 25 60 26 61 31 62 27 63 28 64 30 65 32 66 29 67
REMARK SMILES IDX 51 68 52 69 57 70 53 71 54 72 56 73 58 74 55 75 39 76 40 77
REMARK SMILES IDX 45 78 41 79 42 80 44 81 46 82 43 83
REMARK H PARENT 8 5 4 8 13 26 63 45 37 56
REMARK Flexibility Score: inf
ROOT
ATOM      1  C   UNL A   1      32.175  27.759  26.525  1.00  0.00     0.116 C 
ENDROOT
BRANCH   1   2
ATOM      2  N   UNL A   1      31.439  26.574  26.920  1.00  0.00    -0.351 N 
ATOM      3  C   UNL A   1      31.368  25.367  26.271  1.00  0.00     0.275 C 
ATOM      4  O   UNL A   1      30.778  24.421  26.799  1.00  0.00    -0.269 OA
ATOM      5  H   UNL A   1      30.927  26.645  27.758  1.00  0.00     0.163 HD
BRANCH   3   6
ATOM      6  C   UNL A   1      32.011  25.229  24.888  1.00  0.00     0.364 C 
BRANCH   6   7
ATOM      7  N   UNL A   1      30.971  25.096  23.850  1.00  0.00    -0.318 N 
ATOM      8  H   UNL A   1      31.306  25.547  22.998  1.00  0.00     0.349 HD
BRANCH   7   9
ATOM      9  C   UNL A   1      30.820  23.739  23.354  1.00  0.00     0.291 C 
BRANCH   9  10
ATOM     10  C   UNL A   1      32.071  22.918  23.237  1.00  0.00     0.025 C 
ATOM     11  C   UNL A   1      33.018  23.057  22.300  1.00  0.00     0.010 C 
ENDBRANCH   9  10
ENDBRANCH   7   9
BRANCH   7  12
ATOM     12  C   UNL A   1      29.789  25.924  24.089  1.00  0.00     0.339 C 
BRANCH  12  13
ATOM     13  C   UNL A   1      29.903  27.277  23.438  1.00  0.00     0.165 A 
ATOM     14  C   UNL A   1      30.974  28.028  22.985  1.00  0.00     0.059 A 
ATOM     15  O   UNL A   1      28.741  27.943  23.160  1.00  0.00    -0.400 OA
ATOM     16  C   UNL A   1      30.435  29.198  22.380  1.00  0.00     0.134 A 
ATOM     17  C   UNL A   1      29.073  29.073  22.499  1.00  0.00     0.433 A 
BRANCH  17  18
ATOM     18  N   UNL A   1      27.989  29.899  22.067  1.00  0.00     0.102 N 
ATOM     19  O   UNL A   1      27.175  30.230  22.941  1.00  0.00    -0.256 OA
ATOM     20  O   UNL A   1      27.924  30.212  20.869  1.00  0.00    -0.256 OA
ENDBRANCH  17  18
ENDBRANCH  12  13
ENDBRANCH   7  12
ENDBRANCH   6   7
ENDBRANCH   3   6
ENDBRANCH   1   2
BRANCH   1  21
ATOM     21  C   UNL A   1      31.809  29.019  27.312  1.00  0.00     0.023 C 
BRANCH  21  22
ATOM     22  C   UNL A   1      31.953  30.344  26.579  1.00  0.00     0.023 C 
BRANCH  22  23
ATOM     23  C   UNL A   1      32.970  31.302  27.165  1.00  0.00     0.116 C 
BRANCH  23  24
ATOM     24  N   UNL A   1      32.444  32.642  27.384  1.00  0.00    -0.352 N 
ATOM     25  C   UNL A   1      33.013  33.659  28.126  1.00  0.00     0.251 C 
ATOM     26  H   UNL A   1      31.583  32.848  26.953  1.00  0.00     0.163 HD
ATOM     27  O   UNL A   1      32.426  34.708  28.322  1.00  0.00    -0.269 OA
BRANCH  25  28
ATOM     28  C   UNL A   1      34.348  33.416  28.715  1.00  0.00     0.039 A 
ATOM     29  C   UNL A   1      34.447  32.702  29.911  1.00  0.00     0.014 A 
ATOM     30  C   UNL A   1      35.492  33.794  28.010  1.00  0.00     0.014 A 
ATOM     31  C   UNL A   1      35.706  32.293  30.361  1.00  0.00     0.010 A 
ATOM     32  C   UNL A   1      36.726  33.301  28.405  1.00  0.00     0.010 A 
ATOM     33  C   UNL A   1      36.849  32.553  29.588  1.00  0.00    -0.014 A 
BRANCH  33  34
ATOM     34  C   UNL A   1      38.206  32.117  30.001  1.00  0.00     0.031 A 
ATOM     35  C   UNL A   1      38.738  30.816  29.465  1.00  0.00     0.074 A 
ATOM     36  C   UNL A   1      38.908  32.812  30.917  1.00  0.00     0.049 A 
ATOM     37  N   UNL A   1      39.781  30.123  29.844  1.00  0.00    -0.248 NA
ATOM     38  C   UNL A   1      37.958  30.185  28.387  1.00  0.00     0.031 C 
ATOM     39  C   UNL A   1      38.494  34.071  31.537  1.00  0.00     0.029 A 
ATOM     40  N   UNL A   1      40.119  32.538  31.502  1.00  0.00    -0.354 N 
ATOM     41  C   UNL A   1      39.752  28.961  29.085  1.00  0.00     0.074 A 
ATOM     42  C   UNL A   1      38.565  29.016  28.262  1.00  0.00     0.031 C 
ATOM     43  C   UNL A   1      39.443  34.470  32.401  1.00  0.00     0.029 A 
ATOM     44  C   UNL A   1      40.508  33.473  32.432  1.00  0.00     0.049 A 
ATOM     45  H   UNL A   1      40.658  31.746  31.278  1.00  0.00     0.167 HD
ATOM     46  C   UNL A   1      40.650  27.949  29.055  1.00  0.00     0.037 A 
ATOM     47  C   UNL A   1      41.596  33.508  33.226  1.00  0.00     0.037 A 
ATOM     48  C   UNL A   1      41.859  27.926  29.829  1.00  0.00     0.049 A 
ATOM     49  C   UNL A   1      42.590  32.380  33.160  1.00  0.00     0.074 A 
ATOM     50  C   UNL A   1      42.857  26.969  29.844  1.00  0.00     0.029 A 
ATOM     51  N   UNL A   1      42.242  28.923  30.713  1.00  0.00    -0.354 N 
ATOM     52  N   UNL A   1      42.564  31.297  32.422  1.00  0.00    -0.248 NA
ATOM     53  C   UNL A   1      43.767  32.480  34.036  1.00  0.00     0.031 C 
ATOM     54  C   UNL A   1      43.840  27.379  30.750  1.00  0.00     0.029 A 
ATOM     55  C   UNL A   1      43.467  28.608  31.272  1.00  0.00     0.049 A 
ATOM     56  H   UNL A   1      41.721  29.733  30.913  1.00  0.00     0.167 HD
ATOM     57  C   UNL A   1      43.736  30.610  32.713  1.00  0.00     0.074 A 
ATOM     58  C   UNL A   1      44.451  31.398  33.694  1.00  0.00     0.031 C 
ATOM     59  C   UNL A   1      44.180  29.432  32.214  1.00  0.00     0.037 A 
BRANCH  46  60
ATOM     60  C   UNL A   1      40.359  26.799  28.137  1.00  0.00     0.057 A 
ATOM     61  C   UNL A   1      40.929  26.716  26.859  1.00  0.00     0.134 A 
ATOM     62  C   UNL A   1      39.510  25.760  28.535  1.00  0.00     0.134 A 
ATOM     63  F   UNL A   1      41.737  27.689  26.411  1.00  0.00    -0.206 F 
ATOM     64  C   UNL A   1      40.642  25.656  26.000  1.00  0.00     0.040 A 
ATOM     65  C   UNL A   1      39.237  24.679  27.695  1.00  0.00     0.040 A 
ATOM     66  F   UNL A   1      38.933  25.776  29.746  1.00  0.00    -0.206 F 
ATOM     67  C   UNL A   1      39.798  24.630  26.420  1.00  0.00     0.006 A 
ENDBRANCH  46  60
BRANCH  47  68
ATOM     68  C   UNL A   1      41.827  34.659  34.136  1.00  0.00     0.057 A 
ATOM     69  C   UNL A   1      42.457  35.821  33.674  1.00  0.00     0.134 A 
ATOM     70  C   UNL A   1      41.456  34.620  35.485  1.00  0.00     0.134 A 
ATOM     71  F   UNL A   1      42.854  35.911  32.396  1.00  0.00    -0.206 F 
ATOM     72  C   UNL A   1      42.734  36.892  34.525  1.00  0.00     0.040 A 
ATOM     73  C   UNL A   1      41.706  35.693  36.342  1.00  0.00     0.040 A 
ATOM     74  F   UNL A   1      40.845  33.538  35.989  1.00  0.00    -0.206 F 
ATOM     75  C   UNL A   1      42.356  36.831  35.865  1.00  0.00     0.006 A 
ENDBRANCH  47  68
BRANCH  59  76
ATOM     76  C   UNL A   1      45.532  28.960  32.654  1.00  0.00     0.057 A 
ATOM     77  C   UNL A   1      45.697  28.110  33.754  1.00  0.00     0.134 A 
ATOM     78  C   UNL A   1      46.674  29.306  31.920  1.00  0.00     0.134 A 
ATOM     79  F   UNL A   1      44.643  27.752  34.502  1.00  0.00    -0.206 F 
ATOM     80  C   UNL A   1      46.957  27.630  34.116  1.00  0.00     0.040 A 
ATOM     81  C   UNL A   1      47.933  28.815  32.259  1.00  0.00     0.040 A 
ATOM     82  F   UNL A   1      46.577  30.110  30.850  1.00  0.00    -0.206 F 
ATOM     83  C   UNL A   1      48.077  27.976  33.363  1.00  0.00     0.006 A 
ENDBRANCH  59  76
ENDBRANCH  33  34
ENDBRANCH  25  28
ENDBRANCH  23  24
ENDBRANCH  22  23
ENDBRANCH  21  22
ENDBRANCH   1  21
TORSDOF 17
ENDMDL
MODEL 2
REMARK VINA RESULT:     -10.4      1.925      2.662
REMARK SMILES C=CC[N@H+](CC(=O)NCCCCNC(=O)c1ccc(-c2c3nc(c(-c4c(F)cccc4F)c4ccc([nH]4)c(-c4c(F)cccc4F)c4nc(c(-c5c(F)cccc5F)c5ccc2[nH]5)C=C4)C=C3)cc1)Cc1ccc([N+](=O)[O-])o1
REMARK SMILES IDX 9 1 8 2 6 3 7 4 5 6 4 7 3 9 2 10 1 11 70 12 71 13 72 14
REMARK SMILES IDX 78 15 73 16 74 17 75 18 76 19 77 20 10 21 11 22 12 23 13 24
REMARK SMILES IDX 14 25 15 27 16 28 17 29 69 30 18 31 68 32 19 33 20 34 21 35
REMARK SMILES IDX 62 36 22 37 67 38 61 39 63 40 23 41 66 42 60 43 59 44 24 46
REMARK SMILES IDX 50 47 33 48 49 49 34 50 37 51 48 52 64 53 35 54 36 55 47 57
REMARK SMILES IDX 65 58 38 59 25 60 26 61 31 62 27 63 28 64 30 65 32 66 29 67
REMARK SMILES IDX 51 68 52 69 57 70 53 71 54 72 56 73 58 74 55 75 39 76 40 77
REMARK SMILES IDX 45 78 41 79 42 80 44 81 46 82 43 83
REMARK H PARENT 8 5 4 8 13 26 63 45 37 56
REMARK Flexibility Score: inf
ROOT
ATOM      1  C   UNL A   1      31.646  29.754  25.500  1.00  0.00     0.116 C 
ENDROOT
BRANCH   1   2
ATOM      2  N   UNL A   1      32.743  28.866  25.171  1.00  0.00    -0.351 N 
ATOM      3  C   UNL A   1      32.689  27.522  24.899  1.00  0.00     0.275 C 
ATOM      4  O   UNL A   1      33.708  26.930  24.532  1.00  0.00    -0.269 OA
ATOM      5  H   UNL A   1      33.636  29.278  25.138  1.00  0.00     0.163 HD
BRANCH   3   6
ATOM      6  C   UNL A   1      31.362  26.780  25.079  1.00  0.00     0.364 C 
BRANCH   6   7
ATOM      7  N   UNL A   1      30.724  26.545  23.769  1.00  0.00    -0.318 N 
ATOM      8  H   UNL A   1      31.217  27.095  23.066  1.00  0.00     0.349 HD
BRANCH   7   9
ATOM      9  C   UNL A   1      30.966  25.215  23.239  1.00  0.00     0.291 C 
BRANCH   9  10
ATOM     10  C   UNL A   1      32.111  25.066  22.280  1.00  0.00     0.025 C 
ATOM     11  C   UNL A   1      32.360  25.855  21.226  1.00  0.00     0.010 C 
ENDBRANCH   9  10
ENDBRANCH   7   9
BRANCH   7  12
ATOM     12  C   UNL A   1      29.401  27.155  23.640  1.00  0.00     0.339 C 
BRANCH  12  13
ATOM     13  C   UNL A   1      29.466  28.523  23.015  1.00  0.00     0.165 A 
ATOM     14  C   UNL A   1      30.298  29.100  22.070  1.00  0.00     0.059 A 
ATOM     15  O   UNL A   1      28.500  29.425  23.369  1.00  0.00    -0.400 OA
ATOM     16  C   UNL A   1      29.800  30.410  21.821  1.00  0.00     0.134 A 
ATOM     17  C   UNL A   1      28.693  30.536  22.625  1.00  0.00     0.433 A 
BRANCH  17  18
ATOM     18  N   UNL A   1      27.752  31.595  22.807  1.00  0.00     0.102 N 
ATOM     19  O   UNL A   1      27.770  32.494  21.953  1.00  0.00    -0.256 OA
ATOM     20  O   UNL A   1      27.002  31.558  23.794  1.00  0.00    -0.256 OA
ENDBRANCH  17  18
ENDBRANCH  12  13
ENDBRANCH   7  12
ENDBRANCH   6   7
ENDBRANCH   3   6
ENDBRANCH   1   2
BRANCH   1  21
ATOM     21  C   UNL A   1      31.792  30.464  26.848  1.00  0.00     0.023 C 
BRANCH  21  22
ATOM     22  C   UNL A   1      31.439  31.942  26.881  1.00  0.00     0.023 C 
BRANCH  22  23
ATOM     23  C   UNL A   1      32.619  32.891  26.905  1.00  0.00     0.116 C 
BRANCH  23  24
ATOM     24  N   UNL A   1      32.348  34.137  27.608  1.00  0.00    -0.352 N 
ATOM     25  C   UNL A   1      33.058  34.682  28.660  1.00  0.00     0.251 C 
ATOM     26  H   UNL A   1      31.567  34.651  27.297  1.00  0.00     0.163 HD
ATOM     27  O   UNL A   1      32.672  35.683  29.237  1.00  0.00    -0.269 OA
BRANCH  25  28
ATOM     28  C   UNL A   1      34.286  33.983  29.096  1.00  0.00     0.039 A 
ATOM     29  C   UNL A   1      35.532  34.484  28.712  1.00  0.00     0.014 A 
ATOM     30  C   UNL A   1      34.189  32.910  29.984  1.00  0.00     0.014 A 
ATOM     31  C   UNL A   1      36.689  33.954  29.288  1.00  0.00     0.010 A 
ATOM     32  C   UNL A   1      35.331  32.456  30.627  1.00  0.00     0.010 A 
ATOM     33  C   UNL A   1      36.593  32.966  30.281  1.00  0.00    -0.014 A 
BRANCH  33  34
ATOM     34  C   UNL A   1      37.787  32.388  30.948  1.00  0.00     0.031 A 
ATOM     35  C   UNL A   1      38.530  31.277  30.258  1.00  0.00     0.074 A 
ATOM     36  C   UNL A   1      38.140  32.773  32.190  1.00  0.00     0.049 A 
ATOM     37  N   UNL A   1      39.448  30.473  30.727  1.00  0.00    -0.248 NA
ATOM     38  C   UNL A   1      38.147  31.002  28.862  1.00  0.00     0.031 C 
ATOM     39  C   UNL A   1      37.487  33.816  32.981  1.00  0.00     0.029 A 
ATOM     40  N   UNL A   1      39.133  32.305  33.015  1.00  0.00    -0.354 N 
ATOM     41  C   UNL A   1      39.716  29.575  29.702  1.00  0.00     0.074 A 
ATOM     42  C   UNL A   1      38.829  29.898  28.607  1.00  0.00     0.031 C 
ATOM     43  C   UNL A   1      38.108  33.923  34.167  1.00  0.00     0.029 A 
ATOM     44  C   UNL A   1      39.171  32.927  34.241  1.00  0.00     0.049 A 
ATOM     45  H   UNL A   1      39.760  31.593  32.753  1.00  0.00     0.167 HD
ATOM     46  C   UNL A   1      40.638  28.586  29.664  1.00  0.00     0.037 A 
ATOM     47  C   UNL A   1      39.966  32.700  35.305  1.00  0.00     0.037 A 
ATOM     48  C   UNL A   1      41.558  28.305  30.731  1.00  0.00     0.049 A 
ATOM     49  C   UNL A   1      40.997  31.607  35.232  1.00  0.00     0.074 A 
ATOM     50  C   UNL A   1      42.559  27.352  30.781  1.00  0.00     0.029 A 
ATOM     51  N   UNL A   1      41.600  28.998  31.931  1.00  0.00    -0.354 N 
ATOM     52  N   UNL A   1      41.256  30.778  34.249  1.00  0.00    -0.248 NA
ATOM     53  C   UNL A   1      41.849  31.417  36.416  1.00  0.00     0.031 C 
ATOM     54  C   UNL A   1      43.199  27.458  32.019  1.00  0.00     0.029 A 
ATOM     55  C   UNL A   1      42.617  28.500  32.725  1.00  0.00     0.049 A 
ATOM     56  H   UNL A   1      40.997  29.734  32.181  1.00  0.00     0.167 HD
ATOM     57  C   UNL A   1      42.324  30.001  34.679  1.00  0.00     0.074 A 
ATOM     58  C   UNL A   1      42.665  30.455  36.010  1.00  0.00     0.031 C 
ATOM     59  C   UNL A   1      42.965  28.999  34.030  1.00  0.00     0.037 A 
BRANCH  46  60
ATOM     60  C   UNL A   1      40.703  27.753  28.419  1.00  0.00     0.057 A 
ATOM     61  C   UNL A   1      39.988  26.554  28.297  1.00  0.00     0.134 A 
ATOM     62  C   UNL A   1      41.481  28.155  27.326  1.00  0.00     0.134 A 
ATOM     63  F   UNL A   1      39.239  26.104  29.316  1.00  0.00    -0.206 F 
ATOM     64  C   UNL A   1      40.066  25.771  27.146  1.00  0.00     0.040 A 
ATOM     65  C   UNL A   1      41.545  27.395  26.158  1.00  0.00     0.040 A 
ATOM     66  F   UNL A   1      42.189  29.293  27.375  1.00  0.00    -0.206 F 
ATOM     67  C   UNL A   1      40.842  26.194  26.069  1.00  0.00     0.006 A 
ENDBRANCH  46  60
BRANCH  47  68
ATOM     68  C   UNL A   1      39.846  33.538  36.525  1.00  0.00     0.057 A 
ATOM     69  C   UNL A   1      40.605  34.705  36.670  1.00  0.00     0.134 A 
ATOM     70  C   UNL A   1      39.002  33.184  37.584  1.00  0.00     0.134 A 
ATOM     71  F   UNL A   1      41.448  35.086  35.698  1.00  0.00    -0.206 F 
ATOM     72  C   UNL A   1      40.550  35.477  37.831  1.00  0.00     0.040 A 
ATOM     73  C   UNL A   1      38.919  33.959  38.742  1.00  0.00     0.040 A 
ATOM     74  F   UNL A   1      38.245  32.080  37.507  1.00  0.00    -0.206 F 
ATOM     75  C   UNL A   1      39.703  35.105  38.872  1.00  0.00     0.006 A 
ENDBRANCH  47  68
BRANCH  59  76
ATOM     76  C   UNL A   1      44.147  28.379  34.710  1.00  0.00     0.057 A 
ATOM     77  C   UNL A   1      45.441  28.889  34.558  1.00  0.00     0.134 A 
ATOM     78  C   UNL A   1      43.970  27.299  35.585  1.00  0.00     0.134 A 
ATOM     79  F   UNL A   1      45.674  29.915  33.726  1.00  0.00    -0.206 F 
ATOM     80  C   UNL A   1      46.523  28.339  35.246  1.00  0.00     0.040 A 
ATOM     81  C   UNL A   1      45.040  26.755  36.293  1.00  0.00     0.040 A 
ATOM     82  F   UNL A   1      42.752  26.772  35.779  1.00  0.00    -0.206 F 
ATOM     83  C   UNL A   1      46.322  27.274  36.123  1.00  0.00     0.006 A 
ENDBRANCH  59  76
ENDBRANCH  33  34
ENDBRANCH  25  28
ENDBRANCH  23  24
ENDBRANCH  22  23
ENDBRANCH  21  22
ENDBRANCH   1  21
TORSDOF 17
ENDMDL
MODEL 3
REMARK VINA RESULT:     -10.3      3.576      8.006
REMARK SMILES C=CC[N@H+](CC(=O)NCCCCNC(=O)c1ccc(-c2c3nc(c(-c4c(F)cccc4F)c4ccc([nH]4)c(-c4c(F)cccc4F)c4nc(c(-c5c(F)cccc5F)c5ccc2[nH]5)C=C4)C=C3)cc1)Cc1ccc([N+](=O)[O-])o1
REMARK SMILES IDX 9 1 8 2 6 3 7 4 5 6 4 7 3 9 2 10 1 11 70 12 71 13 72 14
REMARK SMILES IDX 78 15 73 16 74 17 75 18 76 19 77 20 10 21 11 22 12 23 13 24
REMARK SMILES IDX 14 25 15 27 16 28 17 29 69 30 18 31 68 32 19 33 20 34 21 35
REMARK SMILES IDX 62 36 22 37 67 38 61 39 63 40 23 41 66 42 60 43 59 44 24 46
REMARK SMILES IDX 50 47 33 48 49 49 34 50 37 51 48 52 64 53 35 54 36 55 47 57
REMARK SMILES IDX 65 58 38 59 25 60 26 61 31 62 27 63 28 64 30 65 32 66 29 67
REMARK SMILES IDX 51 68 52 69 57 70 53 71 54 72 56 73 58 74 55 75 39 76 40 77
REMARK SMILES IDX 45 78 41 79 42 80 44 81 46 82 43 83
REMARK H PARENT 8 5 4 8 13 26 63 45 37 56
REMARK Flexibility Score: inf
ROOT
ATOM      1  C   UNL A   1      38.171  22.713  26.167  1.00  0.00     0.116 C 
ENDROOT
BRANCH   1   2
ATOM      2  N   UNL A   1      37.617  22.914  24.843  1.00  0.00    -0.351 N 
ATOM      3  C   UNL A   1      36.607  22.210  24.233  1.00  0.00     0.275 C 
ATOM      4  O   UNL A   1      36.180  22.578  23.136  1.00  0.00    -0.269 OA
ATOM      5  H   UNL A   1      38.012  23.646  24.317  1.00  0.00     0.163 HD
BRANCH   3   6
ATOM      6  C   UNL A   1      36.048  20.964  24.925  1.00  0.00     0.364 C 
BRANCH   6   7
ATOM      7  N   UNL A   1      34.605  21.126  25.186  1.00  0.00    -0.318 N 
ATOM      8  H   UNL A   1      34.254  21.886  24.601  1.00  0.00     0.349 HD
BRANCH   7   9
ATOM      9  C   UNL A   1      33.798  20.037  24.664  1.00  0.00     0.291 C 
BRANCH   9  10
ATOM     10  C   UNL A   1      32.621  20.414  23.812  1.00  0.00     0.025 C 
ATOM     11  C   UNL A   1      32.403  21.616  23.261  1.00  0.00     0.010 C 
ENDBRANCH   9  10
ENDBRANCH   7   9
BRANCH   7  12
ATOM     12  C   UNL A   1      34.302  21.699  26.497  1.00  0.00     0.339 C 
BRANCH  12  13
ATOM     13  C   UNL A   1      33.460  22.943  26.393  1.00  0.00     0.165 A 
ATOM     14  C   UNL A   1      33.692  24.211  25.887  1.00  0.00     0.059 A 
ATOM     15  O   UNL A   1      32.163  22.864  26.823  1.00  0.00    -0.400 OA
ATOM     16  C   UNL A   1      32.470  24.931  25.994  1.00  0.00     0.134 A 
ATOM     17  C   UNL A   1      31.576  24.049  26.549  1.00  0.00     0.433 A 
BRANCH  17  18
ATOM     18  N   UNL A   1      30.189  24.162  26.878  1.00  0.00     0.102 N 
ATOM     19  O   UNL A   1      29.700  23.216  27.511  1.00  0.00    -0.256 OA
ATOM     20  O   UNL A   1      29.573  25.171  26.504  1.00  0.00    -0.256 OA
ENDBRANCH  17  18
ENDBRANCH  12  13
ENDBRANCH   7  12
ENDBRANCH   6   7
ENDBRANCH   3   6
ENDBRANCH   1   2
BRANCH   1  21
ATOM     21  C   UNL A   1      39.536  22.021  26.180  1.00  0.00     0.023 C 
BRANCH  21  22
ATOM     22  C   UNL A   1      40.404  22.250  27.407  1.00  0.00     0.023 C 
BRANCH  22  23
ATOM     23  C   UNL A   1      41.648  23.082  27.175  1.00  0.00     0.116 C 
BRANCH  23  24
ATOM     24  N   UNL A   1      41.545  23.972  26.028  1.00  0.00    -0.352 N 
ATOM     25  C   UNL A   1      41.322  25.335  26.036  1.00  0.00     0.251 C 
ATOM     26  H   UNL A   1      41.646  23.553  25.142  1.00  0.00     0.163 HD
ATOM     27  O   UNL A   1      41.152  25.958  25.004  1.00  0.00    -0.269 OA
BRANCH  25  28
ATOM     28  C   UNL A   1      41.252  26.012  27.349  1.00  0.00     0.039 A 
ATOM     29  C   UNL A   1      42.313  26.822  27.759  1.00  0.00     0.014 A 
ATOM     30  C   UNL A   1      40.080  25.932  28.104  1.00  0.00     0.014 A 
ATOM     31  C   UNL A   1      42.164  27.622  28.895  1.00  0.00     0.010 A 
ATOM     32  C   UNL A   1      39.899  26.801  29.169  1.00  0.00     0.010 A 
ATOM     33  C   UNL A   1      40.940  27.649  29.582  1.00  0.00    -0.014 A 
BRANCH  33  34
ATOM     34  C   UNL A   1      40.715  28.501  30.776  1.00  0.00     0.031 A 
ATOM     35  C   UNL A   1      39.646  29.559  30.715  1.00  0.00     0.074 A 
ATOM     36  C   UNL A   1      41.515  28.406  31.855  1.00  0.00     0.049 A 
ATOM     37  N   UNL A   1      39.415  30.556  31.528  1.00  0.00    -0.248 NA
ATOM     38  C   UNL A   1      38.748  29.514  29.548  1.00  0.00     0.031 C 
ATOM     39  C   UNL A   1      42.605  27.446  32.031  1.00  0.00     0.029 A 
ATOM     40  N   UNL A   1      41.543  29.153  33.008  1.00  0.00    -0.354 N 
ATOM     41  C   UNL A   1      38.379  31.278  30.947  1.00  0.00     0.074 A 
ATOM     42  C   UNL A   1      38.063  30.636  29.691  1.00  0.00     0.031 C 
ATOM     43  C   UNL A   1      43.183  27.649  33.227  1.00  0.00     0.029 A 
ATOM     44  C   UNL A   1      42.537  28.780  33.883  1.00  0.00     0.049 A 
ATOM     45  H   UNL A   1      40.912  29.885  33.191  1.00  0.00     0.167 HD
ATOM     46  C   UNL A   1      37.730  32.362  31.430  1.00  0.00     0.037 A 
ATOM     47  C   UNL A   1      42.890  29.309  35.071  1.00  0.00     0.037 A 
ATOM     48  C   UNL A   1      38.007  32.960  32.706  1.00  0.00     0.049 A 
ATOM     49  C   UNL A   1      42.140  30.503  35.596  1.00  0.00     0.074 A 
ATOM     50  C   UNL A   1      37.382  34.037  33.309  1.00  0.00     0.029 A 
ATOM     51  N   UNL A   1      38.982  32.515  33.585  1.00  0.00    -0.354 N 
ATOM     52  N   UNL A   1      41.148  31.163  35.048  1.00  0.00    -0.248 NA
ATOM     53  C   UNL A   1      42.557  31.026  36.906  1.00  0.00     0.031 C 
ATOM     54  C   UNL A   1      37.989  34.252  34.550  1.00  0.00     0.029 A 
ATOM     55  C   UNL A   1      38.969  33.288  34.731  1.00  0.00     0.049 A 
ATOM     56  H   UNL A   1      39.592  31.760  33.419  1.00  0.00     0.167 HD
ATOM     57  C   UNL A   1      40.797  32.149  35.962  1.00  0.00     0.074 A 
ATOM     58  C   UNL A   1      41.680  32.001  37.099  1.00  0.00     0.031 C 
ATOM     59  C   UNL A   1      39.830  33.093  35.869  1.00  0.00     0.037 A 
BRANCH  46  60
ATOM     60  C   UNL A   1      36.646  32.951  30.577  1.00  0.00     0.057 A 
ATOM     61  C   UNL A   1      36.937  33.788  29.492  1.00  0.00     0.134 A 
ATOM     62  C   UNL A   1      35.299  32.672  30.837  1.00  0.00     0.134 A 
ATOM     63  F   UNL A   1      38.207  34.108  29.202  1.00  0.00    -0.206 F 
ATOM     64  C   UNL A   1      35.926  34.351  28.713  1.00  0.00     0.040 A 
ATOM     65  C   UNL A   1      34.279  33.206  30.047  1.00  0.00     0.040 A 
ATOM     66  F   UNL A   1      34.951  31.877  31.859  1.00  0.00    -0.206 F 
ATOM     67  C   UNL A   1      34.592  34.055  28.987  1.00  0.00     0.006 A 
ENDBRANCH  46  60
BRANCH  47  68
ATOM     68  C   UNL A   1      43.988  28.703  35.867  1.00  0.00     0.057 A 
ATOM     69  C   UNL A   1      43.729  27.662  36.767  1.00  0.00     0.134 A 
ATOM     70  C   UNL A   1      45.306  29.162  35.775  1.00  0.00     0.134 A 
ATOM     71  F   UNL A   1      42.481  27.193  36.915  1.00  0.00    -0.206 F 
ATOM     72  C   UNL A   1      44.735  27.116  37.566  1.00  0.00     0.040 A 
ATOM     73  C   UNL A   1      46.327  28.609  36.552  1.00  0.00     0.040 A 
ATOM     74  F   UNL A   1      45.622  30.153  34.929  1.00  0.00    -0.206 F 
ATOM     75  C   UNL A   1      46.040  27.589  37.458  1.00  0.00     0.006 A 
ENDBRANCH  47  68
BRANCH  59  76
ATOM     76  C   UNL A   1      39.619  33.987  37.052  1.00  0.00     0.057 A 
ATOM     77  C   UNL A   1      40.167  35.273  37.115  1.00  0.00     0.134 A 
ATOM     78  C   UNL A   1      38.797  33.576  38.109  1.00  0.00     0.134 A 
ATOM     79  F   UNL A   1      40.970  35.719  36.138  1.00  0.00    -0.206 F 
ATOM     80  C   UNL A   1      39.912  36.117  38.196  1.00  0.00     0.040 A 
ATOM     81  C   UNL A   1      38.518  34.418  39.184  1.00  0.00     0.040 A 
ATOM     82  F   UNL A   1      38.236  32.357  38.101  1.00  0.00    -0.206 F 
ATOM     83  C   UNL A   1      39.079  35.693  39.230  1.00  0.00     0.006 A 
ENDBRANCH  59  76
ENDBRANCH  33  34
ENDBRANCH  25  28
ENDBRANCH  23  24
ENDBRANCH  22  23
ENDBRANCH  21  22
ENDBRANCH   1  21
TORSDOF 17
ENDMDL
