MODEL 1
REMARK VINA RESULT:     -11.9      0.000      0.000
REMARK SMILES CC[C@@](C)(NC(=O)/C=C/c1cccc(F)c1)C(=O)NCCCCNC(=O)c1ccc(-c2c3nc(c(-c4c(F)cccc4F)c4ccc([nH]4)c(-c4c(F)cccc4F)c4nc(c(-c5c(F)cccc5F)c5ccc2[nH]5)C=C4)C=C3)cc1
REMARK SMILES IDX 21 1 20 2 19 3 17 4 18 5 3 7 4 8 2 9 1 10 5 11 6 12 7 14
REMARK SMILES IDX 8 15 9 16 10 17 11 18 16 19 12 20 14 21 13 22 15 23 22 24
REMARK SMILES IDX 23 25 24 26 25 27 26 29 27 30 28 31 80 32 29 33 79 34 30 35
REMARK SMILES IDX 31 36 32 37 73 38 33 39 78 40 72 41 74 42 34 43 77 44 71 45
REMARK SMILES IDX 70 46 35 48 61 49 44 50 60 51 45 52 48 53 59 54 75 55 46 56
REMARK SMILES IDX 47 57 58 59 76 60 49 61 36 62 37 63 42 64 38 65 39 66 41 67
REMARK SMILES IDX 43 68 40 69 62 70 63 71 68 72 64 73 65 74 67 75 69 76 66 77
REMARK SMILES IDX 50 78 51 79 56 80 52 81 53 82 55 83 57 84 54 85
REMARK H PARENT 19 6 5 13 24 28 74 47 48 58
REMARK Flexibility Score: inf
ROOT
ATOM      1  C   UNL A   1      31.450  30.673  26.636  1.00  0.00     0.023 C 
ENDROOT
BRANCH   1   2
ATOM      2  C   UNL A   1      32.786  29.936  26.727  1.00  0.00     0.116 C 
BRANCH   2   3
ATOM      3  N   UNL A   1      33.505  29.752  25.477  1.00  0.00    -0.354 N 
ATOM      4  C   UNL A   1      33.459  28.756  24.538  1.00  0.00     0.245 C 
ATOM      5  O   UNL A   1      33.887  29.052  23.418  1.00  0.00    -0.272 OA
ATOM      6  H   UNL A   1      34.141  30.474  25.267  1.00  0.00     0.163 HD
BRANCH   4   7
ATOM      7  C   UNL A   1      32.760  27.391  24.807  1.00  0.00     0.116 C 
ATOM      8  C   UNL A   1      33.773  26.594  25.669  1.00  0.00     0.045 C 
BRANCH   7   9
ATOM      9  C   UNL A   1      31.419  27.432  25.601  1.00  0.00     0.035 C 
ATOM     10  C   UNL A   1      30.893  26.141  26.208  1.00  0.00     0.007 C 
ENDBRANCH   7   9
BRANCH   7  11
ATOM     11  N   UNL A   1      32.475  26.657  23.552  1.00  0.00    -0.338 N 
ATOM     12  C   UNL A   1      31.447  26.773  22.659  1.00  0.00     0.244 C 
ATOM     13  H   UNL A   1      33.141  25.970  23.321  1.00  0.00     0.164 HD
ATOM     14  O   UNL A   1      31.227  25.830  21.897  1.00  0.00    -0.270 OA
BRANCH  12  15
ATOM     15  C   UNL A   1      30.767  28.070  22.391  1.00  0.00     0.072 C 
ATOM     16  C   UNL A   1      29.524  28.465  22.698  1.00  0.00     0.014 C 
BRANCH  16  17
ATOM     17  C   UNL A   1      29.096  29.868  22.576  1.00  0.00    -0.023 A 
ATOM     18  C   UNL A   1      29.222  30.796  23.613  1.00  0.00     0.008 A 
ATOM     19  C   UNL A   1      28.534  30.285  21.361  1.00  0.00     0.047 A 
ATOM     20  C   UNL A   1      28.794  32.119  23.433  1.00  0.00     0.004 A 
ATOM     21  C   UNL A   1      28.093  31.592  21.200  1.00  0.00     0.123 A 
ATOM     22  C   UNL A   1      28.223  32.517  22.224  1.00  0.00     0.039 A 
ATOM     23  F   UNL A   1      27.530  31.958  20.041  1.00  0.00    -0.207 F 
ENDBRANCH  16  17
ENDBRANCH  12  15
ENDBRANCH   7  11
ENDBRANCH   4   7
ENDBRANCH   2   3
ENDBRANCH   1   2
BRANCH   1  24
ATOM     24  C   UNL A   1      31.509  32.195  26.546  1.00  0.00     0.023 C 
BRANCH  24  25
ATOM     25  C   UNL A   1      32.697  32.844  27.237  1.00  0.00     0.116 C 
BRANCH  25  26
ATOM     26  N   UNL A   1      32.428  34.212  27.646  1.00  0.00    -0.352 N 
ATOM     27  C   UNL A   1      33.010  34.964  28.636  1.00  0.00     0.251 C 
ATOM     28  H   UNL A   1      31.721  34.669  27.135  1.00  0.00     0.163 HD
ATOM     29  O   UNL A   1      32.531  36.052  28.935  1.00  0.00    -0.269 OA
BRANCH  27  30
ATOM     30  C   UNL A   1      34.195  34.453  29.357  1.00  0.00     0.039 A 
ATOM     31  C   UNL A   1      34.010  33.855  30.607  1.00  0.00     0.014 A 
ATOM     32  C   UNL A   1      35.477  34.566  28.816  1.00  0.00     0.014 A 
ATOM     33  C   UNL A   1      35.106  33.319  31.285  1.00  0.00     0.010 A 
ATOM     34  C   UNL A   1      36.554  33.954  29.449  1.00  0.00     0.010 A 
ATOM     35  C   UNL A   1      36.381  33.332  30.695  1.00  0.00    -0.014 A 
BRANCH  35  36
ATOM     36  C   UNL A   1      37.545  32.704  31.367  1.00  0.00     0.031 A 
ATOM     37  C   UNL A   1      38.218  31.510  30.750  1.00  0.00     0.074 A 
ATOM     38  C   UNL A   1      37.961  33.179  32.557  1.00  0.00     0.049 A 
ATOM     39  N   UNL A   1      39.205  30.789  31.217  1.00  0.00    -0.248 NA
ATOM     40  C   UNL A   1      37.704  31.052  29.450  1.00  0.00     0.031 C 
ATOM     41  C   UNL A   1      37.363  34.307  33.273  1.00  0.00     0.029 A 
ATOM     42  N   UNL A   1      38.982  32.770  33.377  1.00  0.00    -0.354 N 
ATOM     43  C   UNL A   1      39.422  29.792  30.274  1.00  0.00     0.074 A 
ATOM     44  C   UNL A   1      38.429  29.962  29.238  1.00  0.00     0.031 C 
ATOM     45  C   UNL A   1      38.046  34.520  34.408  1.00  0.00     0.029 A 
ATOM     46  C   UNL A   1      39.100  33.516  34.525  1.00  0.00     0.049 A 
ATOM     47  H   UNL A   1      39.574  32.013  33.164  1.00  0.00     0.167 HD
ATOM     48  C   UNL A   1      40.383  28.838  30.261  1.00  0.00     0.037 A 
ATOM     49  C   UNL A   1      39.953  33.400  35.561  1.00  0.00     0.037 A 
ATOM     50  C   UNL A   1      41.383  28.688  31.284  1.00  0.00     0.049 A 
ATOM     51  C   UNL A   1      40.995  32.317  35.534  1.00  0.00     0.074 A 
ATOM     52  C   UNL A   1      42.427  27.781  31.335  1.00  0.00     0.029 A 
ATOM     53  N   UNL A   1      41.467  29.463  32.430  1.00  0.00    -0.354 N 
ATOM     54  N   UNL A   1      41.221  31.413  34.611  1.00  0.00    -0.248 NA
ATOM     55  C   UNL A   1      41.904  32.237  36.687  1.00  0.00     0.031 C 
ATOM     56  C   UNL A   1      43.110  27.971  32.539  1.00  0.00     0.029 A 
ATOM     57  C   UNL A   1      42.530  29.037  33.208  1.00  0.00     0.049 A 
ATOM     58  H   UNL A   1      40.860  30.204  32.658  1.00  0.00     0.167 HD
ATOM     59  C   UNL A   1      42.309  30.675  35.058  1.00  0.00     0.074 A 
ATOM     60  C   UNL A   1      42.707  31.244  36.328  1.00  0.00     0.031 C 
ATOM     61  C   UNL A   1      42.921  29.619  34.467  1.00  0.00     0.037 A 
BRANCH  48  62
ATOM     62  C   UNL A   1      40.416  27.891  29.097  1.00  0.00     0.057 A 
ATOM     63  C   UNL A   1      41.186  28.178  27.963  1.00  0.00     0.134 A 
ATOM     64  C   UNL A   1      39.624  26.736  29.065  1.00  0.00     0.134 A 
ATOM     65  F   UNL A   1      41.963  29.270  27.923  1.00  0.00    -0.206 F 
ATOM     66  C   UNL A   1      41.151  27.360  26.831  1.00  0.00     0.040 A 
ATOM     67  C   UNL A   1      39.602  25.895  27.951  1.00  0.00     0.040 A 
ATOM     68  F   UNL A   1      38.872  26.398  30.123  1.00  0.00    -0.206 F 
ATOM     69  C   UNL A   1      40.359  26.214  26.825  1.00  0.00     0.006 A 
ENDBRANCH  48  62
BRANCH  49  70
ATOM     70  C   UNL A   1      39.871  34.357  36.694  1.00  0.00     0.057 A 
ATOM     71  C   UNL A   1      39.132  34.064  37.848  1.00  0.00     0.134 A 
ATOM     72  C   UNL A   1      40.507  35.602  36.636  1.00  0.00     0.134 A 
ATOM     73  F   UNL A   1      38.491  32.893  37.963  1.00  0.00    -0.206 F 
ATOM     74  C   UNL A   1      39.016  34.981  38.894  1.00  0.00     0.040 A 
ATOM     75  C   UNL A   1      40.422  36.518  37.685  1.00  0.00     0.040 A 
ATOM     76  F   UNL A   1      41.243  35.934  35.564  1.00  0.00    -0.206 F 
ATOM     77  C   UNL A   1      39.666  36.211  38.816  1.00  0.00     0.006 A 
ENDBRANCH  49  70
BRANCH  61  78
ATOM     78  C   UNL A   1      44.105  29.016  35.167  1.00  0.00     0.057 A 
ATOM     79  C   UNL A   1      45.405  29.436  34.853  1.00  0.00     0.134 A 
ATOM     80  C   UNL A   1      43.966  27.961  36.075  1.00  0.00     0.134 A 
ATOM     81  F   UNL A   1      45.608  30.434  33.980  1.00  0.00    -0.206 F 
ATOM     82  C   UNL A   1      46.525  28.813  35.405  1.00  0.00     0.040 A 
ATOM     83  C   UNL A   1      45.079  27.350  36.656  1.00  0.00     0.040 A 
ATOM     84  F   UNL A   1      42.749  27.519  36.424  1.00  0.00    -0.206 F 
ATOM     85  C   UNL A   1      46.363  27.768  36.310  1.00  0.00     0.006 A 
ENDBRANCH  61  78
ENDBRANCH  35  36
ENDBRANCH  27  30
ENDBRANCH  25  26
ENDBRANCH  24  25
ENDBRANCH   1  24
TORSDOF 15
ENDMDL
MODEL 2
REMARK VINA RESULT:     -11.8      5.127      9.392
REMARK SMILES CC[C@@](C)(NC(=O)/C=C/c1cccc(F)c1)C(=O)NCCCCNC(=O)c1ccc(-c2c3nc(c(-c4c(F)cccc4F)c4ccc([nH]4)c(-c4c(F)cccc4F)c4nc(c(-c5c(F)cccc5F)c5ccc2[nH]5)C=C4)C=C3)cc1
REMARK SMILES IDX 21 1 20 2 19 3 17 4 18 5 3 7 4 8 2 9 1 10 5 11 6 12 7 14
REMARK SMILES IDX 8 15 9 16 10 17 11 18 16 19 12 20 14 21 13 22 15 23 22 24
REMARK SMILES IDX 23 25 24 26 25 27 26 29 27 30 28 31 80 32 29 33 79 34 30 35
REMARK SMILES IDX 31 36 32 37 73 38 33 39 78 40 72 41 74 42 34 43 77 44 71 45
REMARK SMILES IDX 70 46 35 48 61 49 44 50 60 51 45 52 48 53 59 54 75 55 46 56
REMARK SMILES IDX 47 57 58 59 76 60 49 61 36 62 37 63 42 64 38 65 39 66 41 67
REMARK SMILES IDX 43 68 40 69 62 70 63 71 68 72 64 73 65 74 67 75 69 76 66 77
REMARK SMILES IDX 50 78 51 79 56 80 52 81 53 82 55 83 57 84 54 85
REMARK H PARENT 19 6 5 13 24 28 74 47 48 58
REMARK Flexibility Score: inf
ROOT
ATOM      1  C   UNL A   1      36.345  20.096  25.016  1.00  0.00     0.023 C 
ENDROOT
BRANCH   1   2
ATOM      2  C   UNL A   1      35.946  21.557  25.221  1.00  0.00     0.116 C 
BRANCH   2   3
ATOM      3  N   UNL A   1      35.238  21.864  26.453  1.00  0.00    -0.354 N 
ATOM      4  C   UNL A   1      33.910  21.796  26.782  1.00  0.00     0.245 C 
ATOM      5  O   UNL A   1      33.655  21.748  27.989  1.00  0.00    -0.272 OA
ATOM      6  H   UNL A   1      35.817  22.178  27.184  1.00  0.00     0.163 HD
BRANCH   4   7
ATOM      7  C   UNL A   1      32.795  21.618  25.709  1.00  0.00     0.116 C 
ATOM      8  C   UNL A   1      33.234  22.529  24.533  1.00  0.00     0.045 C 
BRANCH   7   9
ATOM      9  C   UNL A   1      32.601  20.185  25.127  1.00  0.00     0.035 C 
ATOM     10  C   UNL A   1      32.529  20.016  23.617  1.00  0.00     0.007 C 
ENDBRANCH   7   9
BRANCH   7  11
ATOM     11  N   UNL A   1      31.468  22.044  26.212  1.00  0.00    -0.338 N 
ATOM     12  C   UNL A   1      31.070  23.196  26.829  1.00  0.00     0.244 C 
ATOM     13  H   UNL A   1      30.750  21.384  26.078  1.00  0.00     0.164 HD
ATOM     14  O   UNL A   1      30.021  23.181  27.473  1.00  0.00    -0.270 OA
BRANCH  12  15
ATOM     15  C   UNL A   1      31.700  24.514  26.537  1.00  0.00     0.072 C 
ATOM     16  C   UNL A   1      31.128  25.704  26.306  1.00  0.00     0.014 C 
BRANCH  16  17
ATOM     17  C   UNL A   1      31.906  26.953  26.277  1.00  0.00    -0.023 A 
ATOM     18  C   UNL A   1      31.783  27.951  27.249  1.00  0.00     0.008 A 
ATOM     19  C   UNL A   1      32.809  27.147  25.223  1.00  0.00     0.047 A 
ATOM     20  C   UNL A   1      32.553  29.119  27.164  1.00  0.00     0.004 A 
ATOM     21  C   UNL A   1      33.552  28.317  25.136  1.00  0.00     0.123 A 
ATOM     22  C   UNL A   1      33.437  29.305  26.101  1.00  0.00     0.039 A 
ATOM     23  F   UNL A   1      34.385  28.492  24.101  1.00  0.00    -0.207 F 
ENDBRANCH  16  17
ENDBRANCH  12  15
ENDBRANCH   7  11
ENDBRANCH   4   7
ENDBRANCH   2   3
ENDBRANCH   1   2
BRANCH   1  24
ATOM     24  C   UNL A   1      37.803  19.826  24.657  1.00  0.00     0.023 C 
BRANCH  24  25
ATOM     25  C   UNL A   1      38.815  20.170  25.737  1.00  0.00     0.116 C 
BRANCH  25  26
ATOM     26  N   UNL A   1      39.937  19.247  25.767  1.00  0.00    -0.352 N 
ATOM     27  C   UNL A   1      41.256  19.476  26.072  1.00  0.00     0.251 C 
ATOM     28  H   UNL A   1      39.718  18.317  25.532  1.00  0.00     0.163 HD
ATOM     29  O   UNL A   1      42.086  18.595  25.884  1.00  0.00    -0.269 OA
BRANCH  27  30
ATOM     30  C   UNL A   1      41.677  20.790  26.605  1.00  0.00     0.039 A 
ATOM     31  C   UNL A   1      42.165  21.747  25.711  1.00  0.00     0.014 A 
ATOM     32  C   UNL A   1      41.601  21.077  27.969  1.00  0.00     0.014 A 
ATOM     33  C   UNL A   1      42.521  23.012  26.181  1.00  0.00     0.010 A 
ATOM     34  C   UNL A   1      41.872  22.364  28.423  1.00  0.00     0.010 A 
ATOM     35  C   UNL A   1      42.343  23.342  27.535  1.00  0.00    -0.014 A 
BRANCH  35  36
ATOM     36  C   UNL A   1      42.648  24.703  28.041  1.00  0.00     0.031 A 
ATOM     37  C   UNL A   1      44.056  25.067  28.424  1.00  0.00     0.074 A 
ATOM     38  C   UNL A   1      41.650  25.592  28.202  1.00  0.00     0.049 A 
ATOM     39  N   UNL A   1      44.506  26.180  28.943  1.00  0.00    -0.248 NA
ATOM     40  C   UNL A   1      45.090  24.040  28.219  1.00  0.00     0.031 C 
ATOM     41  C   UNL A   1      40.239  25.342  27.902  1.00  0.00     0.029 A 
ATOM     42  N   UNL A   1      41.665  26.884  28.663  1.00  0.00    -0.354 N 
ATOM     43  C   UNL A   1      45.868  25.985  29.132  1.00  0.00     0.074 A 
ATOM     44  C   UNL A   1      46.163  24.628  28.729  1.00  0.00     0.031 C 
ATOM     45  C   UNL A   1      39.531  26.454  28.156  1.00  0.00     0.029 A 
ATOM     46  C   UNL A   1      40.427  27.479  28.681  1.00  0.00     0.049 A 
ATOM     47  H   UNL A   1      42.487  27.342  28.954  1.00  0.00     0.167 HD
ATOM     48  C   UNL A   1      46.794  26.867  29.574  1.00  0.00     0.037 A 
ATOM     49  C   UNL A   1      40.053  28.708  29.084  1.00  0.00     0.037 A 
ATOM     50  C   UNL A   1      46.499  28.223  29.952  1.00  0.00     0.049 A 
ATOM     51  C   UNL A   1      41.096  29.662  29.594  1.00  0.00     0.074 A 
ATOM     52  C   UNL A   1      47.377  29.208  30.368  1.00  0.00     0.029 A 
ATOM     53  N   UNL A   1      45.232  28.787  29.957  1.00  0.00    -0.354 N 
ATOM     54  N   UNL A   1      42.389  29.480  29.719  1.00  0.00    -0.248 NA
ATOM     55  C   UNL A   1      40.634  30.992  30.018  1.00  0.00     0.031 C 
ATOM     56  C   UNL A   1      46.635  30.351  30.678  1.00  0.00     0.029 A 
ATOM     57  C   UNL A   1      45.303  30.098  30.395  1.00  0.00     0.049 A 
ATOM     58  H   UNL A   1      44.405  28.322  29.691  1.00  0.00     0.167 HD
ATOM     59  C   UNL A   1      42.897  30.676  30.210  1.00  0.00     0.074 A 
ATOM     60  C   UNL A   1      41.777  31.581  30.347  1.00  0.00     0.031 C 
ATOM     61  C   UNL A   1      44.179  30.992  30.518  1.00  0.00     0.037 A 
BRANCH  48  62
ATOM     62  C   UNL A   1      48.221  26.407  29.658  1.00  0.00     0.057 A 
ATOM     63  C   UNL A   1      48.723  25.843  30.837  1.00  0.00     0.134 A 
ATOM     64  C   UNL A   1      49.118  26.596  28.600  1.00  0.00     0.134 A 
ATOM     65  F   UNL A   1      47.920  25.638  31.892  1.00  0.00    -0.206 F 
ATOM     66  C   UNL A   1      50.070  25.501  30.967  1.00  0.00     0.040 A 
ATOM     67  C   UNL A   1      50.462  26.233  28.707  1.00  0.00     0.040 A 
ATOM     68  F   UNL A   1      48.699  27.121  27.439  1.00  0.00    -0.206 F 
ATOM     69  C   UNL A   1      50.943  25.695  29.899  1.00  0.00     0.006 A 
ENDBRANCH  48  62
BRANCH  49  70
ATOM     70  C   UNL A   1      38.626  29.111  28.990  1.00  0.00     0.057 A 
ATOM     71  C   UNL A   1      38.083  29.616  27.801  1.00  0.00     0.134 A 
ATOM     72  C   UNL A   1      37.777  29.028  30.099  1.00  0.00     0.134 A 
ATOM     73  F   UNL A   1      38.845  29.730  26.703  1.00  0.00    -0.206 F 
ATOM     74  C   UNL A   1      36.755  30.038  27.724  1.00  0.00     0.040 A 
ATOM     75  C   UNL A   1      36.440  29.421  30.030  1.00  0.00     0.040 A 
ATOM     76  F   UNL A   1      38.233  28.537  31.262  1.00  0.00    -0.206 F 
ATOM     77  C   UNL A   1      35.928  29.936  28.840  1.00  0.00     0.006 A 
ENDBRANCH  49  70
BRANCH  61  78
ATOM     78  C   UNL A   1      44.456  32.382  31.014  1.00  0.00     0.057 A 
ATOM     79  C   UNL A   1      44.762  33.410  30.112  1.00  0.00     0.134 A 
ATOM     80  C   UNL A   1      44.513  32.680  32.380  1.00  0.00     0.134 A 
ATOM     81  F   UNL A   1      44.738  33.187  28.790  1.00  0.00    -0.206 F 
ATOM     82  C   UNL A   1      45.134  34.681  30.553  1.00  0.00     0.040 A 
ATOM     83  C   UNL A   1      44.856  33.956  32.833  1.00  0.00     0.040 A 
ATOM     84  F   UNL A   1      44.223  31.743  33.294  1.00  0.00    -0.206 F 
ATOM     85  C   UNL A   1      45.180  34.956  31.918  1.00  0.00     0.006 A 
ENDBRANCH  61  78
ENDBRANCH  35  36
ENDBRANCH  27  30
ENDBRANCH  25  26
ENDBRANCH  24  25
ENDBRANCH   1  24
TORSDOF 15
ENDMDL
MODEL 3
REMARK VINA RESULT:     -11.8      0.530      6.294
REMARK SMILES CC[C@@](C)(NC(=O)/C=C/c1cccc(F)c1)C(=O)NCCCCNC(=O)c1ccc(-c2c3nc(c(-c4c(F)cccc4F)c4ccc([nH]4)c(-c4c(F)cccc4F)c4nc(c(-c5c(F)cccc5F)c5ccc2[nH]5)C=C4)C=C3)cc1
REMARK SMILES IDX 21 1 20 2 19 3 17 4 18 5 3 7 4 8 2 9 1 10 5 11 6 12 7 14
REMARK SMILES IDX 8 15 9 16 10 17 11 18 16 19 12 20 14 21 13 22 15 23 22 24
REMARK SMILES IDX 23 25 24 26 25 27 26 29 27 30 28 31 80 32 29 33 79 34 30 35
REMARK SMILES IDX 31 36 32 37 73 38 33 39 78 40 72 41 74 42 34 43 77 44 71 45
REMARK SMILES IDX 70 46 35 48 61 49 44 50 60 51 45 52 48 53 59 54 75 55 46 56
REMARK SMILES IDX 47 57 58 59 76 60 49 61 36 62 37 63 42 64 38 65 39 66 41 67
REMARK SMILES IDX 43 68 40 69 62 70 63 71 68 72 64 73 65 74 67 75 69 76 66 77
REMARK SMILES IDX 50 78 51 79 56 80 52 81 53 82 55 83 57 84 54 85
REMARK H PARENT 19 6 5 13 24 28 74 47 48 58
REMARK Flexibility Score: inf
ROOT
ATOM      1  C   UNL A   1      31.499  30.808  26.070  1.00  0.00     0.023 C 
ENDROOT
BRANCH   1   2
ATOM      2  C   UNL A   1      32.787  30.063  26.417  1.00  0.00     0.116 C 
BRANCH   2   3
ATOM      3  N   UNL A   1      33.642  29.700  25.298  1.00  0.00    -0.354 N 
ATOM      4  C   UNL A   1      33.619  28.630  24.443  1.00  0.00     0.245 C 
ATOM      5  O   UNL A   1      34.218  28.782  23.374  1.00  0.00    -0.272 OA
ATOM      6  H   UNL A   1      34.369  30.339  25.123  1.00  0.00     0.163 HD
BRANCH   4   7
ATOM      7  C   UNL A   1      32.755  27.364  24.719  1.00  0.00     0.116 C 
ATOM      8  C   UNL A   1      33.659  26.455  25.592  1.00  0.00     0.045 C 
BRANCH   7   9
ATOM      9  C   UNL A   1      31.426  27.577  25.506  1.00  0.00     0.035 C 
ATOM     10  C   UNL A   1      30.766  26.372  26.159  1.00  0.00     0.007 C 
ENDBRANCH   7   9
BRANCH   7  11
ATOM     11  N   UNL A   1      32.387  26.661  23.468  1.00  0.00    -0.338 N 
ATOM     12  C   UNL A   1      31.339  26.845  22.610  1.00  0.00     0.244 C 
ATOM     13  H   UNL A   1      33.003  25.938  23.209  1.00  0.00     0.164 HD
ATOM     14  O   UNL A   1      31.039  25.925  21.849  1.00  0.00    -0.270 OA
BRANCH  12  15
ATOM     15  C   UNL A   1      30.728  28.183  22.375  1.00  0.00     0.072 C 
ATOM     16  C   UNL A   1      29.450  28.572  22.486  1.00  0.00     0.014 C 
BRANCH  16  17
ATOM     17  C   UNL A   1      29.060  29.991  22.454  1.00  0.00    -0.023 A 
ATOM     18  C   UNL A   1      29.165  30.836  23.562  1.00  0.00     0.008 A 
ATOM     19  C   UNL A   1      28.556  30.511  21.254  1.00  0.00     0.047 A 
ATOM     20  C   UNL A   1      28.774  32.179  23.466  1.00  0.00     0.004 A 
ATOM     21  C   UNL A   1      28.151  31.838  21.175  1.00  0.00     0.123 A 
ATOM     22  C   UNL A   1      28.261  32.680  22.270  1.00  0.00     0.039 A 
ATOM     23  F   UNL A   1      27.644  32.304  20.026  1.00  0.00    -0.207 F 
ENDBRANCH  16  17
ENDBRANCH  12  15
ENDBRANCH   7  11
ENDBRANCH   4   7
ENDBRANCH   2   3
ENDBRANCH   1   2
BRANCH   1  24
ATOM     24  C   UNL A   1      31.343  32.214  26.642  1.00  0.00     0.023 C 
BRANCH  24  25
ATOM     25  C   UNL A   1      32.624  32.861  27.141  1.00  0.00     0.116 C 
BRANCH  25  26
ATOM     26  N   UNL A   1      32.415  34.214  27.627  1.00  0.00    -0.352 N 
ATOM     27  C   UNL A   1      33.052  34.894  28.636  1.00  0.00     0.251 C 
ATOM     28  H   UNL A   1      31.710  34.720  27.163  1.00  0.00     0.163 HD
ATOM     29  O   UNL A   1      32.621  35.980  29.004  1.00  0.00    -0.269 OA
BRANCH  27  30
ATOM     30  C   UNL A   1      34.240  34.307  29.292  1.00  0.00     0.039 A 
ATOM     31  C   UNL A   1      34.052  33.515  30.428  1.00  0.00     0.014 A 
ATOM     32  C   UNL A   1      35.527  34.537  28.801  1.00  0.00     0.014 A 
ATOM     33  C   UNL A   1      35.152  32.908  31.036  1.00  0.00     0.010 A 
ATOM     34  C   UNL A   1      36.610  33.861  29.353  1.00  0.00     0.010 A 
ATOM     35  C   UNL A   1      36.435  33.047  30.481  1.00  0.00    -0.014 A 
BRANCH  35  36
ATOM     36  C   UNL A   1      37.607  32.352  31.070  1.00  0.00     0.031 A 
ATOM     37  C   UNL A   1      38.227  32.865  32.341  1.00  0.00     0.074 A 
ATOM     38  C   UNL A   1      38.140  31.292  30.434  1.00  0.00     0.049 A 
ATOM     39  N   UNL A   1      39.289  32.432  32.971  1.00  0.00    -0.248 NA
ATOM     40  C   UNL A   1      37.586  34.028  32.974  1.00  0.00     0.031 C 
ATOM     41  C   UNL A   1      37.650  30.727  29.176  1.00  0.00     0.029 A 
ATOM     42  N   UNL A   1      39.215  30.502  30.754  1.00  0.00    -0.354 N 
ATOM     43  C   UNL A   1      39.445  33.271  34.066  1.00  0.00     0.074 A 
ATOM     44  C   UNL A   1      38.408  34.275  33.985  1.00  0.00     0.031 C 
ATOM     45  C   UNL A   1      38.401  29.664  28.848  1.00  0.00     0.029 A 
ATOM     46  C   UNL A   1      39.455  29.500  29.845  1.00  0.00     0.049 A 
ATOM     47  H   UNL A   1      39.764  30.641  31.560  1.00  0.00     0.167 HD
ATOM     48  C   UNL A   1      40.355  33.195  35.065  1.00  0.00     0.037 A 
ATOM     49  C   UNL A   1      40.418  28.560  29.812  1.00  0.00     0.037 A 
ATOM     50  C   UNL A   1      41.371  32.180  35.153  1.00  0.00     0.049 A 
ATOM     51  C   UNL A   1      41.432  28.510  30.921  1.00  0.00     0.074 A 
ATOM     52  C   UNL A   1      42.309  31.991  36.152  1.00  0.00     0.029 A 
ATOM     53  N   UNL A   1      41.580  31.184  34.212  1.00  0.00    -0.354 N 
ATOM     54  N   UNL A   1      41.537  29.280  31.977  1.00  0.00    -0.248 NA
ATOM     55  C   UNL A   1      42.460  27.463  30.838  1.00  0.00     0.031 C 
ATOM     56  C   UNL A   1      43.122  30.914  35.788  1.00  0.00     0.029 A 
ATOM     57  C   UNL A   1      42.650  30.393  34.594  1.00  0.00     0.049 A 
ATOM     58  H   UNL A   1      41.048  31.059  33.392  1.00  0.00     0.167 HD
ATOM     59  C   UNL A   1      42.622  28.797  32.696  1.00  0.00     0.074 A 
ATOM     60  C   UNL A   1      43.135  27.659  31.963  1.00  0.00     0.031 C 
ATOM     61  C   UNL A   1      43.145  29.257  33.858  1.00  0.00     0.037 A 
BRANCH  48  62
ATOM     62  C   UNL A   1      40.287  34.221  36.158  1.00  0.00     0.057 A 
ATOM     63  C   UNL A   1      39.471  34.021  37.279  1.00  0.00     0.134 A 
ATOM     64  C   UNL A   1      40.966  35.443  36.064  1.00  0.00     0.134 A 
ATOM     65  F   UNL A   1      38.788  32.877  37.430  1.00  0.00    -0.206 F 
ATOM     66  C   UNL A   1      39.317  35.007  38.255  1.00  0.00     0.040 A 
ATOM     67  C   UNL A   1      40.843  36.426  37.048  1.00  0.00     0.040 A 
ATOM     68  F   UNL A   1      41.773  35.694  35.022  1.00  0.00    -0.206 F 
ATOM     69  C   UNL A   1      40.007  36.213  38.142  1.00  0.00     0.006 A 
ENDBRANCH  48  62
BRANCH  49  70
ATOM     70  C   UNL A   1      40.447  27.574  28.701  1.00  0.00     0.057 A 
ATOM     71  C   UNL A   1      39.692  26.394  28.749  1.00  0.00     0.134 A 
ATOM     72  C   UNL A   1      41.255  27.775  27.577  1.00  0.00     0.134 A 
ATOM     73  F   UNL A   1      38.903  26.137  29.803  1.00  0.00    -0.206 F 
ATOM     74  C   UNL A   1      39.753  25.445  27.728  1.00  0.00     0.040 A 
ATOM     75  C   UNL A   1      41.306  26.847  26.536  1.00  0.00     0.040 A 
ATOM     76  F   UNL A   1      41.989  28.893  27.465  1.00  0.00    -0.206 F 
ATOM     77  C   UNL A   1      40.559  25.672  26.615  1.00  0.00     0.006 A 
ENDBRANCH  49  70
BRANCH  61  78
ATOM     78  C   UNL A   1      44.321  28.522  34.435  1.00  0.00     0.057 A 
ATOM     79  C   UNL A   1      44.126  27.457  35.325  1.00  0.00     0.134 A 
ATOM     80  C   UNL A   1      45.637  28.927  34.188  1.00  0.00     0.134 A 
ATOM     81  F   UNL A   1      42.889  27.028  35.616  1.00  0.00    -0.206 F 
ATOM     82  C   UNL A   1      45.200  26.833  35.962  1.00  0.00     0.040 A 
ATOM     83  C   UNL A   1      46.721  28.291  34.796  1.00  0.00     0.040 A 
ATOM     84  F   UNL A   1      45.892  29.934  33.339  1.00  0.00    -0.206 F 
ATOM     85  C   UNL A   1      46.502  27.250  35.696  1.00  0.00     0.006 A 
ENDBRANCH  61  78
ENDBRANCH  35  36
ENDBRANCH  27  30
ENDBRANCH  25  26
ENDBRANCH  24  25
ENDBRANCH   1  24
TORSDOF 15
ENDMDL
