MODEL 1
REMARK VINA RESULT:     -11.0      0.000      0.000
REMARK SMILES CN(C)c1oc(/C=N/c2ccc(O)c(C(=O)NCCCCNC(=O)c3ccc(-c4c5nc(c(-c6c(F)cccc6F)c6ccc([nH]6)c(-c6c(F)cccc6F)c6nc(c(-c7c(F)cccc7F)c7ccc4[nH]7)C=C6)C=C5)cc3)c2)cc1Br
REMARK SMILES IDX 19 1 18 2 17 3 15 4 16 5 14 7 9 8 10 9 79 10 11 11 12 12
REMARK SMILES IDX 8 13 7 14 6 15 4 16 5 17 81 18 80 19 82 20 2 21 1 22 3 23
REMARK SMILES IDX 13 24 20 26 21 27 22 28 23 29 24 31 25 32 26 33 78 34 27 35
REMARK SMILES IDX 77 36 28 37 29 38 30 39 71 40 31 41 76 42 70 43 72 44 32 45
REMARK SMILES IDX 75 46 69 47 68 48 33 50 59 51 42 52 58 53 43 54 46 55 57 56
REMARK SMILES IDX 73 57 44 58 45 59 56 61 74 62 47 63 34 64 35 65 40 66 36 67
REMARK SMILES IDX 37 68 39 69 41 70 38 71 60 72 61 73 66 74 62 75 63 76 65 77
REMARK SMILES IDX 67 78 64 79 48 80 49 81 54 82 50 83 51 84 53 85 55 86 52 87
REMARK H PARENT 17 6 13 25 22 30 72 49 46 60
REMARK Flexibility Score: inf
ROOT
ATOM      1  C   UNL A   1      39.139  22.715  26.345  1.00  0.00     0.023 C 
ENDROOT
BRANCH   1   2
ATOM      2  C   UNL A   1      37.900  23.587  26.103  1.00  0.00     0.116 C 
BRANCH   2   3
ATOM      3  N   UNL A   1      37.490  23.496  24.722  1.00  0.00    -0.352 N 
ATOM      4  C   UNL A   1      36.284  23.234  24.129  1.00  0.00     0.255 C 
ATOM      5  O   UNL A   1      36.310  23.164  22.895  1.00  0.00    -0.269 OA
ATOM      6  H   UNL A   1      38.220  23.654  24.081  1.00  0.00     0.163 HD
BRANCH   4   7
ATOM      7  C   UNL A   1      34.961  23.096  24.823  1.00  0.00     0.083 A 
ATOM      8  C   UNL A   1      33.100  24.417  25.746  1.00  0.00     0.064 A 
ATOM      9  C   UNL A   1      32.406  23.244  26.033  1.00  0.00     0.032 A 
ATOM     10  C   UNL A   1      34.369  24.331  25.169  1.00  0.00     0.046 A 
ATOM     11  C   UNL A   1      32.961  22.011  25.708  1.00  0.00     0.049 A 
ATOM     12  C   UNL A   1      34.208  21.939  25.072  1.00  0.00     0.128 A 
BRANCH   8  13
ATOM     13  N   UNL A   1      32.488  25.668  25.842  1.00  0.00    -0.253 NA
ATOM     14  C   UNL A   1      32.299  26.369  24.775  1.00  0.00     0.158 C 
BRANCH  14  15
ATOM     15  C   UNL A   1      31.801  27.706  24.908  1.00  0.00     0.149 A 
ATOM     16  C   UNL A   1      30.692  29.503  24.258  1.00  0.00     0.210 A 
ATOM     17  O   UNL A   1      30.917  28.176  23.985  1.00  0.00    -0.438 OA
ATOM     18  C   UNL A   1      31.409  29.842  25.388  1.00  0.00     0.082 A 
ATOM     19  C   UNL A   1      32.105  28.697  25.818  1.00  0.00     0.070 A 
ATOM     20  Br  UNL A   1      31.512  31.471  26.313  1.00  0.00    -0.045 Br
BRANCH  16  21
ATOM     21  N   UNL A   1      29.886  30.165  23.390  1.00  0.00    -0.348 N 
ATOM     22  C   UNL A   1      29.821  29.793  21.990  1.00  0.00     0.146 C 
ATOM     23  C   UNL A   1      29.040  31.244  23.868  1.00  0.00     0.146 C 
ENDBRANCH  16  21
ENDBRANCH  14  15
ENDBRANCH   8  13
BRANCH  12  24
ATOM     24  O   UNL A   1      34.591  20.703  24.648  1.00  0.00    -0.507 OA
ATOM     25  H   UNL A   1      34.454  19.955  25.196  1.00  0.00     0.293 HD
ENDBRANCH  12  24
ENDBRANCH   4   7
ENDBRANCH   2   3
ENDBRANCH   1   2
BRANCH   1  26
ATOM     26  C   UNL A   1      39.111  21.358  25.642  1.00  0.00     0.023 C 
BRANCH  26  27
ATOM     27  C   UNL A   1      39.559  20.189  26.505  1.00  0.00     0.116 C 
BRANCH  27  28
ATOM     28  N   UNL A   1      40.674  19.444  25.939  1.00  0.00    -0.352 N 
ATOM     29  C   UNL A   1      41.995  19.815  25.850  1.00  0.00     0.251 C 
ATOM     30  H   UNL A   1      40.454  18.556  25.573  1.00  0.00     0.163 HD
ATOM     31  O   UNL A   1      42.805  19.111  25.265  1.00  0.00    -0.269 OA
BRANCH  29  32
ATOM     32  C   UNL A   1      42.411  21.107  26.432  1.00  0.00     0.039 A 
ATOM     33  C   UNL A   1      42.777  22.143  25.570  1.00  0.00     0.014 A 
ATOM     34  C   UNL A   1      42.389  21.307  27.815  1.00  0.00     0.014 A 
ATOM     35  C   UNL A   1      43.054  23.406  26.094  1.00  0.00     0.010 A 
ATOM     36  C   UNL A   1      42.595  22.581  28.328  1.00  0.00     0.010 A 
ATOM     37  C   UNL A   1      42.927  23.642  27.472  1.00  0.00    -0.014 A 
BRANCH  37  38
ATOM     38  C   UNL A   1      43.137  24.995  28.041  1.00  0.00     0.031 A 
ATOM     39  C   UNL A   1      44.506  25.415  28.493  1.00  0.00     0.074 A 
ATOM     40  C   UNL A   1      42.083  25.814  28.217  1.00  0.00     0.049 A 
ATOM     41  N   UNL A   1      44.878  26.524  29.079  1.00  0.00    -0.248 NA
ATOM     42  C   UNL A   1      45.597  24.449  28.286  1.00  0.00     0.031 C 
ATOM     43  C   UNL A   1      40.696  25.496  27.870  1.00  0.00     0.029 A 
ATOM     44  N   UNL A   1      42.012  27.077  28.744  1.00  0.00    -0.354 N 
ATOM     45  C   UNL A   1      46.237  26.382  29.325  1.00  0.00     0.074 A 
ATOM     46  C   UNL A   1      46.614  25.060  28.873  1.00  0.00     0.031 C 
ATOM     47  C   UNL A   1      39.916  26.547  28.172  1.00  0.00     0.029 A 
ATOM     48  C   UNL A   1      40.740  27.595  28.765  1.00  0.00     0.049 A 
ATOM     49  H   UNL A   1      42.798  27.567  29.077  1.00  0.00     0.167 HD
ATOM     50  C   UNL A   1      47.099  27.280  29.858  1.00  0.00     0.037 A 
ATOM     51  C   UNL A   1      40.290  28.781  29.214  1.00  0.00     0.037 A 
ATOM     52  C   UNL A   1      46.727  28.604  30.279  1.00  0.00     0.049 A 
ATOM     53  C   UNL A   1      41.268  29.765  29.792  1.00  0.00     0.074 A 
ATOM     54  C   UNL A   1      47.537  29.613  30.769  1.00  0.00     0.029 A 
ATOM     55  N   UNL A   1      45.433  29.102  30.260  1.00  0.00    -0.354 N 
ATOM     56  N   UNL A   1      42.563  29.646  29.953  1.00  0.00    -0.248 NA
ATOM     57  C   UNL A   1      40.722  31.052  30.246  1.00  0.00     0.031 C 
ATOM     58  C   UNL A   1      46.726  30.711  31.080  1.00  0.00     0.029 A 
ATOM     59  C   UNL A   1      45.419  30.399  30.747  1.00  0.00     0.049 A 
ATOM     60  H   UNL A   1      44.641  28.608  29.946  1.00  0.00     0.167 HD
ATOM     61  C   UNL A   1      42.991  30.848  30.502  1.00  0.00     0.074 A 
ATOM     62  C   UNL A   1      41.818  31.688  30.635  1.00  0.00     0.031 C 
ATOM     63  C   UNL A   1      44.243  31.222  30.864  1.00  0.00     0.037 A 
BRANCH  50  64
ATOM     64  C   UNL A   1      48.530  26.857  30.005  1.00  0.00     0.057 A 
ATOM     65  C   UNL A   1      49.472  27.077  28.991  1.00  0.00     0.134 A 
ATOM     66  C   UNL A   1      48.977  26.242  31.181  1.00  0.00     0.134 A 
ATOM     67  F   UNL A   1      49.104  27.649  27.835  1.00  0.00    -0.206 F 
ATOM     68  C   UNL A   1      50.801  26.675  29.130  1.00  0.00     0.040 A 
ATOM     69  C   UNL A   1      50.310  25.859  31.342  1.00  0.00     0.040 A 
ATOM     70  F   UNL A   1      48.129  26.005  32.192  1.00  0.00    -0.206 F 
ATOM     71  C   UNL A   1      51.225  26.069  30.312  1.00  0.00     0.006 A 
ENDBRANCH  50  64
BRANCH  51  72
ATOM     72  C   UNL A   1      38.849  29.117  29.109  1.00  0.00     0.057 A 
ATOM     73  C   UNL A   1      38.299  29.552  27.898  1.00  0.00     0.134 A 
ATOM     74  C   UNL A   1      37.990  29.014  30.210  1.00  0.00     0.134 A 
ATOM     75  F   UNL A   1      39.076  29.687  26.814  1.00  0.00    -0.206 F 
ATOM     76  C   UNL A   1      36.949  29.892  27.788  1.00  0.00     0.040 A 
ATOM     77  C   UNL A   1      36.634  29.329  30.108  1.00  0.00     0.040 A 
ATOM     78  F   UNL A   1      38.455  28.596  31.395  1.00  0.00    -0.206 F 
ATOM     79  C   UNL A   1      36.112  29.775  28.896  1.00  0.00     0.006 A 
ENDBRANCH  51  72
BRANCH  63  80
ATOM     80  C   UNL A   1      44.411  32.609  31.409  1.00  0.00     0.057 A 
ATOM     81  C   UNL A   1      44.350  32.873  32.783  1.00  0.00     0.134 A 
ATOM     82  C   UNL A   1      44.678  33.683  30.552  1.00  0.00     0.134 A 
ATOM     83  F   UNL A   1      44.084  31.889  33.654  1.00  0.00    -0.206 F 
ATOM     84  C   UNL A   1      44.529  34.164  33.283  1.00  0.00     0.040 A 
ATOM     85  C   UNL A   1      44.883  34.973  31.042  1.00  0.00     0.040 A 
ATOM     86  F   UNL A   1      44.757  33.494  29.225  1.00  0.00    -0.206 F 
ATOM     87  C   UNL A   1      44.804  35.217  32.411  1.00  0.00     0.006 A 
ENDBRANCH  63  80
ENDBRANCH  37  38
ENDBRANCH  29  32
ENDBRANCH  27  28
ENDBRANCH  26  27
ENDBRANCH   1  26
TORSDOF 15
ENDMDL
MODEL 2
REMARK VINA RESULT:     -10.9      3.619      8.402
REMARK SMILES CN(C)c1oc(/C=N/c2ccc(O)c(C(=O)NCCCCNC(=O)c3ccc(-c4c5nc(c(-c6c(F)cccc6F)c6ccc([nH]6)c(-c6c(F)cccc6F)c6nc(c(-c7c(F)cccc7F)c7ccc4[nH]7)C=C6)C=C5)cc3)c2)cc1Br
REMARK SMILES IDX 19 1 18 2 17 3 15 4 16 5 14 7 9 8 10 9 79 10 11 11 12 12
REMARK SMILES IDX 8 13 7 14 6 15 4 16 5 17 81 18 80 19 82 20 2 21 1 22 3 23
REMARK SMILES IDX 13 24 20 26 21 27 22 28 23 29 24 31 25 32 26 33 78 34 27 35
REMARK SMILES IDX 77 36 28 37 29 38 30 39 71 40 31 41 76 42 70 43 72 44 32 45
REMARK SMILES IDX 75 46 69 47 68 48 33 50 59 51 42 52 58 53 43 54 46 55 57 56
REMARK SMILES IDX 73 57 44 58 45 59 56 61 74 62 47 63 34 64 35 65 40 66 36 67
REMARK SMILES IDX 37 68 39 69 41 70 38 71 60 72 61 73 66 74 62 75 63 76 65 77
REMARK SMILES IDX 67 78 64 79 48 80 49 81 54 82 50 83 51 84 53 85 55 86 52 87
REMARK H PARENT 17 6 13 25 22 30 72 49 46 60
REMARK Flexibility Score: inf
ROOT
ATOM      1  C   UNL A   1      33.198  26.759  26.173  1.00  0.00     0.023 C 
ENDROOT
BRANCH   1   2
ATOM      2  C   UNL A   1      33.150  25.302  25.697  1.00  0.00     0.116 C 
BRANCH   2   3
ATOM      3  N   UNL A   1      33.483  25.225  24.295  1.00  0.00    -0.352 N 
ATOM      4  C   UNL A   1      34.223  24.333  23.566  1.00  0.00     0.255 C 
ATOM      5  O   UNL A   1      34.362  24.619  22.371  1.00  0.00    -0.269 OA
ATOM      6  H   UNL A   1      33.104  25.957  23.757  1.00  0.00     0.163 HD
BRANCH   4   7
ATOM      7  C   UNL A   1      34.807  23.043  24.062  1.00  0.00     0.083 A 
ATOM      8  C   UNL A   1      36.922  22.017  24.792  1.00  0.00     0.064 A 
ATOM      9  C   UNL A   1      36.246  20.841  25.107  1.00  0.00     0.032 A 
ATOM     10  C   UNL A   1      36.204  23.089  24.257  1.00  0.00     0.046 A 
ATOM     11  C   UNL A   1      34.869  20.761  24.926  1.00  0.00     0.049 A 
ATOM     12  C   UNL A   1      34.150  21.865  24.447  1.00  0.00     0.128 A 
BRANCH   8  13
ATOM     13  N   UNL A   1      38.250  22.218  25.170  1.00  0.00    -0.253 NA
ATOM     14  C   UNL A   1      38.864  21.309  25.852  1.00  0.00     0.158 C 
BRANCH  14  15
ATOM     15  C   UNL A   1      40.177  21.593  26.352  1.00  0.00     0.149 A 
ATOM     16  C   UNL A   1      42.384  21.502  26.343  1.00  0.00     0.210 A 
ATOM     17  O   UNL A   1      41.259  21.243  25.601  1.00  0.00    -0.438 OA
ATOM     18  C   UNL A   1      41.994  22.061  27.544  1.00  0.00     0.082 A 
ATOM     19  C   UNL A   1      40.589  22.138  27.550  1.00  0.00     0.070 A 
ATOM     20  Br  UNL A   1      43.027  22.679  28.984  1.00  0.00    -0.045 Br
BRANCH  16  21
ATOM     21  N   UNL A   1      43.567  21.145  25.783  1.00  0.00    -0.348 N 
ATOM     22  C   UNL A   1      43.818  19.780  25.361  1.00  0.00     0.146 C 
ATOM     23  C   UNL A   1      44.595  22.147  25.560  1.00  0.00     0.146 C 
ENDBRANCH  16  21
ENDBRANCH  14  15
ENDBRANCH   8  13
BRANCH  12  24
ATOM     24  O   UNL A   1      32.794  21.745  24.459  1.00  0.00    -0.507 OA
ATOM     25  H   UNL A   1      32.393  20.987  24.838  1.00  0.00     0.293 HD
ENDBRANCH  12  24
ENDBRANCH   4   7
ENDBRANCH   2   3
ENDBRANCH   1   2
BRANCH   1  26
ATOM     26  C   UNL A   1      32.630  27.773  25.180  1.00  0.00     0.023 C 
BRANCH  26  27
ATOM     27  C   UNL A   1      33.345  29.116  25.167  1.00  0.00     0.116 C 
BRANCH  27  28
ATOM     28  N   UNL A   1      32.590  30.182  25.808  1.00  0.00    -0.352 N 
ATOM     29  C   UNL A   1      32.961  30.976  26.867  1.00  0.00     0.251 C 
ATOM     30  H   UNL A   1      31.696  30.358  25.434  1.00  0.00     0.163 HD
ATOM     31  O   UNL A   1      32.176  31.778  27.353  1.00  0.00    -0.269 OA
BRANCH  29  32
ATOM     32  C   UNL A   1      34.311  30.811  27.442  1.00  0.00     0.039 A 
ATOM     33  C   UNL A   1      35.101  31.946  27.636  1.00  0.00     0.014 A 
ATOM     34  C   UNL A   1      34.770  29.551  27.835  1.00  0.00     0.014 A 
ATOM     35  C   UNL A   1      36.327  31.826  28.290  1.00  0.00     0.010 A 
ATOM     36  C   UNL A   1      35.956  29.443  28.549  1.00  0.00     0.010 A 
ATOM     37  C   UNL A   1      36.744  30.580  28.785  1.00  0.00    -0.014 A 
BRANCH  37  38
ATOM     38  C   UNL A   1      38.004  30.443  29.555  1.00  0.00     0.031 A 
ATOM     39  C   UNL A   1      39.169  29.704  28.962  1.00  0.00     0.074 A 
ATOM     40  C   UNL A   1      38.071  30.919  30.812  1.00  0.00     0.049 A 
ATOM     41  N   UNL A   1      40.326  29.417  29.501  1.00  0.00    -0.248 NA
ATOM     42  C   UNL A   1      39.001  29.195  27.591  1.00  0.00     0.031 C 
ATOM     43  C   UNL A   1      36.986  31.605  31.517  1.00  0.00     0.029 A 
ATOM     44  N   UNL A   1      39.092  30.888  31.726  1.00  0.00    -0.354 N 
ATOM     45  C   UNL A   1      41.014  28.681  28.545  1.00  0.00     0.074 A 
ATOM     46  C   UNL A   1      40.128  28.522  27.413  1.00  0.00     0.031 C 
ATOM     47  C   UNL A   1      37.409  31.949  32.744  1.00  0.00     0.029 A 
ATOM     48  C   UNL A   1      38.778  31.480  32.924  1.00  0.00     0.049 A 
ATOM     49  H   UNL A   1      39.969  30.480  31.540  1.00  0.00     0.167 HD
ATOM     50  C   UNL A   1      42.280  28.203  28.597  1.00  0.00     0.037 A 
ATOM     51  C   UNL A   1      39.512  31.624  34.043  1.00  0.00     0.037 A 
ATOM     52  C   UNL A   1      43.169  28.389  29.712  1.00  0.00     0.049 A 
ATOM     53  C   UNL A   1      40.918  31.092  34.072  1.00  0.00     0.074 A 
ATOM     54  C   UNL A   1      44.491  28.001  29.834  1.00  0.00     0.029 A 
ATOM     55  N   UNL A   1      42.823  29.017  30.898  1.00  0.00    -0.354 N 
ATOM     56  N   UNL A   1      41.582  30.462  33.135  1.00  0.00    -0.248 NA
ATOM     57  C   UNL A   1      41.679  31.298  35.312  1.00  0.00     0.031 C 
ATOM     58  C   UNL A   1      44.936  28.364  31.111  1.00  0.00     0.029 A 
ATOM     59  C   UNL A   1      43.902  29.012  31.767  1.00  0.00     0.049 A 
ATOM     60  H   UNL A   1      41.941  29.409  31.095  1.00  0.00     0.167 HD
ATOM     61  C   UNL A   1      42.844  30.218  33.660  1.00  0.00     0.074 A 
ATOM     62  C   UNL A   1      42.856  30.779  34.995  1.00  0.00     0.031 C 
ATOM     63  C   UNL A   1      43.898  29.584  33.089  1.00  0.00     0.037 A 
BRANCH  50  64
ATOM     64  C   UNL A   1      42.775  27.438  27.405  1.00  0.00     0.057 A 
ATOM     65  C   UNL A   1      43.608  28.028  26.445  1.00  0.00     0.134 A 
ATOM     66  C   UNL A   1      42.433  26.093  27.225  1.00  0.00     0.134 A 
ATOM     67  F   UNL A   1      43.961  29.318  26.552  1.00  0.00    -0.206 F 
ATOM     68  C   UNL A   1      44.061  27.315  25.334  1.00  0.00     0.040 A 
ATOM     69  C   UNL A   1      42.900  25.361  26.132  1.00  0.00     0.040 A 
ATOM     70  F   UNL A   1      41.642  25.466  28.108  1.00  0.00    -0.206 F 
ATOM     71  C   UNL A   1      43.711  25.974  25.178  1.00  0.00     0.006 A 
ENDBRANCH  50  64
BRANCH  51  72
ATOM     72  C   UNL A   1      38.944  32.326  35.220  1.00  0.00     0.057 A 
ATOM     73  C   UNL A   1      39.000  33.721  35.320  1.00  0.00     0.134 A 
ATOM     74  C   UNL A   1      38.334  31.626  36.267  1.00  0.00     0.134 A 
ATOM     75  F   UNL A   1      39.587  34.444  34.355  1.00  0.00    -0.206 F 
ATOM     76  C   UNL A   1      38.488  34.395  36.430  1.00  0.00     0.040 A 
ATOM     77  C   UNL A   1      37.797  32.289  37.372  1.00  0.00     0.040 A 
ATOM     78  F   UNL A   1      38.242  30.290  36.226  1.00  0.00    -0.206 F 
ATOM     79  C   UNL A   1      37.880  33.677  37.459  1.00  0.00     0.006 A 
ENDBRANCH  51  72
BRANCH  63  80
ATOM     80  C   UNL A   1      45.159  29.493  33.894  1.00  0.00     0.057 A 
ATOM     81  C   UNL A   1      46.137  30.494  33.848  1.00  0.00     0.134 A 
ATOM     82  C   UNL A   1      45.377  28.411  34.756  1.00  0.00     0.134 A 
ATOM     83  F   UNL A   1      45.993  31.549  33.032  1.00  0.00    -0.206 F 
ATOM     84  C   UNL A   1      47.299  30.412  34.618  1.00  0.00     0.040 A 
ATOM     85  C   UNL A   1      46.523  28.329  35.548  1.00  0.00     0.040 A 
ATOM     86  F   UNL A   1      44.474  27.422  34.852  1.00  0.00    -0.206 F 
ATOM     87  C   UNL A   1      47.490  29.329  35.476  1.00  0.00     0.006 A 
ENDBRANCH  63  80
ENDBRANCH  37  38
ENDBRANCH  29  32
ENDBRANCH  27  28
ENDBRANCH  26  27
ENDBRANCH   1  26
TORSDOF 15
ENDMDL
MODEL 3
REMARK VINA RESULT:     -10.8      4.423     10.489
REMARK SMILES CN(C)c1oc(/C=N/c2ccc(O)c(C(=O)NCCCCNC(=O)c3ccc(-c4c5nc(c(-c6c(F)cccc6F)c6ccc([nH]6)c(-c6c(F)cccc6F)c6nc(c(-c7c(F)cccc7F)c7ccc4[nH]7)C=C6)C=C5)cc3)c2)cc1Br
REMARK SMILES IDX 19 1 18 2 17 3 15 4 16 5 14 7 9 8 10 9 79 10 11 11 12 12
REMARK SMILES IDX 8 13 7 14 6 15 4 16 5 17 81 18 80 19 82 20 2 21 1 22 3 23
REMARK SMILES IDX 13 24 20 26 21 27 22 28 23 29 24 31 25 32 26 33 78 34 27 35
REMARK SMILES IDX 77 36 28 37 29 38 30 39 71 40 31 41 76 42 70 43 72 44 32 45
REMARK SMILES IDX 75 46 69 47 68 48 33 50 59 51 42 52 58 53 43 54 46 55 57 56
REMARK SMILES IDX 73 57 44 58 45 59 56 61 74 62 47 63 34 64 35 65 40 66 36 67
REMARK SMILES IDX 37 68 39 69 41 70 38 71 60 72 61 73 66 74 62 75 63 76 65 77
REMARK SMILES IDX 67 78 64 79 48 80 49 81 54 82 50 83 51 84 53 85 55 86 52 87
REMARK H PARENT 17 6 13 25 22 30 72 49 46 60
REMARK Flexibility Score: inf
ROOT
ATOM      1  C   UNL A   1      36.139  32.823  30.630  1.00  0.00     0.023 C 
ENDROOT
BRANCH   1   2
ATOM      2  C   UNL A   1      36.472  34.226  31.148  1.00  0.00     0.116 C 
BRANCH   2   3
ATOM      3  N   UNL A   1      37.899  34.373  31.308  1.00  0.00    -0.352 N 
ATOM      4  C   UNL A   1      38.761  34.019  32.312  1.00  0.00     0.255 C 
ATOM      5  O   UNL A   1      39.935  34.367  32.142  1.00  0.00    -0.269 OA
ATOM      6  H   UNL A   1      38.340  34.813  30.545  1.00  0.00     0.163 HD
BRANCH   4   7
ATOM      7  C   UNL A   1      38.426  33.210  33.530  1.00  0.00     0.083 A 
ATOM      8  C   UNL A   1      38.798  31.009  34.568  1.00  0.00     0.064 A 
ATOM      9  C   UNL A   1      38.104  31.423  35.702  1.00  0.00     0.032 A 
ATOM     10  C   UNL A   1      38.932  31.892  33.494  1.00  0.00     0.046 A 
ATOM     11  C   UNL A   1      37.591  32.714  35.769  1.00  0.00     0.049 A 
ATOM     12  C   UNL A   1      37.785  33.612  34.710  1.00  0.00     0.128 A 
BRANCH   8  13
ATOM     13  N   UNL A   1      39.521  29.816  34.551  1.00  0.00    -0.253 NA
ATOM     14  C   UNL A   1      40.812  29.851  34.566  1.00  0.00     0.158 C 
BRANCH  14  15
ATOM     15  C   UNL A   1      41.537  28.626  34.406  1.00  0.00     0.149 A 
ATOM     16  C   UNL A   1      42.249  26.627  35.021  1.00  0.00     0.210 A 
ATOM     17  O   UNL A   1      41.364  27.632  35.322  1.00  0.00    -0.438 OA
ATOM     18  C   UNL A   1      42.942  26.984  33.881  1.00  0.00     0.082 A 
ATOM     19  C   UNL A   1      42.481  28.249  33.473  1.00  0.00     0.070 A 
ATOM     20  Br  UNL A   1      44.257  26.051  32.921  1.00  0.00    -0.045 Br
BRANCH  16  21
ATOM     21  N   UNL A   1      42.274  25.574  35.877  1.00  0.00    -0.348 N 
ATOM     22  C   UNL A   1      41.908  24.241  35.441  1.00  0.00     0.146 C 
ATOM     23  C   UNL A   1      42.711  25.768  37.249  1.00  0.00     0.146 C 
ENDBRANCH  16  21
ENDBRANCH  14  15
ENDBRANCH   8  13
BRANCH  12  24
ATOM     24  O   UNL A   1      37.390  34.896  34.937  1.00  0.00    -0.507 OA
ATOM     25  H   UNL A   1      36.999  35.395  34.247  1.00  0.00     0.293 HD
ENDBRANCH  12  24
ENDBRANCH   4   7
ENDBRANCH   2   3
ENDBRANCH   1   2
BRANCH   1  26
ATOM     26  C   UNL A   1      34.742  32.681  30.026  1.00  0.00     0.023 C 
BRANCH  26  27
ATOM     27  C   UNL A   1      34.724  32.432  28.525  1.00  0.00     0.116 C 
BRANCH  27  28
ATOM     28  N   UNL A   1      34.072  31.186  28.151  1.00  0.00    -0.352 N 
ATOM     29  C   UNL A   1      34.627  29.935  28.023  1.00  0.00     0.251 C 
ATOM     30  H   UNL A   1      33.106  31.246  27.967  1.00  0.00     0.163 HD
ATOM     31  O   UNL A   1      33.961  28.994  27.614  1.00  0.00    -0.269 OA
BRANCH  29  32
ATOM     32  C   UNL A   1      36.057  29.755  28.341  1.00  0.00     0.039 A 
ATOM     33  C   UNL A   1      36.407  29.275  29.606  1.00  0.00     0.014 A 
ATOM     34  C   UNL A   1      37.040  30.008  27.381  1.00  0.00     0.014 A 
ATOM     35  C   UNL A   1      37.742  28.981  29.883  1.00  0.00     0.010 A 
ATOM     36  C   UNL A   1      38.357  29.649  27.634  1.00  0.00     0.010 A 
ATOM     37  C   UNL A   1      38.720  29.130  28.886  1.00  0.00    -0.014 A 
BRANCH  37  38
ATOM     38  C   UNL A   1      40.131  28.747  29.132  1.00  0.00     0.031 A 
ATOM     39  C   UNL A   1      41.063  29.711  29.807  1.00  0.00     0.074 A 
ATOM     40  C   UNL A   1      40.588  27.563  28.682  1.00  0.00     0.049 A 
ATOM     41  N   UNL A   1      42.344  29.591  30.047  1.00  0.00    -0.248 NA
ATOM     42  C   UNL A   1      40.487  30.993  30.245  1.00  0.00     0.031 C 
ATOM     43  C   UNL A   1      39.792  26.566  27.962  1.00  0.00     0.029 A 
ATOM     44  N   UNL A   1      41.837  27.003  28.753  1.00  0.00    -0.354 N 
ATOM     45  C   UNL A   1      42.728  30.784  30.646  1.00  0.00     0.074 A 
ATOM     46  C   UNL A   1      41.558  31.634  30.686  1.00  0.00     0.031 C 
ATOM     47  C   UNL A   1      40.568  25.508  27.678  1.00  0.00     0.029 A 
ATOM     48  C   UNL A   1      41.919  25.765  28.164  1.00  0.00     0.049 A 
ATOM     49  H   UNL A   1      42.603  27.446  29.185  1.00  0.00     0.167 HD
ATOM     50  C   UNL A   1      43.940  31.130  31.139  1.00  0.00     0.037 A 
ATOM     51  C   UNL A   1      42.969  24.933  28.030  1.00  0.00     0.037 A 
ATOM     52  C   UNL A   1      45.094  30.272  31.124  1.00  0.00     0.049 A 
ATOM     53  C   UNL A   1      44.302  25.336  28.595  1.00  0.00     0.074 A 
ATOM     54  C   UNL A   1      46.348  30.504  31.659  1.00  0.00     0.029 A 
ATOM     55  N   UNL A   1      45.131  29.014  30.543  1.00  0.00    -0.354 N 
ATOM     56  N   UNL A   1      44.634  26.437  29.223  1.00  0.00    -0.248 NA
ATOM     57  C   UNL A   1      45.405  24.378  28.437  1.00  0.00     0.031 C 
ATOM     58  C   UNL A   1      47.157  29.398  31.369  1.00  0.00     0.029 A 
ATOM     59  C   UNL A   1      46.394  28.463  30.689  1.00  0.00     0.049 A 
ATOM     60  H   UNL A   1      44.373  28.576  30.093  1.00  0.00     0.167 HD
ATOM     61  C   UNL A   1      45.974  26.296  29.558  1.00  0.00     0.074 A 
ATOM     62  C   UNL A   1      46.391  24.996  29.073  1.00  0.00     0.031 C 
ATOM     63  C   UNL A   1      46.787  27.164  30.207  1.00  0.00     0.037 A 
BRANCH  50  64
ATOM     64  C   UNL A   1      44.072  32.497  31.744  1.00  0.00     0.057 A 
ATOM     65  C   UNL A   1      43.826  32.729  33.104  1.00  0.00     0.134 A 
ATOM     66  C   UNL A   1      44.468  33.590  30.963  1.00  0.00     0.134 A 
ATOM     67  F   UNL A   1      43.429  31.726  33.903  1.00  0.00    -0.206 F 
ATOM     68  C   UNL A   1      43.943  34.003  33.660  1.00  0.00     0.040 A 
ATOM     69  C   UNL A   1      44.614  34.865  31.514  1.00  0.00     0.040 A 
ATOM     70  F   UNL A   1      44.722  33.438  29.655  1.00  0.00    -0.206 F 
ATOM     71  C   UNL A   1      44.344  35.075  32.865  1.00  0.00     0.006 A 
ENDBRANCH  50  64
BRANCH  51  72
ATOM     72  C   UNL A   1      42.796  23.622  27.357  1.00  0.00     0.057 A 
ATOM     73  C   UNL A   1      43.032  23.482  25.984  1.00  0.00     0.134 A 
ATOM     74  C   UNL A   1      42.393  22.483  28.062  1.00  0.00     0.134 A 
ATOM     75  F   UNL A   1      43.404  24.543  25.252  1.00  0.00    -0.206 F 
ATOM     76  C   UNL A   1      42.855  22.261  25.332  1.00  0.00     0.040 A 
ATOM     77  C   UNL A   1      42.234  21.250  27.428  1.00  0.00     0.040 A 
ATOM     78  F   UNL A   1      42.159  22.550  29.381  1.00  0.00    -0.206 F 
ATOM     79  C   UNL A   1      42.459  21.138  26.057  1.00  0.00     0.006 A 
ENDBRANCH  51  72
BRANCH  63  80
ATOM     80  C   UNL A   1      48.198  26.723  30.458  1.00  0.00     0.057 A 
ATOM     81  C   UNL A   1      49.242  27.061  29.587  1.00  0.00     0.134 A 
ATOM     82  C   UNL A   1      48.521  25.988  31.605  1.00  0.00     0.134 A 
ATOM     83  F   UNL A   1      48.995  27.753  28.465  1.00  0.00    -0.206 F 
ATOM     84  C   UNL A   1      50.556  26.664  29.839  1.00  0.00     0.040 A 
ATOM     85  C   UNL A   1      49.835  25.606  31.880  1.00  0.00     0.040 A 
ATOM     86  F   UNL A   1      47.568  25.639  32.483  1.00  0.00    -0.206 F 
ATOM     87  C   UNL A   1      50.856  25.941  30.993  1.00  0.00     0.006 A 
ENDBRANCH  63  80
ENDBRANCH  37  38
ENDBRANCH  29  32
ENDBRANCH  27  28
ENDBRANCH  26  27
ENDBRANCH   1  26
TORSDOF 15
ENDMDL
