MODEL 1
REMARK VINA RESULT:     -12.1      0.000      0.000
REMARK SMILES O=C(NCCCCNC(=O)[C@H]1CCc2[nH]nc(C(F)(F)F)c2C1)c1ccc(-c2c3nc(c(-c4c(F)cccc4F)c4ccc([nH]4)c(-c4c(F)cccc4F)c4nc(c(-c5c(F)cccc5F)c5ccc2[nH]5)C=C4)C=C3)cc1
REMARK SMILES IDX 5 1 4 2 3 3 1 4 2 5 24 7 25 8 77 9 26 10 76 11 27 12 28 13
REMARK SMILES IDX 29 14 70 15 30 16 75 17 69 18 71 19 31 20 74 21 68 22 67 23
REMARK SMILES IDX 32 25 58 26 41 27 57 28 42 29 45 30 56 31 72 32 43 33 44 34
REMARK SMILES IDX 55 36 73 37 46 38 33 39 34 40 39 41 35 42 36 43 38 44 40 45
REMARK SMILES IDX 37 46 59 47 60 48 65 49 61 50 62 51 64 52 66 53 63 54 47 55
REMARK SMILES IDX 48 56 53 57 49 58 50 59 52 60 54 61 51 62 6 63 7 64 8 65
REMARK SMILES IDX 9 66 10 68 11 69 12 70 23 71 13 72 22 73 14 74 17 75 15 76
REMARK SMILES IDX 16 77 18 79 19 80 20 81 21 82
REMARK H PARENT 3 6 71 24 45 35 8 67 15 78
REMARK Flexibility Score: inf
ROOT
ATOM      1  C   UNL A   1      38.180  19.335  25.019  1.00  0.00     0.023 C 
ENDROOT
BRANCH   1   2
ATOM      2  C   UNL A   1      39.389  19.852  25.788  1.00  0.00     0.116 C 
BRANCH   2   3
ATOM      3  N   UNL A   1      40.458  18.870  25.852  1.00  0.00    -0.352 N 
ATOM      4  O   UNL A   1      42.600  18.166  25.927  1.00  0.00    -0.269 OA
ATOM      5  C   UNL A   1      41.795  19.080  26.071  1.00  0.00     0.251 C 
ATOM      6  H   UNL A   1      40.187  17.933  25.720  1.00  0.00     0.163 HD
BRANCH   5   7
ATOM      7  C   UNL A   1      42.259  20.424  26.470  1.00  0.00     0.039 A 
ATOM      8  C   UNL A   1      42.770  21.308  25.513  1.00  0.00     0.014 A 
ATOM      9  C   UNL A   1      42.167  20.806  27.809  1.00  0.00     0.014 A 
ATOM     10  C   UNL A   1      43.277  22.538  25.912  1.00  0.00     0.010 A 
ATOM     11  C   UNL A   1      42.608  22.072  28.198  1.00  0.00     0.010 A 
ATOM     12  C   UNL A   1      43.172  22.945  27.252  1.00  0.00    -0.014 A 
BRANCH  12  13
ATOM     13  C   UNL A   1      43.540  24.331  27.625  1.00  0.00     0.031 A 
ATOM     14  C   UNL A   1      42.497  25.345  27.991  1.00  0.00     0.074 A 
ATOM     15  C   UNL A   1      44.844  24.668  27.600  1.00  0.00     0.049 A 
ATOM     16  N   UNL A   1      42.652  26.610  28.288  1.00  0.00    -0.248 NA
ATOM     17  C   UNL A   1      41.099  24.888  28.023  1.00  0.00     0.031 C 
ATOM     18  C   UNL A   1      45.940  23.764  27.239  1.00  0.00     0.029 A 
ATOM     19  N   UNL A   1      45.472  25.855  27.875  1.00  0.00    -0.354 N 
ATOM     20  C   UNL A   1      41.376  27.107  28.518  1.00  0.00     0.074 A 
ATOM     21  C   UNL A   1      40.453  26.010  28.317  1.00  0.00     0.031 C 
ATOM     22  C   UNL A   1      47.103  24.422  27.329  1.00  0.00     0.029 A 
ATOM     23  C   UNL A   1      46.832  25.809  27.688  1.00  0.00     0.049 A 
ATOM     24  H   UNL A   1      44.995  26.662  28.177  1.00  0.00     0.167 HD
ATOM     25  C   UNL A   1      41.017  28.366  28.869  1.00  0.00     0.037 A 
ATOM     26  C   UNL A   1      47.757  26.782  27.757  1.00  0.00     0.037 A 
ATOM     27  C   UNL A   1      41.949  29.442  29.086  1.00  0.00     0.049 A 
ATOM     28  C   UNL A   1      47.320  28.174  28.109  1.00  0.00     0.074 A 
ATOM     29  C   UNL A   1      41.690  30.730  29.524  1.00  0.00     0.029 A 
ATOM     30  N   UNL A   1      43.318  29.362  28.870  1.00  0.00    -0.354 N 
ATOM     31  N   UNL A   1      46.119  28.613  28.397  1.00  0.00    -0.248 NA
ATOM     32  C   UNL A   1      48.362  29.209  28.135  1.00  0.00     0.031 C 
ATOM     33  C   UNL A   1      42.890  31.446  29.512  1.00  0.00     0.029 A 
ATOM     34  C   UNL A   1      43.907  30.591  29.119  1.00  0.00     0.049 A 
ATOM     35  H   UNL A   1      43.798  28.552  28.583  1.00  0.00     0.167 HD
ATOM     36  C   UNL A   1      46.261  29.968  28.650  1.00  0.00     0.074 A 
ATOM     37  C   UNL A   1      47.670  30.276  28.507  1.00  0.00     0.031 C 
ATOM     38  C   UNL A   1      45.310  30.879  28.967  1.00  0.00     0.037 A 
BRANCH  25  39
ATOM     39  C   UNL A   1      39.556  28.669  29.019  1.00  0.00     0.057 A 
ATOM     40  C   UNL A   1      38.887  28.524  30.241  1.00  0.00     0.134 A 
ATOM     41  C   UNL A   1      38.830  29.204  27.945  1.00  0.00     0.134 A 
ATOM     42  F   UNL A   1      39.522  28.014  31.306  1.00  0.00    -0.206 F 
ATOM     43  C   UNL A   1      37.547  28.889  30.386  1.00  0.00     0.040 A 
ATOM     44  C   UNL A   1      37.497  29.594  28.085  1.00  0.00     0.040 A 
ATOM     45  F   UNL A   1      39.412  29.378  26.749  1.00  0.00    -0.206 F 
ATOM     46  C   UNL A   1      36.851  29.435  29.309  1.00  0.00     0.006 A 
ENDBRANCH  25  39
BRANCH  26  47
ATOM     47  C   UNL A   1      49.176  26.481  27.441  1.00  0.00     0.057 A 
ATOM     48  C   UNL A   1      50.095  26.169  28.448  1.00  0.00     0.134 A 
ATOM     49  C   UNL A   1      49.647  26.504  26.121  1.00  0.00     0.134 A 
ATOM     50  F   UNL A   1      49.707  26.147  29.732  1.00  0.00    -0.206 F 
ATOM     51  C   UNL A   1      51.435  25.912  28.158  1.00  0.00     0.040 A 
ATOM     52  C   UNL A   1      50.976  26.218  25.814  1.00  0.00     0.040 A 
ATOM     53  F   UNL A   1      48.813  26.787  25.109  1.00  0.00    -0.206 F 
ATOM     54  C   UNL A   1      51.877  25.930  26.836  1.00  0.00     0.006 A 
ENDBRANCH  26  47
BRANCH  38  55
ATOM     55  C   UNL A   1      45.765  32.291  29.189  1.00  0.00     0.057 A 
ATOM     56  C   UNL A   1      45.771  33.231  28.152  1.00  0.00     0.134 A 
ATOM     57  C   UNL A   1      46.159  32.724  30.461  1.00  0.00     0.134 A 
ATOM     58  F   UNL A   1      45.421  32.874  26.907  1.00  0.00    -0.206 F 
ATOM     59  C   UNL A   1      46.169  34.551  28.369  1.00  0.00     0.040 A 
ATOM     60  C   UNL A   1      46.533  34.047  30.695  1.00  0.00     0.040 A 
ATOM     61  F   UNL A   1      46.170  31.872  31.498  1.00  0.00    -0.206 F 
ATOM     62  C   UNL A   1      46.543  34.964  29.647  1.00  0.00     0.006 A 
ENDBRANCH  38  55
ENDBRANCH  12  13
ENDBRANCH   5   7
ENDBRANCH   2   3
ENDBRANCH   1   2
BRANCH   1  63
ATOM     63  C   UNL A   1      36.977  20.288  24.998  1.00  0.00     0.023 C 
BRANCH  63  64
ATOM     64  C   UNL A   1      37.323  21.744  25.320  1.00  0.00     0.116 C 
BRANCH  64  65
ATOM     65  N   UNL A   1      37.173  22.560  24.136  1.00  0.00    -0.356 N 
ATOM     66  C   UNL A   1      36.031  23.106  23.635  1.00  0.00     0.223 C 
ATOM     67  H   UNL A   1      37.997  22.744  23.629  1.00  0.00     0.163 HD
ATOM     68  O   UNL A   1      35.994  23.317  22.424  1.00  0.00    -0.275 OA
BRANCH  66  69
ATOM     69  C   UNL A   1      34.919  23.506  24.602  1.00  0.00     0.083 C 
ATOM     70  C   UNL A   1      34.036  24.599  23.937  1.00  0.00     0.020 C 
ATOM     71  C   UNL A   1      34.072  22.280  25.012  1.00  0.00     0.053 C 
ATOM     72  C   UNL A   1      33.298  24.104  22.670  1.00  0.00     0.057 C 
ATOM     73  C   UNL A   1      33.186  21.859  23.894  1.00  0.00     0.006 A 
ATOM     74  C   UNL A   1      32.842  22.704  22.865  1.00  0.00     0.039 A 
ATOM     75  C   UNL A   1      32.627  20.598  23.554  1.00  0.00     0.169 A 
ATOM     76  N   UNL A   1      32.138  21.955  21.976  1.00  0.00    -0.282 N 
ATOM     77  N   UNL A   1      31.948  20.688  22.388  1.00  0.00    -0.171 NA
ATOM     78  H   UNL A   1      31.801  22.304  21.119  1.00  0.00     0.190 HD
BRANCH  75  79
ATOM     79  C   UNL A   1      32.770  19.304  24.316  1.00  0.00     0.435 C 
ATOM     80  F   UNL A   1      32.468  19.434  25.636  1.00  0.00    -0.164 F 
ATOM     81  F   UNL A   1      31.975  18.317  23.824  1.00  0.00    -0.164 F 
ATOM     82  F   UNL A   1      34.046  18.820  24.272  1.00  0.00    -0.164 F 
ENDBRANCH  75  79
ENDBRANCH  66  69
ENDBRANCH  64  65
ENDBRANCH  63  64
ENDBRANCH   1  63
TORSDOF 12
ENDMDL
MODEL 2
REMARK VINA RESULT:     -12.0      6.312     10.845
REMARK SMILES O=C(NCCCCNC(=O)[C@H]1CCc2[nH]nc(C(F)(F)F)c2C1)c1ccc(-c2c3nc(c(-c4c(F)cccc4F)c4ccc([nH]4)c(-c4c(F)cccc4F)c4nc(c(-c5c(F)cccc5F)c5ccc2[nH]5)C=C4)C=C3)cc1
REMARK SMILES IDX 5 1 4 2 3 3 1 4 2 5 24 7 25 8 77 9 26 10 76 11 27 12 28 13
REMARK SMILES IDX 29 14 70 15 30 16 75 17 69 18 71 19 31 20 74 21 68 22 67 23
REMARK SMILES IDX 32 25 58 26 41 27 57 28 42 29 45 30 56 31 72 32 43 33 44 34
REMARK SMILES IDX 55 36 73 37 46 38 33 39 34 40 39 41 35 42 36 43 38 44 40 45
REMARK SMILES IDX 37 46 59 47 60 48 65 49 61 50 62 51 64 52 66 53 63 54 47 55
REMARK SMILES IDX 48 56 53 57 49 58 50 59 52 60 54 61 51 62 6 63 7 64 8 65
REMARK SMILES IDX 9 66 10 68 11 69 12 70 23 71 13 72 22 73 14 74 17 75 15 76
REMARK SMILES IDX 16 77 18 79 19 80 20 81 21 82
REMARK H PARENT 3 6 71 24 45 35 8 67 15 78
REMARK Flexibility Score: inf
ROOT
ATOM      1  C   UNL A   1      31.424  32.300  26.526  1.00  0.00     0.023 C 
ENDROOT
BRANCH   1   2
ATOM      2  C   UNL A   1      32.604  32.898  27.280  1.00  0.00     0.116 C 
BRANCH   2   3
ATOM      3  N   UNL A   1      32.369  34.281  27.657  1.00  0.00    -0.352 N 
ATOM      4  O   UNL A   1      32.567  36.122  28.946  1.00  0.00    -0.269 OA
ATOM      5  C   UNL A   1      32.994  35.017  28.632  1.00  0.00     0.251 C 
ATOM      6  H   UNL A   1      31.671  34.752  27.147  1.00  0.00     0.163 HD
BRANCH   5   7
ATOM      7  C   UNL A   1      34.179  34.456  29.311  1.00  0.00     0.039 A 
ATOM      8  C   UNL A   1      34.043  33.777  30.526  1.00  0.00     0.014 A 
ATOM      9  C   UNL A   1      35.434  34.599  28.716  1.00  0.00     0.014 A 
ATOM     10  C   UNL A   1      35.174  33.326  31.194  1.00  0.00     0.010 A 
ATOM     11  C   UNL A   1      36.563  34.078  29.352  1.00  0.00     0.010 A 
ATOM     12  C   UNL A   1      36.441  33.443  30.599  1.00  0.00    -0.014 A 
BRANCH  12  13
ATOM     13  C   UNL A   1      37.608  32.786  31.232  1.00  0.00     0.031 A 
ATOM     14  C   UNL A   1      38.259  31.584  30.615  1.00  0.00     0.074 A 
ATOM     15  C   UNL A   1      38.057  33.283  32.401  1.00  0.00     0.049 A 
ATOM     16  N   UNL A   1      39.252  30.864  31.072  1.00  0.00    -0.248 NA
ATOM     17  C   UNL A   1      37.727  31.122  29.324  1.00  0.00     0.031 C 
ATOM     18  C   UNL A   1      37.484  34.438  33.099  1.00  0.00     0.029 A 
ATOM     19  N   UNL A   1      39.088  32.885  33.212  1.00  0.00    -0.354 N 
ATOM     20  C   UNL A   1      39.450  29.853  30.141  1.00  0.00     0.074 A 
ATOM     21  C   UNL A   1      38.466  30.043  29.096  1.00  0.00     0.031 C 
ATOM     22  C   UNL A   1      38.179  34.664  34.222  1.00  0.00     0.029 A 
ATOM     23  C   UNL A   1      39.201  33.633  34.359  1.00  0.00     0.049 A 
ATOM     24  H   UNL A   1      39.689  32.136  32.994  1.00  0.00     0.167 HD
ATOM     25  C   UNL A   1      40.373  28.861  30.163  1.00  0.00     0.037 A 
ATOM     26  C   UNL A   1      40.008  33.484  35.424  1.00  0.00     0.037 A 
ATOM     27  C   UNL A   1      41.359  28.698  31.200  1.00  0.00     0.049 A 
ATOM     28  C   UNL A   1      40.993  32.351  35.433  1.00  0.00     0.074 A 
ATOM     29  C   UNL A   1      42.389  27.775  31.270  1.00  0.00     0.029 A 
ATOM     30  N   UNL A   1      41.431  29.464  32.355  1.00  0.00    -0.354 N 
ATOM     31  N   UNL A   1      41.219  31.448  34.511  1.00  0.00    -0.248 NA
ATOM     32  C   UNL A   1      41.827  32.210  36.634  1.00  0.00     0.031 C 
ATOM     33  C   UNL A   1      43.044  27.942  32.494  1.00  0.00     0.029 A 
ATOM     34  C   UNL A   1      42.458  29.003  33.163  1.00  0.00     0.049 A 
ATOM     35  H   UNL A   1      40.841  30.222  32.567  1.00  0.00     0.167 HD
ATOM     36  C   UNL A   1      42.226  30.638  35.014  1.00  0.00     0.074 A 
ATOM     37  C   UNL A   1      42.587  31.173  36.311  1.00  0.00     0.031 C 
ATOM     38  C   UNL A   1      42.798  29.545  34.453  1.00  0.00     0.037 A 
BRANCH  25  39
ATOM     39  C   UNL A   1      40.357  27.854  29.052  1.00  0.00     0.057 A 
ATOM     40  C   UNL A   1      39.540  26.717  29.089  1.00  0.00     0.134 A 
ATOM     41  C   UNL A   1      41.105  28.075  27.886  1.00  0.00     0.134 A 
ATOM     42  F   UNL A   1      38.804  26.445  30.176  1.00  0.00    -0.206 F 
ATOM     43  C   UNL A   1      39.474  25.832  28.011  1.00  0.00     0.040 A 
ATOM     44  C   UNL A   1      41.029  27.209  26.794  1.00  0.00     0.040 A 
ATOM     45  F   UNL A   1      41.902  29.149  27.782  1.00  0.00    -0.206 F 
ATOM     46  C   UNL A   1      40.212  26.083  26.855  1.00  0.00     0.006 A 
ENDBRANCH  25  39
BRANCH  26  47
ATOM     47  C   UNL A   1      39.885  34.403  36.582  1.00  0.00     0.057 A 
ATOM     48  C   UNL A   1      40.539  35.639  36.603  1.00  0.00     0.134 A 
ATOM     49  C   UNL A   1      39.112  34.063  37.700  1.00  0.00     0.134 A 
ATOM     50  F   UNL A   1      41.307  36.014  35.569  1.00  0.00    -0.206 F 
ATOM     51  C   UNL A   1      40.448  36.495  37.702  1.00  0.00     0.040 A 
ATOM     52  C   UNL A   1      38.987  34.922  38.792  1.00  0.00     0.040 A 
ATOM     53  F   UNL A   1      38.453  32.896  37.738  1.00  0.00    -0.206 F 
ATOM     54  C   UNL A   1      39.664  36.139  38.798  1.00  0.00     0.006 A 
ENDBRANCH  26  47
BRANCH  38  55
ATOM     55  C   UNL A   1      43.879  28.864  35.238  1.00  0.00     0.057 A 
ATOM     56  C   UNL A   1      43.588  27.870  36.179  1.00  0.00     0.134 A 
ATOM     57  C   UNL A   1      45.227  29.175  35.018  1.00  0.00     0.134 A 
ATOM     58  F   UNL A   1      42.315  27.540  36.448  1.00  0.00    -0.206 F 
ATOM     59  C   UNL A   1      44.598  27.219  36.888  1.00  0.00     0.040 A 
ATOM     60  C   UNL A   1      46.247  28.513  35.701  1.00  0.00     0.040 A 
ATOM     61  F   UNL A   1      45.573  30.115  34.126  1.00  0.00    -0.206 F 
ATOM     62  C   UNL A   1      45.934  27.535  36.642  1.00  0.00     0.006 A 
ENDBRANCH  38  55
ENDBRANCH  12  13
ENDBRANCH   5   7
ENDBRANCH   2   3
ENDBRANCH   1   2
BRANCH   1  63
ATOM     63  C   UNL A   1      31.624  30.850  26.067  1.00  0.00     0.023 C 
BRANCH  63  64
ATOM     64  C   UNL A   1      32.786  30.128  26.754  1.00  0.00     0.116 C 
BRANCH  64  65
ATOM     65  N   UNL A   1      32.287  29.004  27.517  1.00  0.00    -0.356 N 
ATOM     66  C   UNL A   1      31.913  27.780  27.054  1.00  0.00     0.223 C 
ATOM     67  H   UNL A   1      32.209  29.141  28.489  1.00  0.00     0.163 HD
ATOM     68  O   UNL A   1      31.078  27.163  27.713  1.00  0.00    -0.275 OA
BRANCH  66  69
ATOM     69  C   UNL A   1      32.609  27.212  25.819  1.00  0.00     0.083 C 
ATOM     70  C   UNL A   1      32.500  25.663  25.841  1.00  0.00     0.020 C 
ATOM     71  C   UNL A   1      32.001  27.795  24.523  1.00  0.00     0.053 C 
ATOM     72  C   UNL A   1      31.043  25.149  25.743  1.00  0.00     0.057 C 
ATOM     73  C   UNL A   1      30.665  27.198  24.257  1.00  0.00     0.006 A 
ATOM     74  C   UNL A   1      30.268  26.001  24.805  1.00  0.00     0.039 A 
ATOM     75  C   UNL A   1      29.530  27.693  23.562  1.00  0.00     0.169 A 
ATOM     76  N   UNL A   1      28.966  25.834  24.453  1.00  0.00    -0.282 N 
ATOM     77  N   UNL A   1      28.504  26.816  23.659  1.00  0.00    -0.171 NA
ATOM     78  H   UNL A   1      28.417  25.071  24.749  1.00  0.00     0.190 HD
BRANCH  75  79
ATOM     79  C   UNL A   1      29.409  29.012  22.840  1.00  0.00     0.435 C 
ATOM     80  F   UNL A   1      30.461  29.258  22.013  1.00  0.00    -0.164 F 
ATOM     81  F   UNL A   1      28.282  29.091  22.081  1.00  0.00    -0.164 F 
ATOM     82  F   UNL A   1      29.358  30.068  23.703  1.00  0.00    -0.164 F 
ENDBRANCH  75  79
ENDBRANCH  66  69
ENDBRANCH  64  65
ENDBRANCH  63  64
ENDBRANCH   1  63
TORSDOF 12
ENDMDL
MODEL 3
REMARK VINA RESULT:     -12.0      6.270     10.813
REMARK SMILES O=C(NCCCCNC(=O)[C@H]1CCc2[nH]nc(C(F)(F)F)c2C1)c1ccc(-c2c3nc(c(-c4c(F)cccc4F)c4ccc([nH]4)c(-c4c(F)cccc4F)c4nc(c(-c5c(F)cccc5F)c5ccc2[nH]5)C=C4)C=C3)cc1
REMARK SMILES IDX 5 1 4 2 3 3 1 4 2 5 24 7 25 8 77 9 26 10 76 11 27 12 28 13
REMARK SMILES IDX 29 14 70 15 30 16 75 17 69 18 71 19 31 20 74 21 68 22 67 23
REMARK SMILES IDX 32 25 58 26 41 27 57 28 42 29 45 30 56 31 72 32 43 33 44 34
REMARK SMILES IDX 55 36 73 37 46 38 33 39 34 40 39 41 35 42 36 43 38 44 40 45
REMARK SMILES IDX 37 46 59 47 60 48 65 49 61 50 62 51 64 52 66 53 63 54 47 55
REMARK SMILES IDX 48 56 53 57 49 58 50 59 52 60 54 61 51 62 6 63 7 64 8 65
REMARK SMILES IDX 9 66 10 68 11 69 12 70 23 71 13 72 22 73 14 74 17 75 15 76
REMARK SMILES IDX 16 77 18 79 19 80 20 81 21 82
REMARK H PARENT 3 6 71 24 45 35 8 67 15 78
REMARK Flexibility Score: inf
ROOT
ATOM      1  C   UNL A   1      31.403  32.383  26.503  1.00  0.00     0.023 C 
ENDROOT
BRANCH   1   2
ATOM      2  C   UNL A   1      32.603  32.950  27.251  1.00  0.00     0.116 C 
BRANCH   2   3
ATOM      3  N   UNL A   1      32.375  34.313  27.699  1.00  0.00    -0.352 N 
ATOM      4  O   UNL A   1      32.578  36.083  29.084  1.00  0.00    -0.269 OA
ATOM      5  C   UNL A   1      33.000  34.992  28.714  1.00  0.00     0.251 C 
ATOM      6  H   UNL A   1      31.682  34.815  27.211  1.00  0.00     0.163 HD
BRANCH   5   7
ATOM      7  C   UNL A   1      34.178  34.389  29.367  1.00  0.00     0.039 A 
ATOM      8  C   UNL A   1      34.028  33.624  30.530  1.00  0.00     0.014 A 
ATOM      9  C   UNL A   1      35.440  34.578  28.802  1.00  0.00     0.014 A 
ATOM     10  C   UNL A   1      35.152  33.130  31.180  1.00  0.00     0.010 A 
ATOM     11  C   UNL A   1      36.562  34.017  29.416  1.00  0.00     0.010 A 
ATOM     12  C   UNL A   1      36.426  33.294  30.612  1.00  0.00    -0.014 A 
BRANCH  12  13
ATOM     13  C   UNL A   1      37.587  32.597  31.213  1.00  0.00     0.031 A 
ATOM     14  C   UNL A   1      38.246  31.438  30.526  1.00  0.00     0.074 A 
ATOM     15  C   UNL A   1      38.024  33.018  32.416  1.00  0.00     0.049 A 
ATOM     16  N   UNL A   1      39.234  30.690  30.945  1.00  0.00    -0.248 NA
ATOM     17  C   UNL A   1      37.726  31.061  29.202  1.00  0.00     0.031 C 
ATOM     18  C   UNL A   1      37.443  34.125  33.182  1.00  0.00     0.029 A 
ATOM     19  N   UNL A   1      39.047  32.568  33.210  1.00  0.00    -0.354 N 
ATOM     20  C   UNL A   1      39.442  29.742  29.953  1.00  0.00     0.074 A 
ATOM     21  C   UNL A   1      38.469  29.999  28.913  1.00  0.00     0.031 C 
ATOM     22  C   UNL A   1      38.126  34.278  34.324  1.00  0.00     0.029 A 
ATOM     23  C   UNL A   1      39.147  33.241  34.404  1.00  0.00     0.049 A 
ATOM     24  H   UNL A   1      39.650  31.835  32.950  1.00  0.00     0.167 HD
ATOM     25  C   UNL A   1      40.366  28.751  29.921  1.00  0.00     0.037 A 
ATOM     26  C   UNL A   1      39.945  33.023  35.465  1.00  0.00     0.037 A 
ATOM     27  C   UNL A   1      41.342  28.521  30.955  1.00  0.00     0.049 A 
ATOM     28  C   UNL A   1      40.930  31.892  35.412  1.00  0.00     0.074 A 
ATOM     29  C   UNL A   1      42.372  27.595  30.975  1.00  0.00     0.029 A 
ATOM     30  N   UNL A   1      41.402  29.211  32.157  1.00  0.00    -0.354 N 
ATOM     31  N   UNL A   1      41.166  31.050  34.435  1.00  0.00    -0.248 NA
ATOM     32  C   UNL A   1      41.752  31.674  36.609  1.00  0.00     0.031 C 
ATOM     33  C   UNL A   1      43.014  27.683  32.214  1.00  0.00     0.029 A 
ATOM     34  C   UNL A   1      42.420  28.698  32.945  1.00  0.00     0.049 A 
ATOM     35  H   UNL A   1      40.809  29.954  32.412  1.00  0.00     0.167 HD
ATOM     36  C   UNL A   1      42.169  30.210  34.895  1.00  0.00     0.074 A 
ATOM     37  C   UNL A   1      42.516  30.660  36.227  1.00  0.00     0.031 C 
ATOM     38  C   UNL A   1      42.747  29.156  34.270  1.00  0.00     0.037 A 
BRANCH  25  39
ATOM     39  C   UNL A   1      40.363  27.818  28.746  1.00  0.00     0.057 A 
ATOM     40  C   UNL A   1      41.130  28.061  27.600  1.00  0.00     0.134 A 
ATOM     41  C   UNL A   1      39.651  26.611  28.803  1.00  0.00     0.134 A 
ATOM     42  F   UNL A   1      41.830  29.198  27.479  1.00  0.00    -0.206 F 
ATOM     43  C   UNL A   1      41.181  27.142  26.549  1.00  0.00     0.040 A 
ATOM     44  C   UNL A   1      39.713  25.675  27.769  1.00  0.00     0.040 A 
ATOM     45  F   UNL A   1      38.904  26.312  29.876  1.00  0.00    -0.206 F 
ATOM     46  C   UNL A   1      40.480  25.941  26.637  1.00  0.00     0.006 A 
ENDBRANCH  25  39
BRANCH  26  47
ATOM     47  C   UNL A   1      39.809  33.865  36.680  1.00  0.00     0.057 A 
ATOM     48  C   UNL A   1      38.992  33.477  37.746  1.00  0.00     0.134 A 
ATOM     49  C   UNL A   1      40.491  35.083  36.799  1.00  0.00     0.134 A 
ATOM     50  F   UNL A   1      38.301  32.329  37.684  1.00  0.00    -0.206 F 
ATOM     51  C   UNL A   1      38.840  34.278  38.878  1.00  0.00     0.040 A 
ATOM     52  C   UNL A   1      40.373  35.879  37.938  1.00  0.00     0.040 A 
ATOM     53  F   UNL A   1      41.297  35.508  35.815  1.00  0.00    -0.206 F 
ATOM     54  C   UNL A   1      39.537  35.481  38.979  1.00  0.00     0.006 A 
ENDBRANCH  26  47
BRANCH  38  55
ATOM     55  C   UNL A   1      43.821  28.426  35.020  1.00  0.00     0.057 A 
ATOM     56  C   UNL A   1      45.164  28.815  34.943  1.00  0.00     0.134 A 
ATOM     57  C   UNL A   1      43.504  27.351  35.860  1.00  0.00     0.134 A 
ATOM     58  F   UNL A   1      45.535  29.826  34.142  1.00  0.00    -0.206 F 
ATOM     59  C   UNL A   1      46.157  28.150  35.664  1.00  0.00     0.040 A 
ATOM     60  C   UNL A   1      44.483  26.696  36.605  1.00  0.00     0.040 A 
ATOM     61  F   UNL A   1      42.235  26.933  35.981  1.00  0.00    -0.206 F 
ATOM     62  C   UNL A   1      45.815  27.092  36.505  1.00  0.00     0.006 A 
ENDBRANCH  38  55
ENDBRANCH  12  13
ENDBRANCH   5   7
ENDBRANCH   2   3
ENDBRANCH   1   2
BRANCH   1  63
ATOM     63  C   UNL A   1      31.531  30.906  26.109  1.00  0.00     0.023 C 
BRANCH  63  64
ATOM     64  C   UNL A   1      32.699  30.177  26.778  1.00  0.00     0.116 C 
BRANCH  64  65
ATOM     65  N   UNL A   1      32.211  29.022  27.500  1.00  0.00    -0.356 N 
ATOM     66  C   UNL A   1      31.859  27.808  26.995  1.00  0.00     0.223 C 
ATOM     67  H   UNL A   1      32.121  29.126  28.475  1.00  0.00     0.163 HD
ATOM     68  O   UNL A   1      31.028  27.157  27.626  1.00  0.00    -0.275 OA
BRANCH  66  69
ATOM     69  C   UNL A   1      32.576  27.290  25.749  1.00  0.00     0.083 C 
ATOM     70  C   UNL A   1      32.460  25.741  25.703  1.00  0.00     0.020 C 
ATOM     71  C   UNL A   1      31.994  27.930  24.469  1.00  0.00     0.053 C 
ATOM     72  C   UNL A   1      31.003  25.239  25.557  1.00  0.00     0.057 C 
ATOM     73  C   UNL A   1      30.660  27.351  24.154  1.00  0.00     0.006 A 
ATOM     74  C   UNL A   1      30.249  26.133  24.643  1.00  0.00     0.039 A 
ATOM     75  C   UNL A   1      29.540  27.881  23.460  1.00  0.00     0.169 A 
ATOM     76  N   UNL A   1      28.953  25.988  24.261  1.00  0.00    -0.282 N 
ATOM     77  N   UNL A   1      28.509  27.006  23.501  1.00  0.00    -0.171 NA
ATOM     78  H   UNL A   1      28.396  25.216  24.513  1.00  0.00     0.190 HD
BRANCH  75  79
ATOM     79  C   UNL A   1      29.437  29.230  22.793  1.00  0.00     0.435 C 
ATOM     80  F   UNL A   1      29.348  30.253  23.685  1.00  0.00    -0.164 F 
ATOM     81  F   UNL A   1      30.500  29.498  21.988  1.00  0.00    -0.164 F 
ATOM     82  F   UNL A   1      28.329  29.329  22.001  1.00  0.00    -0.164 F 
ENDBRANCH  75  79
ENDBRANCH  66  69
ENDBRANCH  64  65
ENDBRANCH  63  64
ENDBRANCH   1  63
TORSDOF 12
ENDMDL
