MODEL 1
REMARK VINA RESULT:     -12.2      0.000      0.000
REMARK SMILES CN(C)C(=O)CCNC(=O)NC[C@H]1CC[C@@H](C(=O)NCCCCNC(=O)c2ccc(-c3c4nc(c(-c5c(F)cccc5F)c5ccc([nH]5)c(-c5c(F)cccc5F)c5nc(c(-c6c(F)cccc6F)c6ccc3[nH]6)C=C5)C=C4)cc2)CC1
REMARK SMILES IDX 20 1 19 2 17 3 18 4 16 6 13 7 14 8 82 9 15 10 81 11 12 12
REMARK SMILES IDX 11 13 8 14 9 15 10 17 7 19 6 20 4 21 1 22 2 23 3 24 5 25
REMARK SMILES IDX 21 26 22 27 23 28 24 29 25 30 26 32 27 33 28 34 80 35 29 36
REMARK SMILES IDX 79 37 30 38 31 39 32 40 73 41 33 42 78 43 72 44 74 45 34 46
REMARK SMILES IDX 77 47 71 48 70 49 35 51 61 52 44 53 60 54 45 55 48 56 59 57
REMARK SMILES IDX 75 58 46 59 47 60 58 62 76 63 49 64 36 65 37 66 42 67 38 68
REMARK SMILES IDX 39 69 41 70 43 71 40 72 62 73 63 74 68 75 64 76 65 77 67 78
REMARK SMILES IDX 69 79 66 80 50 81 51 82 56 83 52 84 53 85 55 86 57 87 54 88
REMARK H PARENT 19 5 8 16 11 18 24 31 74 50 48 61
REMARK Flexibility Score: inf
ROOT
ATOM      1  C   UNL A   1      39.633  21.476  26.374  1.00  0.00     0.116 C 
ENDROOT
BRANCH   1   2
ATOM      2  N   UNL A   1      38.604  22.524  26.322  1.00  0.00    -0.356 N 
ATOM      3  C   UNL A   1      37.396  22.712  25.737  1.00  0.00     0.223 C 
ATOM      4  O   UNL A   1      36.732  23.646  26.216  1.00  0.00    -0.275 OA
ATOM      5  H   UNL A   1      38.865  23.305  26.861  1.00  0.00     0.163 HD
BRANCH   3   6
ATOM      6  C   UNL A   1      36.770  21.924  24.578  1.00  0.00     0.078 C 
ATOM      7  C   UNL A   1      33.865  22.043  23.872  1.00  0.00     0.008 C 
ATOM      8  C   UNL A   1      34.822  23.190  23.540  1.00  0.00     0.006 C 
ATOM      9  C   UNL A   1      34.373  21.098  24.979  1.00  0.00     0.006 C 
ATOM     10  C   UNL A   1      36.266  22.760  23.406  1.00  0.00     0.014 C 
ATOM     11  C   UNL A   1      35.855  20.760  24.929  1.00  0.00     0.014 C 
BRANCH   7  12
ATOM     12  C   UNL A   1      32.465  22.648  24.152  1.00  0.00     0.121 C 
BRANCH  12  13
ATOM     13  N   UNL A   1      32.350  23.278  25.449  1.00  0.00    -0.338 N 
ATOM     14  N   UNL A   1      30.284  24.458  25.489  1.00  0.00    -0.338 N 
ATOM     15  C   UNL A   1      31.305  23.804  26.090  1.00  0.00     0.314 C 
ATOM     16  H   UNL A   1      29.398  24.212  25.840  1.00  0.00     0.165 HD
ATOM     17  O   UNL A   1      31.334  23.743  27.325  1.00  0.00    -0.249 OA
ATOM     18  H   UNL A   1      33.196  23.327  25.949  1.00  0.00     0.165 HD
BRANCH  14  19
ATOM     19  C   UNL A   1      30.234  25.488  24.386  1.00  0.00     0.127 C 
BRANCH  19  20
ATOM     20  C   UNL A   1      30.357  26.988  24.904  1.00  0.00     0.121 C 
BRANCH  20  21
ATOM     21  C   UNL A   1      31.391  27.551  25.995  1.00  0.00     0.223 C 
ATOM     22  C   UNL A   1      33.659  28.084  26.796  1.00  0.00     0.146 C 
ATOM     23  N   UNL A   1      32.651  28.194  25.749  1.00  0.00    -0.349 N 
ATOM     24  C   UNL A   1      33.107  29.286  24.844  1.00  0.00     0.146 C 
ATOM     25  O   UNL A   1      31.125  27.227  27.165  1.00  0.00    -0.275 OA
ENDBRANCH  20  21
ENDBRANCH  19  20
ENDBRANCH  14  19
ENDBRANCH  12  13
ENDBRANCH   7  12
ENDBRANCH   3   6
ENDBRANCH   1   2
BRANCH   1  26
ATOM     26  C   UNL A   1      40.584  21.568  27.594  1.00  0.00     0.023 C 
BRANCH  26  27
ATOM     27  C   UNL A   1      42.165  21.643  27.418  1.00  0.00     0.023 C 
BRANCH  27  28
ATOM     28  C   UNL A   1      42.711  21.520  25.992  1.00  0.00     0.116 C 
BRANCH  28  29
ATOM     29  N   UNL A   1      42.730  22.687  25.007  1.00  0.00    -0.352 N 
ATOM     30  C   UNL A   1      43.096  24.073  25.157  1.00  0.00     0.251 C 
ATOM     31  H   UNL A   1      42.437  22.448  24.099  1.00  0.00     0.163 HD
ATOM     32  O   UNL A   1      44.140  24.455  24.622  1.00  0.00    -0.269 OA
BRANCH  30  33
ATOM     33  C   UNL A   1      42.279  25.164  25.871  1.00  0.00     0.039 A 
ATOM     34  C   UNL A   1      41.186  24.836  26.668  1.00  0.00     0.014 A 
ATOM     35  C   UNL A   1      42.510  26.546  25.736  1.00  0.00     0.014 A 
ATOM     36  C   UNL A   1      40.552  25.817  27.487  1.00  0.00     0.010 A 
ATOM     37  C   UNL A   1      42.010  27.483  26.677  1.00  0.00     0.010 A 
ATOM     38  C   UNL A   1      41.066  27.125  27.640  1.00  0.00    -0.014 A 
BRANCH  38  39
ATOM     39  C   UNL A   1      40.732  28.003  28.845  1.00  0.00     0.031 A 
ATOM     40  C   UNL A   1      39.601  29.035  28.880  1.00  0.00     0.074 A 
ATOM     41  C   UNL A   1      41.561  28.014  29.923  1.00  0.00     0.049 A 
ATOM     42  N   UNL A   1      39.245  29.846  29.860  1.00  0.00    -0.248 NA
ATOM     43  C   UNL A   1      38.802  29.223  27.663  1.00  0.00     0.031 C 
ATOM     44  C   UNL A   1      42.799  27.243  30.061  1.00  0.00     0.029 A 
ATOM     45  N   UNL A   1      41.504  28.720  31.113  1.00  0.00    -0.354 N 
ATOM     46  C   UNL A   1      38.201  30.630  29.371  1.00  0.00     0.074 A 
ATOM     47  C   UNL A   1      38.057  30.275  27.974  1.00  0.00     0.031 C 
ATOM     48  C   UNL A   1      43.359  27.488  31.255  1.00  0.00     0.029 A 
ATOM     49  C   UNL A   1      42.536  28.444  31.984  1.00  0.00     0.049 A 
ATOM     50  H   UNL A   1      40.787  29.363  31.319  1.00  0.00     0.167 HD
ATOM     51  C   UNL A   1      37.382  31.509  30.011  1.00  0.00     0.037 A 
ATOM     52  C   UNL A   1      42.807  28.871  33.234  1.00  0.00     0.037 A 
ATOM     53  C   UNL A   1      37.450  31.851  31.410  1.00  0.00     0.049 A 
ATOM     54  C   UNL A   1      41.862  29.791  33.957  1.00  0.00     0.074 A 
ATOM     55  C   UNL A   1      36.568  32.618  32.159  1.00  0.00     0.029 A 
ATOM     56  N   UNL A   1      38.457  31.458  32.273  1.00  0.00    -0.354 N 
ATOM     57  N   UNL A   1      40.761  30.348  33.524  1.00  0.00    -0.248 NA
ATOM     58  C   UNL A   1      42.182  30.105  35.360  1.00  0.00     0.031 C 
ATOM     59  C   UNL A   1      37.057  32.708  33.468  1.00  0.00     0.029 A 
ATOM     60  C   UNL A   1      38.225  31.971  33.540  1.00  0.00     0.049 A 
ATOM     61  H   UNL A   1      39.227  30.897  32.023  1.00  0.00     0.167 HD
ATOM     62  C   UNL A   1      40.227  31.026  34.614  1.00  0.00     0.074 A 
ATOM     63  C   UNL A   1      41.121  30.820  35.728  1.00  0.00     0.031 C 
ATOM     64  C   UNL A   1      39.081  31.747  34.676  1.00  0.00     0.037 A 
BRANCH  51  65
ATOM     65  C   UNL A   1      36.261  32.118  29.205  1.00  0.00     0.057 A 
ATOM     66  C   UNL A   1      36.301  33.463  28.812  1.00  0.00     0.134 A 
ATOM     67  C   UNL A   1      35.160  31.360  28.785  1.00  0.00     0.134 A 
ATOM     68  F   UNL A   1      37.336  34.243  29.163  1.00  0.00    -0.206 F 
ATOM     69  C   UNL A   1      35.259  34.051  28.092  1.00  0.00     0.040 A 
ATOM     70  C   UNL A   1      34.125  31.929  28.036  1.00  0.00     0.040 A 
ATOM     71  F   UNL A   1      35.069  30.057  29.089  1.00  0.00    -0.206 F 
ATOM     72  C   UNL A   1      34.166  33.282  27.702  1.00  0.00     0.006 A 
ENDBRANCH  51  65
BRANCH  52  73
ATOM     73  C   UNL A   1      44.000  28.354  33.956  1.00  0.00     0.057 A 
ATOM     74  C   UNL A   1      43.906  27.215  34.767  1.00  0.00     0.134 A 
ATOM     75  C   UNL A   1      45.237  29.006  33.900  1.00  0.00     0.134 A 
ATOM     76  F   UNL A   1      42.740  26.562  34.874  1.00  0.00    -0.206 F 
ATOM     77  C   UNL A   1      44.987  26.763  35.524  1.00  0.00     0.040 A 
ATOM     78  C   UNL A   1      46.333  28.552  34.637  1.00  0.00     0.040 A 
ATOM     79  F   UNL A   1      45.394  30.096  33.134  1.00  0.00    -0.206 F 
ATOM     80  C   UNL A   1      46.206  27.434  35.460  1.00  0.00     0.006 A 
ENDBRANCH  52  73
BRANCH  64  81
ATOM     81  C   UNL A   1      38.675  32.318  36.003  1.00  0.00     0.057 A 
ATOM     82  C   UNL A   1      38.052  31.544  36.990  1.00  0.00     0.134 A 
ATOM     83  C   UNL A   1      38.957  33.655  36.316  1.00  0.00     0.134 A 
ATOM     84  F   UNL A   1      37.737  30.263  36.750  1.00  0.00    -0.206 F 
ATOM     85  C   UNL A   1      37.716  32.081  38.235  1.00  0.00     0.040 A 
ATOM     86  C   UNL A   1      38.647  34.197  37.565  1.00  0.00     0.040 A 
ATOM     87  F   UNL A   1      39.552  34.453  35.417  1.00  0.00    -0.206 F 
ATOM     88  C   UNL A   1      38.022  33.409  38.529  1.00  0.00     0.006 A 
ENDBRANCH  64  81
ENDBRANCH  38  39
ENDBRANCH  30  33
ENDBRANCH  28  29
ENDBRANCH  27  28
ENDBRANCH  26  27
ENDBRANCH   1  26
TORSDOF 16
ENDMDL
MODEL 2
REMARK VINA RESULT:     -11.8      3.944      9.843
REMARK SMILES CN(C)C(=O)CCNC(=O)NC[C@H]1CC[C@@H](C(=O)NCCCCNC(=O)c2ccc(-c3c4nc(c(-c5c(F)cccc5F)c5ccc([nH]5)c(-c5c(F)cccc5F)c5nc(c(-c6c(F)cccc6F)c6ccc3[nH]6)C=C5)C=C4)cc2)CC1
REMARK SMILES IDX 20 1 19 2 17 3 18 4 16 6 13 7 14 8 82 9 15 10 81 11 12 12
REMARK SMILES IDX 11 13 8 14 9 15 10 17 7 19 6 20 4 21 1 22 2 23 3 24 5 25
REMARK SMILES IDX 21 26 22 27 23 28 24 29 25 30 26 32 27 33 28 34 80 35 29 36
REMARK SMILES IDX 79 37 30 38 31 39 32 40 73 41 33 42 78 43 72 44 74 45 34 46
REMARK SMILES IDX 77 47 71 48 70 49 35 51 61 52 44 53 60 54 45 55 48 56 59 57
REMARK SMILES IDX 75 58 46 59 47 60 58 62 76 63 49 64 36 65 37 66 42 67 38 68
REMARK SMILES IDX 39 69 41 70 43 71 40 72 62 73 63 74 68 75 64 76 65 77 67 78
REMARK SMILES IDX 69 79 66 80 50 81 51 82 56 83 52 84 53 85 55 86 57 87 54 88
REMARK H PARENT 19 5 8 16 11 18 24 31 74 50 48 61
REMARK Flexibility Score: inf
ROOT
ATOM      1  C   UNL A   1      33.830  31.340  27.982  1.00  0.00     0.116 C 
ENDROOT
BRANCH   1   2
ATOM      2  N   UNL A   1      34.048  30.441  26.840  1.00  0.00    -0.356 N 
ATOM      3  C   UNL A   1      33.293  29.721  25.975  1.00  0.00     0.223 C 
ATOM      4  O   UNL A   1      33.899  29.333  24.962  1.00  0.00    -0.275 OA
ATOM      5  H   UNL A   1      35.008  30.331  26.652  1.00  0.00     0.163 HD
BRANCH   3   6
ATOM      6  C   UNL A   1      31.811  29.339  26.099  1.00  0.00     0.078 C 
ATOM      7  C   UNL A   1      30.761  26.587  25.576  1.00  0.00     0.008 C 
ATOM      8  C   UNL A   1      31.536  26.924  26.851  1.00  0.00     0.006 C 
ATOM      9  C   UNL A   1      30.985  27.583  24.420  1.00  0.00     0.006 C 
ATOM     10  C   UNL A   1      31.469  28.386  27.238  1.00  0.00     0.014 C 
ATOM     11  C   UNL A   1      31.047  29.050  24.815  1.00  0.00     0.014 C 
BRANCH   7  12
ATOM     12  C   UNL A   1      31.059  25.111  25.205  1.00  0.00     0.121 C 
BRANCH  12  13
ATOM     13  N   UNL A   1      30.230  24.156  25.906  1.00  0.00    -0.338 N 
ATOM     14  N   UNL A   1      31.671  22.500  26.824  1.00  0.00    -0.338 N 
ATOM     15  C   UNL A   1      30.526  23.220  26.811  1.00  0.00     0.314 C 
ATOM     16  H   UNL A   1      32.062  22.399  27.722  1.00  0.00     0.165 HD
ATOM     17  O   UNL A   1      29.643  22.959  27.636  1.00  0.00    -0.249 OA
ATOM     18  H   UNL A   1      29.275  24.204  25.674  1.00  0.00     0.165 HD
BRANCH  14  19
ATOM     19  C   UNL A   1      32.470  21.822  25.737  1.00  0.00     0.127 C 
BRANCH  19  20
ATOM     20  C   UNL A   1      33.873  21.254  26.229  1.00  0.00     0.121 C 
BRANCH  20  21
ATOM     21  C   UNL A   1      35.276  21.344  25.453  1.00  0.00     0.223 C 
ATOM     22  C   UNL A   1      36.876  22.444  23.936  1.00  0.00     0.146 C 
ATOM     23  N   UNL A   1      35.998  22.533  25.097  1.00  0.00    -0.349 N 
ATOM     24  C   UNL A   1      36.391  23.773  25.823  1.00  0.00     0.146 C 
ATOM     25  O   UNL A   1      35.664  20.265  24.974  1.00  0.00    -0.275 OA
ENDBRANCH  20  21
ENDBRANCH  19  20
ENDBRANCH  14  19
ENDBRANCH  12  13
ENDBRANCH   7  12
ENDBRANCH   3   6
ENDBRANCH   1   2
BRANCH   1  26
ATOM     26  C   UNL A   1      34.450  32.751  27.818  1.00  0.00     0.023 C 
BRANCH  26  27
ATOM     27  C   UNL A   1      35.080  33.536  29.052  1.00  0.00     0.023 C 
BRANCH  27  28
ATOM     28  C   UNL A   1      34.297  33.506  30.368  1.00  0.00     0.116 C 
BRANCH  28  29
ATOM     29  N   UNL A   1      34.481  32.413  31.419  1.00  0.00    -0.352 N 
ATOM     30  C   UNL A   1      35.659  31.807  31.987  1.00  0.00     0.251 C 
ATOM     31  H   UNL A   1      33.636  32.055  31.775  1.00  0.00     0.163 HD
ATOM     32  O   UNL A   1      35.935  32.074  33.160  1.00  0.00    -0.269 OA
BRANCH  30  33
ATOM     33  C   UNL A   1      36.591  30.794  31.299  1.00  0.00     0.039 A 
ATOM     34  C   UNL A   1      36.726  30.769  29.915  1.00  0.00     0.014 A 
ATOM     35  C   UNL A   1      37.314  29.794  31.975  1.00  0.00     0.014 A 
ATOM     36  C   UNL A   1      37.731  29.975  29.288  1.00  0.00     0.010 A 
ATOM     37  C   UNL A   1      38.428  29.146  31.382  1.00  0.00     0.010 A 
ATOM     38  C   UNL A   1      38.718  29.282  30.024  1.00  0.00    -0.014 A 
BRANCH  38  39
ATOM     39  C   UNL A   1      40.055  28.861  29.412  1.00  0.00     0.031 A 
ATOM     40  C   UNL A   1      40.369  27.453  28.898  1.00  0.00     0.074 A 
ATOM     41  C   UNL A   1      41.112  29.716  29.448  1.00  0.00     0.049 A 
ATOM     42  N   UNL A   1      41.488  26.991  28.371  1.00  0.00    -0.248 NA
ATOM     43  C   UNL A   1      39.331  26.424  29.031  1.00  0.00     0.031 C 
ATOM     44  C   UNL A   1      41.113  31.056  30.039  1.00  0.00     0.029 A 
ATOM     45  N   UNL A   1      42.413  29.579  28.994  1.00  0.00    -0.354 N 
ATOM     46  C   UNL A   1      41.284  25.634  28.125  1.00  0.00     0.074 A 
ATOM     47  C   UNL A   1      39.976  25.324  28.664  1.00  0.00     0.031 C 
ATOM     48  C   UNL A   1      42.320  31.621  29.889  1.00  0.00     0.029 A 
ATOM     49  C   UNL A   1      43.202  30.690  29.198  1.00  0.00     0.049 A 
ATOM     50  H   UNL A   1      42.745  28.758  28.563  1.00  0.00     0.167 HD
ATOM     51  C   UNL A   1      42.055  24.731  27.459  1.00  0.00     0.037 A 
ATOM     52  C   UNL A   1      44.478  30.972  28.862  1.00  0.00     0.037 A 
ATOM     53  C   UNL A   1      43.337  25.006  26.858  1.00  0.00     0.049 A 
ATOM     54  C   UNL A   1      45.301  29.994  28.069  1.00  0.00     0.074 A 
ATOM     55  C   UNL A   1      44.107  24.187  26.045  1.00  0.00     0.029 A 
ATOM     56  N   UNL A   1      44.044  26.186  27.006  1.00  0.00    -0.354 N 
ATOM     57  N   UNL A   1      44.990  28.788  27.670  1.00  0.00    -0.248 NA
ATOM     58  C   UNL A   1      46.639  30.439  27.646  1.00  0.00     0.031 C 
ATOM     59  C   UNL A   1      45.290  24.862  25.723  1.00  0.00     0.029 A 
ATOM     60  C   UNL A   1      45.241  26.114  26.309  1.00  0.00     0.049 A 
ATOM     61  H   UNL A   1      43.741  26.963  27.531  1.00  0.00     0.167 HD
ATOM     62  C   UNL A   1      46.064  28.356  26.901  1.00  0.00     0.074 A 
ATOM     63  C   UNL A   1      47.040  29.420  26.890  1.00  0.00     0.031 C 
ATOM     64  C   UNL A   1      46.212  27.176  26.252  1.00  0.00     0.037 A 
BRANCH  51  65
ATOM     65  C   UNL A   1      41.486  23.347  27.269  1.00  0.00     0.057 A 
ATOM     66  C   UNL A   1      42.018  22.246  27.955  1.00  0.00     0.134 A 
ATOM     67  C   UNL A   1      40.386  23.111  26.435  1.00  0.00     0.134 A 
ATOM     68  F   UNL A   1      43.062  22.403  28.785  1.00  0.00    -0.206 F 
ATOM     69  C   UNL A   1      41.524  20.954  27.768  1.00  0.00     0.040 A 
ATOM     70  C   UNL A   1      39.860  21.827  26.265  1.00  0.00     0.040 A 
ATOM     71  F   UNL A   1      39.797  24.121  25.775  1.00  0.00    -0.206 F 
ATOM     72  C   UNL A   1      40.440  20.741  26.920  1.00  0.00     0.006 A 
ENDBRANCH  51  65
BRANCH  52  73
ATOM     73  C   UNL A   1      45.058  32.303  29.186  1.00  0.00     0.057 A 
ATOM     74  C   UNL A   1      45.768  32.500  30.378  1.00  0.00     0.134 A 
ATOM     75  C   UNL A   1      44.874  33.411  28.352  1.00  0.00     0.134 A 
ATOM     76  F   UNL A   1      45.957  31.478  31.225  1.00  0.00    -0.206 F 
ATOM     77  C   UNL A   1      46.244  33.759  30.747  1.00  0.00     0.040 A 
ATOM     78  C   UNL A   1      45.363  34.673  28.700  1.00  0.00     0.040 A 
ATOM     79  F   UNL A   1      44.212  33.284  27.193  1.00  0.00    -0.206 F 
ATOM     80  C   UNL A   1      46.041  34.850  29.906  1.00  0.00     0.006 A 
ENDBRANCH  52  73
BRANCH  64  81
ATOM     81  C   UNL A   1      47.439  26.979  25.411  1.00  0.00     0.057 A 
ATOM     82  C   UNL A   1      47.521  27.437  24.091  1.00  0.00     0.134 A 
ATOM     83  C   UNL A   1      48.577  26.363  25.951  1.00  0.00     0.134 A 
ATOM     84  F   UNL A   1      46.463  28.018  23.506  1.00  0.00    -0.206 F 
ATOM     85  C   UNL A   1      48.686  27.281  23.334  1.00  0.00     0.040 A 
ATOM     86  C   UNL A   1      49.754  26.222  25.213  1.00  0.00     0.040 A 
ATOM     87  F   UNL A   1      48.568  25.901  27.211  1.00  0.00    -0.206 F 
ATOM     88  C   UNL A   1      49.810  26.680  23.899  1.00  0.00     0.006 A 
ENDBRANCH  64  81
ENDBRANCH  38  39
ENDBRANCH  30  33
ENDBRANCH  28  29
ENDBRANCH  27  28
ENDBRANCH  26  27
ENDBRANCH   1  26
TORSDOF 16
ENDMDL
MODEL 3
REMARK VINA RESULT:     -11.7      4.140      7.868
REMARK SMILES CN(C)C(=O)CCNC(=O)NC[C@H]1CC[C@@H](C(=O)NCCCCNC(=O)c2ccc(-c3c4nc(c(-c5c(F)cccc5F)c5ccc([nH]5)c(-c5c(F)cccc5F)c5nc(c(-c6c(F)cccc6F)c6ccc3[nH]6)C=C5)C=C4)cc2)CC1
REMARK SMILES IDX 20 1 19 2 17 3 18 4 16 6 13 7 14 8 82 9 15 10 81 11 12 12
REMARK SMILES IDX 11 13 8 14 9 15 10 17 7 19 6 20 4 21 1 22 2 23 3 24 5 25
REMARK SMILES IDX 21 26 22 27 23 28 24 29 25 30 26 32 27 33 28 34 80 35 29 36
REMARK SMILES IDX 79 37 30 38 31 39 32 40 73 41 33 42 78 43 72 44 74 45 34 46
REMARK SMILES IDX 77 47 71 48 70 49 35 51 61 52 44 53 60 54 45 55 48 56 59 57
REMARK SMILES IDX 75 58 46 59 47 60 58 62 76 63 49 64 36 65 37 66 42 67 38 68
REMARK SMILES IDX 39 69 41 70 43 71 40 72 62 73 63 74 68 75 64 76 65 77 67 78
REMARK SMILES IDX 69 79 66 80 50 81 51 82 56 83 52 84 53 85 55 86 57 87 54 88
REMARK H PARENT 19 5 8 16 11 18 24 31 74 50 48 61
REMARK Flexibility Score: inf
ROOT
ATOM      1  C   UNL A   1      34.407  22.020  26.846  1.00  0.00     0.116 C 
ENDROOT
BRANCH   1   2
ATOM      2  N   UNL A   1      33.649  20.821  26.465  1.00  0.00    -0.356 N 
ATOM      3  C   UNL A   1      32.704  20.481  25.554  1.00  0.00     0.223 C 
ATOM      4  O   UNL A   1      32.563  19.258  25.391  1.00  0.00    -0.275 OA
ATOM      5  H   UNL A   1      33.895  20.050  27.027  1.00  0.00     0.163 HD
BRANCH   3   6
ATOM      6  C   UNL A   1      31.811  21.412  24.722  1.00  0.00     0.078 C 
ATOM      7  C   UNL A   1      32.633  24.154  23.852  1.00  0.00     0.008 C 
ATOM      8  C   UNL A   1      33.195  22.897  23.187  1.00  0.00     0.006 C 
ATOM      9  C   UNL A   1      32.034  23.913  25.252  1.00  0.00     0.006 C 
ATOM     10  C   UNL A   1      32.290  21.689  23.301  1.00  0.00     0.014 C 
ATOM     11  C   UNL A   1      31.226  22.634  25.414  1.00  0.00     0.014 C 
BRANCH   7  12
ATOM     12  C   UNL A   1      33.727  25.252  23.814  1.00  0.00     0.121 C 
BRANCH  12  13
ATOM     13  N   UNL A   1      33.540  26.224  22.761  1.00  0.00    -0.338 N 
ATOM     14  N   UNL A   1      33.434  28.371  23.783  1.00  0.00    -0.338 N 
ATOM     15  C   UNL A   1      33.695  27.550  22.739  1.00  0.00     0.314 C 
ATOM     16  H   UNL A   1      34.119  29.064  23.920  1.00  0.00     0.165 HD
ATOM     17  O   UNL A   1      34.028  28.044  21.656  1.00  0.00    -0.249 OA
ATOM     18  H   UNL A   1      33.245  25.840  21.904  1.00  0.00     0.165 HD
BRANCH  14  19
ATOM     19  C   UNL A   1      32.301  28.434  24.779  1.00  0.00     0.127 C 
BRANCH  19  20
ATOM     20  C   UNL A   1      30.886  28.036  24.169  1.00  0.00     0.121 C 
BRANCH  20  21
ATOM     21  C   UNL A   1      30.132  28.742  22.940  1.00  0.00     0.223 C 
ATOM     22  C   UNL A   1      28.200  29.873  21.911  1.00  0.00     0.146 C 
ATOM     23  N   UNL A   1      29.158  29.795  23.007  1.00  0.00    -0.349 N 
ATOM     24  C   UNL A   1      29.077  31.098  23.725  1.00  0.00     0.146 C 
ATOM     25  O   UNL A   1      30.302  28.179  21.845  1.00  0.00    -0.275 OA
ENDBRANCH  20  21
ENDBRANCH  19  20
ENDBRANCH  14  19
ENDBRANCH  12  13
ENDBRANCH   7  12
ENDBRANCH   3   6
ENDBRANCH   1   2
BRANCH   1  26
ATOM     26  C   UNL A   1      35.636  22.316  25.950  1.00  0.00     0.023 C 
BRANCH  26  27
ATOM     27  C   UNL A   1      36.046  21.357  24.747  1.00  0.00     0.023 C 
BRANCH  27  28
ATOM     28  C   UNL A   1      37.045  20.239  25.060  1.00  0.00     0.116 C 
BRANCH  28  29
ATOM     29  N   UNL A   1      38.559  20.430  24.973  1.00  0.00    -0.352 N 
ATOM     30  C   UNL A   1      39.559  20.694  25.976  1.00  0.00     0.251 C 
ATOM     31  H   UNL A   1      38.917  20.359  24.059  1.00  0.00     0.163 HD
ATOM     32  O   UNL A   1      40.346  19.787  26.257  1.00  0.00    -0.269 OA
BRANCH  30  33
ATOM     33  C   UNL A   1      39.800  22.030  26.700  1.00  0.00     0.039 A 
ATOM     34  C   UNL A   1      40.769  22.144  27.692  1.00  0.00     0.014 A 
ATOM     35  C   UNL A   1      39.045  23.199  26.482  1.00  0.00     0.014 A 
ATOM     36  C   UNL A   1      41.132  23.418  28.222  1.00  0.00     0.010 A 
ATOM     37  C   UNL A   1      39.522  24.479  26.865  1.00  0.00     0.010 A 
ATOM     38  C   UNL A   1      40.637  24.630  27.690  1.00  0.00    -0.014 A 
BRANCH  38  39
ATOM     39  C   UNL A   1      41.359  25.964  27.878  1.00  0.00     0.031 A 
ATOM     40  C   UNL A   1      42.783  26.256  27.397  1.00  0.00     0.074 A 
ATOM     41  C   UNL A   1      40.797  26.933  28.651  1.00  0.00     0.049 A 
ATOM     42  N   UNL A   1      43.493  27.363  27.523  1.00  0.00    -0.248 NA
ATOM     43  C   UNL A   1      43.525  25.173  26.741  1.00  0.00     0.031 C 
ATOM     44  C   UNL A   1      39.519  26.831  29.360  1.00  0.00     0.029 A 
ATOM     45  N   UNL A   1      41.240  28.199  28.994  1.00  0.00    -0.354 N 
ATOM     46  C   UNL A   1      44.747  27.097  26.975  1.00  0.00     0.074 A 
ATOM     47  C   UNL A   1      44.738  25.694  26.618  1.00  0.00     0.031 C 
ATOM     48  C   UNL A   1      39.269  27.973  30.016  1.00  0.00     0.029 A 
ATOM     49  C   UNL A   1      40.368  28.904  29.796  1.00  0.00     0.049 A 
ATOM     50  H   UNL A   1      42.103  28.563  28.692  1.00  0.00     0.167 HD
ATOM     51  C   UNL A   1      45.793  27.931  26.716  1.00  0.00     0.037 A 
ATOM     52  C   UNL A   1      40.404  30.158  30.293  1.00  0.00     0.037 A 
ATOM     53  C   UNL A   1      45.827  29.344  27.001  1.00  0.00     0.049 A 
ATOM     54  C   UNL A   1      41.531  31.092  29.948  1.00  0.00     0.074 A 
ATOM     55  C   UNL A   1      46.787  30.279  26.637  1.00  0.00     0.029 A 
ATOM     56  N   UNL A   1      44.867  30.030  27.723  1.00  0.00    -0.354 N 
ATOM     57  N   UNL A   1      42.607  30.861  29.242  1.00  0.00    -0.248 NA
ATOM     58  C   UNL A   1      41.420  32.477  30.438  1.00  0.00     0.031 C 
ATOM     59  C   UNL A   1      46.419  31.524  27.162  1.00  0.00     0.029 A 
ATOM     60  C   UNL A   1      45.213  31.369  27.823  1.00  0.00     0.049 A 
ATOM     61  H   UNL A   1      44.056  29.626  28.110  1.00  0.00     0.167 HD
ATOM     62  C   UNL A   1      43.268  32.080  29.152  1.00  0.00     0.074 A 
ATOM     63  C   UNL A   1      42.483  33.050  29.877  1.00  0.00     0.031 C 
ATOM     64  C   UNL A   1      44.427  32.362  28.508  1.00  0.00     0.037 A 
BRANCH  51  65
ATOM     65  C   UNL A   1      46.983  27.341  26.003  1.00  0.00     0.057 A 
ATOM     66  C   UNL A   1      47.077  27.372  24.604  1.00  0.00     0.134 A 
ATOM     67  C   UNL A   1      48.056  26.775  26.704  1.00  0.00     0.134 A 
ATOM     68  F   UNL A   1      46.093  27.916  23.870  1.00  0.00    -0.206 F 
ATOM     69  C   UNL A   1      48.156  26.803  23.926  1.00  0.00     0.040 A 
ATOM     70  C   UNL A   1      49.159  26.232  26.037  1.00  0.00     0.040 A 
ATOM     71  F   UNL A   1      48.058  26.744  28.045  1.00  0.00    -0.206 F 
ATOM     72  C   UNL A   1      49.203  26.230  24.644  1.00  0.00     0.006 A 
ENDBRANCH  51  65
BRANCH  52  73
ATOM     73  C   UNL A   1      39.271  30.668  31.111  1.00  0.00     0.057 A 
ATOM     74  C   UNL A   1      38.195  31.330  30.505  1.00  0.00     0.134 A 
ATOM     75  C   UNL A   1      39.260  30.557  32.506  1.00  0.00     0.134 A 
ATOM     76  F   UNL A   1      38.164  31.482  29.174  1.00  0.00    -0.206 F 
ATOM     77  C   UNL A   1      37.166  31.896  31.258  1.00  0.00     0.040 A 
ATOM     78  C   UNL A   1      38.225  31.101  33.270  1.00  0.00     0.040 A 
ATOM     79  F   UNL A   1      40.256  29.926  33.143  1.00  0.00    -0.206 F 
ATOM     80  C   UNL A   1      37.180  31.782  32.646  1.00  0.00     0.006 A 
ENDBRANCH  52  73
BRANCH  64  81
ATOM     81  C   UNL A   1      44.896  33.787  28.487  1.00  0.00     0.057 A 
ATOM     82  C   UNL A   1      44.499  34.691  27.495  1.00  0.00     0.134 A 
ATOM     83  C   UNL A   1      45.724  34.276  29.508  1.00  0.00     0.134 A 
ATOM     84  F   UNL A   1      43.723  34.285  26.478  1.00  0.00    -0.206 F 
ATOM     85  C   UNL A   1      44.914  36.025  27.512  1.00  0.00     0.040 A 
ATOM     86  C   UNL A   1      46.126  35.612  29.549  1.00  0.00     0.040 A 
ATOM     87  F   UNL A   1      46.143  33.464  30.492  1.00  0.00    -0.206 F 
ATOM     88  C   UNL A   1      45.722  36.491  28.547  1.00  0.00     0.006 A 
ENDBRANCH  64  81
ENDBRANCH  38  39
ENDBRANCH  30  33
ENDBRANCH  28  29
ENDBRANCH  27  28
ENDBRANCH  26  27
ENDBRANCH   1  26
TORSDOF 16
ENDMDL
