MODEL 1
REMARK VINA RESULT:     -10.1      0.000      0.000
REMARK SMILES COc1cccc(N2CCN(c3ccc(NC(=O)c4ccc(F)cc4)c(C(=O)NCCCCNC(=O)c4ccc(-c5c6nc(c(-c7c(F)cccc7F)c7ccc([nH]7)c(-c7c(F)cccc7F)c7nc(c(-c8c(F)cccc8F)c8ccc5[nH]8)C=C7)C=C6)cc4)c3)CC2)c1
REMARK SMILES IDX 31 1 30 2 29 3 27 4 28 5 26 7 12 8 13 9 91 10 14 11 15 12
REMARK SMILES IDX 11 13 8 14 9 15 93 16 10 17 92 18 7 19 3 20 4 21 94 22 5 23
REMARK SMILES IDX 6 24 2 25 1 26 16 27 17 28 18 30 19 31 20 32 25 33 21 34
REMARK SMILES IDX 24 35 22 36 23 37 32 38 33 39 34 40 35 41 36 43 37 44 38 45
REMARK SMILES IDX 90 46 39 47 89 48 40 49 41 50 42 51 83 52 43 53 88 54 82 55
REMARK SMILES IDX 84 56 44 57 87 58 81 59 80 60 45 62 71 63 54 64 70 65 55 66
REMARK SMILES IDX 58 67 69 68 85 69 56 70 57 71 68 73 86 74 59 75 46 76 47 77
REMARK SMILES IDX 52 78 48 79 49 80 51 81 53 82 50 83 72 84 73 85 78 86 74 87
REMARK SMILES IDX 75 88 77 89 79 90 76 91 60 92 61 93 66 94 62 95 63 96 65 97
REMARK SMILES IDX 67 98 64 99
REMARK H PARENT 29 6 16 29 34 42 84 61 58 72
REMARK Flexibility Score: inf
ROOT
ATOM      1  C   UNL A   1      35.975  31.351  32.278  1.00  0.00     0.023 C 
ENDROOT
BRANCH   1   2
ATOM      2  C   UNL A   1      37.051  31.926  33.186  1.00  0.00     0.116 C 
BRANCH   2   3
ATOM      3  N   UNL A   1      37.910  32.939  32.588  1.00  0.00    -0.352 N 
ATOM      4  C   UNL A   1      39.261  33.190  32.749  1.00  0.00     0.253 C 
ATOM      5  O   UNL A   1      39.768  34.113  32.113  1.00  0.00    -0.269 OA
ATOM      6  H   UNL A   1      37.452  33.548  31.964  1.00  0.00     0.163 HD
BRANCH   4   7
ATOM      7  C   UNL A   1      40.082  32.440  33.744  1.00  0.00     0.065 A 
ATOM      8  C   UNL A   1      40.886  30.243  34.483  1.00  0.00     0.038 A 
ATOM      9  C   UNL A   1      41.030  30.797  35.757  1.00  0.00     0.028 A 
ATOM     10  C   UNL A   1      40.469  31.114  33.475  1.00  0.00     0.042 A 
ATOM     11  C   UNL A   1      40.821  32.159  35.999  1.00  0.00     0.029 A 
ATOM     12  C   UNL A   1      40.432  33.020  34.975  1.00  0.00     0.054 A 
BRANCH   8  13
ATOM     13  N   UNL A   1      41.108  28.897  34.267  1.00  0.00    -0.368 N 
ATOM     14  N   UNL A   1      43.446  27.261  33.896  1.00  0.00    -0.368 N 
ATOM     15  C   UNL A   1      43.012  28.169  32.819  1.00  0.00     0.138 C 
ATOM     16  C   UNL A   1      43.038  27.649  35.257  1.00  0.00     0.138 C 
ATOM     17  C   UNL A   1      41.486  28.432  32.906  1.00  0.00     0.138 C 
ATOM     18  C   UNL A   1      41.526  27.964  35.335  1.00  0.00     0.138 C 
BRANCH  14  19
ATOM     19  C   UNL A   1      43.774  25.956  33.577  1.00  0.00     0.040 A 
ATOM     20  C   UNL A   1      44.036  23.599  34.145  1.00  0.00     0.120 A 
ATOM     21  C   UNL A   1      44.535  23.331  32.874  1.00  0.00     0.046 A 
ATOM     22  C   UNL A   1      43.685  24.906  34.500  1.00  0.00     0.072 A 
ATOM     23  C   UNL A   1      44.627  24.356  31.939  1.00  0.00     0.006 A 
ATOM     24  C   UNL A   1      44.234  25.651  32.287  1.00  0.00     0.026 A 
BRANCH  20  25
ATOM     25  O   UNL A   1      43.978  22.534  35.006  1.00  0.00    -0.497 OA
ATOM     26  C   UNL A   1      45.064  21.624  34.866  1.00  0.00     0.278 C 
ENDBRANCH  20  25
ENDBRANCH  14  19
ENDBRANCH   8  13
BRANCH  12  27
ATOM     27  N   UNL A   1      40.401  34.425  35.146  1.00  0.00    -0.321 N 
ATOM     28  C   UNL A   1      39.664  35.222  36.002  1.00  0.00     0.255 C 
ATOM     29  H   UNL A   1      41.010  34.920  34.552  1.00  0.00     0.170 HD
ATOM     30  O   UNL A   1      39.653  36.444  35.877  1.00  0.00    -0.269 OA
BRANCH  28  31
ATOM     31  C   UNL A   1      38.912  34.636  37.138  1.00  0.00     0.040 A 
ATOM     32  C   UNL A   1      37.803  33.826  36.861  1.00  0.00     0.017 A 
ATOM     33  C   UNL A   1      39.313  34.855  38.465  1.00  0.00     0.017 A 
ATOM     34  C   UNL A   1      37.154  33.164  37.905  1.00  0.00     0.040 A 
ATOM     35  C   UNL A   1      38.667  34.182  39.504  1.00  0.00     0.040 A 
ATOM     36  C   UNL A   1      37.604  33.332  39.212  1.00  0.00     0.123 A 
ATOM     37  F   UNL A   1      37.008  32.659  40.205  1.00  0.00    -0.207 F 
ENDBRANCH  28  31
ENDBRANCH  12  27
ENDBRANCH   4   7
ENDBRANCH   2   3
ENDBRANCH   1   2
BRANCH   1  38
ATOM     38  C   UNL A   1      35.089  32.346  31.542  1.00  0.00     0.023 C 
BRANCH  38  39
ATOM     39  C   UNL A   1      35.415  32.585  30.074  1.00  0.00     0.116 C 
BRANCH  39  40
ATOM     40  N   UNL A   1      34.542  31.886  29.142  1.00  0.00    -0.352 N 
ATOM     41  C   UNL A   1      34.776  30.749  28.399  1.00  0.00     0.251 C 
ATOM     42  H   UNL A   1      33.651  32.287  29.023  1.00  0.00     0.163 HD
ATOM     43  O   UNL A   1      33.920  30.325  27.634  1.00  0.00    -0.269 OA
BRANCH  41  44
ATOM     44  C   UNL A   1      36.088  30.069  28.487  1.00  0.00     0.039 A 
ATOM     45  C   UNL A   1      36.973  30.184  27.411  1.00  0.00     0.014 A 
ATOM     46  C   UNL A   1      36.463  29.369  29.634  1.00  0.00     0.014 A 
ATOM     47  C   UNL A   1      38.274  29.690  27.531  1.00  0.00     0.010 A 
ATOM     48  C   UNL A   1      37.781  28.949  29.782  1.00  0.00     0.010 A 
ATOM     49  C   UNL A   1      38.705  29.121  28.739  1.00  0.00    -0.014 A 
BRANCH  49  50
ATOM     50  C   UNL A   1      40.118  28.713  28.949  1.00  0.00     0.031 A 
ATOM     51  C   UNL A   1      41.111  29.702  29.487  1.00  0.00     0.074 A 
ATOM     52  C   UNL A   1      40.525  27.487  28.565  1.00  0.00     0.049 A 
ATOM     53  N   UNL A   1      42.410  29.587  29.610  1.00  0.00    -0.248 NA
ATOM     54  C   UNL A   1      40.580  31.005  29.915  1.00  0.00     0.031 C 
ATOM     55  C   UNL A   1      39.669  26.451  27.984  1.00  0.00     0.029 A 
ATOM     56  N   UNL A   1      41.772  26.912  28.588  1.00  0.00    -0.354 N 
ATOM     57  C   UNL A   1      42.850  30.806  30.108  1.00  0.00     0.074 A 
ATOM     58  C   UNL A   1      41.689  31.662  30.219  1.00  0.00     0.031 C 
ATOM     59  C   UNL A   1      40.413  25.365  27.716  1.00  0.00     0.029 A 
ATOM     60  C   UNL A   1      41.802  25.640  28.070  1.00  0.00     0.049 A 
ATOM     61  H   UNL A   1      42.569  27.369  28.942  1.00  0.00     0.167 HD
ATOM     62  C   UNL A   1      44.105  31.174  30.460  1.00  0.00     0.037 A 
ATOM     63  C   UNL A   1      42.835  24.796  27.887  1.00  0.00     0.037 A 
ATOM     64  C   UNL A   1      45.254  30.313  30.378  1.00  0.00     0.049 A 
ATOM     65  C   UNL A   1      44.217  25.225  28.292  1.00  0.00     0.074 A 
ATOM     66  C   UNL A   1      46.559  30.577  30.758  1.00  0.00     0.029 A 
ATOM     67  N   UNL A   1      45.235  29.017  29.888  1.00  0.00    -0.354 N 
ATOM     68  N   UNL A   1      44.611  26.364  28.807  1.00  0.00    -0.248 NA
ATOM     69  C   UNL A   1      45.299  24.249  28.093  1.00  0.00     0.031 C 
ATOM     70  C   UNL A   1      47.335  29.450  30.472  1.00  0.00     0.029 A 
ATOM     71  C   UNL A   1      46.506  28.471  29.946  1.00  0.00     0.049 A 
ATOM     72  H   UNL A   1      44.435  28.553  29.547  1.00  0.00     0.167 HD
ATOM     73  C   UNL A   1      45.976  26.234  29.018  1.00  0.00     0.074 A 
ATOM     74  C   UNL A   1      46.343  24.901  28.586  1.00  0.00     0.031 C 
ATOM     75  C   UNL A   1      46.849  27.138  29.525  1.00  0.00     0.037 A 
BRANCH  62  76
ATOM     76  C   UNL A   1      44.292  32.568  30.979  1.00  0.00     0.057 A 
ATOM     77  C   UNL A   1      44.104  32.880  32.332  1.00  0.00     0.134 A 
ATOM     78  C   UNL A   1      44.689  33.604  30.124  1.00  0.00     0.134 A 
ATOM     79  F   UNL A   1      43.710  31.935  33.198  1.00  0.00    -0.206 F 
ATOM     80  C   UNL A   1      44.277  34.179  32.812  1.00  0.00     0.040 A 
ATOM     81  C   UNL A   1      44.890  34.901  30.597  1.00  0.00     0.040 A 
ATOM     82  F   UNL A   1      44.891  33.372  28.818  1.00  0.00    -0.206 F 
ATOM     83  C   UNL A   1      44.677  35.193  31.943  1.00  0.00     0.006 A 
ENDBRANCH  62  76
BRANCH  63  84
ATOM     84  C   UNL A   1      42.603  23.452  27.303  1.00  0.00     0.057 A 
ATOM     85  C   UNL A   1      42.314  22.352  28.120  1.00  0.00     0.134 A 
ATOM     86  C   UNL A   1      42.678  23.228  25.924  1.00  0.00     0.134 A 
ATOM     87  F   UNL A   1      42.248  22.501  29.452  1.00  0.00    -0.206 F 
ATOM     88  C   UNL A   1      42.125  21.075  27.589  1.00  0.00     0.040 A 
ATOM     89  C   UNL A   1      42.469  21.961  25.376  1.00  0.00     0.040 A 
ATOM     90  F   UNL A   1      42.945  24.241  25.088  1.00  0.00    -0.206 F 
ATOM     91  C   UNL A   1      42.199  20.878  26.211  1.00  0.00     0.006 A 
ENDBRANCH  63  84
BRANCH  75  92
ATOM     92  C   UNL A   1      48.276  26.705  29.675  1.00  0.00     0.057 A 
ATOM     93  C   UNL A   1      49.241  26.991  28.701  1.00  0.00     0.134 A 
ATOM     94  C   UNL A   1      48.698  26.033  30.830  1.00  0.00     0.134 A 
ATOM     95  F   UNL A   1      48.895  27.618  27.567  1.00  0.00    -0.206 F 
ATOM     96  C   UNL A   1      50.573  26.611  28.864  1.00  0.00     0.040 A 
ATOM     97  C   UNL A   1      50.032  25.669  31.014  1.00  0.00     0.040 A 
ATOM     98  F   UNL A   1      47.823  25.736  31.803  1.00  0.00    -0.206 F 
ATOM     99  C   UNL A   1      50.974  25.954  30.027  1.00  0.00     0.006 A 
ENDBRANCH  75  92
ENDBRANCH  49  50
ENDBRANCH  41  44
ENDBRANCH  39  40
ENDBRANCH  38  39
ENDBRANCH   1  38
TORSDOF 16
ENDMDL
MODEL 2
REMARK VINA RESULT:      -9.7      4.708     10.437
REMARK SMILES COc1cccc(N2CCN(c3ccc(NC(=O)c4ccc(F)cc4)c(C(=O)NCCCCNC(=O)c4ccc(-c5c6nc(c(-c7c(F)cccc7F)c7ccc([nH]7)c(-c7c(F)cccc7F)c7nc(c(-c8c(F)cccc8F)c8ccc5[nH]8)C=C7)C=C6)cc4)c3)CC2)c1
REMARK SMILES IDX 31 1 30 2 29 3 27 4 28 5 26 7 12 8 13 9 91 10 14 11 15 12
REMARK SMILES IDX 11 13 8 14 9 15 93 16 10 17 92 18 7 19 3 20 4 21 94 22 5 23
REMARK SMILES IDX 6 24 2 25 1 26 16 27 17 28 18 30 19 31 20 32 25 33 21 34
REMARK SMILES IDX 24 35 22 36 23 37 32 38 33 39 34 40 35 41 36 43 37 44 38 45
REMARK SMILES IDX 90 46 39 47 89 48 40 49 41 50 42 51 83 52 43 53 88 54 82 55
REMARK SMILES IDX 84 56 44 57 87 58 81 59 80 60 45 62 71 63 54 64 70 65 55 66
REMARK SMILES IDX 58 67 69 68 85 69 56 70 57 71 68 73 86 74 59 75 46 76 47 77
REMARK SMILES IDX 52 78 48 79 49 80 51 81 53 82 50 83 72 84 73 85 78 86 74 87
REMARK SMILES IDX 75 88 77 89 79 90 76 91 60 92 61 93 66 94 62 95 63 96 65 97
REMARK SMILES IDX 67 98 64 99
REMARK H PARENT 29 6 16 29 34 42 84 61 58 72
REMARK Flexibility Score: inf
ROOT
ATOM      1  C   UNL A   1      40.529  28.090  27.132  1.00  0.00     0.023 C 
ENDROOT
BRANCH   1   2
ATOM      2  C   UNL A   1      39.448  29.049  27.608  1.00  0.00     0.116 C 
BRANCH   2   3
ATOM      3  N   UNL A   1      39.308  29.179  29.052  1.00  0.00    -0.352 N 
ATOM      4  C   UNL A   1      38.291  29.723  29.817  1.00  0.00     0.253 C 
ATOM      5  O   UNL A   1      38.401  29.704  31.042  1.00  0.00    -0.269 OA
ATOM      6  H   UNL A   1      40.064  28.821  29.571  1.00  0.00     0.163 HD
BRANCH   4   7
ATOM      7  C   UNL A   1      37.126  30.414  29.191  1.00  0.00     0.065 A 
ATOM      8  C   UNL A   1      35.041  30.159  27.925  1.00  0.00     0.038 A 
ATOM      9  C   UNL A   1      35.226  31.469  27.480  1.00  0.00     0.028 A 
ATOM     10  C   UNL A   1      35.981  29.678  28.839  1.00  0.00     0.042 A 
ATOM     11  C   UNL A   1      36.263  32.273  27.962  1.00  0.00     0.029 A 
ATOM     12  C   UNL A   1      37.176  31.787  28.895  1.00  0.00     0.054 A 
BRANCH   8  13
ATOM     13  N   UNL A   1      34.002  29.386  27.442  1.00  0.00    -0.368 N 
ATOM     14  N   UNL A   1      32.480  29.330  25.001  1.00  0.00    -0.368 N 
ATOM     15  C   UNL A   1      32.264  30.418  25.972  1.00  0.00     0.138 C 
ATOM     16  C   UNL A   1      33.807  28.693  25.046  1.00  0.00     0.138 C 
ATOM     17  C   UNL A   1      32.629  29.954  27.405  1.00  0.00     0.138 C 
ATOM     18  C   UNL A   1      34.197  28.278  26.483  1.00  0.00     0.138 C 
BRANCH  14  19
ATOM     19  C   UNL A   1      31.379  28.687  24.465  1.00  0.00     0.040 A 
ATOM     20  C   UNL A   1      29.289  28.679  23.207  1.00  0.00     0.120 A 
ATOM     21  C   UNL A   1      29.120  27.322  23.465  1.00  0.00     0.046 A 
ATOM     22  C   UNL A   1      30.396  29.360  23.726  1.00  0.00     0.072 A 
ATOM     23  C   UNL A   1      30.086  26.632  24.189  1.00  0.00     0.006 A 
ATOM     24  C   UNL A   1      31.211  27.309  24.669  1.00  0.00     0.026 A 
BRANCH  20  25
ATOM     25  O   UNL A   1      28.293  29.284  22.486  1.00  0.00    -0.497 OA
ATOM     26  C   UNL A   1      28.764  30.273  21.576  1.00  0.00     0.278 C 
ENDBRANCH  20  25
ENDBRANCH  14  19
ENDBRANCH   8  13
BRANCH  12  27
ATOM     27  N   UNL A   1      38.112  32.631  29.541  1.00  0.00    -0.321 N 
ATOM     28  C   UNL A   1      37.973  33.492  30.614  1.00  0.00     0.255 C 
ATOM     29  H   UNL A   1      39.019  32.599  29.160  1.00  0.00     0.170 HD
ATOM     30  O   UNL A   1      38.871  34.274  30.919  1.00  0.00    -0.269 OA
BRANCH  28  31
ATOM     31  C   UNL A   1      36.763  33.459  31.471  1.00  0.00     0.040 A 
ATOM     32  C   UNL A   1      35.643  34.204  31.078  1.00  0.00     0.017 A 
ATOM     33  C   UNL A   1      36.718  32.677  32.636  1.00  0.00     0.017 A 
ATOM     34  C   UNL A   1      34.453  34.093  31.799  1.00  0.00     0.040 A 
ATOM     35  C   UNL A   1      35.522  32.563  33.347  1.00  0.00     0.040 A 
ATOM     36  C   UNL A   1      34.398  33.259  32.913  1.00  0.00     0.123 A 
ATOM     37  F   UNL A   1      33.242  33.120  33.574  1.00  0.00    -0.207 F 
ENDBRANCH  28  31
ENDBRANCH  12  27
ENDBRANCH   4   7
ENDBRANCH   2   3
ENDBRANCH   1   2
BRANCH   1  38
ATOM     38  C   UNL A   1      40.121  26.639  26.920  1.00  0.00     0.023 C 
BRANCH  38  39
ATOM     39  C   UNL A   1      40.464  25.669  28.042  1.00  0.00     0.116 C 
BRANCH  39  40
ATOM     40  N   UNL A   1      40.801  24.325  27.593  1.00  0.00    -0.352 N 
ATOM     41  C   UNL A   1      41.976  23.843  27.058  1.00  0.00     0.251 C 
ATOM     42  H   UNL A   1      40.080  23.661  27.685  1.00  0.00     0.163 HD
ATOM     43  O   UNL A   1      42.058  22.674  26.704  1.00  0.00    -0.269 OA
BRANCH  41  44
ATOM     44  C   UNL A   1      43.124  24.755  26.859  1.00  0.00     0.039 A 
ATOM     45  C   UNL A   1      43.350  25.276  25.582  1.00  0.00     0.014 A 
ATOM     46  C   UNL A   1      43.938  25.134  27.927  1.00  0.00     0.014 A 
ATOM     47  C   UNL A   1      44.324  26.261  25.399  1.00  0.00     0.010 A 
ATOM     48  C   UNL A   1      44.852  26.170  27.760  1.00  0.00     0.010 A 
ATOM     49  C   UNL A   1      45.042  26.755  26.499  1.00  0.00    -0.014 A 
BRANCH  49  50
ATOM     50  C   UNL A   1      45.983  27.897  26.365  1.00  0.00     0.031 A 
ATOM     51  C   UNL A   1      47.455  27.642  26.213  1.00  0.00     0.074 A 
ATOM     52  C   UNL A   1      45.525  29.159  26.478  1.00  0.00     0.049 A 
ATOM     53  N   UNL A   1      48.448  28.495  26.222  1.00  0.00    -0.248 NA
ATOM     54  C   UNL A   1      47.869  26.238  26.062  1.00  0.00     0.031 C 
ATOM     55  C   UNL A   1      44.125  29.540  26.676  1.00  0.00     0.029 A 
ATOM     56  N   UNL A   1      46.195  30.357  26.463  1.00  0.00    -0.354 N 
ATOM     57  C   UNL A   1      49.602  27.731  26.100  1.00  0.00     0.074 A 
ATOM     58  C   UNL A   1      49.189  26.344  26.066  1.00  0.00     0.031 C 
ATOM     59  C   UNL A   1      44.040  30.878  26.753  1.00  0.00     0.029 A 
ATOM     60  C   UNL A   1      45.379  31.448  26.648  1.00  0.00     0.049 A 
ATOM     61  H   UNL A   1      47.169  30.429  26.332  1.00  0.00     0.167 HD
ATOM     62  C   UNL A   1      50.887  28.147  26.004  1.00  0.00     0.037 A 
ATOM     63  C   UNL A   1      45.679  32.757  26.738  1.00  0.00     0.037 A 
ATOM     64  C   UNL A   1      51.294  29.527  26.006  1.00  0.00     0.049 A 
ATOM     65  C   UNL A   1      47.112  33.195  26.622  1.00  0.00     0.074 A 
ATOM     66  C   UNL A   1      52.567  30.051  25.864  1.00  0.00     0.029 A 
ATOM     67  N   UNL A   1      50.432  30.603  26.153  1.00  0.00    -0.354 N 
ATOM     68  N   UNL A   1      48.188  32.464  26.457  1.00  0.00    -0.248 NA
ATOM     69  C   UNL A   1      47.374  34.640  26.700  1.00  0.00     0.031 C 
ATOM     70  C   UNL A   1      52.479  31.444  25.952  1.00  0.00     0.029 A 
ATOM     71  C   UNL A   1      51.147  31.788  26.114  1.00  0.00     0.049 A 
ATOM     72  H   UNL A   1      49.457  30.534  26.270  1.00  0.00     0.167 HD
ATOM     73  C   UNL A   1      49.247  33.358  26.386  1.00  0.00     0.074 A 
ATOM     74  C   UNL A   1      48.685  34.687  26.514  1.00  0.00     0.031 C 
ATOM     75  C   UNL A   1      50.569  33.102  26.228  1.00  0.00     0.037 A 
BRANCH  62  76
ATOM     76  C   UNL A   1      51.943  27.091  25.875  1.00  0.00     0.057 A 
ATOM     77  C   UNL A   1      52.616  26.584  26.995  1.00  0.00     0.134 A 
ATOM     78  C   UNL A   1      52.274  26.555  24.624  1.00  0.00     0.134 A 
ATOM     79  F   UNL A   1      52.354  27.066  28.220  1.00  0.00    -0.206 F 
ATOM     80  C   UNL A   1      53.599  25.602  26.873  1.00  0.00     0.040 A 
ATOM     81  C   UNL A   1      53.237  25.554  24.493  1.00  0.00     0.040 A 
ATOM     82  F   UNL A   1      51.664  26.993  23.512  1.00  0.00    -0.206 F 
ATOM     83  C   UNL A   1      53.908  25.080  25.618  1.00  0.00     0.006 A 
ENDBRANCH  62  76
BRANCH  63  84
ATOM     84  C   UNL A   1      44.599  33.756  26.937  1.00  0.00     0.057 A 
ATOM     85  C   UNL A   1      44.168  34.103  28.222  1.00  0.00     0.134 A 
ATOM     86  C   UNL A   1      43.964  34.374  25.854  1.00  0.00     0.134 A 
ATOM     87  F   UNL A   1      44.725  33.528  29.299  1.00  0.00    -0.206 F 
ATOM     88  C   UNL A   1      43.132  35.016  28.425  1.00  0.00     0.040 A 
ATOM     89  C   UNL A   1      42.942  35.306  26.041  1.00  0.00     0.040 A 
ATOM     90  F   UNL A   1      44.336  34.088  24.598  1.00  0.00    -0.206 F 
ATOM     91  C   UNL A   1      42.518  35.623  27.330  1.00  0.00     0.006 A 
ENDBRANCH  63  84
BRANCH  75  92
ATOM     92  C   UNL A   1      51.492  34.279  26.148  1.00  0.00     0.057 A 
ATOM     93  C   UNL A   1      51.882  34.830  24.922  1.00  0.00     0.134 A 
ATOM     94  C   UNL A   1      51.958  34.898  27.316  1.00  0.00     0.134 A 
ATOM     95  F   UNL A   1      51.480  34.273  23.769  1.00  0.00    -0.206 F 
ATOM     96  C   UNL A   1      52.716  35.946  24.858  1.00  0.00     0.040 A 
ATOM     97  C   UNL A   1      52.774  36.027  27.265  1.00  0.00     0.040 A 
ATOM     98  F   UNL A   1      51.614  34.422  28.523  1.00  0.00    -0.206 F 
ATOM     99  C   UNL A   1      53.160  36.553  26.033  1.00  0.00     0.006 A 
ENDBRANCH  75  92
ENDBRANCH  49  50
ENDBRANCH  41  44
ENDBRANCH  39  40
ENDBRANCH  38  39
ENDBRANCH   1  38
TORSDOF 16
ENDMDL
MODEL 3
REMARK VINA RESULT:      -9.6      4.643      9.339
REMARK SMILES COc1cccc(N2CCN(c3ccc(NC(=O)c4ccc(F)cc4)c(C(=O)NCCCCNC(=O)c4ccc(-c5c6nc(c(-c7c(F)cccc7F)c7ccc([nH]7)c(-c7c(F)cccc7F)c7nc(c(-c8c(F)cccc8F)c8ccc5[nH]8)C=C7)C=C6)cc4)c3)CC2)c1
REMARK SMILES IDX 31 1 30 2 29 3 27 4 28 5 26 7 12 8 13 9 91 10 14 11 15 12
REMARK SMILES IDX 11 13 8 14 9 15 93 16 10 17 92 18 7 19 3 20 4 21 94 22 5 23
REMARK SMILES IDX 6 24 2 25 1 26 16 27 17 28 18 30 19 31 20 32 25 33 21 34
REMARK SMILES IDX 24 35 22 36 23 37 32 38 33 39 34 40 35 41 36 43 37 44 38 45
REMARK SMILES IDX 90 46 39 47 89 48 40 49 41 50 42 51 83 52 43 53 88 54 82 55
REMARK SMILES IDX 84 56 44 57 87 58 81 59 80 60 45 62 71 63 54 64 70 65 55 66
REMARK SMILES IDX 58 67 69 68 85 69 56 70 57 71 68 73 86 74 59 75 46 76 47 77
REMARK SMILES IDX 52 78 48 79 49 80 51 81 53 82 50 83 72 84 73 85 78 86 74 87
REMARK SMILES IDX 75 88 77 89 79 90 76 91 60 92 61 93 66 94 62 95 63 96 65 97
REMARK SMILES IDX 67 98 64 99
REMARK H PARENT 29 6 16 29 34 42 84 61 58 72
REMARK Flexibility Score: inf
ROOT
ATOM      1  C   UNL A   1      40.028  27.050  28.071  1.00  0.00     0.023 C 
ENDROOT
BRANCH   1   2
ATOM      2  C   UNL A   1      38.902  28.026  28.378  1.00  0.00     0.116 C 
BRANCH   2   3
ATOM      3  N   UNL A   1      38.464  28.071  29.766  1.00  0.00    -0.352 N 
ATOM      4  C   UNL A   1      37.500  28.847  30.387  1.00  0.00     0.253 C 
ATOM      5  O   UNL A   1      37.303  28.689  31.591  1.00  0.00    -0.269 OA
ATOM      6  H   UNL A   1      38.933  27.444  30.365  1.00  0.00     0.163 HD
BRANCH   4   7
ATOM      7  C   UNL A   1      36.779  29.928  29.655  1.00  0.00     0.065 A 
ATOM      8  C   UNL A   1      35.259  30.481  27.811  1.00  0.00     0.038 A 
ATOM      9  C   UNL A   1      35.828  31.756  27.810  1.00  0.00     0.028 A 
ATOM     10  C   UNL A   1      35.713  29.603  28.797  1.00  0.00     0.042 A 
ATOM     11  C   UNL A   1      36.760  32.150  28.774  1.00  0.00     0.029 A 
ATOM     12  C   UNL A   1      37.183  31.269  29.768  1.00  0.00     0.054 A 
BRANCH   8  13
ATOM     13  N   UNL A   1      34.330  30.118  26.854  1.00  0.00    -0.368 N 
ATOM     14  N   UNL A   1      32.236  28.152  26.701  1.00  0.00    -0.368 N 
ATOM     15  C   UNL A   1      33.646  27.725  26.629  1.00  0.00     0.138 C 
ATOM     16  C   UNL A   1      31.992  29.421  27.406  1.00  0.00     0.138 C 
ATOM     17  C   UNL A   1      34.537  28.868  26.078  1.00  0.00     0.138 C 
ATOM     18  C   UNL A   1      32.917  30.549  26.894  1.00  0.00     0.138 C 
BRANCH  14  19
ATOM     19  C   UNL A   1      31.339  27.643  25.780  1.00  0.00     0.040 A 
ATOM     20  C   UNL A   1      30.026  27.811  23.731  1.00  0.00     0.120 A 
ATOM     21  C   UNL A   1      29.443  26.573  23.984  1.00  0.00     0.046 A 
ATOM     22  C   UNL A   1      30.945  28.352  24.637  1.00  0.00     0.072 A 
ATOM     23  C   UNL A   1      29.823  25.848  25.108  1.00  0.00     0.006 A 
ATOM     24  C   UNL A   1      30.773  26.376  25.987  1.00  0.00     0.026 A 
BRANCH  20  25
ATOM     25  O   UNL A   1      29.597  28.459  22.602  1.00  0.00    -0.497 OA
ATOM     26  C   UNL A   1      30.448  29.528  22.197  1.00  0.00     0.278 C 
ENDBRANCH  20  25
ENDBRANCH  14  19
ENDBRANCH   8  13
BRANCH  12  27
ATOM     27  N   UNL A   1      37.972  31.695  30.864  1.00  0.00    -0.321 N 
ATOM     28  C   UNL A   1      37.738  32.646  31.840  1.00  0.00     0.255 C 
ATOM     29  H   UNL A   1      38.839  31.234  30.944  1.00  0.00     0.170 HD
ATOM     30  O   UNL A   1      38.629  32.995  32.611  1.00  0.00    -0.269 OA
BRANCH  28  31
ATOM     31  C   UNL A   1      36.390  33.232  32.032  1.00  0.00     0.040 A 
ATOM     32  C   UNL A   1      35.407  32.461  32.667  1.00  0.00     0.017 A 
ATOM     33  C   UNL A   1      36.102  34.542  31.619  1.00  0.00     0.017 A 
ATOM     34  C   UNL A   1      34.170  33.032  32.969  1.00  0.00     0.040 A 
ATOM     35  C   UNL A   1      34.866  35.111  31.934  1.00  0.00     0.040 A 
ATOM     36  C   UNL A   1      33.919  34.356  32.618  1.00  0.00     0.123 A 
ATOM     37  F   UNL A   1      32.748  34.914  32.952  1.00  0.00    -0.207 F 
ENDBRANCH  28  31
ENDBRANCH  12  27
ENDBRANCH   4   7
ENDBRANCH   2   3
ENDBRANCH   1   2
BRANCH   1  38
ATOM     38  C   UNL A   1      39.658  25.578  27.964  1.00  0.00     0.023 C 
BRANCH  38  39
ATOM     39  C   UNL A   1      39.665  24.979  26.564  1.00  0.00     0.116 C 
BRANCH  39  40
ATOM     40  N   UNL A   1      40.496  23.793  26.421  1.00  0.00    -0.352 N 
ATOM     41  C   UNL A   1      41.869  23.678  26.376  1.00  0.00     0.251 C 
ATOM     42  H   UNL A   1      40.003  22.944  26.344  1.00  0.00     0.163 HD
ATOM     43  O   UNL A   1      42.391  22.583  26.215  1.00  0.00    -0.269 OA
BRANCH  41  44
ATOM     44  C   UNL A   1      42.713  24.890  26.468  1.00  0.00     0.039 A 
ATOM     45  C   UNL A   1      43.259  25.232  27.708  1.00  0.00     0.014 A 
ATOM     46  C   UNL A   1      43.004  25.654  25.337  1.00  0.00     0.014 A 
ATOM     47  C   UNL A   1      44.185  26.275  27.792  1.00  0.00     0.010 A 
ATOM     48  C   UNL A   1      43.985  26.639  25.407  1.00  0.00     0.010 A 
ATOM     49  C   UNL A   1      44.597  26.947  26.632  1.00  0.00    -0.014 A 
BRANCH  49  50
ATOM     50  C   UNL A   1      45.680  27.964  26.663  1.00  0.00     0.031 A 
ATOM     51  C   UNL A   1      45.338  29.422  26.770  1.00  0.00     0.074 A 
ATOM     52  C   UNL A   1      46.962  27.581  26.499  1.00  0.00     0.049 A 
ATOM     53  N   UNL A   1      46.123  30.465  26.673  1.00  0.00    -0.248 NA
ATOM     54  C   UNL A   1      43.920  29.753  26.982  1.00  0.00     0.031 C 
ATOM     55  C   UNL A   1      47.423  26.201  26.337  1.00  0.00     0.029 A 
ATOM     56  N   UNL A   1      48.113  28.325  26.420  1.00  0.00    -0.354 N 
ATOM     57  C   UNL A   1      45.293  31.572  26.791  1.00  0.00     0.074 A 
ATOM     58  C   UNL A   1      43.940  31.076  26.918  1.00  0.00     0.031 C 
ATOM     59  C   UNL A   1      48.758  26.197  26.189  1.00  0.00     0.029 A 
ATOM     60  C   UNL A   1      49.243  27.572  26.208  1.00  0.00     0.049 A 
ATOM     61  H   UNL A   1      48.127  29.306  26.507  1.00  0.00     0.167 HD
ATOM     62  C   UNL A   1      45.629  32.884  26.812  1.00  0.00     0.037 A 
ATOM     63  C   UNL A   1      50.524  27.950  26.033  1.00  0.00     0.037 A 
ATOM     64  C   UNL A   1      46.977  33.377  26.716  1.00  0.00     0.049 A 
ATOM     65  C   UNL A   1      50.872  29.412  26.066  1.00  0.00     0.074 A 
ATOM     66  C   UNL A   1      47.423  34.686  26.777  1.00  0.00     0.029 A 
ATOM     67  N   UNL A   1      48.097  32.579  26.544  1.00  0.00    -0.354 N 
ATOM     68  N   UNL A   1      50.082  30.445  26.228  1.00  0.00    -0.248 NA
ATOM     69  C   UNL A   1      52.291  29.760  25.897  1.00  0.00     0.031 C 
ATOM     70  C   UNL A   1      48.812  34.682  26.615  1.00  0.00     0.029 A 
ATOM     71  C   UNL A   1      49.234  33.368  26.488  1.00  0.00     0.049 A 
ATOM     72  H   UNL A   1      48.086  31.597  26.471  1.00  0.00     0.167 HD
ATOM     73  C   UNL A   1      50.908  31.561  26.207  1.00  0.00     0.074 A 
ATOM     74  C   UNL A   1      52.262  31.079  26.027  1.00  0.00     0.031 C 
ATOM     75  C   UNL A   1      50.574  32.869  26.324  1.00  0.00     0.037 A 
BRANCH  62  76
ATOM     76  C   UNL A   1      44.514  33.877  26.956  1.00  0.00     0.057 A 
ATOM     77  C   UNL A   1      44.083  34.319  28.214  1.00  0.00     0.134 A 
ATOM     78  C   UNL A   1      43.882  34.415  25.829  1.00  0.00     0.134 A 
ATOM     79  F   UNL A   1      44.639  33.830  29.333  1.00  0.00    -0.206 F 
ATOM     80  C   UNL A   1      43.044  35.241  28.347  1.00  0.00     0.040 A 
ATOM     81  C   UNL A   1      42.859  35.357  25.948  1.00  0.00     0.040 A 
ATOM     82  F   UNL A   1      44.250  34.038  24.595  1.00  0.00    -0.206 F 
ATOM     83  C   UNL A   1      42.433  35.767  27.210  1.00  0.00     0.006 A 
ENDBRANCH  62  76
BRANCH  63  84
ATOM     84  C   UNL A   1      51.578  26.928  25.823  1.00  0.00     0.057 A 
ATOM     85  C   UNL A   1      51.973  26.555  24.532  1.00  0.00     0.134 A 
ATOM     86  C   UNL A   1      52.206  26.289  26.898  1.00  0.00     0.134 A 
ATOM     87  F   UNL A   1      51.393  27.118  23.461  1.00  0.00    -0.206 F 
ATOM     88  C   UNL A   1      52.940  25.572  24.318  1.00  0.00     0.040 A 
ATOM     89  C   UNL A   1      53.191  25.321  26.700  1.00  0.00     0.040 A 
ATOM     90  F   UNL A   1      51.876  26.606  28.159  1.00  0.00    -0.206 F 
ATOM     91  C   UNL A   1      53.555  24.954  25.406  1.00  0.00     0.006 A 
ENDBRANCH  63  84
BRANCH  75  92
ATOM     92  C   UNL A   1      51.692  33.867  26.301  1.00  0.00     0.057 A 
ATOM     93  C   UNL A   1      52.319  34.300  27.475  1.00  0.00     0.134 A 
ATOM     94  C   UNL A   1      52.176  34.365  25.084  1.00  0.00     0.134 A 
ATOM     95  F   UNL A   1      51.891  33.871  28.672  1.00  0.00    -0.206 F 
ATOM     96  C   UNL A   1      53.380  35.206  27.441  1.00  0.00     0.040 A 
ATOM     97  C   UNL A   1      53.250  35.253  25.037  1.00  0.00     0.040 A 
ATOM     98  F   UNL A   1      51.621  33.983  23.923  1.00  0.00    -0.206 F 
ATOM     99  C   UNL A   1      53.853  35.680  26.218  1.00  0.00     0.006 A 
ENDBRANCH  75  92
ENDBRANCH  49  50
ENDBRANCH  41  44
ENDBRANCH  39  40
ENDBRANCH  38  39
ENDBRANCH   1  38
TORSDOF 16
ENDMDL
