MODEL 1
REMARK VINA RESULT:     -13.1      0.000      0.000
REMARK SMILES Cc1ccc(-c2c(C(=O)NCCCCNC(=O)c3ccc(-c4c5nc(c(-c6c(F)cccc6F)c6ccc([nH]6)c(-c6c(F)cccc6F)c6nc(c(-c7c(F)cccc7F)c7ccc4[nH]7)C=C6)C=C5)cc3)nnn2Cc2c(F)cccc2Cl)cc1
REMARK SMILES IDX 12 1 11 2 10 3 8 4 9 5 7 7 6 8 74 9 72 10 73 11 5 12 1 13
REMARK SMILES IDX 2 14 3 15 85 16 4 17 84 18 75 19 76 20 77 21 82 22 78 23
REMARK SMILES IDX 79 24 81 25 83 26 80 27 13 28 14 29 15 30 16 31 17 33 18 34
REMARK SMILES IDX 19 35 71 36 20 37 70 38 21 39 22 40 23 41 64 42 24 43 69 44
REMARK SMILES IDX 63 45 65 46 25 47 68 48 62 49 61 50 26 52 52 53 35 54 51 55
REMARK SMILES IDX 36 56 39 57 50 58 66 59 37 60 38 61 49 63 67 64 40 65 27 66
REMARK SMILES IDX 28 67 33 68 29 69 30 70 32 71 34 72 31 73 53 74 54 75 59 76
REMARK SMILES IDX 55 77 56 78 58 79 60 80 57 81 41 82 42 83 47 84 43 85 44 86
REMARK SMILES IDX 46 87 48 88 45 89
REMARK H PARENT 10 6 15 32 65 51 39 62
REMARK Flexibility Score: inf
ROOT
ATOM      1  C   UNL A   1      32.428  29.699  25.375  1.00  0.00     0.023 C 
ENDROOT
BRANCH   1   2
ATOM      2  C   UNL A   1      33.694  28.864  25.158  1.00  0.00     0.116 C 
BRANCH   2   3
ATOM      3  N   UNL A   1      34.002  28.692  23.763  1.00  0.00    -0.351 N 
ATOM      4  C   UNL A   1      33.722  27.726  22.833  1.00  0.00     0.274 C 
ATOM      5  O   UNL A   1      34.113  28.032  21.699  1.00  0.00    -0.267 OA
ATOM      6  H   UNL A   1      34.532  29.436  23.394  1.00  0.00     0.163 HD
BRANCH   4   7
ATOM      7  C   UNL A   1      33.025  26.450  23.052  1.00  0.00     0.178 A 
ATOM      8  C   UNL A   1      33.326  25.169  23.531  1.00  0.00     0.102 A 
ATOM      9  N   UNL A   1      32.103  24.515  23.479  1.00  0.00    -0.239 N 
ATOM     10  N   UNL A   1      31.694  26.440  22.649  1.00  0.00    -0.124 NA
ATOM     11  N   UNL A   1      31.167  25.257  22.877  1.00  0.00    -0.066 NA
BRANCH   8  12
ATOM     12  C   UNL A   1      34.520  24.478  24.000  1.00  0.00     0.002 A 
ATOM     13  C   UNL A   1      38.026  22.404  25.420  1.00  0.00     0.044 C 
ATOM     14  C   UNL A   1      36.842  23.171  24.910  1.00  0.00    -0.051 A 
ATOM     15  C   UNL A   1      36.359  22.934  23.620  1.00  0.00     0.004 A 
ATOM     16  C   UNL A   1      36.173  24.086  25.732  1.00  0.00     0.004 A 
ATOM     17  C   UNL A   1      35.219  23.598  23.162  1.00  0.00     0.011 A 
ATOM     18  C   UNL A   1      35.022  24.736  25.278  1.00  0.00     0.011 A 
ENDBRANCH   8  12
BRANCH   9  19
ATOM     19  C   UNL A   1      31.735  23.159  23.875  1.00  0.00     0.187 C 
BRANCH  19  20
ATOM     20  C   UNL A   1      32.380  22.629  25.132  1.00  0.00     0.028 A 
ATOM     21  C   UNL A   1      33.160  21.470  24.998  1.00  0.00     0.129 A 
ATOM     22  C   UNL A   1      32.216  23.138  26.429  1.00  0.00     0.049 A 
ATOM     23  F   UNL A   1      33.276  20.886  23.796  1.00  0.00    -0.207 F 
ATOM     24  C   UNL A   1      33.817  20.882  26.076  1.00  0.00     0.040 A 
ATOM     25  C   UNL A   1      32.904  22.572  27.514  1.00  0.00     0.021 A 
ATOM     26  Cl  UNL A   1      31.173  24.462  26.805  1.00  0.00    -0.084 Cl
ATOM     27  C   UNL A   1      33.709  21.450  27.338  1.00  0.00     0.005 A 
ENDBRANCH  19  20
ENDBRANCH   9  19
ENDBRANCH   4   7
ENDBRANCH   2   3
ENDBRANCH   1   2
BRANCH   1  28
ATOM     28  C   UNL A   1      32.577  30.780  26.450  1.00  0.00     0.023 C 
BRANCH  28  29
ATOM     29  C   UNL A   1      33.497  30.370  27.599  1.00  0.00     0.116 C 
BRANCH  29  30
ATOM     30  N   UNL A   1      34.298  31.433  28.168  1.00  0.00    -0.352 N 
ATOM     31  C   UNL A   1      35.588  31.398  28.711  1.00  0.00     0.251 C 
ATOM     32  H   UNL A   1      33.869  32.319  28.172  1.00  0.00     0.163 HD
ATOM     33  O   UNL A   1      36.041  32.405  29.220  1.00  0.00    -0.269 OA
BRANCH  31  34
ATOM     34  C   UNL A   1      36.457  30.197  28.532  1.00  0.00     0.039 A 
ATOM     35  C   UNL A   1      36.598  29.333  29.628  1.00  0.00     0.014 A 
ATOM     36  C   UNL A   1      37.277  30.023  27.425  1.00  0.00     0.014 A 
ATOM     37  C   UNL A   1      37.724  28.514  29.724  1.00  0.00     0.010 A 
ATOM     38  C   UNL A   1      38.452  29.310  27.564  1.00  0.00     0.010 A 
ATOM     39  C   UNL A   1      38.711  28.616  28.746  1.00  0.00    -0.014 A 
BRANCH  39  40
ATOM     40  C   UNL A   1      40.096  28.208  28.960  1.00  0.00     0.031 A 
ATOM     41  C   UNL A   1      40.629  26.945  28.412  1.00  0.00     0.074 A 
ATOM     42  C   UNL A   1      40.940  29.085  29.549  1.00  0.00     0.049 A 
ATOM     43  N   UNL A   1      41.656  26.330  28.898  1.00  0.00    -0.248 NA
ATOM     44  C   UNL A   1      40.028  26.256  27.275  1.00  0.00     0.031 C 
ATOM     45  C   UNL A   1      42.400  29.053  29.551  1.00  0.00     0.029 A 
ATOM     46  N   UNL A   1      40.615  30.122  30.433  1.00  0.00    -0.354 N 
ATOM     47  C   UNL A   1      42.015  25.353  28.001  1.00  0.00     0.074 A 
ATOM     48  C   UNL A   1      40.936  25.304  27.039  1.00  0.00     0.031 C 
ATOM     49  C   UNL A   1      42.850  29.817  30.560  1.00  0.00     0.029 A 
ATOM     50  C   UNL A   1      41.692  30.220  31.339  1.00  0.00     0.049 A 
ATOM     51  H   UNL A   1      39.798  30.671  30.425  1.00  0.00     0.167 HD
ATOM     52  C   UNL A   1      43.251  24.781  28.070  1.00  0.00     0.037 A 
ATOM     53  C   UNL A   1      41.529  29.979  32.672  1.00  0.00     0.037 A 
ATOM     54  C   UNL A   1      44.044  25.334  29.159  1.00  0.00     0.049 A 
ATOM     55  C   UNL A   1      42.414  28.882  33.215  1.00  0.00     0.074 A 
ATOM     56  C   UNL A   1      44.996  26.340  29.193  1.00  0.00     0.029 A 
ATOM     57  N   UNL A   1      43.688  25.084  30.479  1.00  0.00    -0.354 N 
ATOM     58  N   UNL A   1      42.966  27.964  32.474  1.00  0.00    -0.248 NA
ATOM     59  C   UNL A   1      42.690  28.698  34.637  1.00  0.00     0.031 C 
ATOM     60  C   UNL A   1      45.189  26.722  30.539  1.00  0.00     0.029 A 
ATOM     61  C   UNL A   1      44.360  25.944  31.327  1.00  0.00     0.049 A 
ATOM     62  H   UNL A   1      43.051  24.393  30.769  1.00  0.00     0.167 HD
ATOM     63  C   UNL A   1      43.584  27.044  33.279  1.00  0.00     0.074 A 
ATOM     64  C   UNL A   1      43.419  27.568  34.621  1.00  0.00     0.031 C 
ATOM     65  C   UNL A   1      44.143  25.910  32.766  1.00  0.00     0.037 A 
BRANCH  52  66
ATOM     66  C   UNL A   1      43.823  23.956  26.944  1.00  0.00     0.057 A 
ATOM     67  C   UNL A   1      44.602  24.541  25.927  1.00  0.00     0.134 A 
ATOM     68  C   UNL A   1      43.595  22.579  26.790  1.00  0.00     0.134 A 
ATOM     69  F   UNL A   1      44.985  25.823  25.979  1.00  0.00    -0.206 F 
ATOM     70  C   UNL A   1      45.019  23.840  24.790  1.00  0.00     0.040 A 
ATOM     71  C   UNL A   1      43.965  21.874  25.635  1.00  0.00     0.040 A 
ATOM     72  F   UNL A   1      43.025  21.856  27.767  1.00  0.00    -0.206 F 
ATOM     73  C   UNL A   1      44.667  22.510  24.620  1.00  0.00     0.006 A 
ENDBRANCH  52  66
BRANCH  53  74
ATOM     74  C   UNL A   1      40.146  30.228  33.160  1.00  0.00     0.057 A 
ATOM     75  C   UNL A   1      39.737  31.547  33.410  1.00  0.00     0.134 A 
ATOM     76  C   UNL A   1      39.145  29.260  33.044  1.00  0.00     0.134 A 
ATOM     77  F   UNL A   1      40.650  32.525  33.538  1.00  0.00    -0.206 F 
ATOM     78  C   UNL A   1      38.389  31.908  33.422  1.00  0.00     0.040 A 
ATOM     79  C   UNL A   1      37.789  29.608  33.072  1.00  0.00     0.040 A 
ATOM     80  F   UNL A   1      39.455  27.979  32.797  1.00  0.00    -0.206 F 
ATOM     81  C   UNL A   1      37.410  30.939  33.221  1.00  0.00     0.006 A 
ENDBRANCH  53  74
BRANCH  65  82
ATOM     82  C   UNL A   1      44.603  24.712  33.556  1.00  0.00     0.057 A 
ATOM     83  C   UNL A   1      45.943  24.313  33.677  1.00  0.00     0.134 A 
ATOM     84  C   UNL A   1      43.691  23.993  34.361  1.00  0.00     0.134 A 
ATOM     85  F   UNL A   1      46.931  24.975  33.062  1.00  0.00    -0.206 F 
ATOM     86  C   UNL A   1      46.339  23.244  34.491  1.00  0.00     0.040 A 
ATOM     87  C   UNL A   1      44.082  22.959  35.217  1.00  0.00     0.040 A 
ATOM     88  F   UNL A   1      42.381  24.281  34.371  1.00  0.00    -0.206 F 
ATOM     89  C   UNL A   1      45.410  22.570  35.274  1.00  0.00     0.006 A 
ENDBRANCH  65  82
ENDBRANCH  39  40
ENDBRANCH  31  34
ENDBRANCH  29  30
ENDBRANCH  28  29
ENDBRANCH   1  28
TORSDOF 14
ENDMDL
MODEL 2
REMARK VINA RESULT:     -12.9      1.696      2.890
REMARK SMILES Cc1ccc(-c2c(C(=O)NCCCCNC(=O)c3ccc(-c4c5nc(c(-c6c(F)cccc6F)c6ccc([nH]6)c(-c6c(F)cccc6F)c6nc(c(-c7c(F)cccc7F)c7ccc4[nH]7)C=C6)C=C5)cc3)nnn2Cc2c(F)cccc2Cl)cc1
REMARK SMILES IDX 12 1 11 2 10 3 8 4 9 5 7 7 6 8 74 9 72 10 73 11 5 12 1 13
REMARK SMILES IDX 2 14 3 15 85 16 4 17 84 18 75 19 76 20 77 21 82 22 78 23
REMARK SMILES IDX 79 24 81 25 83 26 80 27 13 28 14 29 15 30 16 31 17 33 18 34
REMARK SMILES IDX 19 35 71 36 20 37 70 38 21 39 22 40 23 41 64 42 24 43 69 44
REMARK SMILES IDX 63 45 65 46 25 47 68 48 62 49 61 50 26 52 52 53 35 54 51 55
REMARK SMILES IDX 36 56 39 57 50 58 66 59 37 60 38 61 49 63 67 64 40 65 27 66
REMARK SMILES IDX 28 67 33 68 29 69 30 70 32 71 34 72 31 73 53 74 54 75 59 76
REMARK SMILES IDX 55 77 56 78 58 79 60 80 57 81 41 82 42 83 47 84 43 85 44 86
REMARK SMILES IDX 46 87 48 88 45 89
REMARK H PARENT 10 6 15 32 65 51 39 62
REMARK Flexibility Score: inf
ROOT
ATOM      1  C   UNL A   1      33.982  28.355  25.991  1.00  0.00     0.023 C 
ENDROOT
BRANCH   1   2
ATOM      2  C   UNL A   1      33.197  29.037  24.866  1.00  0.00     0.116 C 
BRANCH   2   3
ATOM      3  N   UNL A   1      33.743  28.747  23.567  1.00  0.00    -0.351 N 
ATOM      4  C   UNL A   1      33.651  27.686  22.705  1.00  0.00     0.274 C 
ATOM      5  O   UNL A   1      34.222  27.900  21.627  1.00  0.00    -0.267 OA
ATOM      6  H   UNL A   1      34.309  29.473  23.219  1.00  0.00     0.163 HD
BRANCH   4   7
ATOM      7  C   UNL A   1      32.959  26.408  22.930  1.00  0.00     0.178 A 
ATOM      8  C   UNL A   1      33.263  25.134  23.425  1.00  0.00     0.102 A 
ATOM      9  N   UNL A   1      32.043  24.473  23.370  1.00  0.00    -0.239 N 
ATOM     10  N   UNL A   1      31.631  26.387  22.517  1.00  0.00    -0.124 NA
ATOM     11  N   UNL A   1      31.109  25.204  22.752  1.00  0.00    -0.066 NA
BRANCH   8  12
ATOM     12  C   UNL A   1      34.456  24.454  23.911  1.00  0.00     0.002 A 
ATOM     13  C   UNL A   1      37.961  22.414  25.381  1.00  0.00     0.044 C 
ATOM     14  C   UNL A   1      36.778  23.169  24.854  1.00  0.00    -0.051 A 
ATOM     15  C   UNL A   1      36.315  22.929  23.557  1.00  0.00     0.004 A 
ATOM     16  C   UNL A   1      36.087  24.077  25.666  1.00  0.00     0.004 A 
ATOM     17  C   UNL A   1      35.176  23.582  23.083  1.00  0.00     0.011 A 
ATOM     18  C   UNL A   1      34.937  24.717  25.197  1.00  0.00     0.011 A 
ENDBRANCH   8  12
BRANCH   9  19
ATOM     19  C   UNL A   1      31.679  23.120  23.777  1.00  0.00     0.187 C 
BRANCH  19  20
ATOM     20  C   UNL A   1      32.313  22.606  25.046  1.00  0.00     0.028 A 
ATOM     21  C   UNL A   1      33.114  21.459  24.931  1.00  0.00     0.129 A 
ATOM     22  C   UNL A   1      32.122  23.121  26.337  1.00  0.00     0.049 A 
ATOM     23  F   UNL A   1      33.256  20.870  23.734  1.00  0.00    -0.207 F 
ATOM     24  C   UNL A   1      33.764  20.888  26.022  1.00  0.00     0.040 A 
ATOM     25  C   UNL A   1      32.803  22.572  27.436  1.00  0.00     0.021 A 
ATOM     26  Cl  UNL A   1      31.053  24.431  26.689  1.00  0.00    -0.084 Cl
ATOM     27  C   UNL A   1      33.627  21.461  27.279  1.00  0.00     0.005 A 
ENDBRANCH  19  20
ENDBRANCH   9  19
ENDBRANCH   4   7
ENDBRANCH   2   3
ENDBRANCH   1   2
BRANCH   1  28
ATOM     28  C   UNL A   1      33.802  29.018  27.361  1.00  0.00     0.023 C 
BRANCH  28  29
ATOM     29  C   UNL A   1      34.704  30.233  27.570  1.00  0.00     0.116 C 
BRANCH  29  30
ATOM     30  N   UNL A   1      34.021  31.500  27.719  1.00  0.00    -0.352 N 
ATOM     31  C   UNL A   1      34.288  32.572  28.578  1.00  0.00     0.251 C 
ATOM     32  H   UNL A   1      33.249  31.628  27.122  1.00  0.00     0.163 HD
ATOM     33  O   UNL A   1      33.522  33.517  28.599  1.00  0.00    -0.269 OA
BRANCH  31  34
ATOM     34  C   UNL A   1      35.569  32.635  29.342  1.00  0.00     0.039 A 
ATOM     35  C   UNL A   1      36.641  33.318  28.751  1.00  0.00     0.014 A 
ATOM     36  C   UNL A   1      35.797  31.882  30.486  1.00  0.00     0.014 A 
ATOM     37  C   UNL A   1      37.951  33.013  29.127  1.00  0.00     0.010 A 
ATOM     38  C   UNL A   1      37.086  31.483  30.784  1.00  0.00     0.010 A 
ATOM     39  C   UNL A   1      38.160  31.991  30.051  1.00  0.00    -0.014 A 
BRANCH  39  40
ATOM     40  C   UNL A   1      39.418  31.261  30.168  1.00  0.00     0.031 A 
ATOM     41  C   UNL A   1      39.648  29.986  29.461  1.00  0.00     0.074 A 
ATOM     42  C   UNL A   1      40.442  31.850  30.826  1.00  0.00     0.049 A 
ATOM     43  N   UNL A   1      40.513  29.104  29.837  1.00  0.00    -0.248 NA
ATOM     44  C   UNL A   1      38.898  29.591  28.273  1.00  0.00     0.031 C 
ATOM     45  C   UNL A   1      41.857  31.493  30.775  1.00  0.00     0.029 A 
ATOM     46  N   UNL A   1      40.366  32.819  31.835  1.00  0.00    -0.354 N 
ATOM     47  C   UNL A   1      40.635  28.186  28.821  1.00  0.00     0.074 A 
ATOM     48  C   UNL A   1      39.566  28.496  27.897  1.00  0.00     0.031 C 
ATOM     49  C   UNL A   1      42.475  32.009  31.849  1.00  0.00     0.029 A 
ATOM     50  C   UNL A   1      41.444  32.564  32.709  1.00  0.00     0.049 A 
ATOM     51  H   UNL A   1      39.695  33.534  31.918  1.00  0.00     0.167 HD
ATOM     52  C   UNL A   1      41.710  27.348  28.781  1.00  0.00     0.037 A 
ATOM     53  C   UNL A   1      41.240  32.206  34.010  1.00  0.00     0.037 A 
ATOM     54  C   UNL A   1      42.616  27.575  29.899  1.00  0.00     0.049 A 
ATOM     55  C   UNL A   1      41.858  30.883  34.392  1.00  0.00     0.074 A 
ATOM     56  C   UNL A   1      43.771  28.332  30.016  1.00  0.00     0.029 A 
ATOM     57  N   UNL A   1      42.222  27.254  31.193  1.00  0.00    -0.354 N 
ATOM     58  N   UNL A   1      42.183  29.960  33.531  1.00  0.00    -0.248 NA
ATOM     59  C   UNL A   1      42.096  30.471  35.773  1.00  0.00     0.031 C 
ATOM     60  C   UNL A   1      44.054  28.496  31.390  1.00  0.00     0.029 A 
ATOM     61  C   UNL A   1      43.077  27.834  32.111  1.00  0.00     0.049 A 
ATOM     62  H   UNL A   1      41.447  26.693  31.422  1.00  0.00     0.167 HD
ATOM     63  C   UNL A   1      42.583  28.835  34.203  1.00  0.00     0.074 A 
ATOM     64  C   UNL A   1      42.550  29.218  35.601  1.00  0.00     0.031 C 
ATOM     65  C   UNL A   1      42.867  27.676  33.542  1.00  0.00     0.037 A 
BRANCH  52  66
ATOM     66  C   UNL A   1      42.073  26.559  27.548  1.00  0.00     0.057 A 
ATOM     67  C   UNL A   1      41.827  25.175  27.462  1.00  0.00     0.134 A 
ATOM     68  C   UNL A   1      42.713  27.112  26.427  1.00  0.00     0.134 A 
ATOM     69  F   UNL A   1      41.142  24.519  28.407  1.00  0.00    -0.206 F 
ATOM     70  C   UNL A   1      42.286  24.386  26.403  1.00  0.00     0.040 A 
ATOM     71  C   UNL A   1      43.222  26.327  25.381  1.00  0.00     0.040 A 
ATOM     72  F   UNL A   1      42.851  28.439  26.290  1.00  0.00    -0.206 F 
ATOM     73  C   UNL A   1      43.022  24.954  25.374  1.00  0.00     0.006 A 
ENDBRANCH  52  66
BRANCH  53  74
ATOM     74  C   UNL A   1      39.953  32.698  34.570  1.00  0.00     0.057 A 
ATOM     75  C   UNL A   1      38.841  31.841  34.582  1.00  0.00     0.134 A 
ATOM     76  C   UNL A   1      39.897  33.827  35.392  1.00  0.00     0.134 A 
ATOM     77  F   UNL A   1      38.829  30.740  33.812  1.00  0.00    -0.206 F 
ATOM     78  C   UNL A   1      37.774  32.034  35.462  1.00  0.00     0.040 A 
ATOM     79  C   UNL A   1      38.824  34.040  36.265  1.00  0.00     0.040 A 
ATOM     80  F   UNL A   1      40.923  34.689  35.442  1.00  0.00    -0.206 F 
ATOM     81  C   UNL A   1      37.780  33.121  36.330  1.00  0.00     0.006 A 
ENDBRANCH  53  74
BRANCH  65  82
ATOM     82  C   UNL A   1      43.050  26.319  34.172  1.00  0.00     0.057 A 
ATOM     83  C   UNL A   1      42.058  25.647  34.902  1.00  0.00     0.134 A 
ATOM     84  C   UNL A   1      44.221  25.567  33.925  1.00  0.00     0.134 A 
ATOM     85  F   UNL A   1      40.853  26.191  35.116  1.00  0.00    -0.206 F 
ATOM     86  C   UNL A   1      42.238  24.349  35.399  1.00  0.00     0.040 A 
ATOM     87  C   UNL A   1      44.391  24.253  34.371  1.00  0.00     0.040 A 
ATOM     88  F   UNL A   1      45.244  26.069  33.216  1.00  0.00    -0.206 F 
ATOM     89  C   UNL A   1      43.402  23.643  35.125  1.00  0.00     0.006 A 
ENDBRANCH  65  82
ENDBRANCH  39  40
ENDBRANCH  31  34
ENDBRANCH  29  30
ENDBRANCH  28  29
ENDBRANCH   1  28
TORSDOF 14
ENDMDL
MODEL 3
REMARK VINA RESULT:     -12.7      3.369      8.299
REMARK SMILES Cc1ccc(-c2c(C(=O)NCCCCNC(=O)c3ccc(-c4c5nc(c(-c6c(F)cccc6F)c6ccc([nH]6)c(-c6c(F)cccc6F)c6nc(c(-c7c(F)cccc7F)c7ccc4[nH]7)C=C6)C=C5)cc3)nnn2Cc2c(F)cccc2Cl)cc1
REMARK SMILES IDX 12 1 11 2 10 3 8 4 9 5 7 7 6 8 74 9 72 10 73 11 5 12 1 13
REMARK SMILES IDX 2 14 3 15 85 16 4 17 84 18 75 19 76 20 77 21 82 22 78 23
REMARK SMILES IDX 79 24 81 25 83 26 80 27 13 28 14 29 15 30 16 31 17 33 18 34
REMARK SMILES IDX 19 35 71 36 20 37 70 38 21 39 22 40 23 41 64 42 24 43 69 44
REMARK SMILES IDX 63 45 65 46 25 47 68 48 62 49 61 50 26 52 52 53 35 54 51 55
REMARK SMILES IDX 36 56 39 57 50 58 66 59 37 60 38 61 49 63 67 64 40 65 27 66
REMARK SMILES IDX 28 67 33 68 29 69 30 70 32 71 34 72 31 73 53 74 54 75 59 76
REMARK SMILES IDX 55 77 56 78 58 79 60 80 57 81 41 82 42 83 47 84 43 85 44 86
REMARK SMILES IDX 46 87 48 88 45 89
REMARK H PARENT 10 6 15 32 65 51 39 62
REMARK Flexibility Score: inf
ROOT
ATOM      1  C   UNL A   1      37.931  23.421  25.917  1.00  0.00     0.023 C 
ENDROOT
BRANCH   1   2
ATOM      2  C   UNL A   1      36.431  23.563  25.643  1.00  0.00     0.116 C 
BRANCH   2   3
ATOM      3  N   UNL A   1      35.629  22.983  26.687  1.00  0.00    -0.351 N 
ATOM      4  C   UNL A   1      34.286  22.774  26.859  1.00  0.00     0.274 C 
ATOM      5  O   UNL A   1      34.032  22.144  27.894  1.00  0.00    -0.267 OA
ATOM      6  H   UNL A   1      36.165  22.666  27.450  1.00  0.00     0.163 HD
BRANCH   4   7
ATOM      7  C   UNL A   1      33.195  23.190  25.964  1.00  0.00     0.178 A 
ATOM      8  C   UNL A   1      32.531  24.372  25.613  1.00  0.00     0.102 A 
ATOM      9  N   UNL A   1      31.633  23.954  24.641  1.00  0.00    -0.239 N 
ATOM     10  N   UNL A   1      32.583  22.150  25.274  1.00  0.00    -0.124 NA
ATOM     11  N   UNL A   1      31.620  22.623  24.514  1.00  0.00    -0.066 NA
BRANCH   8  12
ATOM     12  C   UNL A   1      32.586  25.768  26.025  1.00  0.00     0.002 A 
ATOM     13  C   UNL A   1      32.744  29.917  27.195  1.00  0.00     0.044 C 
ATOM     14  C   UNL A   1      32.719  28.461  26.839  1.00  0.00    -0.051 A 
ATOM     15  C   UNL A   1      31.603  27.681  27.157  1.00  0.00     0.004 A 
ATOM     16  C   UNL A   1      33.780  27.877  26.136  1.00  0.00     0.004 A 
ATOM     17  C   UNL A   1      31.547  26.341  26.771  1.00  0.00     0.011 A 
ATOM     18  C   UNL A   1      33.715  26.540  25.734  1.00  0.00     0.011 A 
ENDBRANCH   8  12
BRANCH   9  19
ATOM     19  C   UNL A   1      30.671  24.715  23.849  1.00  0.00     0.187 C 
BRANCH  19  20
ATOM     20  C   UNL A   1      31.106  26.089  23.403  1.00  0.00     0.028 A 
ATOM     21  C   UNL A   1      30.262  27.158  23.743  1.00  0.00     0.129 A 
ATOM     22  C   UNL A   1      32.232  26.392  22.622  1.00  0.00     0.049 A 
ATOM     23  F   UNL A   1      29.123  26.915  24.409  1.00  0.00    -0.207 F 
ATOM     24  C   UNL A   1      30.550  28.477  23.400  1.00  0.00     0.040 A 
ATOM     25  C   UNL A   1      32.548  27.723  22.305  1.00  0.00     0.021 A 
ATOM     26  Cl  UNL A   1      33.297  25.191  21.986  1.00  0.00    -0.084 Cl
ATOM     27  C   UNL A   1      31.712  28.765  22.698  1.00  0.00     0.005 A 
ENDBRANCH  19  20
ENDBRANCH   9  19
ENDBRANCH   4   7
ENDBRANCH   2   3
ENDBRANCH   1   2
BRANCH   1  28
ATOM     28  C   UNL A   1      38.503  22.053  25.533  1.00  0.00     0.023 C 
BRANCH  28  29
ATOM     29  C   UNL A   1      39.497  21.502  26.555  1.00  0.00     0.116 C 
BRANCH  29  30
ATOM     30  N   UNL A   1      40.430  20.517  26.050  1.00  0.00    -0.352 N 
ATOM     31  C   UNL A   1      41.827  20.556  25.975  1.00  0.00     0.251 C 
ATOM     32  H   UNL A   1      40.018  19.691  25.709  1.00  0.00     0.163 HD
ATOM     33  O   UNL A   1      42.414  19.643  25.425  1.00  0.00    -0.269 OA
BRANCH  31  34
ATOM     34  C   UNL A   1      42.600  21.615  26.689  1.00  0.00     0.039 A 
ATOM     35  C   UNL A   1      42.612  21.570  28.091  1.00  0.00     0.014 A 
ATOM     36  C   UNL A   1      43.114  22.732  26.045  1.00  0.00     0.014 A 
ATOM     37  C   UNL A   1      42.859  22.736  28.820  1.00  0.00     0.010 A 
ATOM     38  C   UNL A   1      43.242  23.915  26.748  1.00  0.00     0.010 A 
ATOM     39  C   UNL A   1      43.038  23.932  28.128  1.00  0.00    -0.014 A 
BRANCH  39  40
ATOM     40  C   UNL A   1      42.825  25.244  28.729  1.00  0.00     0.031 A 
ATOM     41  C   UNL A   1      41.630  26.056  28.425  1.00  0.00     0.074 A 
ATOM     42  C   UNL A   1      43.677  25.653  29.696  1.00  0.00     0.049 A 
ATOM     43  N   UNL A   1      41.583  27.340  28.560  1.00  0.00    -0.248 NA
ATOM     44  C   UNL A   1      40.388  25.482  27.919  1.00  0.00     0.031 C 
ATOM     45  C   UNL A   1      43.478  26.728  30.665  1.00  0.00     0.029 A 
ATOM     46  N   UNL A   1      45.009  25.261  29.885  1.00  0.00    -0.354 N 
ATOM     47  C   UNL A   1      40.267  27.720  28.438  1.00  0.00     0.074 A 
ATOM     48  C   UNL A   1      39.571  26.538  27.978  1.00  0.00     0.031 C 
ATOM     49  C   UNL A   1      44.671  27.096  31.157  1.00  0.00     0.029 A 
ATOM     50  C   UNL A   1      45.684  26.389  30.394  1.00  0.00     0.049 A 
ATOM     51  H   UNL A   1      45.396  24.375  29.698  1.00  0.00     0.167 HD
ATOM     52  C   UNL A   1      39.866  28.948  28.874  1.00  0.00     0.037 A 
ATOM     53  C   UNL A   1      46.696  26.990  29.701  1.00  0.00     0.037 A 
ATOM     54  C   UNL A   1      40.973  29.712  29.435  1.00  0.00     0.049 A 
ATOM     55  C   UNL A   1      46.459  28.450  29.402  1.00  0.00     0.074 A 
ATOM     56  C   UNL A   1      41.412  29.883  30.737  1.00  0.00     0.029 A 
ATOM     57  N   UNL A   1      41.993  30.170  28.611  1.00  0.00    -0.354 N 
ATOM     58  N   UNL A   1      45.282  29.008  29.401  1.00  0.00    -0.248 NA
ATOM     59  C   UNL A   1      47.520  29.378  29.017  1.00  0.00     0.031 C 
ATOM     60  C   UNL A   1      42.720  30.417  30.696  1.00  0.00     0.029 A 
ATOM     61  C   UNL A   1      43.075  30.578  29.369  1.00  0.00     0.049 A 
ATOM     62  H   UNL A   1      41.951  30.202  27.628  1.00  0.00     0.167 HD
ATOM     63  C   UNL A   1      45.392  30.298  28.955  1.00  0.00     0.074 A 
ATOM     64  C   UNL A   1      46.817  30.495  28.766  1.00  0.00     0.031 C 
ATOM     65  C   UNL A   1      44.291  31.075  28.743  1.00  0.00     0.037 A 
BRANCH  52  66
ATOM     66  C   UNL A   1      38.413  29.299  29.071  1.00  0.00     0.057 A 
ATOM     67  C   UNL A   1      37.628  29.800  28.015  1.00  0.00     0.134 A 
ATOM     68  C   UNL A   1      37.746  29.203  30.303  1.00  0.00     0.134 A 
ATOM     69  F   UNL A   1      38.090  29.864  26.760  1.00  0.00    -0.206 F 
ATOM     70  C   UNL A   1      36.326  30.279  28.196  1.00  0.00     0.040 A 
ATOM     71  C   UNL A   1      36.459  29.722  30.511  1.00  0.00     0.040 A 
ATOM     72  F   UNL A   1      38.308  28.580  31.351  1.00  0.00    -0.206 F 
ATOM     73  C   UNL A   1      35.749  30.278  29.457  1.00  0.00     0.006 A 
ENDBRANCH  52  66
BRANCH  53  74
ATOM     74  C   UNL A   1      47.412  26.072  28.775  1.00  0.00     0.057 A 
ATOM     75  C   UNL A   1      47.029  26.027  27.425  1.00  0.00     0.134 A 
ATOM     76  C   UNL A   1      48.657  25.526  29.103  1.00  0.00     0.134 A 
ATOM     77  F   UNL A   1      45.843  26.530  27.043  1.00  0.00    -0.206 F 
ATOM     78  C   UNL A   1      47.895  25.571  26.430  1.00  0.00     0.040 A 
ATOM     79  C   UNL A   1      49.526  25.051  28.115  1.00  0.00     0.040 A 
ATOM     80  F   UNL A   1      49.098  25.539  30.370  1.00  0.00    -0.206 F 
ATOM     81  C   UNL A   1      49.162  25.109  26.773  1.00  0.00     0.006 A 
ENDBRANCH  53  74
BRANCH  65  82
ATOM     82  C   UNL A   1      44.261  32.391  28.010  1.00  0.00     0.057 A 
ATOM     83  C   UNL A   1      44.607  32.551  26.659  1.00  0.00     0.134 A 
ATOM     84  C   UNL A   1      43.725  33.543  28.629  1.00  0.00     0.134 A 
ATOM     85  F   UNL A   1      45.022  31.518  25.914  1.00  0.00    -0.206 F 
ATOM     86  C   UNL A   1      44.485  33.776  25.991  1.00  0.00     0.040 A 
ATOM     87  C   UNL A   1      43.549  34.756  27.957  1.00  0.00     0.040 A 
ATOM     88  F   UNL A   1      43.324  33.533  29.909  1.00  0.00    -0.206 F 
ATOM     89  C   UNL A   1      43.944  34.881  26.635  1.00  0.00     0.006 A 
ENDBRANCH  65  82
ENDBRANCH  39  40
ENDBRANCH  31  34
ENDBRANCH  29  30
ENDBRANCH  28  29
ENDBRANCH   1  28
TORSDOF 14
ENDMDL
