MODEL 1
REMARK VINA RESULT:     -11.8      0.000      0.000
REMARK SMILES CSc1cccc(N2C[C@@H](C(=O)NCCCCNC(=O)c3ccc(-c4c5nc(c(-c6c(F)cccc6F)c6ccc([nH]6)c(-c6c(F)cccc6F)c6nc(c(-c7c(F)cccc7F)c7ccc4[nH]7)C=C6)C=C5)cc3)CC2=O)c1
REMARK SMILES IDX 15 1 14 2 13 3 11 4 12 5 10 7 8 8 9 9 76 10 75 11 77 12 7 13
REMARK SMILES IDX 3 14 4 15 78 16 5 17 6 18 2 19 1 20 16 21 17 22 18 23 19 24
REMARK SMILES IDX 20 26 21 27 22 28 74 29 23 30 73 31 24 32 25 33 26 34 67 35
REMARK SMILES IDX 27 36 72 37 66 38 68 39 28 40 71 41 65 42 64 43 29 45 55 46
REMARK SMILES IDX 38 47 54 48 39 49 42 50 53 51 69 52 40 53 41 54 52 56 70 57
REMARK SMILES IDX 43 58 30 59 31 60 36 61 32 62 33 63 35 64 37 65 34 66 56 67
REMARK SMILES IDX 57 68 62 69 58 70 59 71 61 72 63 73 60 74 44 75 45 76 50 77
REMARK SMILES IDX 46 78 47 79 49 80 51 81 48 82
REMARK H PARENT 13 6 18 25 68 44 42 55
REMARK Flexibility Score: inf
ROOT
ATOM      1  C   UNL A   1      37.046  21.145  24.714  1.00  0.00     0.023 C 
ENDROOT
BRANCH   1   2
ATOM      2  C   UNL A   1      35.587  20.957  25.126  1.00  0.00     0.116 C 
BRANCH   2   3
ATOM      3  N   UNL A   1      35.330  21.471  26.460  1.00  0.00    -0.356 N 
ATOM      4  C   UNL A   1      34.377  22.312  26.936  1.00  0.00     0.225 C 
ATOM      5  O   UNL A   1      34.399  22.563  28.143  1.00  0.00    -0.275 OA
ATOM      6  H   UNL A   1      35.963  21.152  27.143  1.00  0.00     0.163 HD
BRANCH   4   7
ATOM      7  C   UNL A   1      33.290  22.907  26.065  1.00  0.00     0.107 C 
ATOM      8  N   UNL A   1      32.148  24.971  25.998  1.00  0.00    -0.312 N 
ATOM      9  C   UNL A   1      33.465  24.399  25.850  1.00  0.00     0.139 C 
ATOM     10  C   UNL A   1      31.224  24.057  26.500  1.00  0.00     0.227 C 
ATOM     11  C   UNL A   1      31.871  22.698  26.565  1.00  0.00     0.116 C 
ATOM     12  O   UNL A   1      30.057  24.250  26.812  1.00  0.00    -0.274 OA
BRANCH   8  13
ATOM     13  C   UNL A   1      31.878  26.335  25.720  1.00  0.00     0.045 A 
ATOM     14  C   UNL A   1      31.045  28.072  24.214  1.00  0.00     0.009 A 
ATOM     15  C   UNL A   1      31.400  29.041  25.158  1.00  0.00     0.015 A 
ATOM     16  C   UNL A   1      31.304  26.725  24.500  1.00  0.00     0.041 A 
ATOM     17  C   UNL A   1      31.981  28.673  26.370  1.00  0.00     0.003 A 
ATOM     18  C   UNL A   1      32.196  27.325  26.658  1.00  0.00     0.026 A 
BRANCH  14  19
ATOM     19  S   UNL A   1      30.221  28.650  22.735  1.00  0.00    -0.130 SA
ATOM     20  C   UNL A   1      29.357  30.137  23.311  1.00  0.00     0.091 C 
ENDBRANCH  14  19
ENDBRANCH   8  13
ENDBRANCH   4   7
ENDBRANCH   2   3
ENDBRANCH   1   2
BRANCH   1  21
ATOM     21  C   UNL A   1      37.961  19.958  25.023  1.00  0.00     0.023 C 
BRANCH  21  22
ATOM     22  C   UNL A   1      39.253  20.306  25.751  1.00  0.00     0.116 C 
BRANCH  22  23
ATOM     23  N   UNL A   1      40.161  19.175  25.871  1.00  0.00    -0.352 N 
ATOM     24  C   UNL A   1      41.514  19.165  26.116  1.00  0.00     0.251 C 
ATOM     25  H   UNL A   1      39.747  18.288  25.761  1.00  0.00     0.163 HD
ATOM     26  O   UNL A   1      42.150  18.118  26.045  1.00  0.00    -0.269 OA
BRANCH  24  27
ATOM     27  C   UNL A   1      42.206  20.432  26.424  1.00  0.00     0.039 A 
ATOM     28  C   UNL A   1      42.840  21.123  25.389  1.00  0.00     0.014 A 
ATOM     29  C   UNL A   1      42.180  20.962  27.717  1.00  0.00     0.014 A 
ATOM     30  C   UNL A   1      43.356  22.398  25.628  1.00  0.00     0.010 A 
ATOM     31  C   UNL A   1      42.630  22.260  27.935  1.00  0.00     0.010 A 
ATOM     32  C   UNL A   1      43.199  23.000  26.888  1.00  0.00    -0.014 A 
BRANCH  32  33
ATOM     33  C   UNL A   1      43.556  24.424  27.113  1.00  0.00     0.031 A 
ATOM     34  C   UNL A   1      44.989  24.869  27.040  1.00  0.00     0.074 A 
ATOM     35  C   UNL A   1      42.596  25.294  27.483  1.00  0.00     0.049 A 
ATOM     36  N   UNL A   1      45.504  26.038  27.322  1.00  0.00    -0.248 NA
ATOM     37  C   UNL A   1      45.974  23.863  26.616  1.00  0.00     0.031 C 
ATOM     38  C   UNL A   1      41.174  24.974  27.629  1.00  0.00     0.029 A 
ATOM     39  N   UNL A   1      42.672  26.622  27.825  1.00  0.00    -0.354 N 
ATOM     40  C   UNL A   1      46.872  25.907  27.120  1.00  0.00     0.074 A 
ATOM     41  C   UNL A   1      47.111  24.532  26.737  1.00  0.00     0.031 C 
ATOM     42  C   UNL A   1      40.512  26.074  28.017  1.00  0.00     0.029 A 
ATOM     43  C   UNL A   1      41.465  27.164  28.200  1.00  0.00     0.049 A 
ATOM     44  H   UNL A   1      43.510  27.137  27.803  1.00  0.00     0.167 HD
ATOM     45  C   UNL A   1      47.836  26.852  27.229  1.00  0.00     0.037 A 
ATOM     46  C   UNL A   1      41.163  28.391  28.666  1.00  0.00     0.037 A 
ATOM     47  C   UNL A   1      47.589  28.220  27.602  1.00  0.00     0.049 A 
ATOM     48  C   UNL A   1      42.260  29.407  28.822  1.00  0.00     0.074 A 
ATOM     49  C   UNL A   1      48.492  29.267  27.677  1.00  0.00     0.029 A 
ATOM     50  N   UNL A   1      46.356  28.729  27.977  1.00  0.00    -0.354 N 
ATOM     51  N   UNL A   1      43.538  29.291  28.554  1.00  0.00    -0.248 NA
ATOM     52  C   UNL A   1      41.875  30.723  29.352  1.00  0.00     0.031 C 
ATOM     53  C   UNL A   1      47.816  30.394  28.156  1.00  0.00     0.029 A 
ATOM     54  C   UNL A   1      46.481  30.065  28.325  1.00  0.00     0.049 A 
ATOM     55  H   UNL A   1      45.514  28.218  27.994  1.00  0.00     0.167 HD
ATOM     56  C   UNL A   1      44.105  30.520  28.863  1.00  0.00     0.074 A 
ATOM     57  C   UNL A   1      43.029  31.375  29.318  1.00  0.00     0.031 C 
ATOM     58  C   UNL A   1      45.402  30.905  28.779  1.00  0.00     0.037 A 
BRANCH  45  59
ATOM     59  C   UNL A   1      49.251  26.437  26.948  1.00  0.00     0.057 A 
ATOM     60  C   UNL A   1      50.109  25.995  27.964  1.00  0.00     0.134 A 
ATOM     61  C   UNL A   1      49.748  26.434  25.638  1.00  0.00     0.134 A 
ATOM     62  F   UNL A   1      49.700  25.983  29.242  1.00  0.00    -0.206 F 
ATOM     63  C   UNL A   1      51.415  25.587  27.691  1.00  0.00     0.040 A 
ATOM     64  C   UNL A   1      51.043  26.001  25.349  1.00  0.00     0.040 A 
ATOM     65  F   UNL A   1      48.979  26.837  24.616  1.00  0.00    -0.206 F 
ATOM     66  C   UNL A   1      51.883  25.581  26.379  1.00  0.00     0.006 A 
ENDBRANCH  45  59
BRANCH  46  67
ATOM     67  C   UNL A   1      39.762  28.726  29.028  1.00  0.00     0.057 A 
ATOM     68  C   UNL A   1      39.274  28.499  30.320  1.00  0.00     0.134 A 
ATOM     69  C   UNL A   1      38.873  29.270  28.091  1.00  0.00     0.134 A 
ATOM     70  F   UNL A   1      40.069  27.962  31.256  1.00  0.00    -0.206 F 
ATOM     71  C   UNL A   1      37.951  28.779  30.662  1.00  0.00     0.040 A 
ATOM     72  C   UNL A   1      37.556  29.582  28.427  1.00  0.00     0.040 A 
ATOM     73  F   UNL A   1      39.279  29.519  26.837  1.00  0.00    -0.206 F 
ATOM     74  C   UNL A   1      37.088  29.328  29.716  1.00  0.00     0.006 A 
ENDBRANCH  46  67
BRANCH  58  75
ATOM     75  C   UNL A   1      45.729  32.316  29.175  1.00  0.00     0.057 A 
ATOM     76  C   UNL A   1      46.155  32.639  30.469  1.00  0.00     0.134 A 
ATOM     77  C   UNL A   1      45.670  33.354  28.236  1.00  0.00     0.134 A 
ATOM     78  F   UNL A   1      46.220  31.694  31.420  1.00  0.00    -0.206 F 
ATOM     79  C   UNL A   1      46.493  33.947  30.820  1.00  0.00     0.040 A 
ATOM     80  C   UNL A   1      46.032  34.660  28.568  1.00  0.00     0.040 A 
ATOM     81  F   UNL A   1      45.278  33.112  26.976  1.00  0.00    -0.206 F 
ATOM     82  C   UNL A   1      46.441  34.960  29.864  1.00  0.00     0.006 A 
ENDBRANCH  58  75
ENDBRANCH  32  33
ENDBRANCH  24  27
ENDBRANCH  22  23
ENDBRANCH  21  22
ENDBRANCH   1  21
TORSDOF 13
ENDMDL
MODEL 2
REMARK VINA RESULT:     -11.7      0.466      6.225
REMARK SMILES CSc1cccc(N2C[C@@H](C(=O)NCCCCNC(=O)c3ccc(-c4c5nc(c(-c6c(F)cccc6F)c6ccc([nH]6)c(-c6c(F)cccc6F)c6nc(c(-c7c(F)cccc7F)c7ccc4[nH]7)C=C6)C=C5)cc3)CC2=O)c1
REMARK SMILES IDX 15 1 14 2 13 3 11 4 12 5 10 7 8 8 9 9 76 10 75 11 77 12 7 13
REMARK SMILES IDX 3 14 4 15 78 16 5 17 6 18 2 19 1 20 16 21 17 22 18 23 19 24
REMARK SMILES IDX 20 26 21 27 22 28 74 29 23 30 73 31 24 32 25 33 26 34 67 35
REMARK SMILES IDX 27 36 72 37 66 38 68 39 28 40 71 41 65 42 64 43 29 45 55 46
REMARK SMILES IDX 38 47 54 48 39 49 42 50 53 51 69 52 40 53 41 54 52 56 70 57
REMARK SMILES IDX 43 58 30 59 31 60 36 61 32 62 33 63 35 64 37 65 34 66 56 67
REMARK SMILES IDX 57 68 62 69 58 70 59 71 61 72 63 73 60 74 44 75 45 76 50 77
REMARK SMILES IDX 46 78 47 79 49 80 51 81 48 82
REMARK H PARENT 13 6 18 25 68 44 42 55
REMARK Flexibility Score: inf
ROOT
ATOM      1  C   UNL A   1      36.987  21.594  24.893  1.00  0.00     0.023 C 
ENDROOT
BRANCH   1   2
ATOM      2  C   UNL A   1      35.505  21.304  25.122  1.00  0.00     0.116 C 
BRANCH   2   3
ATOM      3  N   UNL A   1      35.101  21.597  26.486  1.00  0.00    -0.356 N 
ATOM      4  C   UNL A   1      34.058  22.308  26.987  1.00  0.00     0.225 C 
ATOM      5  O   UNL A   1      33.959  22.373  28.214  1.00  0.00    -0.275 OA
ATOM      6  H   UNL A   1      35.690  21.209  27.173  1.00  0.00     0.163 HD
BRANCH   4   7
ATOM      7  C   UNL A   1      33.016  22.974  26.113  1.00  0.00     0.107 C 
ATOM      8  N   UNL A   1      31.971  25.089  26.079  1.00  0.00    -0.312 N 
ATOM      9  C   UNL A   1      33.263  24.461  25.939  1.00  0.00     0.139 C 
ATOM     10  C   UNL A   1      30.997  24.207  26.541  1.00  0.00     0.227 C 
ATOM     11  C   UNL A   1      31.580  22.819  26.583  1.00  0.00     0.116 C 
ATOM     12  O   UNL A   1      29.835  24.446  26.837  1.00  0.00    -0.274 OA
BRANCH   8  13
ATOM     13  C   UNL A   1      31.769  26.471  25.830  1.00  0.00     0.045 A 
ATOM     14  C   UNL A   1      31.183  28.293  24.309  1.00  0.00     0.009 A 
ATOM     15  C   UNL A   1      31.427  29.211  25.337  1.00  0.00     0.015 A 
ATOM     16  C   UNL A   1      31.373  26.928  24.564  1.00  0.00     0.041 A 
ATOM     17  C   UNL A   1      31.830  28.774  26.596  1.00  0.00     0.003 A 
ATOM     18  C   UNL A   1      31.977  27.410  26.848  1.00  0.00     0.026 A 
BRANCH  14  19
ATOM     19  S   UNL A   1      30.579  28.956  22.760  1.00  0.00    -0.130 SA
ATOM     20  C   UNL A   1      29.356  30.181  23.298  1.00  0.00     0.091 C 
ENDBRANCH  14  19
ENDBRANCH   8  13
ENDBRANCH   4   7
ENDBRANCH   2   3
ENDBRANCH   1   2
BRANCH   1  21
ATOM     21  C   UNL A   1      37.904  20.373  24.990  1.00  0.00     0.023 C 
BRANCH  21  22
ATOM     22  C   UNL A   1      39.182  20.582  25.794  1.00  0.00     0.116 C 
BRANCH  22  23
ATOM     23  N   UNL A   1      40.036  19.404  25.821  1.00  0.00    -0.352 N 
ATOM     24  C   UNL A   1      41.393  19.315  26.030  1.00  0.00     0.251 C 
ATOM     25  H   UNL A   1      39.577  18.547  25.668  1.00  0.00     0.163 HD
ATOM     26  O   UNL A   1      41.976  18.247  25.879  1.00  0.00    -0.269 OA
BRANCH  24  27
ATOM     27  C   UNL A   1      42.152  20.527  26.397  1.00  0.00     0.039 A 
ATOM     28  C   UNL A   1      42.735  21.291  25.384  1.00  0.00     0.014 A 
ATOM     29  C   UNL A   1      42.239  20.937  27.730  1.00  0.00     0.014 A 
ATOM     30  C   UNL A   1      43.314  22.522  25.696  1.00  0.00     0.010 A 
ATOM     31  C   UNL A   1      42.751  22.196  28.029  1.00  0.00     0.010 A 
ATOM     32  C   UNL A   1      43.271  23.011  27.012  1.00  0.00    -0.014 A 
BRANCH  32  33
ATOM     33  C   UNL A   1      43.697  24.396  27.336  1.00  0.00     0.031 A 
ATOM     34  C   UNL A   1      42.688  25.418  27.776  1.00  0.00     0.074 A 
ATOM     35  C   UNL A   1      44.980  24.755  27.135  1.00  0.00     0.049 A 
ATOM     36  N   UNL A   1      42.850  26.699  27.987  1.00  0.00    -0.248 NA
ATOM     37  C   UNL A   1      41.312  24.943  27.985  1.00  0.00     0.031 C 
ATOM     38  C   UNL A   1      46.046  23.864  26.672  1.00  0.00     0.029 A 
ATOM     39  N   UNL A   1      45.604  25.970  27.276  1.00  0.00    -0.354 N 
ATOM     40  C   UNL A   1      41.599  27.185  28.343  1.00  0.00     0.074 A 
ATOM     41  C   UNL A   1      40.679  26.070  28.274  1.00  0.00     0.031 C 
ATOM     42  C   UNL A   1      47.191  24.558  26.578  1.00  0.00     0.029 A 
ATOM     43  C   UNL A   1      46.932  25.952  26.922  1.00  0.00     0.049 A 
ATOM     44  H   UNL A   1      45.144  26.778  27.599  1.00  0.00     0.167 HD
ATOM     45  C   UNL A   1      41.255  28.443  28.709  1.00  0.00     0.037 A 
ATOM     46  C   UNL A   1      47.835  26.949  26.855  1.00  0.00     0.037 A 
ATOM     47  C   UNL A   1      42.178  29.545  28.783  1.00  0.00     0.049 A 
ATOM     48  C   UNL A   1      47.414  28.345  27.221  1.00  0.00     0.074 A 
ATOM     49  C   UNL A   1      41.937  30.841  29.205  1.00  0.00     0.029 A 
ATOM     50  N   UNL A   1      43.513  29.487  28.415  1.00  0.00    -0.354 N 
ATOM     51  N   UNL A   1      46.245  28.776  27.629  1.00  0.00    -0.248 NA
ATOM     52  C   UNL A   1      48.435  29.397  27.111  1.00  0.00     0.031 C 
ATOM     53  C   UNL A   1      43.110  31.582  29.034  1.00  0.00     0.029 A 
ATOM     54  C   UNL A   1      44.099  30.735  28.560  1.00  0.00     0.049 A 
ATOM     55  H   UNL A   1      43.978  28.680  28.096  1.00  0.00     0.167 HD
ATOM     56  C   UNL A   1      46.395  30.139  27.844  1.00  0.00     0.074 A 
ATOM     57  C   UNL A   1      47.774  30.462  27.541  1.00  0.00     0.031 C 
ATOM     58  C   UNL A   1      45.472  31.044  28.252  1.00  0.00     0.037 A 
BRANCH  45  59
ATOM     59  C   UNL A   1      39.815  28.699  29.050  1.00  0.00     0.057 A 
ATOM     60  C   UNL A   1      39.325  28.550  30.354  1.00  0.00     0.134 A 
ATOM     61  C   UNL A   1      38.919  29.147  28.071  1.00  0.00     0.134 A 
ATOM     62  F   UNL A   1      40.128  28.116  31.337  1.00  0.00    -0.206 F 
ATOM     63  C   UNL A   1      37.991  28.816  30.667  1.00  0.00     0.040 A 
ATOM     64  C   UNL A   1      37.590  29.443  28.378  1.00  0.00     0.040 A 
ATOM     65  F   UNL A   1      39.323  29.319  26.803  1.00  0.00    -0.206 F 
ATOM     66  C   UNL A   1      37.121  29.271  29.679  1.00  0.00     0.006 A 
ENDBRANCH  45  59
BRANCH  46  67
ATOM     67  C   UNL A   1      49.225  26.668  26.413  1.00  0.00     0.057 A 
ATOM     68  C   UNL A   1      50.217  26.306  27.331  1.00  0.00     0.134 A 
ATOM     69  C   UNL A   1      49.600  26.766  25.067  1.00  0.00     0.134 A 
ATOM     70  F   UNL A   1      49.926  26.214  28.637  1.00  0.00    -0.206 F 
ATOM     71  C   UNL A   1      51.533  26.071  26.932  1.00  0.00     0.040 A 
ATOM     72  C   UNL A   1      50.905  26.506  24.650  1.00  0.00     0.040 A 
ATOM     73  F   UNL A   1      48.696  27.102  24.134  1.00  0.00    -0.206 F 
ATOM     74  C   UNL A   1      51.880  26.166  25.586  1.00  0.00     0.006 A 
ENDBRANCH  46  67
BRANCH  58  75
ATOM     75  C   UNL A   1      45.923  32.467  28.409  1.00  0.00     0.057 A 
ATOM     76  C   UNL A   1      46.493  32.933  29.601  1.00  0.00     0.134 A 
ATOM     77  C   UNL A   1      45.836  33.368  27.339  1.00  0.00     0.134 A 
ATOM     78  F   UNL A   1      46.592  32.127  30.669  1.00  0.00    -0.206 F 
ATOM     79  C   UNL A   1      46.943  34.248  29.728  1.00  0.00     0.040 A 
ATOM     80  C   UNL A   1      46.309  34.675  27.446  1.00  0.00     0.040 A 
ATOM     81  F   UNL A   1      45.309  32.984  26.167  1.00  0.00    -0.206 F 
ATOM     82  C   UNL A   1      46.861  35.120  28.644  1.00  0.00     0.006 A 
ENDBRANCH  58  75
ENDBRANCH  32  33
ENDBRANCH  24  27
ENDBRANCH  22  23
ENDBRANCH  21  22
ENDBRANCH   1  21
TORSDOF 13
ENDMDL
MODEL 3
REMARK VINA RESULT:     -11.7      6.233     11.297
REMARK SMILES CSc1cccc(N2C[C@@H](C(=O)NCCCCNC(=O)c3ccc(-c4c5nc(c(-c6c(F)cccc6F)c6ccc([nH]6)c(-c6c(F)cccc6F)c6nc(c(-c7c(F)cccc7F)c7ccc4[nH]7)C=C6)C=C5)cc3)CC2=O)c1
REMARK SMILES IDX 15 1 14 2 13 3 11 4 12 5 10 7 8 8 9 9 76 10 75 11 77 12 7 13
REMARK SMILES IDX 3 14 4 15 78 16 5 17 6 18 2 19 1 20 16 21 17 22 18 23 19 24
REMARK SMILES IDX 20 26 21 27 22 28 74 29 23 30 73 31 24 32 25 33 26 34 67 35
REMARK SMILES IDX 27 36 72 37 66 38 68 39 28 40 71 41 65 42 64 43 29 45 55 46
REMARK SMILES IDX 38 47 54 48 39 49 42 50 53 51 69 52 40 53 41 54 52 56 70 57
REMARK SMILES IDX 43 58 30 59 31 60 36 61 32 62 33 63 35 64 37 65 34 66 56 67
REMARK SMILES IDX 57 68 62 69 58 70 59 71 61 72 63 73 60 74 44 75 45 76 50 77
REMARK SMILES IDX 46 78 47 79 49 80 51 81 48 82
REMARK H PARENT 13 6 18 25 68 44 42 55
REMARK Flexibility Score: inf
ROOT
ATOM      1  C   UNL A   1      34.430  32.858  29.246  1.00  0.00     0.023 C 
ENDROOT
BRANCH   1   2
ATOM      2  C   UNL A   1      34.504  31.646  28.319  1.00  0.00     0.116 C 
BRANCH   2   3
ATOM      3  N   UNL A   1      33.383  31.600  27.398  1.00  0.00    -0.356 N 
ATOM      4  C   UNL A   1      32.685  30.560  26.874  1.00  0.00     0.225 C 
ATOM      5  O   UNL A   1      31.753  30.832  26.115  1.00  0.00    -0.275 OA
ATOM      6  H   UNL A   1      33.070  32.485  27.098  1.00  0.00     0.163 HD
BRANCH   4   7
ATOM      7  C   UNL A   1      32.981  29.113  27.213  1.00  0.00     0.107 C 
ATOM      8  N   UNL A   1      33.082  27.099  25.988  1.00  0.00    -0.312 N 
ATOM      9  C   UNL A   1      33.717  28.391  26.101  1.00  0.00     0.139 C 
ATOM     10  C   UNL A   1      31.906  27.017  26.731  1.00  0.00     0.227 C 
ATOM     11  C   UNL A   1      31.767  28.267  27.560  1.00  0.00     0.116 C 
ATOM     12  O   UNL A   1      31.103  26.096  26.782  1.00  0.00    -0.274 OA
BRANCH   8  13
ATOM     13  C   UNL A   1      33.591  26.075  25.150  1.00  0.00     0.045 A 
ATOM     14  C   UNL A   1      34.962  24.076  24.830  1.00  0.00     0.009 A 
ATOM     15  C   UNL A   1      34.635  24.086  23.470  1.00  0.00     0.015 A 
ATOM     16  C   UNL A   1      34.447  25.085  25.656  1.00  0.00     0.041 A 
ATOM     17  C   UNL A   1      33.795  25.068  22.950  1.00  0.00     0.003 A 
ATOM     18  C   UNL A   1      33.257  26.042  23.790  1.00  0.00     0.026 A 
BRANCH  14  19
ATOM     19  S   UNL A   1      35.971  22.716  25.408  1.00  0.00    -0.130 SA
ATOM     20  C   UNL A   1      35.029  21.262  24.875  1.00  0.00     0.091 C 
ENDBRANCH  14  19
ENDBRANCH   8  13
ENDBRANCH   4   7
ENDBRANCH   2   3
ENDBRANCH   1   2
BRANCH   1  21
ATOM     21  C   UNL A   1      33.438  33.941  28.813  1.00  0.00     0.023 C 
BRANCH  21  22
ATOM     22  C   UNL A   1      33.775  35.353  29.276  1.00  0.00     0.116 C 
BRANCH  22  23
ATOM     23  N   UNL A   1      32.813  35.883  30.231  1.00  0.00    -0.352 N 
ATOM     24  C   UNL A   1      32.777  35.746  31.599  1.00  0.00     0.251 C 
ATOM     25  H   UNL A   1      32.082  36.416  29.842  1.00  0.00     0.163 HD
ATOM     26  O   UNL A   1      31.809  36.146  32.238  1.00  0.00    -0.269 OA
BRANCH  24  27
ATOM     27  C   UNL A   1      33.896  35.076  32.292  1.00  0.00     0.039 A 
ATOM     28  C   UNL A   1      33.694  33.800  32.820  1.00  0.00     0.014 A 
ATOM     29  C   UNL A   1      35.152  35.683  32.369  1.00  0.00     0.014 A 
ATOM     30  C   UNL A   1      34.780  33.087  33.332  1.00  0.00     0.010 A 
ATOM     31  C   UNL A   1      36.245  34.945  32.812  1.00  0.00     0.010 A 
ATOM     32  C   UNL A   1      36.074  33.631  33.274  1.00  0.00    -0.014 A 
BRANCH  32  33
ATOM     33  C   UNL A   1      37.268  32.821  33.623  1.00  0.00     0.031 A 
ATOM     34  C   UNL A   1      38.043  33.111  34.876  1.00  0.00     0.074 A 
ATOM     35  C   UNL A   1      37.710  31.889  32.755  1.00  0.00     0.049 A 
ATOM     36  N   UNL A   1      39.174  32.593  35.286  1.00  0.00    -0.248 NA
ATOM     37  C   UNL A   1      37.488  34.133  35.777  1.00  0.00     0.031 C 
ATOM     38  C   UNL A   1      37.067  31.543  31.486  1.00  0.00     0.029 A 
ATOM     39  N   UNL A   1      38.815  31.076  32.798  1.00  0.00    -0.354 N 
ATOM     40  C   UNL A   1      39.470  33.231  36.483  1.00  0.00     0.074 A 
ATOM     41  C   UNL A   1      38.425  34.206  36.710  1.00  0.00     0.031 C 
ATOM     42  C   UNL A   1      37.781  30.583  30.878  1.00  0.00     0.029 A 
ATOM     43  C   UNL A   1      38.959  30.282  31.685  1.00  0.00     0.049 A 
ATOM     44  H   UNL A   1      39.446  31.063  33.554  1.00  0.00     0.167 HD
ATOM     45  C   UNL A   1      40.509  33.010  37.322  1.00  0.00     0.037 A 
ATOM     46  C   UNL A   1      39.940  29.427  31.339  1.00  0.00     0.037 A 
ATOM     47  C   UNL A   1      41.540  32.032  37.093  1.00  0.00     0.049 A 
ATOM     48  C   UNL A   1      41.107  29.236  32.267  1.00  0.00     0.074 A 
ATOM     49  C   UNL A   1      42.599  31.689  37.917  1.00  0.00     0.029 A 
ATOM     50  N   UNL A   1      41.652  31.249  35.955  1.00  0.00    -0.354 N 
ATOM     51  N   UNL A   1      41.335  29.790  33.433  1.00  0.00    -0.248 NA
ATOM     52  C   UNL A   1      42.158  28.306  31.829  1.00  0.00     0.031 C 
ATOM     53  C   UNL A   1      43.385  30.745  37.250  1.00  0.00     0.029 A 
ATOM     54  C   UNL A   1      42.785  30.455  36.034  1.00  0.00     0.049 A 
ATOM     55  H   UNL A   1      41.020  31.256  35.199  1.00  0.00     0.167 HD
ATOM     56  C   UNL A   1      42.541  29.262  33.876  1.00  0.00     0.074 A 
ATOM     57  C   UNL A   1      42.986  28.328  32.864  1.00  0.00     0.031 C 
ATOM     58  C   UNL A   1      43.219  29.531  35.018  1.00  0.00     0.037 A 
BRANCH  45  59
ATOM     59  C   UNL A   1      40.590  33.848  38.566  1.00  0.00     0.057 A 
ATOM     60  C   UNL A   1      41.364  35.015  38.624  1.00  0.00     0.134 A 
ATOM     61  C   UNL A   1      39.846  33.510  39.704  1.00  0.00     0.134 A 
ATOM     62  F   UNL A   1      42.108  35.390  37.572  1.00  0.00    -0.206 F 
ATOM     63  C   UNL A   1      41.413  35.802  39.775  1.00  0.00     0.040 A 
ATOM     64  C   UNL A   1      39.864  34.305  40.851  1.00  0.00     0.040 A 
ATOM     65  F   UNL A   1      39.078  32.410  39.715  1.00  0.00    -0.206 F 
ATOM     66  C   UNL A   1      40.655  35.452  40.891  1.00  0.00     0.006 A 
ENDBRANCH  45  59
BRANCH  46  67
ATOM     67  C   UNL A   1      39.869  28.694  30.049  1.00  0.00     0.057 A 
ATOM     68  C   UNL A   1      39.206  27.466  29.950  1.00  0.00     0.134 A 
ATOM     69  C   UNL A   1      40.473  29.194  28.888  1.00  0.00     0.134 A 
ATOM     70  F   UNL A   1      38.625  26.924  31.030  1.00  0.00    -0.206 F 
ATOM     71  C   UNL A   1      39.161  26.753  28.751  1.00  0.00     0.040 A 
ATOM     72  C   UNL A   1      40.412  28.506  27.676  1.00  0.00     0.040 A 
ATOM     73  F   UNL A   1      41.119  30.370  28.912  1.00  0.00    -0.206 F 
ATOM     74  C   UNL A   1      39.761  27.275  27.608  1.00  0.00     0.006 A 
ENDBRANCH  46  67
BRANCH  58  75
ATOM     75  C   UNL A   1      44.509  28.796  35.244  1.00  0.00     0.057 A 
ATOM     76  C   UNL A   1      45.741  29.330  34.848  1.00  0.00     0.134 A 
ATOM     77  C   UNL A   1      44.523  27.564  35.912  1.00  0.00     0.134 A 
ATOM     78  F   UNL A   1      45.797  30.498  34.190  1.00  0.00    -0.206 F 
ATOM     79  C   UNL A   1      46.940  28.658  35.093  1.00  0.00     0.040 A 
ATOM     80  C   UNL A   1      45.716  26.897  36.187  1.00  0.00     0.040 A 
ATOM     81  F   UNL A   1      43.378  27.000  36.325  1.00  0.00    -0.206 F 
ATOM     82  C   UNL A   1      46.929  27.442  35.774  1.00  0.00     0.006 A 
ENDBRANCH  58  75
ENDBRANCH  32  33
ENDBRANCH  24  27
ENDBRANCH  22  23
ENDBRANCH  21  22
ENDBRANCH   1  21
TORSDOF 13
ENDMDL
