MODEL 1
REMARK VINA RESULT:     -11.8      0.000      0.000
REMARK SMILES COC(=O)[C@H]1CCN(S(=O)(=O)N2CCC[C@H](C(=O)NCCCCNC(=O)c3ccc(-c4c5nc(c(-c6c(F)cccc6F)c6ccc([nH]6)c(-c6c(F)cccc6F)c6nc(c(-c7c(F)cccc7F)c7ccc4[nH]7)C=C6)C=C5)cc3)C2)C1
REMARK SMILES IDX 20 1 19 2 17 3 18 4 16 6 12 7 13 8 81 9 14 10 15 11 9 12
REMARK SMILES IDX 10 13 11 14 8 15 5 16 6 17 82 18 7 19 3 20 4 21 2 22 1 23
REMARK SMILES IDX 21 24 22 25 23 26 24 27 25 28 26 30 27 31 28 32 80 33 29 34
REMARK SMILES IDX 79 35 30 36 31 37 32 38 73 39 33 40 78 41 72 42 74 43 34 44
REMARK SMILES IDX 77 45 71 46 70 47 35 49 61 50 44 51 60 52 45 53 48 54 59 55
REMARK SMILES IDX 75 56 46 57 47 58 58 60 76 61 49 62 36 63 37 64 42 65 38 66
REMARK SMILES IDX 39 67 41 68 43 69 40 70 62 71 63 72 68 73 64 74 65 75 67 76
REMARK SMILES IDX 69 77 66 78 50 79 51 80 56 81 52 82 53 83 55 84 57 85 54 86
REMARK H PARENT 19 5 24 29 74 48 48 59
REMARK Flexibility Score: inf
ROOT
ATOM      1  C   UNL A   1      36.023  21.729  25.784  1.00  0.00     0.116 C 
ENDROOT
BRANCH   1   2
ATOM      2  N   UNL A   1      35.417  23.010  26.057  1.00  0.00    -0.356 N 
ATOM      3  C   UNL A   1      34.313  23.603  25.543  1.00  0.00     0.224 C 
ATOM      4  O   UNL A   1      34.009  24.701  26.027  1.00  0.00    -0.275 OA
ATOM      5  H   UNL A   1      35.887  23.547  26.735  1.00  0.00     0.163 HD
BRANCH   3   6
ATOM      6  C   UNL A   1      33.444  23.013  24.430  1.00  0.00     0.094 C 
ATOM      7  N   UNL A   1      32.331  24.738  23.011  1.00  0.00    -0.188 NA
ATOM      8  C   UNL A   1      30.981  24.212  23.255  1.00  0.00     0.103 C 
ATOM      9  C   UNL A   1      33.456  23.794  23.125  1.00  0.00     0.117 C 
ATOM     10  C   UNL A   1      30.907  23.460  24.582  1.00  0.00     0.018 C 
ATOM     11  C   UNL A   1      32.064  22.501  24.834  1.00  0.00     0.016 C 
BRANCH   7  12
ATOM     12  S   UNL A   1      32.506  26.122  22.086  1.00  0.00     0.282 S 
ATOM     13  O   UNL A   1      31.287  26.355  21.350  1.00  0.00    -0.195 OA
ATOM     14  O   UNL A   1      33.775  26.030  21.398  1.00  0.00    -0.195 OA
BRANCH  12  15
ATOM     15  N   UNL A   1      32.660  27.349  23.245  1.00  0.00    -0.188 NA
ATOM     16  C   UNL A   1      30.977  29.089  23.560  1.00  0.00     0.116 C 
ATOM     17  C   UNL A   1      30.633  27.839  24.358  1.00  0.00     0.033 C 
ATOM     18  C   UNL A   1      32.195  28.688  22.717  1.00  0.00     0.118 C 
ATOM     19  C   UNL A   1      31.980  27.189  24.545  1.00  0.00     0.104 C 
BRANCH  16  20
ATOM     20  C   UNL A   1      29.870  29.613  22.676  1.00  0.00     0.310 C 
ATOM     21  O   UNL A   1      30.023  29.858  21.486  1.00  0.00    -0.252 OA
BRANCH  20  22
ATOM     22  O   UNL A   1      28.721  29.825  23.370  1.00  0.00    -0.469 OA
ATOM     23  C   UNL A   1      27.537  29.315  22.755  1.00  0.00     0.282 C 
ENDBRANCH  20  22
ENDBRANCH  16  20
ENDBRANCH  12  15
ENDBRANCH   7  12
ENDBRANCH   3   6
ENDBRANCH   1   2
BRANCH   1  24
ATOM     24  C   UNL A   1      37.336  21.861  25.024  1.00  0.00     0.023 C 
BRANCH  24  25
ATOM     25  C   UNL A   1      38.170  20.589  25.005  1.00  0.00     0.023 C 
BRANCH  25  26
ATOM     26  C   UNL A   1      39.348  20.595  25.971  1.00  0.00     0.116 C 
BRANCH  26  27
ATOM     27  N   UNL A   1      40.159  19.382  25.924  1.00  0.00    -0.352 N 
ATOM     28  C   UNL A   1      41.518  19.266  26.104  1.00  0.00     0.251 C 
ATOM     29  H   UNL A   1      39.673  18.546  25.740  1.00  0.00     0.163 HD
ATOM     30  O   UNL A   1      42.102  18.205  25.920  1.00  0.00    -0.269 OA
BRANCH  28  31
ATOM     31  C   UNL A   1      42.270  20.478  26.480  1.00  0.00     0.039 A 
ATOM     32  C   UNL A   1      42.858  21.246  25.475  1.00  0.00     0.014 A 
ATOM     33  C   UNL A   1      42.253  20.920  27.806  1.00  0.00     0.014 A 
ATOM     34  C   UNL A   1      43.336  22.518  25.787  1.00  0.00     0.010 A 
ATOM     35  C   UNL A   1      42.635  22.223  28.090  1.00  0.00     0.010 A 
ATOM     36  C   UNL A   1      43.168  23.041  27.081  1.00  0.00    -0.014 A 
BRANCH  36  37
ATOM     37  C   UNL A   1      43.506  24.453  27.388  1.00  0.00     0.031 A 
ATOM     38  C   UNL A   1      44.938  24.908  27.359  1.00  0.00     0.074 A 
ATOM     39  C   UNL A   1      42.531  25.304  27.766  1.00  0.00     0.049 A 
ATOM     40  N   UNL A   1      45.437  26.081  27.653  1.00  0.00    -0.248 NA
ATOM     41  C   UNL A   1      45.945  23.905  26.977  1.00  0.00     0.031 C 
ATOM     42  C   UNL A   1      41.112  24.965  27.895  1.00  0.00     0.029 A 
ATOM     43  N   UNL A   1      42.587  26.628  28.121  1.00  0.00    -0.354 N 
ATOM     44  C   UNL A   1      46.811  25.954  27.502  1.00  0.00     0.074 A 
ATOM     45  C   UNL A   1      47.074  24.575  27.154  1.00  0.00     0.031 C 
ATOM     46  C   UNL A   1      40.429  26.059  28.267  1.00  0.00     0.029 A 
ATOM     47  C   UNL A   1      41.364  27.164  28.451  1.00  0.00     0.049 A 
ATOM     48  H   UNL A   1      43.423  27.147  28.139  1.00  0.00     0.167 HD
ATOM     49  C   UNL A   1      47.765  26.906  27.615  1.00  0.00     0.037 A 
ATOM     50  C   UNL A   1      41.035  28.402  28.866  1.00  0.00     0.037 A 
ATOM     51  C   UNL A   1      47.496  28.280  27.945  1.00  0.00     0.049 A 
ATOM     52  C   UNL A   1      42.119  29.436  29.009  1.00  0.00     0.074 A 
ATOM     53  C   UNL A   1      48.384  29.338  28.016  1.00  0.00     0.029 A 
ATOM     54  N   UNL A   1      46.246  28.784  28.272  1.00  0.00    -0.354 N 
ATOM     55  N   UNL A   1      43.403  29.325  28.773  1.00  0.00    -0.248 NA
ATOM     56  C   UNL A   1      41.707  30.767  29.478  1.00  0.00     0.031 C 
ATOM     57  C   UNL A   1      47.683  30.469  28.445  1.00  0.00     0.029 A 
ATOM     58  C   UNL A   1      46.346  30.130  28.585  1.00  0.00     0.049 A 
ATOM     59  H   UNL A   1      45.411  28.262  28.281  1.00  0.00     0.167 HD
ATOM     60  C   UNL A   1      43.950  30.573  29.046  1.00  0.00     0.074 A 
ATOM     61  C   UNL A   1      42.853  31.431  29.441  1.00  0.00     0.031 C 
ATOM     62  C   UNL A   1      45.244  30.969  28.982  1.00  0.00     0.037 A 
BRANCH  49  63
ATOM     63  C   UNL A   1      49.190  26.494  27.378  1.00  0.00     0.057 A 
ATOM     64  C   UNL A   1      49.769  26.530  26.103  1.00  0.00     0.134 A 
ATOM     65  C   UNL A   1      50.003  26.088  28.444  1.00  0.00     0.134 A 
ATOM     66  F   UNL A   1      49.043  26.897  25.036  1.00  0.00    -0.206 F 
ATOM     67  C   UNL A   1      51.096  26.152  25.892  1.00  0.00     0.040 A 
ATOM     68  C   UNL A   1      51.339  25.737  28.250  1.00  0.00     0.040 A 
ATOM     69  F   UNL A   1      49.514  26.034  29.692  1.00  0.00    -0.206 F 
ATOM     70  C   UNL A   1      51.887  25.762  26.970  1.00  0.00     0.006 A 
ENDBRANCH  49  63
BRANCH  50  71
ATOM     71  C   UNL A   1      39.620  28.737  29.172  1.00  0.00     0.057 A 
ATOM     72  C   UNL A   1      39.084  28.524  30.448  1.00  0.00     0.134 A 
ATOM     73  C   UNL A   1      38.764  29.263  28.196  1.00  0.00     0.134 A 
ATOM     74  F   UNL A   1      39.846  28.005  31.421  1.00  0.00    -0.206 F 
ATOM     75  C   UNL A   1      37.746  28.800  30.736  1.00  0.00     0.040 A 
ATOM     76  C   UNL A   1      37.432  29.571  28.477  1.00  0.00     0.040 A 
ATOM     77  F   UNL A   1      39.215  29.496  26.954  1.00  0.00    -0.206 F 
ATOM     78  C   UNL A   1      36.917  29.331  29.750  1.00  0.00     0.006 A 
ENDBRANCH  50  71
BRANCH  62  79
ATOM     79  C   UNL A   1      45.544  32.397  29.336  1.00  0.00     0.057 A 
ATOM     80  C   UNL A   1      45.917  32.772  30.634  1.00  0.00     0.134 A 
ATOM     81  C   UNL A   1      45.504  33.400  28.360  1.00  0.00     0.134 A 
ATOM     82  F   UNL A   1      45.962  31.862  31.618  1.00  0.00    -0.206 F 
ATOM     83  C   UNL A   1      46.219  34.097  30.951  1.00  0.00     0.040 A 
ATOM     84  C   UNL A   1      45.834  34.723  28.659  1.00  0.00     0.040 A 
ATOM     85  F   UNL A   1      45.165  33.108  27.095  1.00  0.00    -0.206 F 
ATOM     86  C   UNL A   1      46.187  35.075  29.960  1.00  0.00     0.006 A 
ENDBRANCH  62  79
ENDBRANCH  36  37
ENDBRANCH  28  31
ENDBRANCH  26  27
ENDBRANCH  25  26
ENDBRANCH  24  25
ENDBRANCH   1  24
TORSDOF 15
ENDMDL
MODEL 2
REMARK VINA RESULT:     -11.7      1.692      2.172
REMARK SMILES COC(=O)[C@H]1CCN(S(=O)(=O)N2CCC[C@H](C(=O)NCCCCNC(=O)c3ccc(-c4c5nc(c(-c6c(F)cccc6F)c6ccc([nH]6)c(-c6c(F)cccc6F)c6nc(c(-c7c(F)cccc7F)c7ccc4[nH]7)C=C6)C=C5)cc3)C2)C1
REMARK SMILES IDX 20 1 19 2 17 3 18 4 16 6 12 7 13 8 81 9 14 10 15 11 9 12
REMARK SMILES IDX 10 13 11 14 8 15 5 16 6 17 82 18 7 19 3 20 4 21 2 22 1 23
REMARK SMILES IDX 21 24 22 25 23 26 24 27 25 28 26 30 27 31 28 32 80 33 29 34
REMARK SMILES IDX 79 35 30 36 31 37 32 38 73 39 33 40 78 41 72 42 74 43 34 44
REMARK SMILES IDX 77 45 71 46 70 47 35 49 61 50 44 51 60 52 45 53 48 54 59 55
REMARK SMILES IDX 75 56 46 57 47 58 58 60 76 61 49 62 36 63 37 64 42 65 38 66
REMARK SMILES IDX 39 67 41 68 43 69 40 70 62 71 63 72 68 73 64 74 65 75 67 76
REMARK SMILES IDX 69 77 66 78 50 79 51 80 56 81 52 82 53 83 55 84 57 85 54 86
REMARK H PARENT 19 5 24 29 74 48 48 59
REMARK Flexibility Score: inf
ROOT
ATOM      1  C   UNL A   1      36.982  23.452  25.462  1.00  0.00     0.116 C 
ENDROOT
BRANCH   1   2
ATOM      2  N   UNL A   1      36.057  23.197  26.540  1.00  0.00    -0.356 N 
ATOM      3  C   UNL A   1      34.731  22.923  26.532  1.00  0.00     0.224 C 
ATOM      4  O   UNL A   1      34.216  22.691  27.633  1.00  0.00    -0.275 OA
ATOM      5  H   UNL A   1      36.460  23.228  27.437  1.00  0.00     0.163 HD
BRANCH   3   6
ATOM      6  C   UNL A   1      33.856  22.884  25.276  1.00  0.00     0.094 C 
ATOM      7  N   UNL A   1      31.951  24.496  25.338  1.00  0.00    -0.188 NA
ATOM      8  C   UNL A   1      30.935  23.457  25.112  1.00  0.00     0.103 C 
ATOM      9  C   UNL A   1      33.310  24.233  24.833  1.00  0.00     0.117 C 
ATOM     10  C   UNL A   1      31.421  22.090  25.588  1.00  0.00     0.018 C 
ATOM     11  C   UNL A   1      32.846  21.744  25.177  1.00  0.00     0.016 C 
BRANCH   7  12
ATOM     12  S   UNL A   1      31.455  26.074  25.587  1.00  0.00     0.282 S 
ATOM     13  O   UNL A   1      31.730  26.445  26.955  1.00  0.00    -0.195 OA
ATOM     14  O   UNL A   1      30.121  26.203  25.045  1.00  0.00    -0.195 OA
BRANCH  12  15
ATOM     15  N   UNL A   1      32.485  26.971  24.585  1.00  0.00    -0.188 NA
ATOM     16  C   UNL A   1      31.716  28.870  23.257  1.00  0.00     0.116 C 
ATOM     17  C   UNL A   1      32.077  29.298  24.672  1.00  0.00     0.033 C 
ATOM     18  C   UNL A   1      31.824  27.339  23.276  1.00  0.00     0.118 C 
ATOM     19  C   UNL A   1      33.055  28.233  25.098  1.00  0.00     0.104 C 
BRANCH  16  20
ATOM     20  C   UNL A   1      30.348  29.299  22.784  1.00  0.00     0.310 C 
ATOM     21  O   UNL A   1      29.971  29.176  21.625  1.00  0.00    -0.252 OA
BRANCH  20  22
ATOM     22  O   UNL A   1      29.624  29.879  23.777  1.00  0.00    -0.469 OA
ATOM     23  C   UNL A   1      28.677  30.857  23.346  1.00  0.00     0.282 C 
ENDBRANCH  20  22
ENDBRANCH  16  20
ENDBRANCH  12  15
ENDBRANCH   7  12
ENDBRANCH   3   6
ENDBRANCH   1   2
BRANCH   1  24
ATOM     24  C   UNL A   1      37.019  22.313  24.450  1.00  0.00     0.023 C 
BRANCH  24  25
ATOM     25  C   UNL A   1      37.554  21.005  25.010  1.00  0.00     0.023 C 
BRANCH  25  26
ATOM     26  C   UNL A   1      38.886  21.130  25.738  1.00  0.00     0.116 C 
BRANCH  26  27
ATOM     27  N   UNL A   1      39.701  19.920  25.692  1.00  0.00    -0.352 N 
ATOM     28  C   UNL A   1      41.030  19.783  26.023  1.00  0.00     0.251 C 
ATOM     29  H   UNL A   1      39.244  19.103  25.389  1.00  0.00     0.163 HD
ATOM     30  O   UNL A   1      41.636  18.737  25.827  1.00  0.00    -0.269 OA
BRANCH  28  31
ATOM     31  C   UNL A   1      41.728  20.959  26.577  1.00  0.00     0.039 A 
ATOM     32  C   UNL A   1      42.293  21.884  25.699  1.00  0.00     0.014 A 
ATOM     33  C   UNL A   1      41.680  21.207  27.951  1.00  0.00     0.014 A 
ATOM     34  C   UNL A   1      42.716  23.117  26.195  1.00  0.00     0.010 A 
ATOM     35  C   UNL A   1      42.006  22.471  28.422  1.00  0.00     0.010 A 
ATOM     36  C   UNL A   1      42.515  23.444  27.547  1.00  0.00    -0.014 A 
BRANCH  36  37
ATOM     37  C   UNL A   1      42.791  24.810  28.055  1.00  0.00     0.031 A 
ATOM     38  C   UNL A   1      44.183  25.191  28.474  1.00  0.00     0.074 A 
ATOM     39  C   UNL A   1      41.774  25.682  28.210  1.00  0.00     0.049 A 
ATOM     40  N   UNL A   1      44.610  26.311  28.996  1.00  0.00    -0.248 NA
ATOM     41  C   UNL A   1      45.228  24.166  28.312  1.00  0.00     0.031 C 
ATOM     42  C   UNL A   1      40.368  25.409  27.900  1.00  0.00     0.029 A 
ATOM     43  N   UNL A   1      41.764  26.972  28.677  1.00  0.00    -0.354 N 
ATOM     44  C   UNL A   1      45.965  26.124  29.232  1.00  0.00     0.074 A 
ATOM     45  C   UNL A   1      46.277  24.762  28.859  1.00  0.00     0.031 C 
ATOM     46  C   UNL A   1      39.639  26.508  28.153  1.00  0.00     0.029 A 
ATOM     47  C   UNL A   1      40.515  27.546  28.688  1.00  0.00     0.049 A 
ATOM     48  H   UNL A   1      42.574  27.443  28.975  1.00  0.00     0.167 HD
ATOM     49  C   UNL A   1      46.874  27.014  29.692  1.00  0.00     0.037 A 
ATOM     50  C   UNL A   1      40.116  28.766  29.095  1.00  0.00     0.037 A 
ATOM     51  C   UNL A   1      46.561  28.373  30.047  1.00  0.00     0.049 A 
ATOM     52  C   UNL A   1      41.142  29.729  29.627  1.00  0.00     0.074 A 
ATOM     53  C   UNL A   1      47.422  29.375  30.456  1.00  0.00     0.029 A 
ATOM     54  N   UNL A   1      45.286  28.916  30.045  1.00  0.00    -0.354 N 
ATOM     55  N   UNL A   1      42.436  29.568  29.758  1.00  0.00    -0.248 NA
ATOM     56  C   UNL A   1      40.652  31.042  30.070  1.00  0.00     0.031 C 
ATOM     57  C   UNL A   1      46.661  30.507  30.762  1.00  0.00     0.029 A 
ATOM     58  C   UNL A   1      45.331  30.229  30.485  1.00  0.00     0.049 A 
ATOM     59  H   UNL A   1      44.468  28.440  29.772  1.00  0.00     0.167 HD
ATOM     60  C   UNL A   1      42.918  30.762  30.281  1.00  0.00     0.074 A 
ATOM     61  C   UNL A   1      41.779  31.646  30.417  1.00  0.00     0.031 C 
ATOM     62  C   UNL A   1      44.187  31.095  30.621  1.00  0.00     0.037 A 
BRANCH  49  63
ATOM     63  C   UNL A   1      48.293  26.546  29.837  1.00  0.00     0.057 A 
ATOM     64  C   UNL A   1      49.240  26.726  28.820  1.00  0.00     0.134 A 
ATOM     65  C   UNL A   1      48.728  25.938  31.022  1.00  0.00     0.134 A 
ATOM     66  F   UNL A   1      48.889  27.290  27.655  1.00  0.00    -0.206 F 
ATOM     67  C   UNL A   1      50.560  26.295  28.965  1.00  0.00     0.040 A 
ATOM     68  C   UNL A   1      50.052  25.530  31.190  1.00  0.00     0.040 A 
ATOM     69  F   UNL A   1      47.875  25.738  32.038  1.00  0.00    -0.206 F 
ATOM     70  C   UNL A   1      50.970  25.702  30.157  1.00  0.00     0.006 A 
ENDBRANCH  49  63
BRANCH  50  71
ATOM     71  C   UNL A   1      38.683  29.152  29.012  1.00  0.00     0.057 A 
ATOM     72  C   UNL A   1      37.845  29.069  30.130  1.00  0.00     0.134 A 
ATOM     73  C   UNL A   1      38.113  29.597  27.812  1.00  0.00     0.134 A 
ATOM     74  F   UNL A   1      38.325  28.632  31.302  1.00  0.00    -0.206 F 
ATOM     75  C   UNL A   1      36.489  29.394  30.054  1.00  0.00     0.040 A 
ATOM     76  C   UNL A   1      36.766  29.952  27.729  1.00  0.00     0.040 A 
ATOM     77  F   UNL A   1      38.862  29.705  26.705  1.00  0.00    -0.206 F 
ATOM     78  C   UNL A   1      35.947  29.843  28.851  1.00  0.00     0.006 A 
ENDBRANCH  50  71
BRANCH  62  79
ATOM     79  C   UNL A   1      44.414  32.475  31.165  1.00  0.00     0.057 A 
ATOM     80  C   UNL A   1      44.658  33.568  30.323  1.00  0.00     0.134 A 
ATOM     81  C   UNL A   1      44.343  32.723  32.541  1.00  0.00     0.134 A 
ATOM     82  F   UNL A   1      44.751  33.397  28.996  1.00  0.00    -0.206 F 
ATOM     83  C   UNL A   1      44.842  34.854  30.833  1.00  0.00     0.040 A 
ATOM     84  C   UNL A   1      44.495  34.009  33.060  1.00  0.00     0.040 A 
ATOM     85  F   UNL A   1      44.102  31.723  33.403  1.00  0.00    -0.206 F 
ATOM     86  C   UNL A   1      44.752  35.078  32.204  1.00  0.00     0.006 A 
ENDBRANCH  62  79
ENDBRANCH  36  37
ENDBRANCH  28  31
ENDBRANCH  26  27
ENDBRANCH  25  26
ENDBRANCH  24  25
ENDBRANCH   1  24
TORSDOF 15
ENDMDL
MODEL 3
REMARK VINA RESULT:     -11.7      0.407      6.279
REMARK SMILES COC(=O)[C@H]1CCN(S(=O)(=O)N2CCC[C@H](C(=O)NCCCCNC(=O)c3ccc(-c4c5nc(c(-c6c(F)cccc6F)c6ccc([nH]6)c(-c6c(F)cccc6F)c6nc(c(-c7c(F)cccc7F)c7ccc4[nH]7)C=C6)C=C5)cc3)C2)C1
REMARK SMILES IDX 20 1 19 2 17 3 18 4 16 6 12 7 13 8 81 9 14 10 15 11 9 12
REMARK SMILES IDX 10 13 11 14 8 15 5 16 6 17 82 18 7 19 3 20 4 21 2 22 1 23
REMARK SMILES IDX 21 24 22 25 23 26 24 27 25 28 26 30 27 31 28 32 80 33 29 34
REMARK SMILES IDX 79 35 30 36 31 37 32 38 73 39 33 40 78 41 72 42 74 43 34 44
REMARK SMILES IDX 77 45 71 46 70 47 35 49 61 50 44 51 60 52 45 53 48 54 59 55
REMARK SMILES IDX 75 56 46 57 47 58 58 60 76 61 49 62 36 63 37 64 42 65 38 66
REMARK SMILES IDX 39 67 41 68 43 69 40 70 62 71 63 72 68 73 64 74 65 75 67 76
REMARK SMILES IDX 69 77 66 78 50 79 51 80 56 81 52 82 53 83 55 84 57 85 54 86
REMARK H PARENT 19 5 24 29 74 48 48 59
REMARK Flexibility Score: inf
ROOT
ATOM      1  C   UNL A   1      36.716  23.239  25.147  1.00  0.00     0.116 C 
ENDROOT
BRANCH   1   2
ATOM      2  N   UNL A   1      35.650  23.925  25.837  1.00  0.00    -0.356 N 
ATOM      3  C   UNL A   1      34.316  23.961  25.608  1.00  0.00     0.224 C 
ATOM      4  O   UNL A   1      33.640  24.604  26.421  1.00  0.00    -0.275 OA
ATOM      5  H   UNL A   1      35.943  24.461  26.609  1.00  0.00     0.163 HD
BRANCH   3   6
ATOM      6  C   UNL A   1      33.614  23.273  24.434  1.00  0.00     0.094 C 
ATOM      7  N   UNL A   1      32.386  24.851  22.941  1.00  0.00    -0.188 NA
ATOM      8  C   UNL A   1      31.103  24.148  23.087  1.00  0.00     0.103 C 
ATOM      9  C   UNL A   1      33.615  24.062  23.134  1.00  0.00     0.117 C 
ATOM     10  C   UNL A   1      31.036  23.379  24.405  1.00  0.00     0.018 C 
ATOM     11  C   UNL A   1      32.289  22.579  24.737  1.00  0.00     0.016 C 
BRANCH   7  12
ATOM     12  S   UNL A   1      32.441  26.255  22.033  1.00  0.00     0.282 S 
ATOM     13  O   UNL A   1      31.164  26.452  21.390  1.00  0.00    -0.195 OA
ATOM     14  O   UNL A   1      33.659  26.224  21.255  1.00  0.00    -0.195 OA
BRANCH  12  15
ATOM     15  N   UNL A   1      32.631  27.469  23.200  1.00  0.00    -0.188 NA
ATOM     16  C   UNL A   1      30.925  29.160  23.640  1.00  0.00     0.116 C 
ATOM     17  C   UNL A   1      30.659  27.889  24.436  1.00  0.00     0.033 C 
ATOM     18  C   UNL A   1      32.102  28.803  22.722  1.00  0.00     0.118 C 
ATOM     19  C   UNL A   1      32.031  27.272  24.535  1.00  0.00     0.104 C 
BRANCH  16  20
ATOM     20  C   UNL A   1      29.756  29.667  22.830  1.00  0.00     0.310 C 
ATOM     21  O   UNL A   1      29.669  29.520  21.617  1.00  0.00    -0.252 OA
BRANCH  20  22
ATOM     22  O   UNL A   1      28.860  30.344  23.596  1.00  0.00    -0.469 OA
ATOM     23  C   UNL A   1      27.796  30.967  22.877  1.00  0.00     0.282 C 
ENDBRANCH  20  22
ENDBRANCH  16  20
ENDBRANCH  12  15
ENDBRANCH   7  12
ENDBRANCH   3   6
ENDBRANCH   1   2
BRANCH   1  24
ATOM     24  C   UNL A   1      36.838  21.782  25.575  1.00  0.00     0.023 C 
BRANCH  24  25
ATOM     25  C   UNL A   1      38.077  21.082  25.041  1.00  0.00     0.023 C 
BRANCH  25  26
ATOM     26  C   UNL A   1      39.213  20.958  26.048  1.00  0.00     0.116 C 
BRANCH  26  27
ATOM     27  N   UNL A   1      39.947  19.699  25.960  1.00  0.00    -0.352 N 
ATOM     28  C   UNL A   1      41.298  19.494  26.130  1.00  0.00     0.251 C 
ATOM     29  H   UNL A   1      39.410  18.900  25.754  1.00  0.00     0.163 HD
ATOM     30  O   UNL A   1      41.814  18.405  25.911  1.00  0.00    -0.269 OA
BRANCH  28  31
ATOM     31  C   UNL A   1      42.124  20.646  26.537  1.00  0.00     0.039 A 
ATOM     32  C   UNL A   1      42.698  21.447  25.550  1.00  0.00     0.014 A 
ATOM     33  C   UNL A   1      42.193  21.006  27.886  1.00  0.00     0.014 A 
ATOM     34  C   UNL A   1      43.252  22.675  25.912  1.00  0.00     0.010 A 
ATOM     35  C   UNL A   1      42.651  22.270  28.226  1.00  0.00     0.010 A 
ATOM     36  C   UNL A   1      43.173  23.124  27.242  1.00  0.00    -0.014 A 
BRANCH  36  37
ATOM     37  C   UNL A   1      43.593  24.498  27.614  1.00  0.00     0.031 A 
ATOM     38  C   UNL A   1      42.560  25.529  27.972  1.00  0.00     0.074 A 
ATOM     39  C   UNL A   1      44.896  24.835  27.555  1.00  0.00     0.049 A 
ATOM     40  N   UNL A   1      42.724  26.793  28.266  1.00  0.00    -0.248 NA
ATOM     41  C   UNL A   1      41.155  25.090  27.970  1.00  0.00     0.031 C 
ATOM     42  C   UNL A   1      45.987  23.940  27.159  1.00  0.00     0.029 A 
ATOM     43  N   UNL A   1      45.527  26.025  27.819  1.00  0.00    -0.354 N 
ATOM     44  C   UNL A   1      41.449  27.299  28.474  1.00  0.00     0.074 A 
ATOM     45  C   UNL A   1      40.517  26.226  28.209  1.00  0.00     0.031 C 
ATOM     46  C   UNL A   1      47.152  24.602  27.239  1.00  0.00     0.029 A 
ATOM     47  C   UNL A   1      46.889  25.979  27.644  1.00  0.00     0.049 A 
ATOM     48  H   UNL A   1      45.048  26.835  28.108  1.00  0.00     0.167 HD
ATOM     49  C   UNL A   1      41.087  28.540  28.877  1.00  0.00     0.037 A 
ATOM     50  C   UNL A   1      47.821  26.942  27.781  1.00  0.00     0.037 A 
ATOM     51  C   UNL A   1      42.020  29.599  29.155  1.00  0.00     0.049 A 
ATOM     52  C   UNL A   1      47.390  28.320  28.205  1.00  0.00     0.074 A 
ATOM     53  C   UNL A   1      41.760  30.870  29.636  1.00  0.00     0.029 A 
ATOM     54  N   UNL A   1      43.391  29.515  28.966  1.00  0.00    -0.354 N 
ATOM     55  N   UNL A   1      46.188  28.759  28.488  1.00  0.00    -0.248 NA
ATOM     56  C   UNL A   1      48.446  29.336  28.327  1.00  0.00     0.031 C 
ATOM     57  C   UNL A   1      42.966  31.576  29.679  1.00  0.00     0.029 A 
ATOM     58  C   UNL A   1      43.987  30.725  29.282  1.00  0.00     0.049 A 
ATOM     59  H   UNL A   1      43.871  28.714  28.652  1.00  0.00     0.167 HD
ATOM     60  C   UNL A   1      46.343  30.095  28.838  1.00  0.00     0.074 A 
ATOM     61  C   UNL A   1      47.760  30.385  28.756  1.00  0.00     0.031 C 
ATOM     62  C   UNL A   1      45.398  31.000  29.189  1.00  0.00     0.037 A 
BRANCH  49  63
ATOM     63  C   UNL A   1      39.621  28.816  29.042  1.00  0.00     0.057 A 
ATOM     64  C   UNL A   1      38.975  28.675  30.278  1.00  0.00     0.134 A 
ATOM     65  C   UNL A   1      38.851  29.263  27.960  1.00  0.00     0.134 A 
ATOM     66  F   UNL A   1      39.650  28.239  31.353  1.00  0.00    -0.206 F 
ATOM     67  C   UNL A   1      37.613  28.941  30.425  1.00  0.00     0.040 A 
ATOM     68  C   UNL A   1      37.496  29.561  28.102  1.00  0.00     0.040 A 
ATOM     69  F   UNL A   1      39.406  29.424  26.750  1.00  0.00    -0.206 F 
ATOM     70  C   UNL A   1      36.871  29.394  29.336  1.00  0.00     0.006 A 
ENDBRANCH  49  63
BRANCH  50  71
ATOM     71  C   UNL A   1      49.253  26.640  27.521  1.00  0.00     0.057 A 
ATOM     72  C   UNL A   1      49.788  26.724  26.231  1.00  0.00     0.134 A 
ATOM     73  C   UNL A   1      50.117  26.245  28.551  1.00  0.00     0.134 A 
ATOM     74  F   UNL A   1      49.009  27.078  25.198  1.00  0.00    -0.206 F 
ATOM     75  C   UNL A   1      51.123  26.407  25.969  1.00  0.00     0.040 A 
ATOM     76  C   UNL A   1      51.460  25.952  28.309  1.00  0.00     0.040 A 
ATOM     77  F   UNL A   1      49.669  26.149  29.811  1.00  0.00    -0.206 F 
ATOM     78  C   UNL A   1      51.965  26.025  27.012  1.00  0.00     0.006 A 
ENDBRANCH  50  71
BRANCH  62  79
ATOM     79  C   UNL A   1      45.865  32.387  29.522  1.00  0.00     0.057 A 
ATOM     80  C   UNL A   1      45.990  33.379  28.540  1.00  0.00     0.134 A 
ATOM     81  C   UNL A   1      46.148  32.749  30.846  1.00  0.00     0.134 A 
ATOM     82  F   UNL A   1      45.748  33.095  27.252  1.00  0.00    -0.206 F 
ATOM     83  C   UNL A   1      46.400  34.674  28.860  1.00  0.00     0.040 A 
ATOM     84  C   UNL A   1      46.529  34.049  31.181  1.00  0.00     0.040 A 
ATOM     85  F   UNL A   1      46.038  31.851  31.837  1.00  0.00    -0.206 F 
ATOM     86  C   UNL A   1      46.661  35.014  30.185  1.00  0.00     0.006 A 
ENDBRANCH  62  79
ENDBRANCH  36  37
ENDBRANCH  28  31
ENDBRANCH  26  27
ENDBRANCH  25  26
ENDBRANCH  24  25
ENDBRANCH   1  24
TORSDOF 15
ENDMDL
