MODEL 1
REMARK VINA RESULT:     -11.1      0.000      0.000
REMARK SMILES CC(C)Cc1ccc([C@@H](C)C(=O)NCCCCNC(=O)c2ccc(-c3c4nc(c(-c5c(F)cccc5F)c5ccc([nH]5)c(-c5c(F)cccc5F)c5nc(c(-c6c(F)cccc6F)c6ccc3[nH]6)C=C5)C=C4)cc2)cc1
REMARK SMILES IDX 15 1 14 2 13 3 11 4 12 5 9 7 10 8 8 9 5 10 6 11 76 12 7 13
REMARK SMILES IDX 75 14 4 15 2 16 1 17 3 18 16 19 17 20 18 21 19 22 20 24
REMARK SMILES IDX 21 25 22 26 74 27 23 28 73 29 24 30 25 31 26 32 67 33 27 34
REMARK SMILES IDX 72 35 66 36 68 37 28 38 71 39 65 40 64 41 29 43 55 44 38 45
REMARK SMILES IDX 54 46 39 47 42 48 53 49 69 50 40 51 41 52 52 54 70 55 43 56
REMARK SMILES IDX 30 57 31 58 36 59 32 60 33 61 35 62 37 63 34 64 56 65 57 66
REMARK SMILES IDX 62 67 58 68 59 69 61 70 63 71 60 72 44 73 45 74 50 75 46 76
REMARK SMILES IDX 47 77 49 78 51 79 48 80
REMARK H PARENT 13 6 18 23 68 42 42 53
REMARK Flexibility Score: inf
ROOT
ATOM      1  C   UNL A   1      37.033  22.495  23.796  1.00  0.00     0.023 C 
ENDROOT
BRANCH   1   2
ATOM      2  C   UNL A   1      35.623  23.061  23.612  1.00  0.00     0.116 C 
BRANCH   2   3
ATOM      3  N   UNL A   1      34.981  23.358  24.876  1.00  0.00    -0.356 N 
ATOM      4  C   UNL A   1      33.707  23.167  25.318  1.00  0.00     0.227 C 
ATOM      5  O   UNL A   1      33.458  23.588  26.456  1.00  0.00    -0.274 OA
ATOM      6  H   UNL A   1      35.576  23.776  25.539  1.00  0.00     0.163 HD
BRANCH   4   7
ATOM      7  C   UNL A   1      32.605  22.462  24.510  1.00  0.00     0.105 C 
ATOM      8  C   UNL A   1      31.185  22.831  24.943  1.00  0.00     0.023 C 
BRANCH   7   9
ATOM      9  C   UNL A   1      32.858  20.977  24.303  1.00  0.00    -0.036 A 
ATOM     10  C   UNL A   1      33.448  18.249  23.756  1.00  0.00    -0.048 A 
ATOM     11  C   UNL A   1      34.128  18.953  24.749  1.00  0.00     0.004 A 
ATOM     12  C   UNL A   1      32.456  18.931  23.036  1.00  0.00     0.004 A 
ATOM     13  C   UNL A   1      33.790  20.270  25.062  1.00  0.00     0.005 A 
ATOM     14  C   UNL A   1      32.181  20.281  23.290  1.00  0.00     0.005 A 
BRANCH  10  15
ATOM     15  C   UNL A   1      33.746  16.804  23.413  1.00  0.00     0.038 C 
BRANCH  15  16
ATOM     16  C   UNL A   1      33.792  15.778  24.569  1.00  0.00    -0.013 C 
ATOM     17  C   UNL A   1      35.135  15.776  25.311  1.00  0.00     0.008 C 
ATOM     18  C   UNL A   1      32.679  16.076  25.578  1.00  0.00     0.008 C 
ENDBRANCH  15  16
ENDBRANCH  10  15
ENDBRANCH   7   9
ENDBRANCH   4   7
ENDBRANCH   2   3
ENDBRANCH   1   2
BRANCH   1  19
ATOM     19  C   UNL A   1      37.140  21.302  24.741  1.00  0.00     0.023 C 
BRANCH  19  20
ATOM     20  C   UNL A   1      38.370  21.294  25.638  1.00  0.00     0.116 C 
BRANCH  20  21
ATOM     21  N   UNL A   1      39.182  20.089  25.533  1.00  0.00    -0.352 N 
ATOM     22  C   UNL A   1      40.492  19.910  25.922  1.00  0.00     0.251 C 
ATOM     23  H   UNL A   1      38.741  19.305  25.134  1.00  0.00     0.163 HD
ATOM     24  O   UNL A   1      41.072  18.854  25.716  1.00  0.00    -0.269 OA
BRANCH  22  25
ATOM     25  C   UNL A   1      41.204  21.044  26.550  1.00  0.00     0.039 A 
ATOM     26  C   UNL A   1      41.858  21.966  25.730  1.00  0.00     0.014 A 
ATOM     27  C   UNL A   1      41.140  21.241  27.931  1.00  0.00     0.014 A 
ATOM     28  C   UNL A   1      42.364  23.142  26.287  1.00  0.00     0.010 A 
ATOM     29  C   UNL A   1      41.573  22.446  28.471  1.00  0.00     0.010 A 
ATOM     30  C   UNL A   1      42.178  23.413  27.652  1.00  0.00    -0.014 A 
BRANCH  30  31
ATOM     31  C   UNL A   1      42.583  24.709  28.251  1.00  0.00     0.031 A 
ATOM     32  C   UNL A   1      41.556  25.782  28.473  1.00  0.00     0.074 A 
ATOM     33  C   UNL A   1      43.884  24.956  28.491  1.00  0.00     0.049 A 
ATOM     34  N   UNL A   1      41.725  27.020  28.861  1.00  0.00    -0.248 NA
ATOM     35  C   UNL A   1      40.157  25.427  28.186  1.00  0.00     0.031 C 
ATOM     36  C   UNL A   1      44.985  24.018  28.257  1.00  0.00     0.029 A 
ATOM     37  N   UNL A   1      44.507  26.084  28.965  1.00  0.00    -0.354 N 
ATOM     38  C   UNL A   1      40.463  27.597  28.837  1.00  0.00     0.074 A 
ATOM     39  C   UNL A   1      39.545  26.589  28.351  1.00  0.00     0.031 C 
ATOM     40  C   UNL A   1      46.144  24.605  28.598  1.00  0.00     0.029 A 
ATOM     41  C   UNL A   1      45.874  25.970  29.039  1.00  0.00     0.049 A 
ATOM     42  H   UNL A   1      44.020  26.898  29.227  1.00  0.00     0.167 HD
ATOM     43  C   UNL A   1      40.098  28.848  29.204  1.00  0.00     0.037 A 
ATOM     44  C   UNL A   1      46.807  26.868  29.408  1.00  0.00     0.037 A 
ATOM     45  C   UNL A   1      41.006  29.833  29.727  1.00  0.00     0.049 A 
ATOM     46  C   UNL A   1      46.376  28.245  29.830  1.00  0.00     0.074 A 
ATOM     47  C   UNL A   1      40.720  31.093  30.221  1.00  0.00     0.029 A 
ATOM     48  N   UNL A   1      42.380  29.667  29.821  1.00  0.00    -0.354 N 
ATOM     49  N   UNL A   1      45.168  28.751  29.882  1.00  0.00    -0.248 NA
ATOM     50  C   UNL A   1      47.436  29.175  30.245  1.00  0.00     0.031 C 
ATOM     51  C   UNL A   1      41.926  31.704  30.579  1.00  0.00     0.029 A 
ATOM     52  C   UNL A   1      42.959  30.812  30.342  1.00  0.00     0.049 A 
ATOM     53  H   UNL A   1      42.871  28.855  29.557  1.00  0.00     0.167 HD
ATOM     54  C   UNL A   1      45.319  30.050  30.349  1.00  0.00     0.074 A 
ATOM     55  C   UNL A   1      46.735  30.249  30.581  1.00  0.00     0.031 C 
ATOM     56  C   UNL A   1      44.371  30.992  30.565  1.00  0.00     0.037 A 
BRANCH  43  57
ATOM     57  C   UNL A   1      38.652  29.215  29.056  1.00  0.00     0.057 A 
ATOM     58  C   UNL A   1      37.763  29.163  30.137  1.00  0.00     0.134 A 
ATOM     59  C   UNL A   1      38.148  29.648  27.823  1.00  0.00     0.134 A 
ATOM     60  F   UNL A   1      38.180  28.745  31.341  1.00  0.00    -0.206 F 
ATOM     61  C   UNL A   1      36.417  29.500  29.990  1.00  0.00     0.040 A 
ATOM     62  C   UNL A   1      36.809  30.010  27.670  1.00  0.00     0.040 A 
ATOM     63  F   UNL A   1      38.948  29.725  26.748  1.00  0.00    -0.206 F 
ATOM     64  C   UNL A   1      35.938  29.930  28.754  1.00  0.00     0.006 A 
ENDBRANCH  43  57
BRANCH  44  65
ATOM     65  C   UNL A   1      48.242  26.490  29.403  1.00  0.00     0.057 A 
ATOM     66  C   UNL A   1      49.054  26.763  28.297  1.00  0.00     0.134 A 
ATOM     67  C   UNL A   1      48.835  25.855  30.500  1.00  0.00     0.134 A 
ATOM     68  F   UNL A   1      48.537  27.353  27.209  1.00  0.00    -0.206 F 
ATOM     69  C   UNL A   1      50.404  26.405  28.276  1.00  0.00     0.040 A 
ATOM     70  C   UNL A   1      50.188  25.511  30.501  1.00  0.00     0.040 A 
ATOM     71  F   UNL A   1      48.110  25.572  31.592  1.00  0.00    -0.206 F 
ATOM     72  C   UNL A   1      50.975  25.781  29.383  1.00  0.00     0.006 A 
ENDBRANCH  44  65
BRANCH  56  73
ATOM     73  C   UNL A   1      44.828  32.320  31.089  1.00  0.00     0.057 A 
ATOM     74  C   UNL A   1      44.966  32.558  32.461  1.00  0.00     0.134 A 
ATOM     75  C   UNL A   1      45.187  33.349  30.210  1.00  0.00     0.134 A 
ATOM     76  F   UNL A   1      44.624  31.615  33.352  1.00  0.00    -0.206 F 
ATOM     77  C   UNL A   1      45.435  33.780  32.944  1.00  0.00     0.040 A 
ATOM     78  C   UNL A   1      45.679  34.568  30.680  1.00  0.00     0.040 A 
ATOM     79  F   UNL A   1      45.085  33.181  28.884  1.00  0.00    -0.206 F 
ATOM     80  C   UNL A   1      45.801  34.786  32.051  1.00  0.00     0.006 A 
ENDBRANCH  56  73
ENDBRANCH  30  31
ENDBRANCH  22  25
ENDBRANCH  20  21
ENDBRANCH  19  20
ENDBRANCH   1  19
TORSDOF 14
ENDMDL
MODEL 2
REMARK VINA RESULT:     -11.1      2.054      3.028
REMARK SMILES CC(C)Cc1ccc([C@@H](C)C(=O)NCCCCNC(=O)c2ccc(-c3c4nc(c(-c5c(F)cccc5F)c5ccc([nH]5)c(-c5c(F)cccc5F)c5nc(c(-c6c(F)cccc6F)c6ccc3[nH]6)C=C5)C=C4)cc2)cc1
REMARK SMILES IDX 15 1 14 2 13 3 11 4 12 5 9 7 10 8 8 9 5 10 6 11 76 12 7 13
REMARK SMILES IDX 75 14 4 15 2 16 1 17 3 18 16 19 17 20 18 21 19 22 20 24
REMARK SMILES IDX 21 25 22 26 74 27 23 28 73 29 24 30 25 31 26 32 67 33 27 34
REMARK SMILES IDX 72 35 66 36 68 37 28 38 71 39 65 40 64 41 29 43 55 44 38 45
REMARK SMILES IDX 54 46 39 47 42 48 53 49 69 50 40 51 41 52 52 54 70 55 43 56
REMARK SMILES IDX 30 57 31 58 36 59 32 60 33 61 35 62 37 63 34 64 56 65 57 66
REMARK SMILES IDX 62 67 58 68 59 69 61 70 63 71 60 72 44 73 45 74 50 75 46 76
REMARK SMILES IDX 47 77 49 78 51 79 48 80
REMARK H PARENT 13 6 18 23 68 42 42 53
REMARK Flexibility Score: inf
ROOT
ATOM      1  C   UNL A   1      35.773  23.449  23.855  1.00  0.00     0.023 C 
ENDROOT
BRANCH   1   2
ATOM      2  C   UNL A   1      35.112  24.445  24.812  1.00  0.00     0.116 C 
BRANCH   2   3
ATOM      3  N   UNL A   1      34.148  25.293  24.142  1.00  0.00    -0.356 N 
ATOM      4  C   UNL A   1      32.788  25.254  24.080  1.00  0.00     0.227 C 
ATOM      5  O   UNL A   1      32.253  26.112  23.364  1.00  0.00    -0.274 OA
ATOM      6  H   UNL A   1      34.551  26.037  23.638  1.00  0.00     0.163 HD
BRANCH   4   7
ATOM      7  C   UNL A   1      31.913  24.245  24.842  1.00  0.00     0.105 C 
ATOM      8  C   UNL A   1      31.870  24.480  26.353  1.00  0.00     0.023 C 
BRANCH   7   9
ATOM      9  C   UNL A   1      32.131  22.804  24.411  1.00  0.00    -0.036 A 
ATOM     10  C   UNL A   1      32.343  20.073  23.644  1.00  0.00    -0.048 A 
ATOM     11  C   UNL A   1      32.211  21.085  22.694  1.00  0.00     0.004 A 
ATOM     12  C   UNL A   1      32.372  20.447  24.995  1.00  0.00     0.004 A 
ATOM     13  C   UNL A   1      32.176  22.429  23.069  1.00  0.00     0.005 A 
ATOM     14  C   UNL A   1      32.246  21.790  25.375  1.00  0.00     0.005 A 
BRANCH  10  15
ATOM     15  C   UNL A   1      32.432  18.605  23.283  1.00  0.00     0.038 C 
BRANCH  15  16
ATOM     16  C   UNL A   1      33.425  17.722  24.074  1.00  0.00    -0.013 C 
ATOM     17  C   UNL A   1      32.741  16.879  25.157  1.00  0.00     0.008 C 
ATOM     18  C   UNL A   1      34.165  16.781  23.119  1.00  0.00     0.008 C 
ENDBRANCH  15  16
ENDBRANCH  10  15
ENDBRANCH   7   9
ENDBRANCH   4   7
ENDBRANCH   2   3
ENDBRANCH   1   2
BRANCH   1  19
ATOM     19  C   UNL A   1      35.802  22.002  24.337  1.00  0.00     0.023 C 
BRANCH  19  20
ATOM     20  C   UNL A   1      36.594  21.759  25.614  1.00  0.00     0.116 C 
BRANCH  20  21
ATOM     21  N   UNL A   1      37.608  20.718  25.504  1.00  0.00    -0.352 N 
ATOM     22  C   UNL A   1      38.933  20.778  25.881  1.00  0.00     0.251 C 
ATOM     23  H   UNL A   1      37.310  19.867  25.110  1.00  0.00     0.163 HD
ATOM     24  O   UNL A   1      39.690  19.842  25.671  1.00  0.00    -0.269 OA
BRANCH  22  25
ATOM     25  C   UNL A   1      39.436  22.023  26.500  1.00  0.00     0.039 A 
ATOM     26  C   UNL A   1      40.450  21.938  27.456  1.00  0.00     0.014 A 
ATOM     27  C   UNL A   1      38.973  23.266  26.063  1.00  0.00     0.014 A 
ATOM     28  C   UNL A   1      41.070  23.106  27.904  1.00  0.00     0.010 A 
ATOM     29  C   UNL A   1      39.644  24.419  26.449  1.00  0.00     0.010 A 
ATOM     30  C   UNL A   1      40.707  24.349  27.363  1.00  0.00    -0.014 A 
BRANCH  30  31
ATOM     31  C   UNL A   1      41.434  25.594  27.715  1.00  0.00     0.031 A 
ATOM     32  C   UNL A   1      40.730  26.681  28.476  1.00  0.00     0.074 A 
ATOM     33  C   UNL A   1      42.685  25.789  27.257  1.00  0.00     0.049 A 
ATOM     34  N   UNL A   1      41.143  27.888  28.766  1.00  0.00    -0.248 NA
ATOM     35  C   UNL A   1      39.364  26.384  28.939  1.00  0.00     0.031 C 
ATOM     36  C   UNL A   1      43.454  24.836  26.453  1.00  0.00     0.029 A 
ATOM     37  N   UNL A   1      43.524  26.868  27.383  1.00  0.00    -0.354 N 
ATOM     38  C   UNL A   1      40.082  28.501  29.419  1.00  0.00     0.074 A 
ATOM     39  C   UNL A   1      38.991  27.551  29.441  1.00  0.00     0.031 C 
ATOM     40  C   UNL A   1      44.654  25.368  26.168  1.00  0.00     0.029 A 
ATOM     41  C   UNL A   1      44.727  26.711  26.736  1.00  0.00     0.049 A 
ATOM     42  H   UNL A   1      43.288  27.678  27.889  1.00  0.00     0.167 HD
ATOM     43  C   UNL A   1      40.029  29.738  29.968  1.00  0.00     0.037 A 
ATOM     44  C   UNL A   1      45.764  27.558  26.603  1.00  0.00     0.037 A 
ATOM     45  C   UNL A   1      41.130  30.662  29.983  1.00  0.00     0.049 A 
ATOM     46  C   UNL A   1      45.689  28.918  27.238  1.00  0.00     0.074 A 
ATOM     47  C   UNL A   1      41.210  31.897  30.601  1.00  0.00     0.029 A 
ATOM     48  N   UNL A   1      42.345  30.451  29.348  1.00  0.00    -0.354 N 
ATOM     49  N   UNL A   1      44.711  29.455  27.925  1.00  0.00    -0.248 NA
ATOM     50  C   UNL A   1      46.862  29.791  27.081  1.00  0.00     0.031 C 
ATOM     51  C   UNL A   1      42.461  32.451  30.307  1.00  0.00     0.029 A 
ATOM     52  C   UNL A   1      43.173  31.545  29.538  1.00  0.00     0.049 A 
ATOM     53  H   UNL A   1      42.584  29.644  28.839  1.00  0.00     0.167 HD
ATOM     54  C   UNL A   1      45.153  30.717  28.296  1.00  0.00     0.074 A 
ATOM     55  C   UNL A   1      46.495  30.861  27.770  1.00  0.00     0.031 C 
ATOM     56  C   UNL A   1      44.505  31.672  29.005  1.00  0.00     0.037 A 
BRANCH  43  57
ATOM     57  C   UNL A   1      38.736  30.154  30.603  1.00  0.00     0.057 A 
ATOM     58  C   UNL A   1      37.754  30.853  29.890  1.00  0.00     0.134 A 
ATOM     59  C   UNL A   1      38.461  29.832  31.938  1.00  0.00     0.134 A 
ATOM     60  F   UNL A   1      37.963  31.204  28.612  1.00  0.00    -0.206 F 
ATOM     61  C   UNL A   1      36.557  31.243  30.490  1.00  0.00     0.040 A 
ATOM     62  C   UNL A   1      37.256  30.195  32.541  1.00  0.00     0.040 A 
ATOM     63  F   UNL A   1      39.357  29.159  32.677  1.00  0.00    -0.206 F 
ATOM     64  C   UNL A   1      36.303  30.909  31.819  1.00  0.00     0.006 A 
ENDBRANCH  43  57
BRANCH  44  65
ATOM     65  C   UNL A   1      46.968  27.140  25.844  1.00  0.00     0.057 A 
ATOM     66  C   UNL A   1      47.987  26.403  26.459  1.00  0.00     0.134 A 
ATOM     67  C   UNL A   1      47.129  27.459  24.491  1.00  0.00     0.134 A 
ATOM     68  F   UNL A   1      47.897  26.083  27.758  1.00  0.00    -0.206 F 
ATOM     69  C   UNL A   1      49.129  26.009  25.759  1.00  0.00     0.040 A 
ATOM     70  C   UNL A   1      48.256  27.055  23.773  1.00  0.00     0.040 A 
ATOM     71  F   UNL A   1      46.185  28.158  23.843  1.00  0.00    -0.206 F 
ATOM     72  C   UNL A   1      49.263  26.332  24.410  1.00  0.00     0.006 A 
ENDBRANCH  44  65
BRANCH  56  73
ATOM     73  C   UNL A   1      45.240  32.951  29.267  1.00  0.00     0.057 A 
ATOM     74  C   UNL A   1      45.114  34.056  28.417  1.00  0.00     0.134 A 
ATOM     75  C   UNL A   1      46.036  33.097  30.410  1.00  0.00     0.134 A 
ATOM     76  F   UNL A   1      44.378  33.972  27.299  1.00  0.00    -0.206 F 
ATOM     77  C   UNL A   1      45.765  35.261  28.688  1.00  0.00     0.040 A 
ATOM     78  C   UNL A   1      46.673  34.303  30.703  1.00  0.00     0.040 A 
ATOM     79  F   UNL A   1      46.190  32.078  31.268  1.00  0.00    -0.206 F 
ATOM     80  C   UNL A   1      46.540  35.388  29.839  1.00  0.00     0.006 A 
ENDBRANCH  56  73
ENDBRANCH  30  31
ENDBRANCH  22  25
ENDBRANCH  20  21
ENDBRANCH  19  20
ENDBRANCH   1  19
TORSDOF 14
ENDMDL
MODEL 3
REMARK VINA RESULT:     -11.0      5.335      9.803
REMARK SMILES CC(C)Cc1ccc([C@@H](C)C(=O)NCCCCNC(=O)c2ccc(-c3c4nc(c(-c5c(F)cccc5F)c5ccc([nH]5)c(-c5c(F)cccc5F)c5nc(c(-c6c(F)cccc6F)c6ccc3[nH]6)C=C5)C=C4)cc2)cc1
REMARK SMILES IDX 15 1 14 2 13 3 11 4 12 5 9 7 10 8 8 9 5 10 6 11 76 12 7 13
REMARK SMILES IDX 75 14 4 15 2 16 1 17 3 18 16 19 17 20 18 21 19 22 20 24
REMARK SMILES IDX 21 25 22 26 74 27 23 28 73 29 24 30 25 31 26 32 67 33 27 34
REMARK SMILES IDX 72 35 66 36 68 37 28 38 71 39 65 40 64 41 29 43 55 44 38 45
REMARK SMILES IDX 54 46 39 47 42 48 53 49 69 50 40 51 41 52 52 54 70 55 43 56
REMARK SMILES IDX 30 57 31 58 36 59 32 60 33 61 35 62 37 63 34 64 56 65 57 66
REMARK SMILES IDX 62 67 58 68 59 69 61 70 63 71 60 72 44 73 45 74 50 75 46 76
REMARK SMILES IDX 47 77 49 78 51 79 48 80
REMARK H PARENT 13 6 18 23 68 42 42 53
REMARK Flexibility Score: inf
ROOT
ATOM      1  C   UNL A   1      32.143  30.461  25.943  1.00  0.00     0.023 C 
ENDROOT
BRANCH   1   2
ATOM      2  C   UNL A   1      33.122  29.423  26.499  1.00  0.00     0.116 C 
BRANCH   2   3
ATOM      3  N   UNL A   1      32.443  28.263  27.041  1.00  0.00    -0.356 N 
ATOM      4  C   UNL A   1      31.997  27.115  26.461  1.00  0.00     0.227 C 
ATOM      5  O   UNL A   1      31.399  26.328  27.206  1.00  0.00    -0.274 OA
ATOM      6  H   UNL A   1      32.274  28.315  28.009  1.00  0.00     0.163 HD
BRANCH   4   7
ATOM      7  C   UNL A   1      32.209  26.751  24.982  1.00  0.00     0.105 C 
ATOM      8  C   UNL A   1      33.678  26.595  24.586  1.00  0.00     0.023 C 
BRANCH   7   9
ATOM      9  C   UNL A   1      31.359  27.573  24.026  1.00  0.00    -0.036 A 
ATOM     10  C   UNL A   1      29.732  29.238  22.392  1.00  0.00    -0.048 A 
ATOM     11  C   UNL A   1      31.123  29.328  22.361  1.00  0.00     0.004 A 
ATOM     12  C   UNL A   1      29.159  28.292  23.254  1.00  0.00     0.004 A 
ATOM     13  C   UNL A   1      31.921  28.464  23.112  1.00  0.00     0.005 A 
ATOM     14  C   UNL A   1      29.960  27.487  24.076  1.00  0.00     0.005 A 
BRANCH  10  15
ATOM     15  C   UNL A   1      28.827  30.122  21.559  1.00  0.00     0.038 C 
BRANCH  15  16
ATOM     16  C   UNL A   1      28.578  31.568  22.046  1.00  0.00    -0.013 C 
ATOM     17  C   UNL A   1      27.946  32.459  20.968  1.00  0.00     0.008 C 
ATOM     18  C   UNL A   1      27.659  31.558  23.271  1.00  0.00     0.008 C 
ENDBRANCH  15  16
ENDBRANCH  10  15
ENDBRANCH   7   9
ENDBRANCH   4   7
ENDBRANCH   2   3
ENDBRANCH   1   2
BRANCH   1  19
ATOM     19  C   UNL A   1      31.764  31.582  26.905  1.00  0.00     0.023 C 
BRANCH  19  20
ATOM     20  C   UNL A   1      32.904  32.511  27.299  1.00  0.00     0.116 C 
BRANCH  20  21
ATOM     21  N   UNL A   1      32.487  33.870  27.621  1.00  0.00    -0.352 N 
ATOM     22  C   UNL A   1      33.043  34.735  28.539  1.00  0.00     0.251 C 
ATOM     23  H   UNL A   1      31.712  34.213  27.120  1.00  0.00     0.163 HD
ATOM     24  O   UNL A   1      32.548  35.832  28.751  1.00  0.00    -0.269 OA
BRANCH  22  25
ATOM     25  C   UNL A   1      34.225  34.287  29.307  1.00  0.00     0.039 A 
ATOM     26  C   UNL A   1      34.028  33.637  30.528  1.00  0.00     0.014 A 
ATOM     27  C   UNL A   1      35.508  34.424  28.773  1.00  0.00     0.014 A 
ATOM     28  C   UNL A   1      35.114  33.036  31.168  1.00  0.00     0.010 A 
ATOM     29  C   UNL A   1      36.571  33.759  29.370  1.00  0.00     0.010 A 
ATOM     30  C   UNL A   1      36.382  33.048  30.566  1.00  0.00    -0.014 A 
BRANCH  30  31
ATOM     31  C   UNL A   1      37.528  32.307  31.149  1.00  0.00     0.031 A 
ATOM     32  C   UNL A   1      38.193  32.819  32.395  1.00  0.00     0.074 A 
ATOM     33  C   UNL A   1      38.035  31.242  30.500  1.00  0.00     0.049 A 
ATOM     34  N   UNL A   1      39.280  32.394  32.985  1.00  0.00    -0.248 NA
ATOM     35  C   UNL A   1      37.573  33.988  33.041  1.00  0.00     0.031 C 
ATOM     36  C   UNL A   1      37.518  30.686  29.246  1.00  0.00     0.029 A 
ATOM     37  N   UNL A   1      39.116  30.449  30.792  1.00  0.00    -0.354 N 
ATOM     38  C   UNL A   1      39.489  33.258  34.052  1.00  0.00     0.074 A 
ATOM     39  C   UNL A   1      38.445  34.258  34.000  1.00  0.00     0.031 C 
ATOM     40  C   UNL A   1      38.275  29.637  28.885  1.00  0.00     0.029 A 
ATOM     41  C   UNL A   1      39.350  29.468  29.858  1.00  0.00     0.049 A 
ATOM     42  H   UNL A   1      39.672  30.570  31.595  1.00  0.00     0.167 HD
ATOM     43  C   UNL A   1      40.454  33.210  35.001  1.00  0.00     0.037 A 
ATOM     44  C   UNL A   1      40.328  28.546  29.786  1.00  0.00     0.037 A 
ATOM     45  C   UNL A   1      41.464  32.190  35.075  1.00  0.00     0.049 A 
ATOM     46  C   UNL A   1      41.376  28.500  30.863  1.00  0.00     0.074 A 
ATOM     47  C   UNL A   1      42.423  31.995  36.052  1.00  0.00     0.029 A 
ATOM     48  N   UNL A   1      41.646  31.191  34.129  1.00  0.00    -0.354 N 
ATOM     49  N   UNL A   1      41.514  29.272  31.912  1.00  0.00    -0.248 NA
ATOM     50  C   UNL A   1      42.405  27.457  30.744  1.00  0.00     0.031 C 
ATOM     51  C   UNL A   1      43.210  30.901  35.679  1.00  0.00     0.029 A 
ATOM     52  C   UNL A   1      42.719  30.392  34.488  1.00  0.00     0.049 A 
ATOM     53  H   UNL A   1      41.094  31.068  33.324  1.00  0.00     0.167 HD
ATOM     54  C   UNL A   1      42.631  28.800  32.588  1.00  0.00     0.074 A 
ATOM     55  C   UNL A   1      43.125  27.664  31.837  1.00  0.00     0.031 C 
ATOM     56  C   UNL A   1      43.197  29.267  33.727  1.00  0.00     0.037 A 
BRANCH  43  57
ATOM     57  C   UNL A   1      40.454  34.293  36.038  1.00  0.00     0.057 A 
ATOM     58  C   UNL A   1      39.697  34.191  37.212  1.00  0.00     0.134 A 
ATOM     59  C   UNL A   1      41.238  35.442  35.871  1.00  0.00     0.134 A 
ATOM     60  F   UNL A   1      38.914  33.123  37.426  1.00  0.00    -0.206 F 
ATOM     61  C   UNL A   1      39.696  35.207  38.169  1.00  0.00     0.040 A 
ATOM     62  C   UNL A   1      41.264  36.452  36.833  1.00  0.00     0.040 A 
ATOM     63  F   UNL A   1      41.990  35.600  34.771  1.00  0.00    -0.206 F 
ATOM     64  C   UNL A   1      40.486  36.339  37.983  1.00  0.00     0.006 A 
ENDBRANCH  43  57
BRANCH  44  65
ATOM     65  C   UNL A   1      40.356  27.582  28.658  1.00  0.00     0.057 A 
ATOM     66  C   UNL A   1      41.107  27.844  27.507  1.00  0.00     0.134 A 
ATOM     67  C   UNL A   1      39.640  26.381  28.704  1.00  0.00     0.134 A 
ATOM     68  F   UNL A   1      41.798  28.988  27.398  1.00  0.00    -0.206 F 
ATOM     69  C   UNL A   1      41.137  26.951  26.434  1.00  0.00     0.040 A 
ATOM     70  C   UNL A   1      39.677  25.468  27.648  1.00  0.00     0.040 A 
ATOM     71  F   UNL A   1      38.907  26.070  29.782  1.00  0.00    -0.206 F 
ATOM     72  C   UNL A   1      40.423  25.756  26.506  1.00  0.00     0.006 A 
ENDBRANCH  44  65
BRANCH  56  73
ATOM     73  C   UNL A   1      44.406  28.544  34.239  1.00  0.00     0.057 A 
ATOM     74  C   UNL A   1      45.702  28.962  33.914  1.00  0.00     0.134 A 
ATOM     75  C   UNL A   1      44.273  27.456  35.110  1.00  0.00     0.134 A 
ATOM     76  F   UNL A   1      45.894  29.990  33.073  1.00  0.00    -0.206 F 
ATOM     77  C   UNL A   1      46.826  28.315  34.430  1.00  0.00     0.040 A 
ATOM     78  C   UNL A   1      45.388  26.815  35.649  1.00  0.00     0.040 A 
ATOM     79  F   UNL A   1      43.058  27.012  35.466  1.00  0.00    -0.206 F 
ATOM     80  C   UNL A   1      46.670  27.243  35.306  1.00  0.00     0.006 A 
ENDBRANCH  56  73
ENDBRANCH  30  31
ENDBRANCH  22  25
ENDBRANCH  20  21
ENDBRANCH  19  20
ENDBRANCH   1  19
TORSDOF 14
ENDMDL
