MODEL 1
REMARK VINA RESULT:     -13.1      0.000      0.000
REMARK SMILES O=C1OC(c2ccc(Cl)cc2)=N/C1=C/Nc1ccc(O)c(C(=O)NCCCCNC(=O)c2ccc(-c3c4nc(c(-c5c(F)cccc5F)c5ccc([nH]5)c(-c5c(F)cccc5F)c5nc(c(-c6c(F)cccc6F)c6ccc3[nH]6)C=C5)C=C4)cc2)c1
REMARK SMILES IDX 26 1 25 2 24 3 22 4 23 5 21 7 16 8 17 9 86 10 18 11 19 12
REMARK SMILES IDX 15 13 14 15 1 16 2 17 3 18 13 19 4 20 12 21 5 22 6 23 11 24
REMARK SMILES IDX 7 25 10 26 8 27 9 28 20 29 27 31 28 32 29 33 30 34 31 36
REMARK SMILES IDX 32 37 33 38 85 39 34 40 84 41 35 42 36 43 37 44 78 45 38 46
REMARK SMILES IDX 83 47 77 48 79 49 39 50 82 51 76 52 75 53 40 55 66 56 49 57
REMARK SMILES IDX 65 58 50 59 53 60 64 61 80 62 51 63 52 64 63 66 81 67 54 68
REMARK SMILES IDX 41 69 42 70 47 71 43 72 44 73 46 74 48 75 45 76 67 77 68 78
REMARK SMILES IDX 73 79 69 80 70 81 72 82 74 83 71 84 55 85 56 86 61 87 57 88
REMARK SMILES IDX 58 89 60 90 62 91 59 92
REMARK H PARENT 24 6 15 14 20 30 29 35 79 54 53 65
REMARK Flexibility Score: inf
ROOT
ATOM      1  C   UNL A   1      31.624  30.565  26.729  1.00  0.00     0.023 C 
ENDROOT
BRANCH   1   2
ATOM      2  C   UNL A   1      33.045  29.998  26.642  1.00  0.00     0.116 C 
BRANCH   2   3
ATOM      3  N   UNL A   1      33.450  29.917  25.259  1.00  0.00    -0.352 N 
ATOM      4  C   UNL A   1      32.973  29.183  24.207  1.00  0.00     0.255 C 
ATOM      5  O   UNL A   1      33.642  29.246  23.171  1.00  0.00    -0.269 OA
ATOM      6  H   UNL A   1      34.212  30.498  25.030  1.00  0.00     0.163 HD
BRANCH   4   7
ATOM      7  C   UNL A   1      31.686  28.415  24.185  1.00  0.00     0.083 A 
ATOM      8  C   UNL A   1      30.572  26.463  25.196  1.00  0.00     0.039 A 
ATOM      9  C   UNL A   1      29.490  26.647  24.336  1.00  0.00     0.030 A 
ATOM     10  C   UNL A   1      31.662  27.332  25.090  1.00  0.00     0.043 A 
ATOM     11  C   UNL A   1      29.457  27.735  23.473  1.00  0.00     0.049 A 
ATOM     12  C   UNL A   1      30.530  28.633  23.423  1.00  0.00     0.128 A 
BRANCH   8  13
ATOM     13  N   UNL A   1      30.623  25.407  26.111  1.00  0.00    -0.360 N 
ATOM     14  H   UNL A   1      30.685  25.647  27.064  1.00  0.00     0.166 HD
BRANCH  13  15
ATOM     15  C   UNL A   1      30.596  24.073  25.811  1.00  0.00     0.119 C 
ATOM     16  O   UNL A   1      33.545  24.720  25.731  1.00  0.00    -0.244 OA
ATOM     17  C   UNL A   1      33.037  23.641  25.509  1.00  0.00     0.365 C 
ATOM     18  O   UNL A   1      33.666  22.465  25.217  1.00  0.00    -0.402 OA
ATOM     19  C   UNL A   1      31.601  23.255  25.493  1.00  0.00     0.168 C 
ATOM     20  C   UNL A   1      32.682  21.559  25.013  1.00  0.00     0.231 C 
ATOM     21  N   UNL A   1      31.456  21.940  25.148  1.00  0.00    -0.204 NA
BRANCH  20  22
ATOM     22  C   UNL A   1      33.130  20.240  24.591  1.00  0.00     0.037 A 
ATOM     23  C   UNL A   1      34.411  19.787  24.914  1.00  0.00     0.015 A 
ATOM     24  C   UNL A   1      32.230  19.425  23.897  1.00  0.00     0.015 A 
ATOM     25  C   UNL A   1      34.790  18.496  24.537  1.00  0.00     0.021 A 
ATOM     26  C   UNL A   1      32.622  18.146  23.506  1.00  0.00     0.021 A 
ATOM     27  C   UNL A   1      33.899  17.685  23.833  1.00  0.00     0.041 A 
ATOM     28  Cl  UNL A   1      34.373  16.099  23.369  1.00  0.00    -0.084 Cl
ENDBRANCH  20  22
ENDBRANCH  13  15
ENDBRANCH   8  13
BRANCH  12  29
ATOM     29  O   UNL A   1      30.345  29.738  22.650  1.00  0.00    -0.507 OA
ATOM     30  H   UNL A   1      29.496  30.128  22.585  1.00  0.00     0.293 HD
ENDBRANCH  12  29
ENDBRANCH   4   7
ENDBRANCH   2   3
ENDBRANCH   1   2
BRANCH   1  31
ATOM     31  C   UNL A   1      31.550  32.085  26.610  1.00  0.00     0.023 C 
BRANCH  31  32
ATOM     32  C   UNL A   1      32.692  32.820  27.296  1.00  0.00     0.116 C 
BRANCH  32  33
ATOM     33  N   UNL A   1      32.353  34.187  27.666  1.00  0.00    -0.352 N 
ATOM     34  C   UNL A   1      32.971  35.003  28.579  1.00  0.00     0.251 C 
ATOM     35  H   UNL A   1      31.580  34.576  27.200  1.00  0.00     0.163 HD
ATOM     36  O   UNL A   1      32.487  36.093  28.866  1.00  0.00    -0.269 OA
BRANCH  34  37
ATOM     37  C   UNL A   1      34.199  34.532  29.248  1.00  0.00     0.039 A 
ATOM     38  C   UNL A   1      34.077  33.840  30.453  1.00  0.00     0.014 A 
ATOM     39  C   UNL A   1      35.454  34.732  28.668  1.00  0.00     0.014 A 
ATOM     40  C   UNL A   1      35.214  33.293  31.043  1.00  0.00     0.010 A 
ATOM     41  C   UNL A   1      36.572  34.110  29.210  1.00  0.00     0.010 A 
ATOM     42  C   UNL A   1      36.464  33.388  30.406  1.00  0.00    -0.014 A 
BRANCH  42  43
ATOM     43  C   UNL A   1      37.652  32.712  30.984  1.00  0.00     0.031 A 
ATOM     44  C   UNL A   1      38.239  33.174  32.287  1.00  0.00     0.074 A 
ATOM     45  C   UNL A   1      38.214  31.689  30.312  1.00  0.00     0.049 A 
ATOM     46  N   UNL A   1      39.239  32.670  32.965  1.00  0.00    -0.248 NA
ATOM     47  C   UNL A   1      37.644  34.372  32.901  1.00  0.00     0.031 C 
ATOM     48  C   UNL A   1      37.778  31.196  29.003  1.00  0.00     0.029 A 
ATOM     49  N   UNL A   1      39.265  30.871  30.641  1.00  0.00    -0.354 N 
ATOM     50  C   UNL A   1      39.389  33.484  34.080  1.00  0.00     0.074 A 
ATOM     51  C   UNL A   1      38.425  34.555  33.954  1.00  0.00     0.031 C 
ATOM     52  C   UNL A   1      38.523  30.132  28.665  1.00  0.00     0.029 A 
ATOM     53  C   UNL A   1      39.511  29.891  29.711  1.00  0.00     0.049 A 
ATOM     54  H   UNL A   1      39.794  30.977  31.466  1.00  0.00     0.167 HD
ATOM     55  C   UNL A   1      40.234  33.336  35.128  1.00  0.00     0.037 A 
ATOM     56  C   UNL A   1      40.425  28.904  29.705  1.00  0.00     0.037 A 
ATOM     57  C   UNL A   1      41.189  32.265  35.249  1.00  0.00     0.049 A 
ATOM     58  C   UNL A   1      41.355  28.766  30.878  1.00  0.00     0.074 A 
ATOM     59  C   UNL A   1      42.052  31.993  36.297  1.00  0.00     0.029 A 
ATOM     60  N   UNL A   1      41.414  31.294  34.285  1.00  0.00    -0.354 N 
ATOM     61  N   UNL A   1      41.425  29.488  31.970  1.00  0.00    -0.248 NA
ATOM     62  C   UNL A   1      42.325  27.665  30.823  1.00  0.00     0.031 C 
ATOM     63  C   UNL A   1      42.841  30.895  35.940  1.00  0.00     0.029 A 
ATOM     64  C   UNL A   1      42.425  30.440  34.699  1.00  0.00     0.049 A 
ATOM     65  H   UNL A   1      40.929  31.222  33.432  1.00  0.00     0.167 HD
ATOM     66  C   UNL A   1      42.430  28.919  32.740  1.00  0.00     0.074 A 
ATOM     67  C   UNL A   1      42.918  27.771  32.003  1.00  0.00     0.031 C 
ATOM     68  C   UNL A   1      42.910  29.309  33.948  1.00  0.00     0.037 A 
BRANCH  55  69
ATOM     69  C   UNL A   1      40.162  34.361  36.226  1.00  0.00     0.057 A 
ATOM     70  C   UNL A   1      39.315  34.202  37.333  1.00  0.00     0.134 A 
ATOM     71  C   UNL A   1      40.970  35.504  36.193  1.00  0.00     0.134 A 
ATOM     72  F   UNL A   1      38.505  33.137  37.423  1.00  0.00    -0.206 F 
ATOM     73  C   UNL A   1      39.255  35.157  38.351  1.00  0.00     0.040 A 
ATOM     74  C   UNL A   1      40.942  36.450  37.220  1.00  0.00     0.040 A 
ATOM     75  F   UNL A   1      41.806  35.719  35.167  1.00  0.00    -0.206 F 
ATOM     76  C   UNL A   1      40.076  36.280  38.300  1.00  0.00     0.006 A 
ENDBRANCH  55  69
BRANCH  56  77
ATOM     77  C   UNL A   1      40.490  27.954  28.565  1.00  0.00     0.057 A 
ATOM     78  C   UNL A   1      41.233  28.248  27.415  1.00  0.00     0.134 A 
ATOM     79  C   UNL A   1      39.801  26.735  28.592  1.00  0.00     0.134 A 
ATOM     80  F   UNL A   1      41.901  29.407  27.321  1.00  0.00    -0.206 F 
ATOM     81  C   UNL A   1      41.269  27.379  26.325  1.00  0.00     0.040 A 
ATOM     82  C   UNL A   1      39.853  25.842  27.521  1.00  0.00     0.040 A 
ATOM     83  F   UNL A   1      39.079  26.388  29.667  1.00  0.00    -0.206 F 
ATOM     84  C   UNL A   1      40.581  26.168  26.378  1.00  0.00     0.006 A 
ENDBRANCH  56  77
BRANCH  68  85
ATOM     85  C   UNL A   1      44.005  28.473  34.547  1.00  0.00     0.057 A 
ATOM     86  C   UNL A   1      45.360  28.756  34.329  1.00  0.00     0.134 A 
ATOM     87  C   UNL A   1      43.699  27.366  35.351  1.00  0.00     0.134 A 
ATOM     88  F   UNL A   1      45.724  29.794  33.560  1.00  0.00    -0.206 F 
ATOM     89  C   UNL A   1      46.370  27.946  34.852  1.00  0.00     0.040 A 
ATOM     90  C   UNL A   1      44.701  26.569  35.909  1.00  0.00     0.040 A 
ATOM     91  F   UNL A   1      42.424  27.044  35.612  1.00  0.00    -0.206 F 
ATOM     92  C   UNL A   1      46.040  26.851  35.648  1.00  0.00     0.006 A 
ENDBRANCH  68  85
ENDBRANCH  42  43
ENDBRANCH  34  37
ENDBRANCH  32  33
ENDBRANCH  31  32
ENDBRANCH   1  31
TORSDOF 15
ENDMDL
MODEL 2
REMARK VINA RESULT:     -13.0      5.197     10.404
REMARK SMILES O=C1OC(c2ccc(Cl)cc2)=N/C1=C/Nc1ccc(O)c(C(=O)NCCCCNC(=O)c2ccc(-c3c4nc(c(-c5c(F)cccc5F)c5ccc([nH]5)c(-c5c(F)cccc5F)c5nc(c(-c6c(F)cccc6F)c6ccc3[nH]6)C=C5)C=C4)cc2)c1
REMARK SMILES IDX 26 1 25 2 24 3 22 4 23 5 21 7 16 8 17 9 86 10 18 11 19 12
REMARK SMILES IDX 15 13 14 15 1 16 2 17 3 18 13 19 4 20 12 21 5 22 6 23 11 24
REMARK SMILES IDX 7 25 10 26 8 27 9 28 20 29 27 31 28 32 29 33 30 34 31 36
REMARK SMILES IDX 32 37 33 38 85 39 34 40 84 41 35 42 36 43 37 44 78 45 38 46
REMARK SMILES IDX 83 47 77 48 79 49 39 50 82 51 76 52 75 53 40 55 66 56 49 57
REMARK SMILES IDX 65 58 50 59 53 60 64 61 80 62 51 63 52 64 63 66 81 67 54 68
REMARK SMILES IDX 41 69 42 70 47 71 43 72 44 73 46 74 48 75 45 76 67 77 68 78
REMARK SMILES IDX 73 79 69 80 70 81 72 82 74 83 71 84 55 85 56 86 61 87 57 88
REMARK SMILES IDX 58 89 60 90 62 91 59 92
REMARK H PARENT 24 6 15 14 20 30 29 35 79 54 53 65
REMARK Flexibility Score: inf
ROOT
ATOM      1  C   UNL A   1      39.119  22.583  26.269  1.00  0.00     0.023 C 
ENDROOT
BRANCH   1   2
ATOM      2  C   UNL A   1      37.724  23.200  26.121  1.00  0.00     0.116 C 
BRANCH   2   3
ATOM      3  N   UNL A   1      37.394  23.319  24.721  1.00  0.00    -0.352 N 
ATOM      4  C   UNL A   1      36.421  22.734  23.957  1.00  0.00     0.255 C 
ATOM      5  O   UNL A   1      36.498  22.951  22.743  1.00  0.00    -0.269 OA
ATOM      6  H   UNL A   1      37.978  23.937  24.222  1.00  0.00     0.163 HD
BRANCH   4   7
ATOM      7  C   UNL A   1      35.245  21.961  24.475  1.00  0.00     0.083 A 
ATOM      8  C   UNL A   1      32.814  22.137  24.838  1.00  0.00     0.039 A 
ATOM      9  C   UNL A   1      32.829  20.895  25.471  1.00  0.00     0.030 A 
ATOM     10  C   UNL A   1      34.024  22.662  24.374  1.00  0.00     0.043 A 
ATOM     11  C   UNL A   1      34.003  20.155  25.538  1.00  0.00     0.049 A 
ATOM     12  C   UNL A   1      35.194  20.668  25.012  1.00  0.00     0.128 A 
BRANCH   8  13
ATOM     13  N   UNL A   1      31.645  22.893  24.710  1.00  0.00    -0.360 N 
ATOM     14  H   UNL A   1      30.913  22.688  25.336  1.00  0.00     0.166 HD
BRANCH  13  15
ATOM     15  C   UNL A   1      31.420  23.889  23.800  1.00  0.00     0.119 C 
ATOM     16  O   UNL A   1      30.248  25.023  26.342  1.00  0.00    -0.244 OA
ATOM     17  C   UNL A   1      30.263  25.558  25.254  1.00  0.00     0.365 C 
ATOM     18  O   UNL A   1      29.801  26.800  24.926  1.00  0.00    -0.402 OA
ATOM     19  C   UNL A   1      30.785  25.052  23.956  1.00  0.00     0.168 C 
ATOM     20  C   UNL A   1      30.000  26.930  23.595  1.00  0.00     0.231 C 
ATOM     21  N   UNL A   1      30.560  25.957  22.956  1.00  0.00    -0.204 NA
BRANCH  20  22
ATOM     22  C   UNL A   1      29.488  28.159  23.007  1.00  0.00     0.037 A 
ATOM     23  C   UNL A   1      28.139  28.497  23.128  1.00  0.00     0.015 A 
ATOM     24  C   UNL A   1      30.390  29.012  22.361  1.00  0.00     0.015 A 
ATOM     25  C   UNL A   1      27.690  29.709  22.595  1.00  0.00     0.021 A 
ATOM     26  C   UNL A   1      29.932  30.210  21.814  1.00  0.00     0.021 A 
ATOM     27  C   UNL A   1      28.586  30.555  21.939  1.00  0.00     0.041 A 
ATOM     28  Cl  UNL A   1      28.027  32.043  21.283  1.00  0.00    -0.084 Cl
ENDBRANCH  20  22
ENDBRANCH  13  15
ENDBRANCH   8  13
BRANCH  12  29
ATOM     29  O   UNL A   1      36.256  19.815  25.001  1.00  0.00    -0.507 OA
ATOM     30  H   UNL A   1      37.129  20.153  25.011  1.00  0.00     0.293 HD
ENDBRANCH  12  29
ENDBRANCH   4   7
ENDBRANCH   2   3
ENDBRANCH   1   2
BRANCH   1  31
ATOM     31  C   UNL A   1      39.285  21.238  25.564  1.00  0.00     0.023 C 
BRANCH  31  32
ATOM     32  C   UNL A   1      39.562  20.073  26.501  1.00  0.00     0.116 C 
BRANCH  32  33
ATOM     33  N   UNL A   1      40.627  19.199  26.030  1.00  0.00    -0.352 N 
ATOM     34  C   UNL A   1      41.965  19.473  25.904  1.00  0.00     0.251 C 
ATOM     35  H   UNL A   1      40.350  18.293  25.767  1.00  0.00     0.163 HD
ATOM     36  O   UNL A   1      42.718  18.664  25.374  1.00  0.00    -0.269 OA
BRANCH  34  37
ATOM     37  C   UNL A   1      42.478  20.775  26.371  1.00  0.00     0.039 A 
ATOM     38  C   UNL A   1      42.843  21.728  25.419  1.00  0.00     0.014 A 
ATOM     39  C   UNL A   1      42.554  21.069  27.735  1.00  0.00     0.014 A 
ATOM     40  C   UNL A   1      43.226  23.000  25.839  1.00  0.00     0.010 A 
ATOM     41  C   UNL A   1      42.848  22.364  28.146  1.00  0.00     0.010 A 
ATOM     42  C   UNL A   1      43.192  23.340  27.203  1.00  0.00    -0.014 A 
BRANCH  42  43
ATOM     43  C   UNL A   1      43.497  24.727  27.635  1.00  0.00     0.031 A 
ATOM     44  C   UNL A   1      44.915  25.218  27.694  1.00  0.00     0.074 A 
ATOM     45  C   UNL A   1      42.483  25.537  27.997  1.00  0.00     0.049 A 
ATOM     46  N   UNL A   1      45.361  26.411  27.996  1.00  0.00    -0.248 NA
ATOM     47  C   UNL A   1      45.974  24.240  27.398  1.00  0.00     0.031 C 
ATOM     48  C   UNL A   1      41.071  25.151  28.051  1.00  0.00     0.029 A 
ATOM     49  N   UNL A   1      42.482  26.854  28.378  1.00  0.00    -0.354 N 
ATOM     50  C   UNL A   1      46.745  26.326  27.925  1.00  0.00     0.074 A 
ATOM     51  C   UNL A   1      47.070  24.950  27.620  1.00  0.00     0.031 C 
ATOM     52  C   UNL A   1      40.336  26.222  28.392  1.00  0.00     0.029 A 
ATOM     53  C   UNL A   1      41.226  27.355  28.620  1.00  0.00     0.049 A 
ATOM     54  H   UNL A   1      43.303  27.390  28.470  1.00  0.00     0.167 HD
ATOM     55  C   UNL A   1      47.663  27.312  28.073  1.00  0.00     0.037 A 
ATOM     56  C   UNL A   1      40.834  28.592  28.978  1.00  0.00     0.037 A 
ATOM     57  C   UNL A   1      47.333  28.681  28.372  1.00  0.00     0.049 A 
ATOM     58  C   UNL A   1      41.873  29.666  29.140  1.00  0.00     0.074 A 
ATOM     59  C   UNL A   1      48.184  29.768  28.487  1.00  0.00     0.029 A 
ATOM     60  N   UNL A   1      46.052  29.151  28.616  1.00  0.00    -0.354 N 
ATOM     61  N   UNL A   1      43.173  29.594  28.979  1.00  0.00    -0.248 NA
ATOM     62  C   UNL A   1      41.388  30.999  29.521  1.00  0.00     0.031 C 
ATOM     63  C   UNL A   1      47.423  30.881  28.859  1.00  0.00     0.029 A 
ATOM     64  C   UNL A   1      46.091  30.505  28.913  1.00  0.00     0.049 A 
ATOM     65  H   UNL A   1      45.234  28.604  28.585  1.00  0.00     0.167 HD
ATOM     66  C   UNL A   1      43.658  30.873  29.219  1.00  0.00     0.074 A 
ATOM     67  C   UNL A   1      42.508  31.707  29.503  1.00  0.00     0.031 C 
ATOM     68  C   UNL A   1      44.939  31.319  29.207  1.00  0.00     0.037 A 
BRANCH  55  69
ATOM     69  C   UNL A   1      49.111  26.940  27.911  1.00  0.00     0.057 A 
ATOM     70  C   UNL A   1      49.749  26.973  26.663  1.00  0.00     0.134 A 
ATOM     71  C   UNL A   1      49.885  26.576  29.020  1.00  0.00     0.134 A 
ATOM     72  F   UNL A   1      49.066  27.301  25.557  1.00  0.00    -0.206 F 
ATOM     73  C   UNL A   1      51.096  26.629  26.521  1.00  0.00     0.040 A 
ATOM     74  C   UNL A   1      51.239  26.261  28.895  1.00  0.00     0.040 A 
ATOM     75  F   UNL A   1      49.341  26.528  30.245  1.00  0.00    -0.206 F 
ATOM     76  C   UNL A   1      51.846  26.280  27.641  1.00  0.00     0.006 A 
ENDBRANCH  55  69
BRANCH  56  77
ATOM     77  C   UNL A   1      39.392  28.889  29.180  1.00  0.00     0.057 A 
ATOM     78  C   UNL A   1      38.602  29.393  28.140  1.00  0.00     0.134 A 
ATOM     79  C   UNL A   1      38.774  28.688  30.420  1.00  0.00     0.134 A 
ATOM     80  F   UNL A   1      39.140  29.623  26.934  1.00  0.00    -0.206 F 
ATOM     81  C   UNL A   1      37.257  29.711  28.332  1.00  0.00     0.040 A 
ATOM     82  C   UNL A   1      37.422  28.973  30.618  1.00  0.00     0.040 A 
ATOM     83  F   UNL A   1      39.472  28.199  31.455  1.00  0.00    -0.206 F 
ATOM     84  C   UNL A   1      36.662  29.496  29.574  1.00  0.00     0.006 A 
ENDBRANCH  56  77
BRANCH  68  85
ATOM     85  C   UNL A   1      45.152  32.779  29.493  1.00  0.00     0.057 A 
ATOM     86  C   UNL A   1      45.392  33.254  30.790  1.00  0.00     0.134 A 
ATOM     87  C   UNL A   1      45.116  33.723  28.458  1.00  0.00     0.134 A 
ATOM     88  F   UNL A   1      45.428  32.407  31.830  1.00  0.00    -0.206 F 
ATOM     89  C   UNL A   1      45.544  34.617  31.053  1.00  0.00     0.040 A 
ATOM     90  C   UNL A   1      45.302  35.084  28.703  1.00  0.00     0.040 A 
ATOM     91  F   UNL A   1      44.904  33.337  27.191  1.00  0.00    -0.206 F 
ATOM     92  C   UNL A   1      45.502  35.535  30.006  1.00  0.00     0.006 A 
ENDBRANCH  68  85
ENDBRANCH  42  43
ENDBRANCH  34  37
ENDBRANCH  32  33
ENDBRANCH  31  32
ENDBRANCH   1  31
TORSDOF 15
ENDMDL
MODEL 3
REMARK VINA RESULT:     -12.9      2.865      4.238
REMARK SMILES O=C1OC(c2ccc(Cl)cc2)=N/C1=C/Nc1ccc(O)c(C(=O)NCCCCNC(=O)c2ccc(-c3c4nc(c(-c5c(F)cccc5F)c5ccc([nH]5)c(-c5c(F)cccc5F)c5nc(c(-c6c(F)cccc6F)c6ccc3[nH]6)C=C5)C=C4)cc2)c1
REMARK SMILES IDX 26 1 25 2 24 3 22 4 23 5 21 7 16 8 17 9 86 10 18 11 19 12
REMARK SMILES IDX 15 13 14 15 1 16 2 17 3 18 13 19 4 20 12 21 5 22 6 23 11 24
REMARK SMILES IDX 7 25 10 26 8 27 9 28 20 29 27 31 28 32 29 33 30 34 31 36
REMARK SMILES IDX 32 37 33 38 85 39 34 40 84 41 35 42 36 43 37 44 78 45 38 46
REMARK SMILES IDX 83 47 77 48 79 49 39 50 82 51 76 52 75 53 40 55 66 56 49 57
REMARK SMILES IDX 65 58 50 59 53 60 64 61 80 62 51 63 52 64 63 66 81 67 54 68
REMARK SMILES IDX 41 69 42 70 47 71 43 72 44 73 46 74 48 75 45 76 67 77 68 78
REMARK SMILES IDX 73 79 69 80 70 81 72 82 74 83 71 84 55 85 56 86 61 87 57 88
REMARK SMILES IDX 58 89 60 90 62 91 59 92
REMARK H PARENT 24 6 15 14 20 30 29 35 79 54 53 65
REMARK Flexibility Score: inf
ROOT
ATOM      1  C   UNL A   1      32.996  29.173  24.381  1.00  0.00     0.023 C 
ENDROOT
BRANCH   1   2
ATOM      2  C   UNL A   1      32.391  28.445  23.176  1.00  0.00     0.116 C 
BRANCH   2   3
ATOM      3  N   UNL A   1      31.606  29.371  22.395  1.00  0.00    -0.352 N 
ATOM      4  C   UNL A   1      30.265  29.436  22.128  1.00  0.00     0.255 C 
ATOM      5  O   UNL A   1      29.931  30.291  21.300  1.00  0.00    -0.269 OA
ATOM      6  H   UNL A   1      32.134  30.091  21.977  1.00  0.00     0.163 HD
BRANCH   4   7
ATOM      7  C   UNL A   1      29.193  28.647  22.817  1.00  0.00     0.083 A 
ATOM      8  C   UNL A   1      28.840  26.604  24.149  1.00  0.00     0.039 A 
ATOM      9  C   UNL A   1      27.465  26.829  24.112  1.00  0.00     0.030 A 
ATOM     10  C   UNL A   1      29.680  27.500  23.481  1.00  0.00     0.043 A 
ATOM     11  C   UNL A   1      26.957  27.977  23.516  1.00  0.00     0.049 A 
ATOM     12  C   UNL A   1      27.817  28.897  22.905  1.00  0.00     0.128 A 
BRANCH   8  13
ATOM     13  N   UNL A   1      29.394  25.485  24.779  1.00  0.00    -0.360 N 
ATOM     14  H   UNL A   1      28.823  24.685  24.847  1.00  0.00     0.166 HD
BRANCH  13  15
ATOM     15  C   UNL A   1      30.651  25.393  25.308  1.00  0.00     0.119 C 
ATOM     16  O   UNL A   1      30.700  23.336  23.098  1.00  0.00    -0.244 OA
ATOM     17  C   UNL A   1      31.607  23.596  23.860  1.00  0.00     0.365 C 
ATOM     18  O   UNL A   1      32.864  23.065  23.877  1.00  0.00    -0.402 OA
ATOM     19  C   UNL A   1      31.647  24.564  24.989  1.00  0.00     0.168 C 
ATOM     20  C   UNL A   1      33.495  23.638  24.927  1.00  0.00     0.231 C 
ATOM     21  N   UNL A   1      32.855  24.515  25.628  1.00  0.00    -0.204 NA
BRANCH  20  22
ATOM     22  C   UNL A   1      34.837  23.142  25.193  1.00  0.00     0.037 A 
ATOM     23  C   UNL A   1      35.117  21.776  25.116  1.00  0.00     0.015 A 
ATOM     24  C   UNL A   1      35.843  24.070  25.481  1.00  0.00     0.015 A 
ATOM     25  C   UNL A   1      36.427  21.338  25.329  1.00  0.00     0.021 A 
ATOM     26  C   UNL A   1      37.144  23.624  25.711  1.00  0.00     0.021 A 
ATOM     27  C   UNL A   1      37.431  22.261  25.629  1.00  0.00     0.041 A 
ATOM     28  Cl  UNL A   1      39.040  21.716  25.891  1.00  0.00    -0.084 Cl
ENDBRANCH  20  22
ENDBRANCH  13  15
ENDBRANCH   8  13
BRANCH  12  29
ATOM     29  O   UNL A   1      27.241  30.052  22.472  1.00  0.00    -0.507 OA
ATOM     30  H   UNL A   1      26.313  30.098  22.354  1.00  0.00     0.293 HD
ENDBRANCH  12  29
ENDBRANCH   4   7
ENDBRANCH   2   3
ENDBRANCH   1   2
BRANCH   1  31
ATOM     31  C   UNL A   1      33.654  28.249  25.402  1.00  0.00     0.023 C 
BRANCH  31  32
ATOM     32  C   UNL A   1      33.441  28.667  26.850  1.00  0.00     0.116 C 
BRANCH  32  33
ATOM     33  N   UNL A   1      33.474  30.109  27.040  1.00  0.00    -0.352 N 
ATOM     34  C   UNL A   1      34.436  30.868  27.658  1.00  0.00     0.251 C 
ATOM     35  H   UNL A   1      32.706  30.606  26.678  1.00  0.00     0.163 HD
ATOM     36  O   UNL A   1      34.257  32.067  27.844  1.00  0.00    -0.269 OA
BRANCH  34  37
ATOM     37  C   UNL A   1      35.667  30.213  28.139  1.00  0.00     0.039 A 
ATOM     38  C   UNL A   1      36.781  30.190  27.299  1.00  0.00     0.014 A 
ATOM     39  C   UNL A   1      35.735  29.669  29.425  1.00  0.00     0.014 A 
ATOM     40  C   UNL A   1      37.984  29.673  27.776  1.00  0.00     0.010 A 
ATOM     41  C   UNL A   1      36.957  29.239  29.928  1.00  0.00     0.010 A 
ATOM     42  C   UNL A   1      38.093  29.232  29.107  1.00  0.00    -0.014 A 
BRANCH  42  43
ATOM     43  C   UNL A   1      39.402  28.784  29.642  1.00  0.00     0.031 A 
ATOM     44  C   UNL A   1      40.007  29.447  30.846  1.00  0.00     0.074 A 
ATOM     45  C   UNL A   1      40.057  27.785  29.018  1.00  0.00     0.049 A 
ATOM     46  N   UNL A   1      41.113  29.153  31.480  1.00  0.00    -0.248 NA
ATOM     47  C   UNL A   1      39.290  30.607  31.400  1.00  0.00     0.031 C 
ATOM     48  C   UNL A   1      39.606  27.112  27.798  1.00  0.00     0.029 A 
ATOM     49  N   UNL A   1      41.234  27.155  29.329  1.00  0.00    -0.354 N 
ATOM     50  C   UNL A   1      41.223  30.085  32.503  1.00  0.00     0.074 A 
ATOM     51  C   UNL A   1      40.109  30.998  32.365  1.00  0.00     0.031 C 
ATOM     52  C   UNL A   1      40.469  26.130  27.493  1.00  0.00     0.029 A 
ATOM     53  C   UNL A   1      41.553  26.130  28.471  1.00  0.00     0.049 A 
ATOM     54  H   UNL A   1      41.799  27.412  30.094  1.00  0.00     0.167 HD
ATOM     55  C   UNL A   1      42.151  30.158  33.486  1.00  0.00     0.037 A 
ATOM     56  C   UNL A   1      42.596  25.282  28.475  1.00  0.00     0.037 A 
ATOM     57  C   UNL A   1      43.256  29.244  33.622  1.00  0.00     0.049 A 
ATOM     58  C   UNL A   1      43.616  25.387  29.575  1.00  0.00     0.074 A 
ATOM     59  C   UNL A   1      44.220  29.197  34.614  1.00  0.00     0.029 A 
ATOM     60  N   UNL A   1      43.550  28.222  32.731  1.00  0.00    -0.354 N 
ATOM     61  N   UNL A   1      43.658  26.216  30.590  1.00  0.00    -0.248 NA
ATOM     62  C   UNL A   1      44.728  24.429  29.536  1.00  0.00     0.031 C 
ATOM     63  C   UNL A   1      45.132  28.186  34.290  1.00  0.00     0.029 A 
ATOM     64  C   UNL A   1      44.700  27.559  33.132  1.00  0.00     0.049 A 
ATOM     65  H   UNL A   1      43.022  28.001  31.931  1.00  0.00     0.167 HD
ATOM     66  C   UNL A   1      44.786  25.867  31.321  1.00  0.00     0.074 A 
ATOM     67  C   UNL A   1      45.380  24.730  30.649  1.00  0.00     0.031 C 
ATOM     68  C   UNL A   1      45.288  26.437  32.445  1.00  0.00     0.037 A 
BRANCH  55  69
ATOM     69  C   UNL A   1      42.009  31.266  34.493  1.00  0.00     0.057 A 
ATOM     70  C   UNL A   1      42.623  32.515  34.312  1.00  0.00     0.134 A 
ATOM     71  C   UNL A   1      41.225  31.095  35.640  1.00  0.00     0.134 A 
ATOM     72  F   UNL A   1      43.397  32.744  33.242  1.00  0.00    -0.206 F 
ATOM     73  C   UNL A   1      42.484  33.540  35.250  1.00  0.00     0.040 A 
ATOM     74  C   UNL A   1      41.053  32.124  36.569  1.00  0.00     0.040 A 
ATOM     75  F   UNL A   1      40.606  29.929  35.875  1.00  0.00    -0.206 F 
ATOM     76  C   UNL A   1      41.690  33.348  36.378  1.00  0.00     0.006 A 
ENDBRANCH  55  69
BRANCH  56  77
ATOM     77  C   UNL A   1      42.717  24.241  27.422  1.00  0.00     0.057 A 
ATOM     78  C   UNL A   1      43.256  24.540  26.164  1.00  0.00     0.134 A 
ATOM     79  C   UNL A   1      42.286  22.928  27.642  1.00  0.00     0.134 A 
ATOM     80  F   UNL A   1      43.670  25.784  25.886  1.00  0.00    -0.206 F 
ATOM     81  C   UNL A   1      43.337  23.579  25.156  1.00  0.00     0.040 A 
ATOM     82  C   UNL A   1      42.391  21.948  26.653  1.00  0.00     0.040 A 
ATOM     83  F   UNL A   1      41.770  22.573  28.827  1.00  0.00    -0.206 F 
ATOM     84  C   UNL A   1      42.908  22.277  25.402  1.00  0.00     0.006 A 
ENDBRANCH  56  77
BRANCH  68  85
ATOM     85  C   UNL A   1      46.530  25.820  33.023  1.00  0.00     0.057 A 
ATOM     86  C   UNL A   1      47.813  26.244  32.650  1.00  0.00     0.134 A 
ATOM     87  C   UNL A   1      46.443  24.785  33.964  1.00  0.00     0.134 A 
ATOM     88  F   UNL A   1      47.969  27.223  31.744  1.00  0.00    -0.206 F 
ATOM     89  C   UNL A   1      48.961  25.634  33.157  1.00  0.00     0.040 A 
ATOM     90  C   UNL A   1      47.584  24.191  34.505  1.00  0.00     0.040 A 
ATOM     91  F   UNL A   1      45.249  24.337  34.377  1.00  0.00    -0.206 F 
ATOM     92  C   UNL A   1      48.848  24.607  34.091  1.00  0.00     0.006 A 
ENDBRANCH  68  85
ENDBRANCH  42  43
ENDBRANCH  34  37
ENDBRANCH  32  33
ENDBRANCH  31  32
ENDBRANCH   1  31
TORSDOF 15
ENDMDL
