MODEL 1
REMARK VINA RESULT:      -8.9      0.000      0.000
REMARK SMILES CC/C=C/C/C=C/C/C=C/C/C=C/CCSCCCC(=O)NCCCCNC(=O)c1ccc(-c2c3nc(c(-c4c(F)cccc4F)c4ccc([nH]4)c(-c4c(F)cccc4F)c4nc(c(-c5c(F)cccc5F)c5ccc2[nH]5)C=C4)C=C3)cc1
REMARK SMILES IDX 17 1 16 2 15 3 14 4 13 5 12 6 11 7 10 8 9 9 8 10 7 11 6 12
REMARK SMILES IDX 5 13 4 14 3 15 2 16 1 17 18 18 19 19 20 20 21 21 22 22 23 24
REMARK SMILES IDX 24 25 25 26 26 27 27 28 28 29 29 31 30 32 31 33 83 34 32 35
REMARK SMILES IDX 82 36 33 37 34 38 35 39 76 40 36 41 81 42 75 43 77 44 37 45
REMARK SMILES IDX 80 46 74 47 73 48 38 50 64 51 47 52 63 53 48 54 51 55 62 56
REMARK SMILES IDX 78 57 49 58 50 59 61 61 79 62 52 63 39 64 40 65 45 66 41 67
REMARK SMILES IDX 42 68 44 69 46 70 43 71 65 72 66 73 71 74 67 75 68 76 70 77
REMARK SMILES IDX 72 78 69 79 53 80 54 81 59 82 55 83 56 84 58 85 60 86 57 87
REMARK H PARENT 22 23 27 30 77 49 51 60
REMARK Flexibility Score: inf
ROOT
ATOM      1  C   UNL A   1      31.030  29.991  24.955  1.00  0.00     0.070 C 
ENDROOT
BRANCH   1   2
ATOM      2  S   UNL A   1      31.102  28.930  23.449  1.00  0.00    -0.162 SA
BRANCH   2   3
ATOM      3  C   UNL A   1      29.437  28.239  23.085  1.00  0.00     0.073 C 
BRANCH   3   4
ATOM      4  C   UNL A   1      29.124  26.851  23.705  1.00  0.00     0.038 C 
BRANCH   4   5
ATOM      5  C   UNL A   1      30.105  26.363  24.734  1.00  0.00    -0.030 C 
ATOM      6  C   UNL A   1      30.147  25.170  25.352  1.00  0.00    -0.027 C 
BRANCH   6   7
ATOM      7  C   UNL A   1      31.328  24.745  26.199  1.00  0.00     0.054 C 
BRANCH   7   8
ATOM      8  C   UNL A   1      31.546  23.259  26.258  1.00  0.00    -0.027 C 
ATOM      9  C   UNL A   1      32.332  22.600  25.389  1.00  0.00    -0.027 C 
BRANCH   9  10
ATOM     10  C   UNL A   1      32.526  21.110  25.378  1.00  0.00     0.054 C 
BRANCH  10  11
ATOM     11  C   UNL A   1      33.961  20.818  25.059  1.00  0.00    -0.027 C 
ATOM     12  C   UNL A   1      34.956  21.715  25.129  1.00  0.00    -0.027 C 
BRANCH  12  13
ATOM     13  C   UNL A   1      36.341  21.454  24.614  1.00  0.00     0.054 C 
BRANCH  13  14
ATOM     14  C   UNL A   1      37.333  22.213  25.448  1.00  0.00    -0.027 C 
ATOM     15  C   UNL A   1      37.482  23.546  25.419  1.00  0.00    -0.031 C 
BRANCH  15  16
ATOM     16  C   UNL A   1      38.546  24.279  26.182  1.00  0.00     0.023 C 
ATOM     17  C   UNL A   1      39.169  23.373  27.234  1.00  0.00     0.008 C 
ENDBRANCH  15  16
ENDBRANCH  13  14
ENDBRANCH  12  13
ENDBRANCH  10  11
ENDBRANCH   9  10
ENDBRANCH   7   8
ENDBRANCH   6   7
ENDBRANCH   4   5
ENDBRANCH   3   4
ENDBRANCH   2   3
ENDBRANCH   1   2
BRANCH   1  18
ATOM     18  C   UNL A   1      31.910  29.875  26.196  1.00  0.00     0.021 C 
BRANCH  18  19
ATOM     19  C   UNL A   1      33.421  29.909  26.068  1.00  0.00     0.101 C 
BRANCH  19  20
ATOM     20  C   UNL A   1      34.268  29.940  27.329  1.00  0.00     0.220 C 
ATOM     21  O   UNL A   1      34.956  28.955  27.621  1.00  0.00    -0.275 OA
ATOM     22  N   UNL A   1      34.379  31.011  28.151  1.00  0.00    -0.356 N 
ATOM     23  H   UNL A   1      34.791  30.798  29.020  1.00  0.00     0.163 HD
BRANCH  22  24
ATOM     24  C   UNL A   1      34.014  32.405  28.011  1.00  0.00     0.116 C 
BRANCH  24  25
ATOM     25  C   UNL A   1      34.612  33.289  29.107  1.00  0.00     0.023 C 
BRANCH  25  26
ATOM     26  C   UNL A   1      36.142  33.302  29.051  1.00  0.00     0.023 C 
BRANCH  26  27
ATOM     27  C   UNL A   1      36.812  32.859  30.351  1.00  0.00     0.116 C 
BRANCH  27  28
ATOM     28  N   UNL A   1      36.306  31.581  30.831  1.00  0.00    -0.352 N 
ATOM     29  C   UNL A   1      36.856  30.323  30.692  1.00  0.00     0.251 C 
ATOM     30  H   UNL A   1      35.454  31.620  31.322  1.00  0.00     0.163 HD
ATOM     31  O   UNL A   1      36.238  29.325  31.015  1.00  0.00    -0.269 OA
BRANCH  29  32
ATOM     32  C   UNL A   1      38.211  30.203  30.112  1.00  0.00     0.039 A 
ATOM     33  C   UNL A   1      39.315  30.148  30.965  1.00  0.00     0.014 A 
ATOM     34  C   UNL A   1      38.372  30.079  28.730  1.00  0.00     0.014 A 
ATOM     35  C   UNL A   1      40.579  29.870  30.436  1.00  0.00     0.010 A 
ATOM     36  C   UNL A   1      39.615  29.728  28.217  1.00  0.00     0.010 A 
ATOM     37  C   UNL A   1      40.729  29.606  29.066  1.00  0.00    -0.014 A 
BRANCH  37  38
ATOM     38  C   UNL A   1      42.027  29.179  28.482  1.00  0.00     0.031 A 
ATOM     39  C   UNL A   1      42.228  27.747  28.078  1.00  0.00     0.074 A 
ATOM     40  C   UNL A   1      43.060  30.043  28.438  1.00  0.00     0.049 A 
ATOM     41  N   UNL A   1      43.327  27.132  27.724  1.00  0.00    -0.248 NA
ATOM     42  C   UNL A   1      41.037  26.885  28.116  1.00  0.00     0.031 C 
ATOM     43  C   UNL A   1      43.010  31.447  28.849  1.00  0.00     0.029 A 
ATOM     44  N   UNL A   1      44.366  29.853  28.060  1.00  0.00    -0.354 N 
ATOM     45  C   UNL A   1      42.967  25.804  27.535  1.00  0.00     0.074 A 
ATOM     46  C   UNL A   1      41.560  25.698  27.854  1.00  0.00     0.031 C 
ATOM     47  C   UNL A   1      44.228  31.991  28.703  1.00  0.00     0.029 A 
ATOM     48  C   UNL A   1      45.155  30.966  28.232  1.00  0.00     0.049 A 
ATOM     49  H   UNL A   1      44.705  29.003  27.699  1.00  0.00     0.167 HD
ATOM     50  C   UNL A   1      43.738  24.770  27.120  1.00  0.00     0.037 A 
ATOM     51  C   UNL A   1      46.480  31.135  28.055  1.00  0.00     0.037 A 
ATOM     52  C   UNL A   1      45.130  24.890  26.774  1.00  0.00     0.049 A 
ATOM     53  C   UNL A   1      47.315  29.982  27.576  1.00  0.00     0.074 A 
ATOM     54  C   UNL A   1      45.977  23.921  26.265  1.00  0.00     0.029 A 
ATOM     55  N   UNL A   1      45.880  26.048  26.906  1.00  0.00    -0.354 N 
ATOM     56  N   UNL A   1      46.951  28.746  27.333  1.00  0.00    -0.248 NA
ATOM     57  C   UNL A   1      48.742  30.246  27.341  1.00  0.00     0.031 C 
ATOM     58  C   UNL A   1      47.252  24.483  26.131  1.00  0.00     0.029 A 
ATOM     59  C   UNL A   1      47.187  25.815  26.511  1.00  0.00     0.049 A 
ATOM     60  H   UNL A   1      45.535  26.910  27.234  1.00  0.00     0.167 HD
ATOM     61  C   UNL A   1      48.094  28.091  26.892  1.00  0.00     0.074 A 
ATOM     62  C   UNL A   1      49.163  29.068  26.897  1.00  0.00     0.031 C 
ATOM     63  C   UNL A   1      48.240  26.798  26.514  1.00  0.00     0.037 A 
BRANCH  50  64
ATOM     64  C   UNL A   1      43.087  23.420  27.038  1.00  0.00     0.057 A 
ATOM     65  C   UNL A   1      42.688  22.860  25.816  1.00  0.00     0.134 A 
ATOM     66  C   UNL A   1      42.849  22.672  28.197  1.00  0.00     0.134 A 
ATOM     67  F   UNL A   1      42.876  23.529  24.668  1.00  0.00    -0.206 F 
ATOM     68  C   UNL A   1      42.037  21.628  25.755  1.00  0.00     0.040 A 
ATOM     69  C   UNL A   1      42.227  21.423  28.146  1.00  0.00     0.040 A 
ATOM     70  F   UNL A   1      43.212  23.143  29.400  1.00  0.00    -0.206 F 
ATOM     71  C   UNL A   1      41.809  20.903  26.923  1.00  0.00     0.006 A 
ENDBRANCH  50  64
BRANCH  51  72
ATOM     72  C   UNL A   1      47.088  32.462  28.326  1.00  0.00     0.057 A 
ATOM     73  C   UNL A   1      47.633  32.763  29.578  1.00  0.00     0.134 A 
ATOM     74  C   UNL A   1      47.173  33.443  27.331  1.00  0.00     0.134 A 
ATOM     75  F   UNL A   1      47.566  31.869  30.576  1.00  0.00    -0.206 F 
ATOM     76  C   UNL A   1      48.235  33.996  29.837  1.00  0.00     0.040 A 
ATOM     77  C   UNL A   1      47.792  34.671  27.568  1.00  0.00     0.040 A 
ATOM     78  F   UNL A   1      46.678  33.211  26.107  1.00  0.00    -0.206 F 
ATOM     79  C   UNL A   1      48.323  34.952  28.826  1.00  0.00     0.006 A 
ENDBRANCH  51  72
BRANCH  63  80
ATOM     80  C   UNL A   1      49.594  26.365  26.033  1.00  0.00     0.057 A 
ATOM     81  C   UNL A   1      50.059  26.678  24.751  1.00  0.00     0.134 A 
ATOM     82  C   UNL A   1      50.468  25.687  26.893  1.00  0.00     0.134 A 
ATOM     83  F   UNL A   1      49.266  27.314  23.876  1.00  0.00    -0.206 F 
ATOM     84  C   UNL A   1      51.346  26.325  24.337  1.00  0.00     0.040 A 
ATOM     85  C   UNL A   1      51.763  25.350  26.499  1.00  0.00     0.040 A 
ATOM     86  F   UNL A   1      50.085  25.364  28.137  1.00  0.00    -0.206 F 
ATOM     87  C   UNL A   1      52.205  25.667  25.217  1.00  0.00     0.006 A 
ENDBRANCH  63  80
ENDBRANCH  37  38
ENDBRANCH  29  32
ENDBRANCH  27  28
ENDBRANCH  26  27
ENDBRANCH  25  26
ENDBRANCH  24  25
ENDBRANCH  22  24
ENDBRANCH  19  20
ENDBRANCH  18  19
ENDBRANCH   1  18
TORSDOF 24
ENDMDL
MODEL 2
REMARK VINA RESULT:      -8.8      1.128      2.060
REMARK SMILES CC/C=C/C/C=C/C/C=C/C/C=C/CCSCCCC(=O)NCCCCNC(=O)c1ccc(-c2c3nc(c(-c4c(F)cccc4F)c4ccc([nH]4)c(-c4c(F)cccc4F)c4nc(c(-c5c(F)cccc5F)c5ccc2[nH]5)C=C4)C=C3)cc1
REMARK SMILES IDX 17 1 16 2 15 3 14 4 13 5 12 6 11 7 10 8 9 9 8 10 7 11 6 12
REMARK SMILES IDX 5 13 4 14 3 15 2 16 1 17 18 18 19 19 20 20 21 21 22 22 23 24
REMARK SMILES IDX 24 25 25 26 26 27 27 28 28 29 29 31 30 32 31 33 83 34 32 35
REMARK SMILES IDX 82 36 33 37 34 38 35 39 76 40 36 41 81 42 75 43 77 44 37 45
REMARK SMILES IDX 80 46 74 47 73 48 38 50 64 51 47 52 63 53 48 54 51 55 62 56
REMARK SMILES IDX 78 57 49 58 50 59 61 61 79 62 52 63 39 64 40 65 45 66 41 67
REMARK SMILES IDX 42 68 44 69 46 70 43 71 65 72 66 73 71 74 67 75 68 76 70 77
REMARK SMILES IDX 72 78 69 79 53 80 54 81 59 82 55 83 56 84 58 85 60 86 57 87
REMARK H PARENT 22 23 27 30 77 49 51 60
REMARK Flexibility Score: inf
ROOT
ATOM      1  C   UNL A   1      31.168  30.022  24.975  1.00  0.00     0.070 C 
ENDROOT
BRANCH   1   2
ATOM      2  S   UNL A   1      31.116  29.074  23.394  1.00  0.00    -0.162 SA
BRANCH   2   3
ATOM      3  C   UNL A   1      29.445  28.344  23.152  1.00  0.00     0.073 C 
BRANCH   3   4
ATOM      4  C   UNL A   1      29.204  26.959  23.808  1.00  0.00     0.038 C 
BRANCH   4   5
ATOM      5  C   UNL A   1      30.271  26.497  24.760  1.00  0.00    -0.030 C 
ATOM      6  C   UNL A   1      30.226  25.482  25.640  1.00  0.00    -0.027 C 
BRANCH   6   7
ATOM      7  C   UNL A   1      31.460  24.996  26.371  1.00  0.00     0.054 C 
BRANCH   7   8
ATOM      8  C   UNL A   1      32.225  23.923  25.650  1.00  0.00    -0.027 C 
ATOM      9  C   UNL A   1      33.360  24.164  24.973  1.00  0.00    -0.027 C 
BRANCH   9  10
ATOM     10  C   UNL A   1      34.121  23.131  24.189  1.00  0.00     0.054 C 
BRANCH  10  11
ATOM     11  C   UNL A   1      33.233  21.941  23.981  1.00  0.00    -0.027 C 
ATOM     12  C   UNL A   1      33.512  20.698  24.401  1.00  0.00    -0.027 C 
BRANCH  12  13
ATOM     13  C   UNL A   1      32.709  19.493  24.006  1.00  0.00     0.054 C 
BRANCH  13  14
ATOM     14  C   UNL A   1      33.277  18.275  24.678  1.00  0.00    -0.027 C 
ATOM     15  C   UNL A   1      33.114  17.020  24.232  1.00  0.00    -0.031 C 
BRANCH  15  16
ATOM     16  C   UNL A   1      33.600  15.807  24.969  1.00  0.00     0.023 C 
ATOM     17  C   UNL A   1      32.437  15.084  25.632  1.00  0.00     0.008 C 
ENDBRANCH  15  16
ENDBRANCH  13  14
ENDBRANCH  12  13
ENDBRANCH  10  11
ENDBRANCH   9  10
ENDBRANCH   7   8
ENDBRANCH   6   7
ENDBRANCH   4   5
ENDBRANCH   3   4
ENDBRANCH   2   3
ENDBRANCH   1   2
BRANCH   1  18
ATOM     18  C   UNL A   1      32.055  29.735  26.182  1.00  0.00     0.021 C 
BRANCH  18  19
ATOM     19  C   UNL A   1      33.560  29.900  26.082  1.00  0.00     0.101 C 
BRANCH  19  20
ATOM     20  C   UNL A   1      34.385  29.938  27.358  1.00  0.00     0.220 C 
ATOM     21  O   UNL A   1      35.083  28.963  27.657  1.00  0.00    -0.275 OA
ATOM     22  N   UNL A   1      34.464  31.007  28.187  1.00  0.00    -0.356 N 
ATOM     23  H   UNL A   1      34.864  30.796  29.061  1.00  0.00     0.163 HD
BRANCH  22  24
ATOM     24  C   UNL A   1      34.080  32.396  28.047  1.00  0.00     0.116 C 
BRANCH  24  25
ATOM     25  C   UNL A   1      34.609  33.276  29.180  1.00  0.00     0.023 C 
BRANCH  25  26
ATOM     26  C   UNL A   1      36.139  33.264  29.239  1.00  0.00     0.023 C 
BRANCH  26  27
ATOM     27  C   UNL A   1      36.703  32.859  30.599  1.00  0.00     0.116 C 
BRANCH  27  28
ATOM     28  N   UNL A   1      36.185  31.578  31.058  1.00  0.00    -0.352 N 
ATOM     29  C   UNL A   1      36.734  30.319  30.915  1.00  0.00     0.251 C 
ATOM     30  H   UNL A   1      35.324  31.615  31.534  1.00  0.00     0.163 HD
ATOM     31  O   UNL A   1      36.107  29.320  31.217  1.00  0.00    -0.269 OA
BRANCH  29  32
ATOM     32  C   UNL A   1      38.098  30.201  30.357  1.00  0.00     0.039 A 
ATOM     33  C   UNL A   1      39.180  30.054  31.228  1.00  0.00     0.014 A 
ATOM     34  C   UNL A   1      38.288  30.171  28.974  1.00  0.00     0.014 A 
ATOM     35  C   UNL A   1      40.448  29.777  30.708  1.00  0.00     0.010 A 
ATOM     36  C   UNL A   1      39.533  29.821  28.464  1.00  0.00     0.010 A 
ATOM     37  C   UNL A   1      40.623  29.607  29.326  1.00  0.00    -0.014 A 
BRANCH  37  38
ATOM     38  C   UNL A   1      41.922  29.185  28.741  1.00  0.00     0.031 A 
ATOM     39  C   UNL A   1      42.116  27.761  28.307  1.00  0.00     0.074 A 
ATOM     40  C   UNL A   1      42.960  30.043  28.723  1.00  0.00     0.049 A 
ATOM     41  N   UNL A   1      43.214  27.146  27.947  1.00  0.00    -0.248 NA
ATOM     42  C   UNL A   1      40.920  26.906  28.319  1.00  0.00     0.031 C 
ATOM     43  C   UNL A   1      42.917  31.438  29.165  1.00  0.00     0.029 A 
ATOM     44  N   UNL A   1      44.268  29.853  28.349  1.00  0.00    -0.354 N 
ATOM     45  C   UNL A   1      42.847  25.825  27.727  1.00  0.00     0.074 A 
ATOM     46  C   UNL A   1      41.438  25.721  28.034  1.00  0.00     0.031 C 
ATOM     47  C   UNL A   1      44.139  31.977  29.039  1.00  0.00     0.029 A 
ATOM     48  C   UNL A   1      45.062  30.956  28.551  1.00  0.00     0.049 A 
ATOM     49  H   UNL A   1      44.604  29.008  27.972  1.00  0.00     0.167 HD
ATOM     50  C   UNL A   1      43.615  24.796  27.294  1.00  0.00     0.037 A 
ATOM     51  C   UNL A   1      46.389  31.121  28.386  1.00  0.00     0.037 A 
ATOM     52  C   UNL A   1      45.010  24.914  26.959  1.00  0.00     0.049 A 
ATOM     53  C   UNL A   1      47.220  29.974  27.887  1.00  0.00     0.074 A 
ATOM     54  C   UNL A   1      45.854  23.951  26.434  1.00  0.00     0.029 A 
ATOM     55  N   UNL A   1      45.766  26.064  27.122  1.00  0.00    -0.354 N 
ATOM     56  N   UNL A   1      46.850  28.746  27.615  1.00  0.00    -0.248 NA
ATOM     57  C   UNL A   1      48.651  30.234  27.667  1.00  0.00     0.031 C 
ATOM     58  C   UNL A   1      47.133  24.508  26.322  1.00  0.00     0.029 A 
ATOM     59  C   UNL A   1      47.073  25.831  26.730  1.00  0.00     0.049 A 
ATOM     60  H   UNL A   1      45.424  26.921  27.466  1.00  0.00     0.167 HD
ATOM     61  C   UNL A   1      47.992  28.093  27.167  1.00  0.00     0.074 A 
ATOM     62  C   UNL A   1      49.068  29.063  27.200  1.00  0.00     0.031 C 
ATOM     63  C   UNL A   1      48.133  26.808  26.761  1.00  0.00     0.037 A 
BRANCH  50  64
ATOM     64  C   UNL A   1      42.955  23.452  27.178  1.00  0.00     0.057 A 
ATOM     65  C   UNL A   1      42.520  22.942  25.947  1.00  0.00     0.134 A 
ATOM     66  C   UNL A   1      42.748  22.660  28.313  1.00  0.00     0.134 A 
ATOM     67  F   UNL A   1      42.679  23.654  24.821  1.00  0.00    -0.206 F 
ATOM     68  C   UNL A   1      41.863  21.714  25.856  1.00  0.00     0.040 A 
ATOM     69  C   UNL A   1      42.119  21.416  28.231  1.00  0.00     0.040 A 
ATOM     70  F   UNL A   1      43.146  23.083  29.523  1.00  0.00    -0.206 F 
ATOM     71  C   UNL A   1      41.664  20.946  27.002  1.00  0.00     0.006 A 
ENDBRANCH  50  64
BRANCH  51  72
ATOM     72  C   UNL A   1      47.004  32.438  28.690  1.00  0.00     0.057 A 
ATOM     73  C   UNL A   1      47.540  32.709  29.953  1.00  0.00     0.134 A 
ATOM     74  C   UNL A   1      47.104  33.439  27.717  1.00  0.00     0.134 A 
ATOM     75  F   UNL A   1      47.459  31.795  30.931  1.00  0.00    -0.206 F 
ATOM     76  C   UNL A   1      48.148  33.932  30.243  1.00  0.00     0.040 A 
ATOM     77  C   UNL A   1      47.729  34.658  27.985  1.00  0.00     0.040 A 
ATOM     78  F   UNL A   1      46.619  33.236  26.484  1.00  0.00    -0.206 F 
ATOM     79  C   UNL A   1      48.251  34.908  29.253  1.00  0.00     0.006 A 
ENDBRANCH  51  72
BRANCH  63  80
ATOM     80  C   UNL A   1      49.487  26.377  26.280  1.00  0.00     0.057 A 
ATOM     81  C   UNL A   1      49.953  26.694  24.999  1.00  0.00     0.134 A 
ATOM     82  C   UNL A   1      50.361  25.696  27.138  1.00  0.00     0.134 A 
ATOM     83  F   UNL A   1      49.161  27.334  24.126  1.00  0.00    -0.206 F 
ATOM     84  C   UNL A   1      51.240  26.344  24.585  1.00  0.00     0.040 A 
ATOM     85  C   UNL A   1      51.656  25.361  26.744  1.00  0.00     0.040 A 
ATOM     86  F   UNL A   1      49.977  25.368  28.381  1.00  0.00    -0.206 F 
ATOM     87  C   UNL A   1      52.099  25.683  25.463  1.00  0.00     0.006 A 
ENDBRANCH  63  80
ENDBRANCH  37  38
ENDBRANCH  29  32
ENDBRANCH  27  28
ENDBRANCH  26  27
ENDBRANCH  25  26
ENDBRANCH  24  25
ENDBRANCH  22  24
ENDBRANCH  19  20
ENDBRANCH  18  19
ENDBRANCH   1  18
TORSDOF 24
ENDMDL
MODEL 3
REMARK VINA RESULT:      -8.3      4.318      6.547
REMARK SMILES CC/C=C/C/C=C/C/C=C/C/C=C/CCSCCCC(=O)NCCCCNC(=O)c1ccc(-c2c3nc(c(-c4c(F)cccc4F)c4ccc([nH]4)c(-c4c(F)cccc4F)c4nc(c(-c5c(F)cccc5F)c5ccc2[nH]5)C=C4)C=C3)cc1
REMARK SMILES IDX 17 1 16 2 15 3 14 4 13 5 12 6 11 7 10 8 9 9 8 10 7 11 6 12
REMARK SMILES IDX 5 13 4 14 3 15 2 16 1 17 18 18 19 19 20 20 21 21 22 22 23 24
REMARK SMILES IDX 24 25 25 26 26 27 27 28 28 29 29 31 30 32 31 33 83 34 32 35
REMARK SMILES IDX 82 36 33 37 34 38 35 39 76 40 36 41 81 42 75 43 77 44 37 45
REMARK SMILES IDX 80 46 74 47 73 48 38 50 64 51 47 52 63 53 48 54 51 55 62 56
REMARK SMILES IDX 78 57 49 58 50 59 61 61 79 62 52 63 39 64 40 65 45 66 41 67
REMARK SMILES IDX 42 68 44 69 46 70 43 71 65 72 66 73 71 74 67 75 68 76 70 77
REMARK SMILES IDX 72 78 69 79 53 80 54 81 59 82 55 83 56 84 58 85 60 86 57 87
REMARK H PARENT 22 23 27 30 77 49 51 60
REMARK Flexibility Score: inf
ROOT
ATOM      1  C   UNL A   1      38.026  30.894  28.980  1.00  0.00     0.070 C 
ENDROOT
BRANCH   1   2
ATOM      2  S   UNL A   1      39.454  29.747  29.197  1.00  0.00    -0.162 SA
BRANCH   2   3
ATOM      3  C   UNL A   1      39.693  28.743  27.675  1.00  0.00     0.073 C 
BRANCH   3   4
ATOM      4  C   UNL A   1      40.980  29.036  26.858  1.00  0.00     0.038 C 
BRANCH   4   5
ATOM      5  C   UNL A   1      42.082  28.024  26.997  1.00  0.00    -0.030 C 
ATOM      6  C   UNL A   1      43.404  28.198  26.835  1.00  0.00    -0.027 C 
BRANCH   6   7
ATOM      7  C   UNL A   1      44.410  27.137  27.229  1.00  0.00     0.054 C 
BRANCH   7   8
ATOM      8  C   UNL A   1      44.070  26.400  28.494  1.00  0.00    -0.027 C 
ATOM      9  C   UNL A   1      44.411  25.118  28.708  1.00  0.00    -0.027 C 
BRANCH   9  10
ATOM     10  C   UNL A   1      44.037  24.330  29.932  1.00  0.00     0.054 C 
BRANCH  10  11
ATOM     11  C   UNL A   1      43.172  23.180  29.513  1.00  0.00    -0.027 C 
ATOM     12  C   UNL A   1      42.302  23.211  28.491  1.00  0.00    -0.027 C 
BRANCH  12  13
ATOM     13  C   UNL A   1      41.306  22.122  28.220  1.00  0.00     0.054 C 
BRANCH  13  14
ATOM     14  C   UNL A   1      41.868  21.179  27.195  1.00  0.00    -0.027 C 
ATOM     15  C   UNL A   1      41.578  19.870  27.132  1.00  0.00    -0.031 C 
BRANCH  15  16
ATOM     16  C   UNL A   1      42.226  18.922  26.166  1.00  0.00     0.023 C 
ATOM     17  C   UNL A   1      43.160  17.969  26.897  1.00  0.00     0.008 C 
ENDBRANCH  15  16
ENDBRANCH  13  14
ENDBRANCH  12  13
ENDBRANCH  10  11
ENDBRANCH   9  10
ENDBRANCH   7   8
ENDBRANCH   6   7
ENDBRANCH   4   5
ENDBRANCH   3   4
ENDBRANCH   2   3
ENDBRANCH   1   2
BRANCH   1  18
ATOM     18  C   UNL A   1      37.007  31.294  30.042  1.00  0.00     0.021 C 
BRANCH  18  19
ATOM     19  C   UNL A   1      35.659  31.857  29.633  1.00  0.00     0.101 C 
BRANCH  19  20
ATOM     20  C   UNL A   1      35.314  33.290  30.006  1.00  0.00     0.220 C 
ATOM     21  O   UNL A   1      35.351  34.168  29.138  1.00  0.00    -0.275 OA
ATOM     22  N   UNL A   1      34.901  33.682  31.236  1.00  0.00    -0.356 N 
ATOM     23  H   UNL A   1      34.924  34.658  31.364  1.00  0.00     0.163 HD
BRANCH  22  24
ATOM     24  C   UNL A   1      34.435  32.957  32.399  1.00  0.00     0.116 C 
BRANCH  24  25
ATOM     25  C   UNL A   1      35.247  33.265  33.657  1.00  0.00     0.023 C 
BRANCH  25  26
ATOM     26  C   UNL A   1      36.542  34.012  33.326  1.00  0.00     0.023 C 
BRANCH  26  27
ATOM     27  C   UNL A   1      37.372  34.387  34.553  1.00  0.00     0.116 C 
BRANCH  27  28
ATOM     28  N   UNL A   1      37.243  33.417  35.629  1.00  0.00    -0.352 N 
ATOM     29  C   UNL A   1      37.872  32.196  35.777  1.00  0.00     0.251 C 
ATOM     30  H   UNL A   1      36.622  33.664  36.352  1.00  0.00     0.163 HD
ATOM     31  O   UNL A   1      37.546  31.422  36.658  1.00  0.00    -0.269 OA
BRANCH  29  32
ATOM     32  C   UNL A   1      38.937  31.828  34.820  1.00  0.00     0.039 A 
ATOM     33  C   UNL A   1      40.246  32.249  35.063  1.00  0.00     0.014 A 
ATOM     34  C   UNL A   1      38.642  31.015  33.723  1.00  0.00     0.014 A 
ATOM     35  C   UNL A   1      41.283  31.770  34.257  1.00  0.00     0.010 A 
ATOM     36  C   UNL A   1      39.683  30.482  32.971  1.00  0.00     0.010 A 
ATOM     37  C   UNL A   1      41.015  30.843  33.238  1.00  0.00    -0.014 A 
BRANCH  37  38
ATOM     38  C   UNL A   1      42.098  30.209  32.443  1.00  0.00     0.031 A 
ATOM     39  C   UNL A   1      42.766  28.964  32.952  1.00  0.00     0.074 A 
ATOM     40  C   UNL A   1      42.566  30.822  31.339  1.00  0.00     0.049 A 
ATOM     41  N   UNL A   1      43.841  28.361  32.513  1.00  0.00    -0.248 NA
ATOM     42  C   UNL A   1      42.163  28.338  34.137  1.00  0.00     0.031 C 
ATOM     43  C   UNL A   1      42.040  32.063  30.768  1.00  0.00     0.029 A 
ATOM     44  N   UNL A   1      43.619  30.499  30.518  1.00  0.00    -0.354 N 
ATOM     45  C   UNL A   1      44.064  27.309  33.391  1.00  0.00     0.074 A 
ATOM     46  C   UNL A   1      43.039  27.383  34.408  1.00  0.00     0.031 C 
ATOM     47  C   UNL A   1      42.771  32.398  29.695  1.00  0.00     0.029 A 
ATOM     48  C   UNL A   1      43.844  31.423  29.525  1.00  0.00     0.049 A 
ATOM     49  H   UNL A   1      44.161  29.685  30.630  1.00  0.00     0.167 HD
ATOM     50  C   UNL A   1      45.030  26.360  33.345  1.00  0.00     0.037 A 
ATOM     51  C   UNL A   1      44.820  31.491  28.598  1.00  0.00     0.037 A 
ATOM     52  C   UNL A   1      46.028  26.273  32.311  1.00  0.00     0.049 A 
ATOM     53  C   UNL A   1      45.870  30.419  28.550  1.00  0.00     0.074 A 
ATOM     54  C   UNL A   1      46.998  25.303  32.129  1.00  0.00     0.029 A 
ATOM     55  N   UNL A   1      46.188  27.196  31.288  1.00  0.00    -0.354 N 
ATOM     56  N   UNL A   1      46.032  29.388  29.344  1.00  0.00    -0.248 NA
ATOM     57  C   UNL A   1      46.871  30.514  27.477  1.00  0.00     0.031 C 
ATOM     58  C   UNL A   1      47.773  25.663  31.021  1.00  0.00     0.029 A 
ATOM     59  C   UNL A   1      47.254  26.832  30.484  1.00  0.00     0.049 A 
ATOM     60  H   UNL A   1      45.626  27.993  31.154  1.00  0.00     0.167 HD
ATOM     61  C   UNL A   1      47.133  28.697  28.854  1.00  0.00     0.074 A 
ATOM     62  C   UNL A   1      47.598  29.424  27.690  1.00  0.00     0.031 C 
ATOM     63  C   UNL A   1      47.702  27.560  29.324  1.00  0.00     0.037 A 
BRANCH  50  64
ATOM     64  C   UNL A   1      45.054  25.352  34.457  1.00  0.00     0.057 A 
ATOM     65  C   UNL A   1      44.401  24.116  34.355  1.00  0.00     0.134 A 
ATOM     66  C   UNL A   1      45.734  25.625  35.650  1.00  0.00     0.134 A 
ATOM     67  F   UNL A   1      43.721  23.796  33.244  1.00  0.00    -0.206 F 
ATOM     68  C   UNL A   1      44.386  23.208  35.414  1.00  0.00     0.040 A 
ATOM     69  C   UNL A   1      45.753  24.711  36.706  1.00  0.00     0.040 A 
ATOM     70  F   UNL A   1      46.387  26.786  35.813  1.00  0.00    -0.206 F 
ATOM     71  C   UNL A   1      45.067  23.504  36.594  1.00  0.00     0.006 A 
ENDBRANCH  50  64
BRANCH  51  72
ATOM     72  C   UNL A   1      44.832  32.619  27.634  1.00  0.00     0.057 A 
ATOM     73  C   UNL A   1      45.530  33.799  27.912  1.00  0.00     0.134 A 
ATOM     74  C   UNL A   1      44.179  32.531  26.398  1.00  0.00     0.134 A 
ATOM     75  F   UNL A   1      46.160  33.949  29.087  1.00  0.00    -0.206 F 
ATOM     76  C   UNL A   1      45.574  34.855  27.001  1.00  0.00     0.040 A 
ATOM     77  C   UNL A   1      44.233  33.570  25.468  1.00  0.00     0.040 A 
ATOM     78  F   UNL A   1      43.502  31.422  26.068  1.00  0.00    -0.206 F 
ATOM     79  C   UNL A   1      44.931  34.738  25.770  1.00  0.00     0.006 A 
ENDBRANCH  51  72
BRANCH  63  80
ATOM     80  C   UNL A   1      48.869  27.003  28.563  1.00  0.00     0.057 A 
ATOM     81  C   UNL A   1      50.189  27.360  28.865  1.00  0.00     0.134 A 
ATOM     82  C   UNL A   1      48.669  26.042  27.563  1.00  0.00     0.134 A 
ATOM     83  F   UNL A   1      50.446  28.283  29.803  1.00  0.00    -0.206 F 
ATOM     84  C   UNL A   1      51.269  26.786  28.193  1.00  0.00     0.040 A 
ATOM     85  C   UNL A   1      49.742  25.445  26.901  1.00  0.00     0.040 A 
ATOM     86  F   UNL A   1      47.430  25.652  27.231  1.00  0.00    -0.206 F 
ATOM     87  C   UNL A   1      51.048  25.818  27.214  1.00  0.00     0.006 A 
ENDBRANCH  63  80
ENDBRANCH  37  38
ENDBRANCH  29  32
ENDBRANCH  27  28
ENDBRANCH  26  27
ENDBRANCH  25  26
ENDBRANCH  24  25
ENDBRANCH  22  24
ENDBRANCH  19  20
ENDBRANCH  18  19
ENDBRANCH   1  18
TORSDOF 24
ENDMDL
