MODEL 1
REMARK VINA RESULT:     -12.1      0.000      0.000
REMARK SMILES CCc1nc(N2CC[N@H+](CC=C(C)C)[C@H](C(=O)NCCCCNC(=O)c3ccc(-c4c5nc(c(-c6c(F)cccc6F)c6ccc([nH]6)c(-c6c(F)cccc6F)c6nc(c(-c7c(F)cccc7F)c7ccc4[nH]7)C=C6)C=C5)cc3)C2)no1
REMARK SMILES IDX 20 1 19 2 18 3 16 4 17 5 15 7 6 8 7 9 80 10 8 11 9 12 5 14
REMARK SMILES IDX 3 15 4 16 82 17 81 18 2 19 1 20 10 21 11 22 12 23 13 24
REMARK SMILES IDX 14 25 21 26 22 27 23 28 24 29 25 31 26 32 27 33 79 34 28 35
REMARK SMILES IDX 78 36 29 37 30 38 31 39 72 40 32 41 77 42 71 43 73 44 33 45
REMARK SMILES IDX 76 46 70 47 69 48 34 50 60 51 43 52 59 53 44 54 47 55 58 56
REMARK SMILES IDX 74 57 45 58 46 59 57 61 75 62 48 63 35 64 36 65 41 66 37 67
REMARK SMILES IDX 38 68 40 69 42 70 39 71 61 72 62 73 67 74 63 75 64 76 66 77
REMARK SMILES IDX 68 78 65 79 49 80 50 81 55 82 51 83 52 84 54 85 56 86 53 87
REMARK H PARENT 18 6 9 13 23 30 73 49 47 60
REMARK Flexibility Score: inf
ROOT
ATOM      1  C   UNL A   1      31.506  30.511  26.294  1.00  0.00     0.023 C 
ENDROOT
BRANCH   1   2
ATOM      2  C   UNL A   1      32.952  30.039  26.164  1.00  0.00     0.116 C 
BRANCH   2   3
ATOM      3  N   UNL A   1      33.298  29.726  24.789  1.00  0.00    -0.351 N 
ATOM      4  C   UNL A   1      33.009  28.726  23.915  1.00  0.00     0.280 C 
ATOM      5  O   UNL A   1      33.501  28.889  22.788  1.00  0.00    -0.268 OA
ATOM      6  H   UNL A   1      33.889  30.406  24.392  1.00  0.00     0.163 HD
BRANCH   4   7
ATOM      7  C   UNL A   1      32.156  27.462  24.213  1.00  0.00     0.294 C 
ATOM      8  N   UNL A   1      31.775  24.997  23.914  1.00  0.00    -0.326 N 
ATOM      9  C   UNL A   1      30.339  25.197  23.771  1.00  0.00     0.181 C 
ATOM     10  C   UNL A   1      32.630  26.143  23.600  1.00  0.00     0.195 C 
ATOM     11  C   UNL A   1      29.908  26.532  24.428  1.00  0.00     0.284 C 
ATOM     12  N   UNL A   1      30.692  27.732  24.071  1.00  0.00    -0.318 N 
ATOM     13  H   UNL A   1      30.502  28.465  24.754  1.00  0.00     0.349 HD
BRANCH   8  14
ATOM     14  C   UNL A   1      32.315  23.760  23.859  1.00  0.00     0.266 A 
ATOM     15  C   UNL A   1      33.598  22.224  24.472  1.00  0.00     0.227 A 
ATOM     16  N   UNL A   1      33.404  23.507  24.649  1.00  0.00    -0.176 NA
ATOM     17  O   UNL A   1      32.765  21.679  23.542  1.00  0.00    -0.337 OA
ATOM     18  N   UNL A   1      31.902  22.703  23.147  1.00  0.00    -0.038 NA
BRANCH  15  19
ATOM     19  C   UNL A   1      34.514  21.311  25.190  1.00  0.00     0.097 C 
ATOM     20  C   UNL A   1      34.392  19.887  24.663  1.00  0.00     0.014 C 
ENDBRANCH  15  19
ENDBRANCH   8  14
BRANCH  12  21
ATOM     21  C   UNL A   1      30.239  28.407  22.858  1.00  0.00     0.291 C 
BRANCH  21  22
ATOM     22  C   UNL A   1      29.554  29.724  23.065  1.00  0.00     0.032 C 
ATOM     23  C   UNL A   1      28.230  29.954  23.167  1.00  0.00    -0.075 C 
ATOM     24  C   UNL A   1      27.704  31.359  23.266  1.00  0.00     0.039 C 
ATOM     25  C   UNL A   1      27.197  28.865  23.125  1.00  0.00     0.039 C 
ENDBRANCH  21  22
ENDBRANCH  12  21
ENDBRANCH   4   7
ENDBRANCH   2   3
ENDBRANCH   1   2
BRANCH   1  26
ATOM     26  C   UNL A   1      31.355  32.021  26.488  1.00  0.00     0.023 C 
BRANCH  26  27
ATOM     27  C   UNL A   1      32.504  32.695  27.229  1.00  0.00     0.116 C 
BRANCH  27  28
ATOM     28  N   UNL A   1      32.233  34.080  27.579  1.00  0.00    -0.352 N 
ATOM     29  C   UNL A   1      32.907  34.898  28.453  1.00  0.00     0.251 C 
ATOM     30  H   UNL A   1      31.458  34.488  27.129  1.00  0.00     0.163 HD
ATOM     31  O   UNL A   1      32.470  36.010  28.718  1.00  0.00    -0.269 OA
BRANCH  29  32
ATOM     32  C   UNL A   1      34.143  34.411  29.101  1.00  0.00     0.039 A 
ATOM     33  C   UNL A   1      34.029  33.680  30.284  1.00  0.00     0.014 A 
ATOM     34  C   UNL A   1      35.400  34.653  28.538  1.00  0.00     0.014 A 
ATOM     35  C   UNL A   1      35.174  33.141  30.870  1.00  0.00     0.010 A 
ATOM     36  C   UNL A   1      36.528  34.042  29.075  1.00  0.00     0.010 A 
ATOM     37  C   UNL A   1      36.428  33.284  30.251  1.00  0.00    -0.014 A 
BRANCH  37  38
ATOM     38  C   UNL A   1      37.627  32.625  30.826  1.00  0.00     0.031 A 
ATOM     39  C   UNL A   1      38.204  33.086  32.136  1.00  0.00     0.074 A 
ATOM     40  C   UNL A   1      38.207  31.616  30.149  1.00  0.00     0.049 A 
ATOM     41  N   UNL A   1      39.206  32.588  32.815  1.00  0.00    -0.248 NA
ATOM     42  C   UNL A   1      37.595  34.275  32.751  1.00  0.00     0.031 C 
ATOM     43  C   UNL A   1      37.787  31.129  28.833  1.00  0.00     0.029 A 
ATOM     44  N   UNL A   1      39.267  30.811  30.476  1.00  0.00    -0.354 N 
ATOM     45  C   UNL A   1      39.345  33.400  33.933  1.00  0.00     0.074 A 
ATOM     46  C   UNL A   1      38.372  34.462  33.808  1.00  0.00     0.031 C 
ATOM     47  C   UNL A   1      38.547  30.078  28.489  1.00  0.00     0.029 A 
ATOM     48  C   UNL A   1      39.528  29.837  29.543  1.00  0.00     0.049 A 
ATOM     49  H   UNL A   1      39.792  30.920  31.302  1.00  0.00     0.167 HD
ATOM     50  C   UNL A   1      40.188  33.257  34.984  1.00  0.00     0.037 A 
ATOM     51  C   UNL A   1      40.445  28.853  29.542  1.00  0.00     0.037 A 
ATOM     52  C   UNL A   1      41.149  32.191  35.109  1.00  0.00     0.049 A 
ATOM     53  C   UNL A   1      41.357  28.705  30.728  1.00  0.00     0.074 A 
ATOM     54  C   UNL A   1      42.012  31.925  36.157  1.00  0.00     0.029 A 
ATOM     55  N   UNL A   1      41.379  31.219  34.145  1.00  0.00    -0.354 N 
ATOM     56  N   UNL A   1      41.418  29.427  31.821  1.00  0.00    -0.248 NA
ATOM     57  C   UNL A   1      42.317  27.596  30.685  1.00  0.00     0.031 C 
ATOM     58  C   UNL A   1      42.798  30.822  35.808  1.00  0.00     0.029 A 
ATOM     59  C   UNL A   1      42.385  30.364  34.567  1.00  0.00     0.049 A 
ATOM     60  H   UNL A   1      40.899  31.147  33.290  1.00  0.00     0.167 HD
ATOM     61  C   UNL A   1      42.403  28.845  32.606  1.00  0.00     0.074 A 
ATOM     62  C   UNL A   1      42.892  27.694  31.874  1.00  0.00     0.031 C 
ATOM     63  C   UNL A   1      42.867  29.227  33.822  1.00  0.00     0.037 A 
BRANCH  50  64
ATOM     64  C   UNL A   1      40.101  34.276  36.085  1.00  0.00     0.057 A 
ATOM     65  C   UNL A   1      40.831  35.472  36.044  1.00  0.00     0.134 A 
ATOM     66  C   UNL A   1      39.255  34.077  37.182  1.00  0.00     0.134 A 
ATOM     67  F   UNL A   1      41.671  35.723  35.028  1.00  0.00    -0.206 F 
ATOM     68  C   UNL A   1      40.745  36.419  37.067  1.00  0.00     0.040 A 
ATOM     69  C   UNL A   1      39.137  35.029  38.197  1.00  0.00     0.040 A 
ATOM     70  F   UNL A   1      38.523  32.957  37.285  1.00  0.00    -0.206 F 
ATOM     71  C   UNL A   1      39.888  36.201  38.145  1.00  0.00     0.006 A 
ENDBRANCH  50  64
BRANCH  51  72
ATOM     72  C   UNL A   1      40.518  27.903  28.403  1.00  0.00     0.057 A 
ATOM     73  C   UNL A   1      39.855  26.670  28.441  1.00  0.00     0.134 A 
ATOM     74  C   UNL A   1      41.261  28.198  27.253  1.00  0.00     0.134 A 
ATOM     75  F   UNL A   1      39.140  26.323  29.521  1.00  0.00    -0.206 F 
ATOM     76  C   UNL A   1      39.948  25.755  27.392  1.00  0.00     0.040 A 
ATOM     77  C   UNL A   1      41.340  27.305  26.184  1.00  0.00     0.040 A 
ATOM     78  F   UNL A   1      41.912  29.366  27.149  1.00  0.00    -0.206 F 
ATOM     79  C   UNL A   1      40.690  26.074  26.256  1.00  0.00     0.006 A 
ENDBRANCH  51  72
BRANCH  63  80
ATOM     80  C   UNL A   1      43.936  28.372  34.441  1.00  0.00     0.057 A 
ATOM     81  C   UNL A   1      45.300  28.649  34.269  1.00  0.00     0.134 A 
ATOM     82  C   UNL A   1      43.597  27.254  35.213  1.00  0.00     0.134 A 
ATOM     83  F   UNL A   1      45.694  29.698  33.532  1.00  0.00    -0.206 F 
ATOM     84  C   UNL A   1      46.285  27.817  34.804  1.00  0.00     0.040 A 
ATOM     85  C   UNL A   1      44.574  26.435  35.781  1.00  0.00     0.040 A 
ATOM     86  F   UNL A   1      42.311  26.938  35.428  1.00  0.00    -0.206 F 
ATOM     87  C   UNL A   1      45.922  26.708  35.566  1.00  0.00     0.006 A 
ENDBRANCH  63  80
ENDBRANCH  37  38
ENDBRANCH  29  32
ENDBRANCH  27  28
ENDBRANCH  26  27
ENDBRANCH   1  26
TORSDOF 15
ENDMDL
MODEL 2
REMARK VINA RESULT:     -12.0      4.835     10.431
REMARK SMILES CCc1nc(N2CC[N@H+](CC=C(C)C)[C@H](C(=O)NCCCCNC(=O)c3ccc(-c4c5nc(c(-c6c(F)cccc6F)c6ccc([nH]6)c(-c6c(F)cccc6F)c6nc(c(-c7c(F)cccc7F)c7ccc4[nH]7)C=C6)C=C5)cc3)C2)no1
REMARK SMILES IDX 20 1 19 2 18 3 16 4 17 5 15 7 6 8 7 9 80 10 8 11 9 12 5 14
REMARK SMILES IDX 3 15 4 16 82 17 81 18 2 19 1 20 10 21 11 22 12 23 13 24
REMARK SMILES IDX 14 25 21 26 22 27 23 28 24 29 25 31 26 32 27 33 79 34 28 35
REMARK SMILES IDX 78 36 29 37 30 38 31 39 72 40 32 41 77 42 71 43 73 44 33 45
REMARK SMILES IDX 76 46 70 47 69 48 34 50 60 51 43 52 59 53 44 54 47 55 58 56
REMARK SMILES IDX 74 57 45 58 46 59 57 61 75 62 48 63 35 64 36 65 41 66 37 67
REMARK SMILES IDX 38 68 40 69 42 70 39 71 61 72 62 73 67 74 63 75 64 76 66 77
REMARK SMILES IDX 68 78 65 79 49 80 50 81 55 82 51 83 52 84 54 85 56 86 53 87
REMARK H PARENT 18 6 9 13 23 30 73 49 47 60
REMARK Flexibility Score: inf
ROOT
ATOM      1  C   UNL A   1      36.899  20.881  24.706  1.00  0.00     0.023 C 
ENDROOT
BRANCH   1   2
ATOM      2  C   UNL A   1      36.940  22.005  25.740  1.00  0.00     0.116 C 
BRANCH   2   3
ATOM      3  N   UNL A   1      35.801  21.955  26.639  1.00  0.00    -0.351 N 
ATOM      4  C   UNL A   1      34.464  22.173  26.531  1.00  0.00     0.280 C 
ATOM      5  O   UNL A   1      33.836  21.966  27.581  1.00  0.00    -0.268 OA
ATOM      6  H   UNL A   1      36.062  21.700  27.554  1.00  0.00     0.163 HD
BRANCH   4   7
ATOM      7  C   UNL A   1      33.709  22.644  25.257  1.00  0.00     0.294 C 
ATOM      8  N   UNL A   1      31.859  23.990  24.220  1.00  0.00    -0.326 N 
ATOM      9  C   UNL A   1      31.564  22.923  23.271  1.00  0.00     0.181 C 
ATOM     10  C   UNL A   1      32.528  23.595  25.460  1.00  0.00     0.195 C 
ATOM     11  C   UNL A   1      32.797  22.005  23.084  1.00  0.00     0.284 C 
ATOM     12  N   UNL A   1      33.452  21.514  24.313  1.00  0.00    -0.318 N 
ATOM     13  H   UNL A   1      34.381  21.166  24.075  1.00  0.00     0.349 HD
BRANCH   8  14
ATOM     14  C   UNL A   1      31.161  25.146  24.206  1.00  0.00     0.266 A 
ATOM     15  C   UNL A   1      30.896  27.202  24.499  1.00  0.00     0.227 A 
ATOM     16  N   UNL A   1      31.739  26.243  24.788  1.00  0.00    -0.176 NA
ATOM     17  O   UNL A   1      29.776  26.757  23.864  1.00  0.00    -0.337 OA
ATOM     18  N   UNL A   1      29.963  25.389  23.658  1.00  0.00    -0.038 NA
BRANCH  15  19
ATOM     19  C   UNL A   1      31.041  28.662  24.691  1.00  0.00     0.097 C 
ATOM     20  C   UNL A   1      30.243  29.433  23.649  1.00  0.00     0.014 C 
ENDBRANCH  15  19
ENDBRANCH   8  14
BRANCH  12  21
ATOM     21  C   UNL A   1      32.868  20.291  24.858  1.00  0.00     0.291 C 
BRANCH  21  22
ATOM     22  C   UNL A   1      33.598  19.022  24.535  1.00  0.00     0.032 C 
ATOM     23  C   UNL A   1      33.343  18.162  23.530  1.00  0.00    -0.075 C 
ATOM     24  C   UNL A   1      34.111  16.874  23.414  1.00  0.00     0.039 C 
ATOM     25  C   UNL A   1      32.262  18.378  22.511  1.00  0.00     0.039 C 
ENDBRANCH  21  22
ENDBRANCH  12  21
ENDBRANCH   4   7
ENDBRANCH   2   3
ENDBRANCH   1   2
BRANCH   1  26
ATOM     26  C   UNL A   1      37.857  19.725  24.999  1.00  0.00     0.023 C 
BRANCH  26  27
ATOM     27  C   UNL A   1      39.113  20.108  25.774  1.00  0.00     0.116 C 
BRANCH  27  28
ATOM     28  N   UNL A   1      40.129  19.066  25.779  1.00  0.00    -0.352 N 
ATOM     29  C   UNL A   1      41.473  19.172  26.044  1.00  0.00     0.251 C 
ATOM     30  H   UNL A   1      39.809  18.161  25.561  1.00  0.00     0.163 HD
ATOM     31  O   UNL A   1      42.208  18.207  25.889  1.00  0.00    -0.269 OA
BRANCH  29  32
ATOM     32  C   UNL A   1      42.030  20.470  26.480  1.00  0.00     0.039 A 
ATOM     33  C   UNL A   1      42.416  21.388  25.503  1.00  0.00     0.014 A 
ATOM     34  C   UNL A   1      42.150  20.788  27.836  1.00  0.00     0.014 A 
ATOM     35  C   UNL A   1      42.868  22.650  25.889  1.00  0.00     0.010 A 
ATOM     36  C   UNL A   1      42.518  22.074  28.215  1.00  0.00     0.010 A 
ATOM     37  C   UNL A   1      42.887  23.018  27.246  1.00  0.00    -0.014 A 
BRANCH  37  38
ATOM     38  C   UNL A   1      43.275  24.393  27.643  1.00  0.00     0.031 A 
ATOM     39  C   UNL A   1      44.713  24.830  27.601  1.00  0.00     0.074 A 
ATOM     40  C   UNL A   1      42.321  25.247  28.064  1.00  0.00     0.049 A 
ATOM     41  N   UNL A   1      45.224  26.008  27.852  1.00  0.00    -0.248 NA
ATOM     42  C   UNL A   1      45.711  23.805  27.256  1.00  0.00     0.031 C 
ATOM     43  C   UNL A   1      40.902  24.918  28.222  1.00  0.00     0.029 A 
ATOM     44  N   UNL A   1      42.397  26.567  28.425  1.00  0.00    -0.354 N 
ATOM     45  C   UNL A   1      46.596  25.866  27.697  1.00  0.00     0.074 A 
ATOM     46  C   UNL A   1      46.847  24.474  27.396  1.00  0.00     0.031 C 
ATOM     47  C   UNL A   1      40.234  26.020  28.598  1.00  0.00     0.029 A 
ATOM     48  C   UNL A   1      41.180  27.123  28.739  1.00  0.00     0.049 A 
ATOM     49  H   UNL A   1      43.243  27.070  28.456  1.00  0.00     0.167 HD
ATOM     50  C   UNL A   1      47.559  26.816  27.768  1.00  0.00     0.037 A 
ATOM     51  C   UNL A   1      40.861  28.382  29.087  1.00  0.00     0.037 A 
ATOM     52  C   UNL A   1      47.305  28.204  28.057  1.00  0.00     0.049 A 
ATOM     53  C   UNL A   1      41.945  29.421  29.143  1.00  0.00     0.074 A 
ATOM     54  C   UNL A   1      48.203  29.256  28.100  1.00  0.00     0.029 A 
ATOM     55  N   UNL A   1      46.058  28.731  28.364  1.00  0.00    -0.354 N 
ATOM     56  N   UNL A   1      43.228  29.292  28.905  1.00  0.00    -0.248 NA
ATOM     57  C   UNL A   1      41.533  30.784  29.501  1.00  0.00     0.031 C 
ATOM     58  C   UNL A   1      47.508  30.410  28.479  1.00  0.00     0.029 A 
ATOM     59  C   UNL A   1      46.167  30.089  28.616  1.00  0.00     0.049 A 
ATOM     60  H   UNL A   1      45.220  28.216  28.395  1.00  0.00     0.167 HD
ATOM     61  C   UNL A   1      43.772  30.560  29.059  1.00  0.00     0.074 A 
ATOM     62  C   UNL A   1      42.674  31.447  29.383  1.00  0.00     0.031 C 
ATOM     63  C   UNL A   1      45.064  30.957  28.946  1.00  0.00     0.037 A 
BRANCH  50  64
ATOM     64  C   UNL A   1      48.978  26.384  27.522  1.00  0.00     0.057 A 
ATOM     65  C   UNL A   1      49.535  26.371  26.235  1.00  0.00     0.134 A 
ATOM     66  C   UNL A   1      49.808  26.008  28.585  1.00  0.00     0.134 A 
ATOM     67  F   UNL A   1      48.793  26.708  25.170  1.00  0.00    -0.206 F 
ATOM     68  C   UNL A   1      50.854  25.974  26.012  1.00  0.00     0.040 A 
ATOM     69  C   UNL A   1      51.138  25.637  28.378  1.00  0.00     0.040 A 
ATOM     70  F   UNL A   1      49.343  26.000  29.843  1.00  0.00    -0.206 F 
ATOM     71  C   UNL A   1      51.663  25.612  27.088  1.00  0.00     0.006 A 
ENDBRANCH  50  64
BRANCH  51  72
ATOM     72  C   UNL A   1      39.447  28.742  29.369  1.00  0.00     0.057 A 
ATOM     73  C   UNL A   1      38.909  28.617  30.655  1.00  0.00     0.134 A 
ATOM     74  C   UNL A   1      38.597  29.208  28.359  1.00  0.00     0.134 A 
ATOM     75  F   UNL A   1      39.668  28.160  31.663  1.00  0.00    -0.206 F 
ATOM     76  C   UNL A   1      37.572  28.916  30.923  1.00  0.00     0.040 A 
ATOM     77  C   UNL A   1      37.267  29.539  28.617  1.00  0.00     0.040 A 
ATOM     78  F   UNL A   1      39.053  29.360  27.107  1.00  0.00    -0.206 F 
ATOM     79  C   UNL A   1      36.747  29.384  29.902  1.00  0.00     0.006 A 
ENDBRANCH  51  72
BRANCH  63  80
ATOM     80  C   UNL A   1      45.345  32.419  29.148  1.00  0.00     0.057 A 
ATOM     81  C   UNL A   1      45.668  32.946  30.407  1.00  0.00     0.134 A 
ATOM     82  C   UNL A   1      45.286  33.312  28.071  1.00  0.00     0.134 A 
ATOM     83  F   UNL A   1      45.731  32.148  31.483  1.00  0.00    -0.206 F 
ATOM     84  C   UNL A   1      45.875  34.314  30.593  1.00  0.00     0.040 A 
ATOM     85  C   UNL A   1      45.524  34.677  28.240  1.00  0.00     0.040 A 
ATOM     86  F   UNL A   1      44.994  32.874  26.837  1.00  0.00    -0.206 F 
ATOM     87  C   UNL A   1      45.806  35.183  29.506  1.00  0.00     0.006 A 
ENDBRANCH  63  80
ENDBRANCH  37  38
ENDBRANCH  29  32
ENDBRANCH  27  28
ENDBRANCH  26  27
ENDBRANCH   1  26
TORSDOF 15
ENDMDL
MODEL 3
REMARK VINA RESULT:     -11.8      0.683      6.152
REMARK SMILES CCc1nc(N2CC[N@H+](CC=C(C)C)[C@H](C(=O)NCCCCNC(=O)c3ccc(-c4c5nc(c(-c6c(F)cccc6F)c6ccc([nH]6)c(-c6c(F)cccc6F)c6nc(c(-c7c(F)cccc7F)c7ccc4[nH]7)C=C6)C=C5)cc3)C2)no1
REMARK SMILES IDX 20 1 19 2 18 3 16 4 17 5 15 7 6 8 7 9 80 10 8 11 9 12 5 14
REMARK SMILES IDX 3 15 4 16 82 17 81 18 2 19 1 20 10 21 11 22 12 23 13 24
REMARK SMILES IDX 14 25 21 26 22 27 23 28 24 29 25 31 26 32 27 33 79 34 28 35
REMARK SMILES IDX 78 36 29 37 30 38 31 39 72 40 32 41 77 42 71 43 73 44 33 45
REMARK SMILES IDX 76 46 70 47 69 48 34 50 60 51 43 52 59 53 44 54 47 55 58 56
REMARK SMILES IDX 74 57 45 58 46 59 57 61 75 62 48 63 35 64 36 65 41 66 37 67
REMARK SMILES IDX 38 68 40 69 42 70 39 71 61 72 62 73 67 74 63 75 64 76 66 77
REMARK SMILES IDX 68 78 65 79 49 80 50 81 55 82 51 83 52 84 54 85 56 86 53 87
REMARK H PARENT 18 6 9 13 23 30 73 49 47 60
REMARK Flexibility Score: inf
ROOT
ATOM      1  C   UNL A   1      31.533  30.840  25.837  1.00  0.00     0.023 C 
ENDROOT
BRANCH   1   2
ATOM      2  C   UNL A   1      32.853  30.074  25.896  1.00  0.00     0.116 C 
BRANCH   2   3
ATOM      3  N   UNL A   1      33.313  29.685  24.574  1.00  0.00    -0.351 N 
ATOM      4  C   UNL A   1      33.103  28.632  23.741  1.00  0.00     0.280 C 
ATOM      5  O   UNL A   1      33.685  28.734  22.650  1.00  0.00    -0.268 OA
ATOM      6  H   UNL A   1      33.929  30.348  24.186  1.00  0.00     0.163 HD
BRANCH   4   7
ATOM      7  C   UNL A   1      32.240  27.377  24.045  1.00  0.00     0.294 C 
ATOM      8  N   UNL A   1      31.817  24.921  23.728  1.00  0.00    -0.326 N 
ATOM      9  C   UNL A   1      30.381  25.143  23.620  1.00  0.00     0.181 C 
ATOM     10  C   UNL A   1      32.681  26.058  23.408  1.00  0.00     0.195 C 
ATOM     11  C   UNL A   1      29.984  26.476  24.300  1.00  0.00     0.284 C 
ATOM     12  N   UNL A   1      30.777  27.669  23.939  1.00  0.00    -0.318 N 
ATOM     13  H   UNL A   1      30.613  28.397  24.633  1.00  0.00     0.349 HD
BRANCH   8  14
ATOM     14  C   UNL A   1      32.337  23.677  23.649  1.00  0.00     0.266 A 
ATOM     15  C   UNL A   1      33.694  22.156  24.127  1.00  0.00     0.227 A 
ATOM     16  N   UNL A   1      33.534  23.448  24.272  1.00  0.00    -0.176 NA
ATOM     17  O   UNL A   1      32.726  21.579  23.362  1.00  0.00    -0.337 OA
ATOM     18  N   UNL A   1      31.816  22.593  23.057  1.00  0.00    -0.038 NA
BRANCH  15  19
ATOM     19  C   UNL A   1      34.707  21.267  24.737  1.00  0.00     0.097 C 
ATOM     20  C   UNL A   1      35.205  21.832  26.061  1.00  0.00     0.014 C 
ENDBRANCH  15  19
ENDBRANCH   8  14
BRANCH  12  21
ATOM     21  C   UNL A   1      30.307  28.363  22.743  1.00  0.00     0.291 C 
BRANCH  21  22
ATOM     22  C   UNL A   1      29.627  29.678  22.981  1.00  0.00     0.032 C 
ATOM     23  C   UNL A   1      28.307  29.904  23.131  1.00  0.00    -0.075 C 
ATOM     24  C   UNL A   1      27.782  31.308  23.256  1.00  0.00     0.039 C 
ATOM     25  C   UNL A   1      27.275  28.813  23.121  1.00  0.00     0.039 C 
ENDBRANCH  21  22
ENDBRANCH  12  21
ENDBRANCH   4   7
ENDBRANCH   2   3
ENDBRANCH   1   2
BRANCH   1  26
ATOM     26  C   UNL A   1      31.399  31.941  26.891  1.00  0.00     0.023 C 
BRANCH  26  27
ATOM     27  C   UNL A   1      32.699  32.653  27.249  1.00  0.00     0.116 C 
BRANCH  27  28
ATOM     28  N   UNL A   1      32.514  34.055  27.588  1.00  0.00    -0.352 N 
ATOM     29  C   UNL A   1      33.179  34.812  28.522  1.00  0.00     0.251 C 
ATOM     30  H   UNL A   1      31.816  34.527  27.079  1.00  0.00     0.163 HD
ATOM     31  O   UNL A   1      32.815  35.956  28.760  1.00  0.00    -0.269 OA
BRANCH  29  32
ATOM     32  C   UNL A   1      34.313  34.223  29.266  1.00  0.00     0.039 A 
ATOM     33  C   UNL A   1      34.036  33.448  30.393  1.00  0.00     0.014 A 
ATOM     34  C   UNL A   1      35.632  34.412  28.845  1.00  0.00     0.014 A 
ATOM     35  C   UNL A   1      35.083  32.815  31.063  1.00  0.00     0.010 A 
ATOM     36  C   UNL A   1      36.663  33.711  29.460  1.00  0.00     0.010 A 
ATOM     37  C   UNL A   1      36.400  32.909  30.581  1.00  0.00    -0.014 A 
BRANCH  37  38
ATOM     38  C   UNL A   1      37.494  32.154  31.240  1.00  0.00     0.031 A 
ATOM     39  C   UNL A   1      38.231  31.069  30.506  1.00  0.00     0.074 A 
ATOM     40  C   UNL A   1      37.810  32.441  32.517  1.00  0.00     0.049 A 
ATOM     41  N   UNL A   1      39.251  30.351  30.903  1.00  0.00    -0.248 NA
ATOM     42  C   UNL A   1      37.745  30.725  29.161  1.00  0.00     0.031 C 
ATOM     43  C   UNL A   1      37.118  33.420  33.360  1.00  0.00     0.029 A 
ATOM     44  N   UNL A   1      38.799  31.947  33.329  1.00  0.00    -0.354 N 
ATOM     45  C   UNL A   1      39.527  29.476  29.862  1.00  0.00     0.074 A 
ATOM     46  C   UNL A   1      38.527  29.703  28.842  1.00  0.00     0.031 C 
ATOM     47  C   UNL A   1      37.735  33.491  34.550  1.00  0.00     0.029 A 
ATOM     48  C   UNL A   1      38.844  32.542  34.566  1.00  0.00     0.049 A 
ATOM     49  H   UNL A   1      39.418  31.234  33.050  1.00  0.00     0.167 HD
ATOM     50  C   UNL A   1      40.540  28.584  29.751  1.00  0.00     0.037 A 
ATOM     51  C   UNL A   1      39.691  32.353  35.594  1.00  0.00     0.037 A 
ATOM     52  C   UNL A   1      41.541  28.368  30.764  1.00  0.00     0.049 A 
ATOM     53  C   UNL A   1      40.817  31.369  35.440  1.00  0.00     0.074 A 
ATOM     54  C   UNL A   1      42.639  27.527  30.729  1.00  0.00     0.029 A 
ATOM     55  N   UNL A   1      41.557  28.994  32.003  1.00  0.00    -0.354 N 
ATOM     56  N   UNL A   1      41.120  30.612  34.412  1.00  0.00    -0.248 NA
ATOM     57  C   UNL A   1      41.727  31.226  36.582  1.00  0.00     0.031 C 
ATOM     58  C   UNL A   1      43.293  27.607  31.963  1.00  0.00     0.029 A 
ATOM     59  C   UNL A   1      42.636  28.542  32.747  1.00  0.00     0.049 A 
ATOM     60  H   UNL A   1      40.901  29.661  32.307  1.00  0.00     0.167 HD
ATOM     61  C   UNL A   1      42.269  29.922  34.775  1.00  0.00     0.074 A 
ATOM     62  C   UNL A   1      42.622  30.374  36.106  1.00  0.00     0.031 C 
ATOM     63  C   UNL A   1      42.969  28.996  34.075  1.00  0.00     0.037 A 
BRANCH  50  64
ATOM     64  C   UNL A   1      40.618  27.779  28.484  1.00  0.00     0.057 A 
ATOM     65  C   UNL A   1      39.963  26.547  28.349  1.00  0.00     0.134 A 
ATOM     66  C   UNL A   1      41.330  28.253  27.375  1.00  0.00     0.134 A 
ATOM     67  F   UNL A   1      39.274  26.027  29.376  1.00  0.00    -0.206 F 
ATOM     68  C   UNL A   1      40.035  25.804  27.169  1.00  0.00     0.040 A 
ATOM     69  C   UNL A   1      41.384  27.534  26.179  1.00  0.00     0.040 A 
ATOM     70  F   UNL A   1      41.978  29.427  27.432  1.00  0.00    -0.206 F 
ATOM     71  C   UNL A   1      40.742  26.303  26.076  1.00  0.00     0.006 A 
ENDBRANCH  50  64
BRANCH  51  72
ATOM     72  C   UNL A   1      39.536  33.142  36.843  1.00  0.00     0.057 A 
ATOM     73  C   UNL A   1      38.637  32.750  37.842  1.00  0.00     0.134 A 
ATOM     74  C   UNL A   1      40.273  34.312  37.064  1.00  0.00     0.134 A 
ATOM     75  F   UNL A   1      37.890  31.647  37.682  1.00  0.00    -0.206 F 
ATOM     76  C   UNL A   1      38.456  33.504  39.003  1.00  0.00     0.040 A 
ATOM     77  C   UNL A   1      40.124  35.060  38.232  1.00  0.00     0.040 A 
ATOM     78  F   UNL A   1      41.159  34.737  36.151  1.00  0.00    -0.206 F 
ATOM     79  C   UNL A   1      39.205  34.662  39.202  1.00  0.00     0.006 A 
ENDBRANCH  51  72
BRANCH  63  80
ATOM     80  C   UNL A   1      44.200  28.437  34.729  1.00  0.00     0.057 A 
ATOM     81  C   UNL A   1      45.457  29.040  34.581  1.00  0.00     0.134 A 
ATOM     82  C   UNL A   1      44.128  27.279  35.514  1.00  0.00     0.134 A 
ATOM     83  F   UNL A   1      45.599  30.145  33.835  1.00  0.00    -0.206 F 
ATOM     84  C   UNL A   1      46.604  28.483  35.151  1.00  0.00     0.040 A 
ATOM     85  C   UNL A   1      45.262  26.733  36.115  1.00  0.00     0.040 A 
ATOM     86  F   UNL A   1      42.954  26.659  35.708  1.00  0.00    -0.206 F 
ATOM     87  C   UNL A   1      46.507  27.327  35.924  1.00  0.00     0.006 A 
ENDBRANCH  63  80
ENDBRANCH  37  38
ENDBRANCH  29  32
ENDBRANCH  27  28
ENDBRANCH  26  27
ENDBRANCH   1  26
TORSDOF 15
ENDMDL
