MODEL 1
REMARK VINA RESULT:     -11.8      0.000      0.000
REMARK SMILES COCc1c(C(=O)NCCCCNC(=O)c2ccc(-c3c4nc(c(-c5c(F)cccc5F)c5ccc([nH]5)c(-c5c(F)cccc5F)c5nc(c(-c6c(F)cccc6F)c6ccc3[nH]6)C=C5)C=C4)cc2)nnn1-c1ccc(S(C)(=O)=O)cc1
REMARK SMILES IDX 10 1 9 2 8 3 6 4 7 5 5 7 4 8 72 9 70 10 71 11 3 12 2 13 1 14
REMARK SMILES IDX 73 15 74 16 82 17 75 18 81 19 76 20 77 21 78 22 79 23 80 24
REMARK SMILES IDX 11 25 12 26 13 27 14 28 15 30 16 31 17 32 69 33 18 34 68 35
REMARK SMILES IDX 19 36 20 37 21 38 62 39 22 40 67 41 61 42 63 43 23 44 66 45
REMARK SMILES IDX 60 46 59 47 24 49 50 50 33 51 49 52 34 53 37 54 48 55 64 56
REMARK SMILES IDX 35 57 36 58 47 60 65 61 38 62 25 63 26 64 31 65 27 66 28 67
REMARK SMILES IDX 30 68 32 69 29 70 51 71 52 72 57 73 53 74 54 75 56 76 58 77
REMARK SMILES IDX 55 78 39 79 40 80 45 81 41 82 42 83 44 84 46 85 43 86
REMARK H PARENT 8 6 13 29 63 48 37 59
REMARK Flexibility Score: inf
ROOT
ATOM      1  C   UNL A   1      32.567  28.873  26.838  1.00  0.00     0.023 C 
ENDROOT
BRANCH   1   2
ATOM      2  C   UNL A   1      32.000  27.871  25.838  1.00  0.00     0.116 C 
BRANCH   2   3
ATOM      3  N   UNL A   1      31.656  28.375  24.531  1.00  0.00    -0.351 N 
ATOM      4  C   UNL A   1      31.655  27.722  23.314  1.00  0.00     0.273 C 
ATOM      5  O   UNL A   1      31.234  28.360  22.348  1.00  0.00    -0.267 OA
ATOM      6  H   UNL A   1      31.382  29.320  24.503  1.00  0.00     0.163 HD
BRANCH   4   7
ATOM      7  C   UNL A   1      32.186  26.364  23.156  1.00  0.00     0.176 A 
ATOM      8  C   UNL A   1      31.702  25.101  23.505  1.00  0.00     0.103 A 
ATOM      9  N   UNL A   1      32.696  24.229  23.061  1.00  0.00    -0.214 N 
ATOM     10  N   UNL A   1      33.384  26.208  22.503  1.00  0.00    -0.124 NA
ATOM     11  N   UNL A   1      33.719  24.933  22.528  1.00  0.00    -0.061 NA
BRANCH   8  12
ATOM     12  C   UNL A   1      30.510  24.641  24.252  1.00  0.00     0.218 C 
BRANCH  12  13
ATOM     13  O   UNL A   1      30.779  24.636  25.648  1.00  0.00    -0.378 OA
ATOM     14  C   UNL A   1      30.678  23.356  26.258  1.00  0.00     0.195 C 
ENDBRANCH  12  13
ENDBRANCH   8  12
BRANCH   9  15
ATOM     15  C   UNL A   1      32.817  22.821  23.211  1.00  0.00     0.067 A 
ATOM     16  C   UNL A   1      33.636  22.329  24.241  1.00  0.00     0.030 A 
ATOM     17  C   UNL A   1      32.102  21.926  22.405  1.00  0.00     0.030 A 
ATOM     18  C   UNL A   1      33.658  20.962  24.525  1.00  0.00     0.022 A 
ATOM     19  C   UNL A   1      32.135  20.557  22.677  1.00  0.00     0.022 A 
ATOM     20  C   UNL A   1      32.900  20.085  23.745  1.00  0.00     0.067 A 
BRANCH  20  21
ATOM     21  S   UNL A   1      32.881  18.357  24.157  1.00  0.00     0.175 S 
ATOM     22  C   UNL A   1      34.585  17.972  24.457  1.00  0.00     0.163 C 
ATOM     23  O   UNL A   1      32.153  18.234  25.405  1.00  0.00    -0.224 OA
ATOM     24  O   UNL A   1      32.467  17.627  22.974  1.00  0.00    -0.224 OA
ENDBRANCH  20  21
ENDBRANCH   9  15
ENDBRANCH   4   7
ENDBRANCH   2   3
ENDBRANCH   1   2
BRANCH   1  25
ATOM     25  C   UNL A   1      33.938  29.478  26.517  1.00  0.00     0.023 C 
BRANCH  25  26
ATOM     26  C   UNL A   1      35.086  29.068  27.431  1.00  0.00     0.116 C 
BRANCH  26  27
ATOM     27  N   UNL A   1      35.237  29.878  28.633  1.00  0.00    -0.352 N 
ATOM     28  C   UNL A   1      36.330  29.896  29.492  1.00  0.00     0.251 C 
ATOM     29  H   UNL A   1      34.487  30.474  28.861  1.00  0.00     0.163 HD
ATOM     30  O   UNL A   1      36.260  30.405  30.593  1.00  0.00    -0.269 OA
BRANCH  28  31
ATOM     31  C   UNL A   1      37.587  29.257  29.036  1.00  0.00     0.039 A 
ATOM     32  C   UNL A   1      38.226  29.689  27.873  1.00  0.00     0.014 A 
ATOM     33  C   UNL A   1      38.160  28.265  29.832  1.00  0.00     0.014 A 
ATOM     34  C   UNL A   1      39.499  29.195  27.582  1.00  0.00     0.010 A 
ATOM     35  C   UNL A   1      39.463  27.871  29.609  1.00  0.00     0.010 A 
ATOM     36  C   UNL A   1      40.138  28.317  28.477  1.00  0.00    -0.014 A 
BRANCH  36  37
ATOM     37  C   UNL A   1      41.558  27.990  28.295  1.00  0.00     0.031 A 
ATOM     38  C   UNL A   1      41.810  26.718  27.560  1.00  0.00     0.074 A 
ATOM     39  C   UNL A   1      42.593  28.805  28.602  1.00  0.00     0.049 A 
ATOM     40  N   UNL A   1      42.280  25.619  28.050  1.00  0.00    -0.248 NA
ATOM     41  C   UNL A   1      41.384  26.604  26.156  1.00  0.00     0.031 C 
ATOM     42  C   UNL A   1      42.545  30.194  29.074  1.00  0.00     0.029 A 
ATOM     43  N   UNL A   1      43.937  28.576  28.484  1.00  0.00    -0.354 N 
ATOM     44  C   UNL A   1      42.400  24.732  26.982  1.00  0.00     0.074 A 
ATOM     45  C   UNL A   1      41.699  25.335  25.878  1.00  0.00     0.031 C 
ATOM     46  C   UNL A   1      43.775  30.749  28.997  1.00  0.00     0.029 A 
ATOM     47  C   UNL A   1      44.728  29.707  28.660  1.00  0.00     0.049 A 
ATOM     48  H   UNL A   1      44.313  27.687  28.292  1.00  0.00     0.167 HD
ATOM     49  C   UNL A   1      43.276  23.691  27.044  1.00  0.00     0.037 A 
ATOM     50  C   UNL A   1      46.077  29.790  28.588  1.00  0.00     0.037 A 
ATOM     51  C   UNL A   1      43.778  23.525  28.383  1.00  0.00     0.049 A 
ATOM     52  C   UNL A   1      46.620  28.446  28.862  1.00  0.00     0.074 A 
ATOM     53  C   UNL A   1      43.331  22.993  29.572  1.00  0.00     0.029 A 
ATOM     54  N   UNL A   1      44.847  24.331  28.670  1.00  0.00    -0.354 N 
ATOM     55  N   UNL A   1      46.552  27.872  30.029  1.00  0.00    -0.248 NA
ATOM     56  C   UNL A   1      46.987  27.573  27.755  1.00  0.00     0.031 C 
ATOM     57  C   UNL A   1      44.051  23.671  30.602  1.00  0.00     0.029 A 
ATOM     58  C   UNL A   1      44.936  24.569  30.013  1.00  0.00     0.049 A 
ATOM     59  H   UNL A   1      45.469  24.691  27.996  1.00  0.00     0.167 HD
ATOM     60  C   UNL A   1      46.424  26.531  29.736  1.00  0.00     0.074 A 
ATOM     61  C   UNL A   1      46.894  26.390  28.365  1.00  0.00     0.031 C 
ATOM     62  C   UNL A   1      45.645  25.725  30.510  1.00  0.00     0.037 A 
BRANCH  49  63
ATOM     63  C   UNL A   1      44.054  23.122  25.877  1.00  0.00     0.057 A 
ATOM     64  C   UNL A   1      44.078  21.726  25.686  1.00  0.00     0.134 A 
ATOM     65  C   UNL A   1      45.030  23.839  25.159  1.00  0.00     0.134 A 
ATOM     66  F   UNL A   1      43.207  20.928  26.323  1.00  0.00    -0.206 F 
ATOM     67  C   UNL A   1      45.048  21.089  24.901  1.00  0.00     0.040 A 
ATOM     68  C   UNL A   1      45.974  23.216  24.335  1.00  0.00     0.040 A 
ATOM     69  F   UNL A   1      45.192  25.160  25.298  1.00  0.00    -0.206 F 
ATOM     70  C   UNL A   1      46.007  21.834  24.228  1.00  0.00     0.006 A 
ENDBRANCH  49  63
BRANCH  50  71
ATOM     71  C   UNL A   1      46.958  30.912  28.211  1.00  0.00     0.057 A 
ATOM     72  C   UNL A   1      46.901  31.490  26.934  1.00  0.00     0.134 A 
ATOM     73  C   UNL A   1      47.644  31.641  29.195  1.00  0.00     0.134 A 
ATOM     74  F   UNL A   1      46.249  30.876  25.936  1.00  0.00    -0.206 F 
ATOM     75  C   UNL A   1      47.449  32.748  26.663  1.00  0.00     0.040 A 
ATOM     76  C   UNL A   1      48.197  32.899  28.937  1.00  0.00     0.040 A 
ATOM     77  F   UNL A   1      47.710  31.193  30.458  1.00  0.00    -0.206 F 
ATOM     78  C   UNL A   1      48.083  33.467  27.672  1.00  0.00     0.006 A 
ENDBRANCH  50  71
BRANCH  62  79
ATOM     79  C   UNL A   1      45.376  26.181  31.910  1.00  0.00     0.057 A 
ATOM     80  C   UNL A   1      44.230  26.879  32.314  1.00  0.00     0.134 A 
ATOM     81  C   UNL A   1      46.304  25.850  32.901  1.00  0.00     0.134 A 
ATOM     82  F   UNL A   1      43.255  27.177  31.445  1.00  0.00    -0.206 F 
ATOM     83  C   UNL A   1      44.039  27.265  33.644  1.00  0.00     0.040 A 
ATOM     84  C   UNL A   1      46.112  26.202  34.237  1.00  0.00     0.040 A 
ATOM     85  F   UNL A   1      47.406  25.150  32.587  1.00  0.00    -0.206 F 
ATOM     86  C   UNL A   1      44.981  26.923  34.611  1.00  0.00     0.006 A 
ENDBRANCH  62  79
ENDBRANCH  36  37
ENDBRANCH  28  31
ENDBRANCH  26  27
ENDBRANCH  25  26
ENDBRANCH   1  25
TORSDOF 15
ENDMDL
MODEL 2
REMARK VINA RESULT:     -11.7      1.923      5.994
REMARK SMILES COCc1c(C(=O)NCCCCNC(=O)c2ccc(-c3c4nc(c(-c5c(F)cccc5F)c5ccc([nH]5)c(-c5c(F)cccc5F)c5nc(c(-c6c(F)cccc6F)c6ccc3[nH]6)C=C5)C=C4)cc2)nnn1-c1ccc(S(C)(=O)=O)cc1
REMARK SMILES IDX 10 1 9 2 8 3 6 4 7 5 5 7 4 8 72 9 70 10 71 11 3 12 2 13 1 14
REMARK SMILES IDX 73 15 74 16 82 17 75 18 81 19 76 20 77 21 78 22 79 23 80 24
REMARK SMILES IDX 11 25 12 26 13 27 14 28 15 30 16 31 17 32 69 33 18 34 68 35
REMARK SMILES IDX 19 36 20 37 21 38 62 39 22 40 67 41 61 42 63 43 23 44 66 45
REMARK SMILES IDX 60 46 59 47 24 49 50 50 33 51 49 52 34 53 37 54 48 55 64 56
REMARK SMILES IDX 35 57 36 58 47 60 65 61 38 62 25 63 26 64 31 65 27 66 28 67
REMARK SMILES IDX 30 68 32 69 29 70 51 71 52 72 57 73 53 74 54 75 56 76 58 77
REMARK SMILES IDX 55 78 39 79 40 80 45 81 41 82 42 83 44 84 46 85 43 86
REMARK H PARENT 8 6 13 29 63 48 37 59
REMARK Flexibility Score: inf
ROOT
ATOM      1  C   UNL A   1      33.287  29.055  26.945  1.00  0.00     0.023 C 
ENDROOT
BRANCH   1   2
ATOM      2  C   UNL A   1      33.696  28.724  25.513  1.00  0.00     0.116 C 
BRANCH   2   3
ATOM      3  N   UNL A   1      32.782  29.111  24.467  1.00  0.00    -0.351 N 
ATOM      4  C   UNL A   1      32.216  28.340  23.470  1.00  0.00     0.273 C 
ATOM      5  O   UNL A   1      31.392  28.899  22.744  1.00  0.00    -0.267 OA
ATOM      6  H   UNL A   1      32.525  30.061  24.462  1.00  0.00     0.163 HD
BRANCH   4   7
ATOM      7  C   UNL A   1      32.614  26.948  23.239  1.00  0.00     0.176 A 
ATOM      8  C   UNL A   1      32.169  25.727  23.751  1.00  0.00     0.103 A 
ATOM      9  N   UNL A   1      32.967  24.784  23.106  1.00  0.00    -0.214 N 
ATOM     10  N   UNL A   1      33.596  26.700  22.310  1.00  0.00    -0.124 NA
ATOM     11  N   UNL A   1      33.856  25.408  22.302  1.00  0.00    -0.061 NA
BRANCH   8  12
ATOM     12  C   UNL A   1      31.183  25.363  24.793  1.00  0.00     0.218 C 
BRANCH  12  13
ATOM     13  O   UNL A   1      31.827  25.245  26.055  1.00  0.00    -0.378 OA
ATOM     14  C   UNL A   1      31.622  23.995  26.701  1.00  0.00     0.195 C 
ENDBRANCH  12  13
ENDBRANCH   8  12
BRANCH   9  15
ATOM     15  C   UNL A   1      33.046  23.375  23.277  1.00  0.00     0.067 A 
ATOM     16  C   UNL A   1      34.104  22.856  24.043  1.00  0.00     0.030 A 
ATOM     17  C   UNL A   1      32.074  22.510  22.759  1.00  0.00     0.030 A 
ATOM     18  C   UNL A   1      34.130  21.499  24.371  1.00  0.00     0.022 A 
ATOM     19  C   UNL A   1      32.108  21.149  23.071  1.00  0.00     0.022 A 
ATOM     20  C   UNL A   1      33.126  20.655  23.888  1.00  0.00     0.067 A 
BRANCH  20  21
ATOM     21  S   UNL A   1      33.130  18.944  24.366  1.00  0.00     0.175 S 
ATOM     22  C   UNL A   1      32.522  18.099  22.931  1.00  0.00     0.163 C 
ATOM     23  O   UNL A   1      34.517  18.571  24.567  1.00  0.00    -0.224 OA
ATOM     24  O   UNL A   1      32.150  18.780  25.422  1.00  0.00    -0.224 OA
ENDBRANCH  20  21
ENDBRANCH   9  15
ENDBRANCH   4   7
ENDBRANCH   2   3
ENDBRANCH   1   2
BRANCH   1  25
ATOM     25  C   UNL A   1      33.008  30.526  27.268  1.00  0.00     0.023 C 
BRANCH  25  26
ATOM     26  C   UNL A   1      34.227  31.410  27.498  1.00  0.00     0.116 C 
BRANCH  26  27
ATOM     27  N   UNL A   1      34.238  32.128  28.766  1.00  0.00    -0.352 N 
ATOM     28  C   UNL A   1      35.146  31.968  29.806  1.00  0.00     0.251 C 
ATOM     29  H   UNL A   1      33.529  32.798  28.899  1.00  0.00     0.163 HD
ATOM     30  O   UNL A   1      34.927  32.421  30.912  1.00  0.00    -0.269 OA
BRANCH  28  31
ATOM     31  C   UNL A   1      36.389  31.206  29.537  1.00  0.00     0.039 A 
ATOM     32  C   UNL A   1      37.627  31.850  29.504  1.00  0.00     0.014 A 
ATOM     33  C   UNL A   1      36.307  29.822  29.392  1.00  0.00     0.014 A 
ATOM     34  C   UNL A   1      38.786  31.075  29.437  1.00  0.00     0.010 A 
ATOM     35  C   UNL A   1      37.452  29.054  29.450  1.00  0.00     0.010 A 
ATOM     36  C   UNL A   1      38.699  29.670  29.457  1.00  0.00    -0.014 A 
BRANCH  36  37
ATOM     37  C   UNL A   1      39.914  28.863  29.630  1.00  0.00     0.031 A 
ATOM     38  C   UNL A   1      40.363  28.718  31.044  1.00  0.00     0.074 A 
ATOM     39  C   UNL A   1      40.528  28.156  28.654  1.00  0.00     0.049 A 
ATOM     40  N   UNL A   1      41.409  29.247  31.584  1.00  0.00    -0.248 NA
ATOM     41  C   UNL A   1      39.498  28.010  32.002  1.00  0.00     0.031 C 
ATOM     42  C   UNL A   1      40.088  27.951  27.269  1.00  0.00     0.029 A 
ATOM     43  N   UNL A   1      41.665  27.398  28.722  1.00  0.00    -0.354 N 
ATOM     44  C   UNL A   1      41.452  28.783  32.897  1.00  0.00     0.074 A 
ATOM     45  C   UNL A   1      40.182  28.152  33.142  1.00  0.00     0.031 C 
ATOM     46  C   UNL A   1      40.815  26.965  26.697  1.00  0.00     0.029 A 
ATOM     47  C   UNL A   1      41.894  26.608  27.600  1.00  0.00     0.049 A 
ATOM     48  H   UNL A   1      42.270  27.411  29.498  1.00  0.00     0.167 HD
ATOM     49  C   UNL A   1      42.631  28.753  33.581  1.00  0.00     0.037 A 
ATOM     50  C   UNL A   1      42.921  25.751  27.389  1.00  0.00     0.037 A 
ATOM     51  C   UNL A   1      43.649  29.486  32.875  1.00  0.00     0.049 A 
ATOM     52  C   UNL A   1      44.044  26.187  28.241  1.00  0.00     0.074 A 
ATOM     53  C   UNL A   1      43.995  30.804  32.682  1.00  0.00     0.029 A 
ATOM     54  N   UNL A   1      44.286  28.749  31.914  1.00  0.00    -0.354 N 
ATOM     55  N   UNL A   1      44.706  27.291  28.042  1.00  0.00    -0.248 NA
ATOM     56  C   UNL A   1      44.265  25.547  29.531  1.00  0.00     0.031 C 
ATOM     57  C   UNL A   1      44.705  30.848  31.444  1.00  0.00     0.029 A 
ATOM     58  C   UNL A   1      44.800  29.555  30.937  1.00  0.00     0.049 A 
ATOM     59  H   UNL A   1      44.363  27.767  31.926  1.00  0.00     0.167 HD
ATOM     60  C   UNL A   1      45.055  27.704  29.309  1.00  0.00     0.074 A 
ATOM     61  C   UNL A   1      44.941  26.519  30.148  1.00  0.00     0.031 C 
ATOM     62  C   UNL A   1      45.082  29.030  29.621  1.00  0.00     0.037 A 
BRANCH  49  63
ATOM     63  C   UNL A   1      43.030  27.711  34.604  1.00  0.00     0.057 A 
ATOM     64  C   UNL A   1      43.298  26.397  34.171  1.00  0.00     0.134 A 
ATOM     65  C   UNL A   1      42.832  27.854  35.990  1.00  0.00     0.134 A 
ATOM     66  F   UNL A   1      43.494  26.125  32.872  1.00  0.00    -0.206 F 
ATOM     67  C   UNL A   1      43.295  25.300  35.045  1.00  0.00     0.040 A 
ATOM     68  C   UNL A   1      42.873  26.772  36.877  1.00  0.00     0.040 A 
ATOM     69  F   UNL A   1      42.485  29.022  36.545  1.00  0.00    -0.206 F 
ATOM     70  C   UNL A   1      43.073  25.485  36.403  1.00  0.00     0.006 A 
ENDBRANCH  49  63
BRANCH  50  71
ATOM     71  C   UNL A   1      43.003  24.520  26.580  1.00  0.00     0.057 A 
ATOM     72  C   UNL A   1      43.644  24.507  25.332  1.00  0.00     0.134 A 
ATOM     73  C   UNL A   1      42.735  23.269  27.156  1.00  0.00     0.134 A 
ATOM     74  F   UNL A   1      43.960  25.655  24.715  1.00  0.00    -0.206 F 
ATOM     75  C   UNL A   1      44.046  23.317  24.716  1.00  0.00     0.040 A 
ATOM     76  C   UNL A   1      43.130  22.072  26.550  1.00  0.00     0.040 A 
ATOM     77  F   UNL A   1      42.168  23.181  28.369  1.00  0.00    -0.206 F 
ATOM     78  C   UNL A   1      43.807  22.094  25.335  1.00  0.00     0.006 A 
ENDBRANCH  50  71
BRANCH  62  79
ATOM     79  C   UNL A   1      45.236  29.993  28.486  1.00  0.00     0.057 A 
ATOM     80  C   UNL A   1      44.173  30.621  27.824  1.00  0.00     0.134 A 
ATOM     81  C   UNL A   1      46.530  30.333  28.081  1.00  0.00     0.134 A 
ATOM     82  F   UNL A   1      42.903  30.408  28.192  1.00  0.00    -0.206 F 
ATOM     83  C   UNL A   1      44.392  31.519  26.775  1.00  0.00     0.040 A 
ATOM     84  C   UNL A   1      46.764  31.251  27.058  1.00  0.00     0.040 A 
ATOM     85  F   UNL A   1      47.594  29.794  28.699  1.00  0.00    -0.206 F 
ATOM     86  C   UNL A   1      45.692  31.839  26.392  1.00  0.00     0.006 A 
ENDBRANCH  62  79
ENDBRANCH  36  37
ENDBRANCH  28  31
ENDBRANCH  26  27
ENDBRANCH  25  26
ENDBRANCH   1  25
TORSDOF 15
ENDMDL
MODEL 3
REMARK VINA RESULT:     -11.6      3.743      8.085
REMARK SMILES COCc1c(C(=O)NCCCCNC(=O)c2ccc(-c3c4nc(c(-c5c(F)cccc5F)c5ccc([nH]5)c(-c5c(F)cccc5F)c5nc(c(-c6c(F)cccc6F)c6ccc3[nH]6)C=C5)C=C4)cc2)nnn1-c1ccc(S(C)(=O)=O)cc1
REMARK SMILES IDX 10 1 9 2 8 3 6 4 7 5 5 7 4 8 72 9 70 10 71 11 3 12 2 13 1 14
REMARK SMILES IDX 73 15 74 16 82 17 75 18 81 19 76 20 77 21 78 22 79 23 80 24
REMARK SMILES IDX 11 25 12 26 13 27 14 28 15 30 16 31 17 32 69 33 18 34 68 35
REMARK SMILES IDX 19 36 20 37 21 38 62 39 22 40 67 41 61 42 63 43 23 44 66 45
REMARK SMILES IDX 60 46 59 47 24 49 50 50 33 51 49 52 34 53 37 54 48 55 64 56
REMARK SMILES IDX 35 57 36 58 47 60 65 61 38 62 25 63 26 64 31 65 27 66 28 67
REMARK SMILES IDX 30 68 32 69 29 70 51 71 52 72 57 73 53 74 54 75 56 76 58 77
REMARK SMILES IDX 55 78 39 79 40 80 45 81 41 82 42 83 44 84 46 85 43 86
REMARK H PARENT 8 6 13 29 63 48 37 59
REMARK Flexibility Score: inf
ROOT
ATOM      1  C   UNL A   1      37.112  22.894  25.102  1.00  0.00     0.023 C 
ENDROOT
BRANCH   1   2
ATOM      2  C   UNL A   1      36.004  23.107  26.128  1.00  0.00     0.116 C 
BRANCH   2   3
ATOM      3  N   UNL A   1      35.226  21.951  26.500  1.00  0.00    -0.351 N 
ATOM      4  C   UNL A   1      33.855  21.806  26.572  1.00  0.00     0.273 C 
ATOM      5  O   UNL A   1      33.434  20.679  26.837  1.00  0.00    -0.267 OA
ATOM      6  H   UNL A   1      35.747  21.150  26.736  1.00  0.00     0.163 HD
BRANCH   4   7
ATOM      7  C   UNL A   1      32.940  22.941  26.408  1.00  0.00     0.176 A 
ATOM      8  C   UNL A   1      32.548  23.703  25.305  1.00  0.00     0.103 A 
ATOM      9  N   UNL A   1      31.645  24.622  25.838  1.00  0.00    -0.214 N 
ATOM     10  N   UNL A   1      32.252  23.384  27.512  1.00  0.00    -0.124 NA
ATOM     11  N   UNL A   1      31.545  24.444  27.174  1.00  0.00    -0.061 NA
BRANCH   8  12
ATOM     12  C   UNL A   1      32.970  23.727  23.886  1.00  0.00     0.218 C 
BRANCH  12  13
ATOM     13  O   UNL A   1      33.938  24.746  23.680  1.00  0.00    -0.378 OA
ATOM     14  C   UNL A   1      33.655  25.609  22.586  1.00  0.00     0.195 C 
ENDBRANCH  12  13
ENDBRANCH   8  12
BRANCH   9  15
ATOM     15  C   UNL A   1      30.978  25.717  25.225  1.00  0.00     0.067 A 
ATOM     16  C   UNL A   1      31.623  26.965  25.208  1.00  0.00     0.030 A 
ATOM     17  C   UNL A   1      29.737  25.568  24.593  1.00  0.00     0.030 A 
ATOM     18  C   UNL A   1      31.078  28.024  24.479  1.00  0.00     0.022 A 
ATOM     19  C   UNL A   1      29.182  26.631  23.877  1.00  0.00     0.022 A 
ATOM     20  C   UNL A   1      29.863  27.847  23.812  1.00  0.00     0.067 A 
BRANCH  20  21
ATOM     21  S   UNL A   1      29.213  29.178  22.831  1.00  0.00     0.175 S 
ATOM     22  C   UNL A   1      29.521  30.621  23.814  1.00  0.00     0.163 C 
ATOM     23  O   UNL A   1      30.029  29.252  21.635  1.00  0.00    -0.224 OA
ATOM     24  O   UNL A   1      27.776  29.002  22.748  1.00  0.00    -0.224 OA
ENDBRANCH  20  21
ENDBRANCH   9  15
ENDBRANCH   4   7
ENDBRANCH   2   3
ENDBRANCH   1   2
BRANCH   1  25
ATOM     25  C   UNL A   1      38.158  21.821  25.418  1.00  0.00     0.023 C 
BRANCH  25  26
ATOM     26  C   UNL A   1      39.177  22.169  26.495  1.00  0.00     0.116 C 
BRANCH  26  27
ATOM     27  N   UNL A   1      40.571  22.090  26.075  1.00  0.00    -0.352 N 
ATOM     28  C   UNL A   1      41.517  23.107  26.135  1.00  0.00     0.251 C 
ATOM     29  H   UNL A   1      40.874  21.227  25.712  1.00  0.00     0.163 HD
ATOM     30  O   UNL A   1      42.569  23.027  25.532  1.00  0.00    -0.269 OA
BRANCH  28  31
ATOM     31  C   UNL A   1      41.200  24.310  26.940  1.00  0.00     0.039 A 
ATOM     32  C   UNL A   1      41.896  24.583  28.118  1.00  0.00     0.014 A 
ATOM     33  C   UNL A   1      40.244  25.204  26.459  1.00  0.00     0.014 A 
ATOM     34  C   UNL A   1      41.701  25.815  28.744  1.00  0.00     0.010 A 
ATOM     35  C   UNL A   1      40.144  26.466  27.008  1.00  0.00     0.010 A 
ATOM     36  C   UNL A   1      40.857  26.779  28.161  1.00  0.00    -0.014 A 
BRANCH  36  37
ATOM     37  C   UNL A   1      40.839  28.151  28.683  1.00  0.00     0.031 A 
ATOM     38  C   UNL A   1      41.962  29.008  28.206  1.00  0.00     0.074 A 
ATOM     39  C   UNL A   1      39.837  28.698  29.408  1.00  0.00     0.049 A 
ATOM     40  N   UNL A   1      42.959  29.438  28.903  1.00  0.00    -0.248 NA
ATOM     41  C   UNL A   1      42.061  29.328  26.772  1.00  0.00     0.031 C 
ATOM     42  C   UNL A   1      38.536  28.110  29.746  1.00  0.00     0.029 A 
ATOM     43  N   UNL A   1      39.747  29.952  29.948  1.00  0.00    -0.354 N 
ATOM     44  C   UNL A   1      43.712  30.248  28.055  1.00  0.00     0.074 A 
ATOM     45  C   UNL A   1      43.201  30.025  26.728  1.00  0.00     0.031 C 
ATOM     46  C   UNL A   1      37.713  29.064  30.235  1.00  0.00     0.029 A 
ATOM     47  C   UNL A   1      38.483  30.279  30.430  1.00  0.00     0.049 A 
ATOM     48  H   UNL A   1      40.511  30.572  29.992  1.00  0.00     0.167 HD
ATOM     49  C   UNL A   1      44.530  31.211  28.565  1.00  0.00     0.037 A 
ATOM     50  C   UNL A   1      38.092  31.443  30.999  1.00  0.00     0.037 A 
ATOM     51  C   UNL A   1      44.680  31.052  29.988  1.00  0.00     0.049 A 
ATOM     52  C   UNL A   1      39.296  32.093  31.551  1.00  0.00     0.074 A 
ATOM     53  C   UNL A   1      45.389  30.241  30.845  1.00  0.00     0.029 A 
ATOM     54  N   UNL A   1      43.678  31.640  30.711  1.00  0.00    -0.354 N 
ATOM     55  N   UNL A   1      39.958  31.625  32.570  1.00  0.00    -0.248 NA
ATOM     56  C   UNL A   1      39.975  33.129  30.784  1.00  0.00     0.031 C 
ATOM     57  C   UNL A   1      44.647  30.214  32.065  1.00  0.00     0.029 A 
ATOM     58  C   UNL A   1      43.529  31.033  31.927  1.00  0.00     0.049 A 
ATOM     59  H   UNL A   1      43.136  32.400  30.397  1.00  0.00     0.167 HD
ATOM     60  C   UNL A   1      41.266  31.968  32.306  1.00  0.00     0.074 A 
ATOM     61  C   UNL A   1      41.193  33.043  31.325  1.00  0.00     0.031 C 
ATOM     62  C   UNL A   1      42.284  31.133  32.653  1.00  0.00     0.037 A 
BRANCH  49  63
ATOM     63  C   UNL A   1      44.817  32.553  27.926  1.00  0.00     0.057 A 
ATOM     64  C   UNL A   1      43.787  33.513  27.861  1.00  0.00     0.134 A 
ATOM     65  C   UNL A   1      45.923  32.806  27.092  1.00  0.00     0.134 A 
ATOM     66  F   UNL A   1      42.674  33.381  28.598  1.00  0.00    -0.206 F 
ATOM     67  C   UNL A   1      43.824  34.600  26.977  1.00  0.00     0.040 A 
ATOM     68  C   UNL A   1      45.990  33.915  26.240  1.00  0.00     0.040 A 
ATOM     69  F   UNL A   1      46.942  31.947  26.977  1.00  0.00    -0.206 F 
ATOM     70  C   UNL A   1      44.926  34.799  26.155  1.00  0.00     0.006 A 
ENDBRANCH  49  63
BRANCH  50  71
ATOM     71  C   UNL A   1      36.775  32.106  31.038  1.00  0.00     0.057 A 
ATOM     72  C   UNL A   1      36.012  32.148  32.215  1.00  0.00     0.134 A 
ATOM     73  C   UNL A   1      36.387  32.981  30.012  1.00  0.00     0.134 A 
ATOM     74  F   UNL A   1      36.321  31.364  33.257  1.00  0.00    -0.206 F 
ATOM     75  C   UNL A   1      34.954  33.049  32.382  1.00  0.00     0.040 A 
ATOM     76  C   UNL A   1      35.331  33.885  30.166  1.00  0.00     0.040 A 
ATOM     77  F   UNL A   1      37.085  33.048  28.868  1.00  0.00    -0.206 F 
ATOM     78  C   UNL A   1      34.623  33.936  31.363  1.00  0.00     0.006 A 
ENDBRANCH  50  71
BRANCH  62  79
ATOM     79  C   UNL A   1      42.010  30.142  33.740  1.00  0.00     0.057 A 
ATOM     80  C   UNL A   1      41.611  28.816  33.528  1.00  0.00     0.134 A 
ATOM     81  C   UNL A   1      42.210  30.544  35.064  1.00  0.00     0.134 A 
ATOM     82  F   UNL A   1      41.463  28.324  32.291  1.00  0.00    -0.206 F 
ATOM     83  C   UNL A   1      41.381  27.941  34.595  1.00  0.00     0.040 A 
ATOM     84  C   UNL A   1      42.014  29.673  36.136  1.00  0.00     0.040 A 
ATOM     85  F   UNL A   1      42.628  31.792  35.335  1.00  0.00    -0.206 F 
ATOM     86  C   UNL A   1      41.587  28.369  35.903  1.00  0.00     0.006 A 
ENDBRANCH  62  79
ENDBRANCH  36  37
ENDBRANCH  28  31
ENDBRANCH  26  27
ENDBRANCH  25  26
ENDBRANCH   1  25
TORSDOF 15
ENDMDL
