MODEL 1
REMARK VINA RESULT:     -11.5      0.000      0.000
REMARK SMILES CC(C)C[C@H](NC(=O)[C@H](Cc1ccccc1)NC(=O)CNC(=O)CNC(=O)OCc1ccccc1)C(=O)NCCCCNC(=O)c1ccc(-c2c3nc(c(-c4c(F)cccc4F)c4ccc([nH]4)c(-c4c(F)cccc4F)c4nc(c(-c5c(F)cccc5F)c5ccc2[nH]5)C=C4)C=C3)cc1
REMARK SMILES IDX 6 1 7 2 8 3 5 5 4 6 2 7 1 8 3 9 36 10 37 11 38 12 39 14
REMARK SMILES IDX 40 15 41 16 42 17 43 18 44 19 45 21 46 22 47 23 99 24 48 25
REMARK SMILES IDX 98 26 49 27 50 28 51 29 92 30 52 31 97 32 91 33 93 34 53 35
REMARK SMILES IDX 96 36 90 37 89 38 54 40 80 41 63 42 79 43 64 44 67 45 78 46
REMARK SMILES IDX 94 47 65 48 66 49 77 51 95 52 68 53 55 54 56 55 61 56 57 57
REMARK SMILES IDX 58 58 60 59 62 60 59 61 81 62 82 63 87 64 83 65 84 66 86 67
REMARK SMILES IDX 88 68 85 69 69 70 70 71 75 72 71 73 72 74 74 75 76 76 73 77
REMARK SMILES IDX 9 78 17 79 18 80 19 82 20 83 21 84 22 85 23 87 24 88 25 89
REMARK SMILES IDX 26 90 27 92 28 93 29 94 30 95 31 96 35 97 32 98 34 99 33 100
REMARK SMILES IDX 10 101 11 102 12 103 16 104 13 105 15 106 14 107
REMARK H PARENT 6 4 38 13 43 20 93 39 67 50 17 81 21 86 25 91
REMARK Flexibility Score: inf
ROOT
ATOM      1  N   UNL A   1      33.677  23.902  24.693  1.00  0.00    -0.343 N 
ATOM      2  C   UNL A   1      34.757  23.604  25.476  1.00  0.00     0.243 C 
ATOM      3  O   UNL A   1      34.694  23.696  26.698  1.00  0.00    -0.273 OA
ATOM      4  H   UNL A   1      32.780  23.907  25.098  1.00  0.00     0.164 HD
ENDROOT
BRANCH   1   5
ATOM      5  C   UNL A   1      33.813  24.207  23.289  1.00  0.00     0.171 C 
BRANCH   5   6
ATOM      6  C   UNL A   1      33.514  22.875  22.422  1.00  0.00     0.038 C 
BRANCH   6   7
ATOM      7  C   UNL A   1      32.133  22.039  22.308  1.00  0.00    -0.015 C 
ATOM      8  C   UNL A   1      32.077  20.510  22.230  1.00  0.00     0.007 C 
ATOM      9  C   UNL A   1      31.079  22.464  23.357  1.00  0.00     0.007 C 
ENDBRANCH   6   7
ENDBRANCH   5   6
BRANCH   5  10
ATOM     10  C   UNL A   1      33.708  25.925  23.049  1.00  0.00     0.242 C 
ATOM     11  O   UNL A   1      33.968  26.268  21.873  1.00  0.00    -0.273 OA
ATOM     12  N   UNL A   1      33.573  27.060  23.850  1.00  0.00    -0.354 N 
ATOM     13  H   UNL A   1      33.868  27.795  23.266  1.00  0.00     0.163 HD
BRANCH  12  14
ATOM     14  C   UNL A   1      33.196  27.781  25.195  1.00  0.00     0.116 C 
BRANCH  14  15
ATOM     15  C   UNL A   1      33.434  29.293  25.442  1.00  0.00     0.023 C 
BRANCH  15  16
ATOM     16  C   UNL A   1      32.180  30.147  25.533  1.00  0.00     0.023 C 
BRANCH  16  17
ATOM     17  C   UNL A   1      32.000  30.667  26.946  1.00  0.00     0.116 C 
BRANCH  17  18
ATOM     18  N   UNL A   1      32.002  32.135  27.005  1.00  0.00    -0.352 N 
ATOM     19  C   UNL A   1      32.915  33.014  27.562  1.00  0.00     0.251 C 
ATOM     20  H   UNL A   1      31.226  32.564  26.577  1.00  0.00     0.163 HD
ATOM     21  O   UNL A   1      32.642  34.204  27.665  1.00  0.00    -0.269 OA
BRANCH  19  22
ATOM     22  C   UNL A   1      34.206  32.491  28.056  1.00  0.00     0.039 A 
ATOM     23  C   UNL A   1      35.317  33.316  28.247  1.00  0.00     0.014 A 
ATOM     24  C   UNL A   1      34.280  31.151  28.400  1.00  0.00     0.014 A 
ATOM     25  C   UNL A   1      36.462  32.790  28.861  1.00  0.00     0.010 A 
ATOM     26  C   UNL A   1      35.292  30.712  29.223  1.00  0.00     0.010 A 
ATOM     27  C   UNL A   1      36.440  31.492  29.396  1.00  0.00    -0.014 A 
BRANCH  27  28
ATOM     28  C   UNL A   1      37.603  30.830  30.041  1.00  0.00     0.031 A 
ATOM     29  C   UNL A   1      37.885  31.125  31.500  1.00  0.00     0.074 A 
ATOM     30  C   UNL A   1      38.463  30.089  29.318  1.00  0.00     0.049 A 
ATOM     31  N   UNL A   1      38.959  30.884  32.207  1.00  0.00    -0.248 NA
ATOM     32  C   UNL A   1      36.852  31.879  32.239  1.00  0.00     0.031 C 
ATOM     33  C   UNL A   1      38.344  29.788  27.890  1.00  0.00     0.029 A 
ATOM     34  N   UNL A   1      39.626  29.466  29.692  1.00  0.00    -0.354 N 
ATOM     35  C   UNL A   1      38.745  31.508  33.432  1.00  0.00     0.074 A 
ATOM     36  C   UNL A   1      37.503  32.233  33.333  1.00  0.00     0.031 C 
ATOM     37  C   UNL A   1      39.369  29.003  27.520  1.00  0.00     0.029 A 
ATOM     38  C   UNL A   1      40.243  28.790  28.667  1.00  0.00     0.049 A 
ATOM     39  H   UNL A   1      39.985  29.500  30.608  1.00  0.00     0.167 HD
ATOM     40  C   UNL A   1      39.484  31.436  34.564  1.00  0.00     0.037 A 
ATOM     41  C   UNL A   1      41.389  28.084  28.664  1.00  0.00     0.037 A 
ATOM     42  C   UNL A   1      40.664  30.629  34.680  1.00  0.00     0.049 A 
ATOM     43  C   UNL A   1      42.171  27.970  29.945  1.00  0.00     0.074 A 
ATOM     44  C   UNL A   1      41.446  30.396  35.795  1.00  0.00     0.029 A 
ATOM     45  N   UNL A   1      41.215  29.897  33.637  1.00  0.00    -0.354 N 
ATOM     46  N   UNL A   1      41.928  28.514  31.114  1.00  0.00    -0.248 NA
ATOM     47  C   UNL A   1      43.381  27.138  29.909  1.00  0.00     0.031 C 
ATOM     48  C   UNL A   1      42.497  29.555  35.415  1.00  0.00     0.029 A 
ATOM     49  C   UNL A   1      42.337  29.222  34.079  1.00  0.00     0.049 A 
ATOM     50  H   UNL A   1      40.860  29.864  32.720  1.00  0.00     0.167 HD
ATOM     51  C   UNL A   1      42.935  28.066  31.960  1.00  0.00     0.074 A 
ATOM     52  C   UNL A   1      43.781  27.192  31.171  1.00  0.00     0.031 C 
ATOM     53  C   UNL A   1      43.147  28.348  33.269  1.00  0.00     0.037 A 
BRANCH  40  54
ATOM     54  C   UNL A   1      39.009  32.216  35.759  1.00  0.00     0.057 A 
ATOM     55  C   UNL A   1      38.239  31.627  36.775  1.00  0.00     0.134 A 
ATOM     56  C   UNL A   1      39.327  33.572  35.902  1.00  0.00     0.134 A 
ATOM     57  F   UNL A   1      37.883  30.335  36.697  1.00  0.00    -0.206 F 
ATOM     58  C   UNL A   1      37.770  32.366  37.862  1.00  0.00     0.040 A 
ATOM     59  C   UNL A   1      38.895  34.313  37.004  1.00  0.00     0.040 A 
ATOM     60  F   UNL A   1      40.062  34.201  34.973  1.00  0.00    -0.206 F 
ATOM     61  C   UNL A   1      38.105  33.713  37.982  1.00  0.00     0.006 A 
ENDBRANCH  40  54
BRANCH  41  62
ATOM     62  C   UNL A   1      41.840  27.400  27.425  1.00  0.00     0.057 A 
ATOM     63  C   UNL A   1      41.608  26.033  27.231  1.00  0.00     0.134 A 
ATOM     64  C   UNL A   1      42.507  28.088  26.404  1.00  0.00     0.134 A 
ATOM     65  F   UNL A   1      40.985  25.313  28.177  1.00  0.00    -0.206 F 
ATOM     66  C   UNL A   1      42.044  25.369  26.083  1.00  0.00     0.040 A 
ATOM     67  C   UNL A   1      42.924  27.443  25.238  1.00  0.00     0.040 A 
ATOM     68  F   UNL A   1      42.747  29.402  26.519  1.00  0.00    -0.206 F 
ATOM     69  C   UNL A   1      42.701  26.077  25.079  1.00  0.00     0.006 A 
ENDBRANCH  41  62
BRANCH  53  70
ATOM     70  C   UNL A   1      44.309  27.676  33.936  1.00  0.00     0.057 A 
ATOM     71  C   UNL A   1      44.195  26.408  34.519  1.00  0.00     0.134 A 
ATOM     72  C   UNL A   1      45.570  28.285  33.945  1.00  0.00     0.134 A 
ATOM     73  F   UNL A   1      43.012  25.776  34.549  1.00  0.00    -0.206 F 
ATOM     74  C   UNL A   1      45.291  25.780  35.111  1.00  0.00     0.040 A 
ATOM     75  C   UNL A   1      46.680  27.653  34.506  1.00  0.00     0.040 A 
ATOM     76  F   UNL A   1      45.749  29.493  33.389  1.00  0.00    -0.206 F 
ATOM     77  C   UNL A   1      46.539  26.400  35.098  1.00  0.00     0.006 A 
ENDBRANCH  53  70
ENDBRANCH  27  28
ENDBRANCH  19  22
ENDBRANCH  17  18
ENDBRANCH  16  17
ENDBRANCH  15  16
ENDBRANCH  14  15
ENDBRANCH  12  14
ENDBRANCH   5  10
ENDBRANCH   1   5
BRANCH   2  78
ATOM     78  C   UNL A   1      35.949  22.994  24.729  1.00  0.00     0.175 C 
BRANCH  78  79
ATOM     79  N   UNL A   1      37.047  23.647  25.617  1.00  0.00    -0.342 N 
ATOM     80  C   UNL A   1      38.196  23.637  26.328  1.00  0.00     0.240 C 
ATOM     81  H   UNL A   1      36.732  24.575  25.715  1.00  0.00     0.164 HD
ATOM     82  O   UNL A   1      38.316  24.662  27.035  1.00  0.00    -0.273 OA
BRANCH  80  83
ATOM     83  C   UNL A   1      39.426  22.677  26.410  1.00  0.00     0.216 C 
BRANCH  83  84
ATOM     84  N   UNL A   1      39.626  21.309  25.954  1.00  0.00    -0.346 N 
ATOM     85  C   UNL A   1      40.559  20.354  26.184  1.00  0.00     0.239 C 
ATOM     86  H   UNL A   1      38.921  21.009  25.336  1.00  0.00     0.164 HD
ATOM     87  O   UNL A   1      40.222  19.196  25.912  1.00  0.00    -0.273 OA
BRANCH  85  88
ATOM     88  C   UNL A   1      41.920  20.621  26.825  1.00  0.00     0.219 C 
BRANCH  88  89
ATOM     89  N   UNL A   1      43.046  20.288  25.995  1.00  0.00    -0.312 N 
ATOM     90  C   UNL A   1      43.923  21.172  25.475  1.00  0.00     0.407 C 
ATOM     91  H   UNL A   1      43.188  19.336  25.789  1.00  0.00     0.167 HD
ATOM     92  O   UNL A   1      44.580  20.890  24.478  1.00  0.00    -0.225 OA
BRANCH  90  93
ATOM     93  O   UNL A   1      43.920  22.382  26.072  1.00  0.00    -0.445 OA
BRANCH  93  94
ATOM     94  C   UNL A   1      45.194  22.743  26.622  1.00  0.00     0.270 C 
BRANCH  94  95
ATOM     95  C   UNL A   1      45.554  24.201  26.443  1.00  0.00    -0.011 A 
ATOM     96  C   UNL A   1      46.140  24.608  25.241  1.00  0.00     0.007 A 
ATOM     97  C   UNL A   1      45.433  25.150  27.473  1.00  0.00     0.007 A 
ATOM     98  C   UNL A   1      46.575  25.924  25.073  1.00  0.00     0.000 A 
ATOM     99  C   UNL A   1      45.886  26.456  27.317  1.00  0.00     0.000 A 
ATOM    100  C   UNL A   1      46.453  26.844  26.114  1.00  0.00     0.000 A 
ENDBRANCH  94  95
ENDBRANCH  93  94
ENDBRANCH  90  93
ENDBRANCH  88  89
ENDBRANCH  85  88
ENDBRANCH  83  84
ENDBRANCH  80  83
ENDBRANCH  78  79
BRANCH  78 101
ATOM    101  C   UNL A   1      35.605  21.265  24.369  1.00  0.00     0.070 C 
BRANCH 101 102
ATOM    102  C   UNL A   1      34.775  19.897  24.801  1.00  0.00    -0.045 A 
ATOM    103  C   UNL A   1      33.534  20.094  25.443  1.00  0.00     0.004 A 
ATOM    104  C   UNL A   1      35.029  18.504  24.575  1.00  0.00     0.004 A 
ATOM    105  C   UNL A   1      32.585  19.049  25.616  1.00  0.00     0.000 A 
ATOM    106  C   UNL A   1      34.063  17.480  24.648  1.00  0.00     0.000 A 
ATOM    107  C   UNL A   1      32.818  17.761  25.148  1.00  0.00     0.000 A 
ENDBRANCH 101 102
ENDBRANCH  78 101
ENDBRANCH   2  78
TORSDOF 25
ENDMDL
MODEL 2
REMARK VINA RESULT:     -11.5      3.838      9.575
REMARK SMILES CC(C)C[C@H](NC(=O)[C@H](Cc1ccccc1)NC(=O)CNC(=O)CNC(=O)OCc1ccccc1)C(=O)NCCCCNC(=O)c1ccc(-c2c3nc(c(-c4c(F)cccc4F)c4ccc([nH]4)c(-c4c(F)cccc4F)c4nc(c(-c5c(F)cccc5F)c5ccc2[nH]5)C=C4)C=C3)cc1
REMARK SMILES IDX 6 1 7 2 8 3 5 5 4 6 2 7 1 8 3 9 36 10 37 11 38 12 39 14
REMARK SMILES IDX 40 15 41 16 42 17 43 18 44 19 45 21 46 22 47 23 99 24 48 25
REMARK SMILES IDX 98 26 49 27 50 28 51 29 92 30 52 31 97 32 91 33 93 34 53 35
REMARK SMILES IDX 96 36 90 37 89 38 54 40 80 41 63 42 79 43 64 44 67 45 78 46
REMARK SMILES IDX 94 47 65 48 66 49 77 51 95 52 68 53 55 54 56 55 61 56 57 57
REMARK SMILES IDX 58 58 60 59 62 60 59 61 81 62 82 63 87 64 83 65 84 66 86 67
REMARK SMILES IDX 88 68 85 69 69 70 70 71 75 72 71 73 72 74 74 75 76 76 73 77
REMARK SMILES IDX 9 78 17 79 18 80 19 82 20 83 21 84 22 85 23 87 24 88 25 89
REMARK SMILES IDX 26 90 27 92 28 93 29 94 30 95 31 96 35 97 32 98 34 99 33 100
REMARK SMILES IDX 10 101 11 102 12 103 16 104 13 105 15 106 14 107
REMARK H PARENT 6 4 38 13 43 20 93 39 67 50 17 81 21 86 25 91
REMARK Flexibility Score: inf
ROOT
ATOM      1  N   UNL A   1      34.118  26.678  23.502  1.00  0.00    -0.343 N 
ATOM      2  C   UNL A   1      33.369  27.794  23.751  1.00  0.00     0.243 C 
ATOM      3  O   UNL A   1      33.903  28.883  23.933  1.00  0.00    -0.273 OA
ATOM      4  H   UNL A   1      35.043  26.784  23.183  1.00  0.00     0.164 HD
ENDROOT
BRANCH   1   5
ATOM      5  C   UNL A   1      33.592  25.348  23.692  1.00  0.00     0.171 C 
BRANCH   5   6
ATOM      6  C   UNL A   1      32.746  24.917  22.381  1.00  0.00     0.038 C 
BRANCH   6   7
ATOM      7  C   UNL A   1      32.627  23.454  21.698  1.00  0.00    -0.015 C 
ATOM      8  C   UNL A   1      33.381  23.056  20.426  1.00  0.00     0.007 C 
ATOM      9  C   UNL A   1      32.823  22.297  22.705  1.00  0.00     0.007 C 
ENDBRANCH   6   7
ENDBRANCH   5   6
BRANCH   5  10
ATOM     10  C   UNL A   1      34.476  24.540  24.950  1.00  0.00     0.242 C 
ATOM     11  O   UNL A   1      34.268  25.033  26.083  1.00  0.00    -0.273 OA
ATOM     12  N   UNL A   1      35.493  23.588  25.033  1.00  0.00    -0.354 N 
ATOM     13  H   UNL A   1      35.842  23.695  25.946  1.00  0.00     0.163 HD
BRANCH  12  14
ATOM     14  C   UNL A   1      36.374  22.433  24.432  1.00  0.00     0.116 C 
BRANCH  14  15
ATOM     15  C   UNL A   1      36.230  20.948  24.855  1.00  0.00     0.023 C 
BRANCH  15  16
ATOM     16  C   UNL A   1      37.461  20.084  24.638  1.00  0.00     0.023 C 
BRANCH  16  17
ATOM     17  C   UNL A   1      38.467  20.315  25.749  1.00  0.00     0.116 C 
BRANCH  17  18
ATOM     18  N   UNL A   1      39.569  19.344  25.714  1.00  0.00    -0.352 N 
ATOM     19  C   UNL A   1      40.919  19.503  25.980  1.00  0.00     0.251 C 
ATOM     20  H   UNL A   1      39.304  18.431  25.461  1.00  0.00     0.163 HD
ATOM     21  O   UNL A   1      41.709  18.603  25.717  1.00  0.00    -0.269 OA
BRANCH  19  22
ATOM     22  C   UNL A   1      41.393  20.779  26.555  1.00  0.00     0.039 A 
ATOM     23  C   UNL A   1      41.887  20.869  27.858  1.00  0.00     0.014 A 
ATOM     24  C   UNL A   1      41.405  21.899  25.739  1.00  0.00     0.014 A 
ATOM     25  C   UNL A   1      42.462  22.071  28.292  1.00  0.00     0.010 A 
ATOM     26  C   UNL A   1      42.190  22.979  26.074  1.00  0.00     0.010 A 
ATOM     27  C   UNL A   1      42.659  23.124  27.383  1.00  0.00    -0.014 A 
BRANCH  27  28
ATOM     28  C   UNL A   1      43.232  24.446  27.742  1.00  0.00     0.031 A 
ATOM     29  C   UNL A   1      42.290  25.546  28.185  1.00  0.00     0.074 A 
ATOM     30  C   UNL A   1      44.540  24.705  27.555  1.00  0.00     0.049 A 
ATOM     31  N   UNL A   1      42.504  26.831  28.302  1.00  0.00    -0.248 NA
ATOM     32  C   UNL A   1      40.888  25.158  28.441  1.00  0.00     0.031 C 
ATOM     33  C   UNL A   1      45.540  23.754  27.067  1.00  0.00     0.029 A 
ATOM     34  N   UNL A   1      45.248  25.864  27.742  1.00  0.00    -0.354 N 
ATOM     35  C   UNL A   1      41.261  27.392  28.579  1.00  0.00     0.074 A 
ATOM     36  C   UNL A   1      40.285  26.333  28.495  1.00  0.00     0.031 C 
ATOM     37  C   UNL A   1      46.740  24.357  27.034  1.00  0.00     0.029 A 
ATOM     38  C   UNL A   1      46.585  25.747  27.446  1.00  0.00     0.049 A 
ATOM     39  H   UNL A   1      44.837  26.701  28.059  1.00  0.00     0.167 HD
ATOM     40  C   UNL A   1      40.960  28.663  28.933  1.00  0.00     0.037 A 
ATOM     41  C   UNL A   1      47.566  26.667  27.500  1.00  0.00     0.037 A 
ATOM     42  C   UNL A   1      41.954  29.682  29.112  1.00  0.00     0.049 A 
ATOM     43  C   UNL A   1      47.224  28.062  27.948  1.00  0.00     0.074 A 
ATOM     44  C   UNL A   1      41.790  30.979  29.559  1.00  0.00     0.029 A 
ATOM     45  N   UNL A   1      43.309  29.502  28.875  1.00  0.00    -0.354 N 
ATOM     46  N   UNL A   1      46.055  28.567  28.266  1.00  0.00    -0.248 NA
ATOM     47  C   UNL A   1      48.337  29.014  28.052  1.00  0.00     0.031 C 
ATOM     48  C   UNL A   1      43.045  31.598  29.552  1.00  0.00     0.029 A 
ATOM     49  C   UNL A   1      43.994  30.670  29.153  1.00  0.00     0.049 A 
ATOM     50  H   UNL A   1      43.721  28.666  28.556  1.00  0.00     0.167 HD
ATOM     51  C   UNL A   1      46.296  29.883  28.638  1.00  0.00     0.074 A 
ATOM     52  C   UNL A   1      47.725  30.092  28.520  1.00  0.00     0.031 C 
ATOM     53  C   UNL A   1      45.420  30.837  29.039  1.00  0.00     0.037 A 
BRANCH  40  54
ATOM     54  C   UNL A   1      39.515  28.995  29.185  1.00  0.00     0.057 A 
ATOM     55  C   UNL A   1      38.664  29.444  28.164  1.00  0.00     0.134 A 
ATOM     56  C   UNL A   1      38.963  28.860  30.465  1.00  0.00     0.134 A 
ATOM     57  F   UNL A   1      39.128  29.612  26.916  1.00  0.00    -0.206 F 
ATOM     58  C   UNL A   1      37.335  29.787  28.414  1.00  0.00     0.040 A 
ATOM     59  C   UNL A   1      37.624  29.164  30.720  1.00  0.00     0.040 A 
ATOM     60  F   UNL A   1      39.715  28.432  31.491  1.00  0.00    -0.206 F 
ATOM     61  C   UNL A   1      36.809  29.639  29.695  1.00  0.00     0.006 A 
ENDBRANCH  40  54
BRANCH  41  62
ATOM     62  C   UNL A   1      48.962  26.288  27.164  1.00  0.00     0.057 A 
ATOM     63  C   UNL A   1      49.850  25.852  28.155  1.00  0.00     0.134 A 
ATOM     64  C   UNL A   1      49.446  26.346  25.851  1.00  0.00     0.134 A 
ATOM     65  F   UNL A   1      49.452  25.784  29.435  1.00  0.00    -0.206 F 
ATOM     66  C   UNL A   1      51.172  25.512  27.860  1.00  0.00     0.040 A 
ATOM     67  C   UNL A   1      50.758  25.983  25.537  1.00  0.00     0.040 A 
ATOM     68  F   UNL A   1      48.644  26.741  24.851  1.00  0.00    -0.206 F 
ATOM     69  C   UNL A   1      51.627  25.574  26.545  1.00  0.00     0.006 A 
ENDBRANCH  41  62
BRANCH  53  70
ATOM     70  C   UNL A   1      45.987  32.172  29.419  1.00  0.00     0.057 A 
ATOM     71  C   UNL A   1      46.414  32.451  30.722  1.00  0.00     0.134 A 
ATOM     72  C   UNL A   1      46.156  33.171  28.451  1.00  0.00     0.134 A 
ATOM     73  F   UNL A   1      46.271  31.538  31.695  1.00  0.00    -0.206 F 
ATOM     74  C   UNL A   1      46.967  33.687  31.057  1.00  0.00     0.040 A 
ATOM     75  C   UNL A   1      46.736  34.399  28.767  1.00  0.00     0.040 A 
ATOM     76  F   UNL A   1      45.780  32.961  27.180  1.00  0.00    -0.206 F 
ATOM     77  C   UNL A   1      47.136  34.662  30.075  1.00  0.00     0.006 A 
ENDBRANCH  53  70
ENDBRANCH  27  28
ENDBRANCH  19  22
ENDBRANCH  17  18
ENDBRANCH  16  17
ENDBRANCH  15  16
ENDBRANCH  14  15
ENDBRANCH  12  14
ENDBRANCH   5  10
ENDBRANCH   1   5
BRANCH   2  78
ATOM     78  C   UNL A   1      31.855  27.602  23.607  1.00  0.00     0.175 C 
BRANCH  78  79
ATOM     79  N   UNL A   1      31.618  27.092  25.058  1.00  0.00    -0.342 N 
ATOM     80  C   UNL A   1      30.880  26.531  26.040  1.00  0.00     0.240 C 
ATOM     81  H   UNL A   1      32.476  27.282  25.503  1.00  0.00     0.164 HD
ATOM     82  O   UNL A   1      31.408  26.681  27.164  1.00  0.00    -0.273 OA
BRANCH  80  83
ATOM     83  C   UNL A   1      29.566  25.686  26.078  1.00  0.00     0.216 C 
BRANCH  83  84
ATOM     84  N   UNL A   1      29.198  24.491  26.824  1.00  0.00    -0.346 N 
ATOM     85  C   UNL A   1      29.738  23.258  26.975  1.00  0.00     0.239 C 
ATOM     86  H   UNL A   1      28.365  24.605  27.336  1.00  0.00     0.164 HD
ATOM     87  O   UNL A   1      29.352  22.618  27.961  1.00  0.00    -0.273 OA
BRANCH  85  88
ATOM     88  C   UNL A   1      30.828  22.681  26.073  1.00  0.00     0.219 C 
BRANCH  88  89
ATOM     89  N   UNL A   1      32.158  22.777  26.608  1.00  0.00    -0.312 N 
ATOM     90  C   UNL A   1      33.073  21.785  26.615  1.00  0.00     0.407 C 
ATOM     91  H   UNL A   1      32.424  23.639  27.002  1.00  0.00     0.167 HD
ATOM     92  O   UNL A   1      33.996  21.789  27.424  1.00  0.00    -0.225 OA
BRANCH  90  93
ATOM     93  O   UNL A   1      32.814  20.778  25.755  1.00  0.00    -0.445 OA
BRANCH  93  94
ATOM     94  C   UNL A   1      32.942  19.480  26.351  1.00  0.00     0.270 C 
BRANCH  94  95
ATOM     95  C   UNL A   1      33.078  18.352  25.352  1.00  0.00    -0.011 A 
ATOM     96  C   UNL A   1      32.870  17.039  25.786  1.00  0.00     0.007 A 
ATOM     97  C   UNL A   1      33.516  18.549  24.031  1.00  0.00     0.007 A 
ATOM     98  C   UNL A   1      33.080  15.965  24.920  1.00  0.00     0.000 A 
ATOM     99  C   UNL A   1      33.748  17.480  23.173  1.00  0.00     0.000 A 
ATOM    100  C   UNL A   1      33.525  16.186  23.618  1.00  0.00     0.000 A 
ENDBRANCH  94  95
ENDBRANCH  93  94
ENDBRANCH  90  93
ENDBRANCH  88  89
ENDBRANCH  85  88
ENDBRANCH  83  84
ENDBRANCH  80  83
ENDBRANCH  78  79
BRANCH  78 101
ATOM    101  C   UNL A   1      31.157  29.010  22.729  1.00  0.00     0.070 C 
BRANCH 101 102
ATOM    102  C   UNL A   1      29.829  29.970  22.482  1.00  0.00    -0.045 A 
ATOM    103  C   UNL A   1      29.263  30.564  23.630  1.00  0.00     0.004 A 
ATOM    104  C   UNL A   1      29.162  30.404  21.290  1.00  0.00     0.004 A 
ATOM    105  C   UNL A   1      28.316  31.623  23.559  1.00  0.00     0.000 A 
ATOM    106  C   UNL A   1      28.302  31.517  21.199  1.00  0.00     0.000 A 
ATOM    107  C   UNL A   1      27.896  32.151  22.344  1.00  0.00     0.000 A 
ENDBRANCH 101 102
ENDBRANCH  78 101
ENDBRANCH   2  78
TORSDOF 25
ENDMDL
MODEL 3
REMARK VINA RESULT:     -11.3      3.414     10.571
REMARK SMILES CC(C)C[C@H](NC(=O)[C@H](Cc1ccccc1)NC(=O)CNC(=O)CNC(=O)OCc1ccccc1)C(=O)NCCCCNC(=O)c1ccc(-c2c3nc(c(-c4c(F)cccc4F)c4ccc([nH]4)c(-c4c(F)cccc4F)c4nc(c(-c5c(F)cccc5F)c5ccc2[nH]5)C=C4)C=C3)cc1
REMARK SMILES IDX 6 1 7 2 8 3 5 5 4 6 2 7 1 8 3 9 36 10 37 11 38 12 39 14
REMARK SMILES IDX 40 15 41 16 42 17 43 18 44 19 45 21 46 22 47 23 99 24 48 25
REMARK SMILES IDX 98 26 49 27 50 28 51 29 92 30 52 31 97 32 91 33 93 34 53 35
REMARK SMILES IDX 96 36 90 37 89 38 54 40 80 41 63 42 79 43 64 44 67 45 78 46
REMARK SMILES IDX 94 47 65 48 66 49 77 51 95 52 68 53 55 54 56 55 61 56 57 57
REMARK SMILES IDX 58 58 60 59 62 60 59 61 81 62 82 63 87 64 83 65 84 66 86 67
REMARK SMILES IDX 88 68 85 69 69 70 70 71 75 72 71 73 72 74 74 75 76 76 73 77
REMARK SMILES IDX 9 78 17 79 18 80 19 82 20 83 21 84 22 85 23 87 24 88 25 89
REMARK SMILES IDX 26 90 27 92 28 93 29 94 30 95 31 96 35 97 32 98 34 99 33 100
REMARK SMILES IDX 10 101 11 102 12 103 16 104 13 105 15 106 14 107
REMARK H PARENT 6 4 38 13 43 20 93 39 67 50 17 81 21 86 25 91
REMARK Flexibility Score: inf
ROOT
ATOM      1  N   UNL A   1      32.801  27.872  22.304  1.00  0.00    -0.343 N 
ATOM      2  C   UNL A   1      33.100  28.757  23.302  1.00  0.00     0.243 C 
ATOM      3  O   UNL A   1      33.921  29.652  23.126  1.00  0.00    -0.273 OA
ATOM      4  H   UNL A   1      33.013  28.112  21.373  1.00  0.00     0.164 HD
ENDROOT
BRANCH   1   5
ATOM      5  C   UNL A   1      32.184  26.596  22.575  1.00  0.00     0.171 C 
BRANCH   5   6
ATOM      6  C   UNL A   1      30.585  26.799  22.723  1.00  0.00     0.038 C 
BRANCH   6   7
ATOM      7  C   UNL A   1      29.654  26.528  24.019  1.00  0.00    -0.015 C 
ATOM      8  C   UNL A   1      28.129  26.404  23.950  1.00  0.00     0.007 C 
ATOM      9  C   UNL A   1      30.151  25.349  24.887  1.00  0.00     0.007 C 
ENDBRANCH   6   7
ENDBRANCH   5   6
BRANCH   5  10
ATOM     10  C   UNL A   1      33.261  25.313  22.116  1.00  0.00     0.242 C 
ATOM     11  O   UNL A   1      33.228  25.067  20.889  1.00  0.00    -0.273 OA
ATOM     12  N   UNL A   1      34.043  24.357  22.765  1.00  0.00    -0.354 N 
ATOM     13  H   UNL A   1      34.219  23.686  22.068  1.00  0.00     0.163 HD
BRANCH  12  14
ATOM     14  C   UNL A   1      34.791  23.789  24.026  1.00  0.00     0.116 C 
BRANCH  14  15
ATOM     15  C   UNL A   1      36.288  23.386  24.014  1.00  0.00     0.023 C 
BRANCH  15  16
ATOM     16  C   UNL A   1      36.568  21.905  24.211  1.00  0.00     0.023 C 
BRANCH  16  17
ATOM     17  C   UNL A   1      36.964  21.632  25.649  1.00  0.00     0.116 C 
BRANCH  17  18
ATOM     18  N   UNL A   1      37.996  20.591  25.755  1.00  0.00    -0.352 N 
ATOM     19  C   UNL A   1      39.332  20.679  26.109  1.00  0.00     0.251 C 
ATOM     20  H   UNL A   1      37.686  19.682  25.539  1.00  0.00     0.163 HD
ATOM     21  O   UNL A   1      40.074  19.715  25.961  1.00  0.00    -0.269 OA
BRANCH  19  22
ATOM     22  C   UNL A   1      39.852  21.957  26.638  1.00  0.00     0.039 A 
ATOM     23  C   UNL A   1      40.904  22.008  27.557  1.00  0.00     0.014 A 
ATOM     24  C   UNL A   1      39.315  23.136  26.146  1.00  0.00     0.014 A 
ATOM     25  C   UNL A   1      41.452  23.251  27.902  1.00  0.00     0.010 A 
ATOM     26  C   UNL A   1      40.012  24.315  26.285  1.00  0.00     0.010 A 
ATOM     27  C   UNL A   1      41.037  24.413  27.230  1.00  0.00    -0.014 A 
BRANCH  27  28
ATOM     28  C   UNL A   1      41.532  25.780  27.536  1.00  0.00     0.031 A 
ATOM     29  C   UNL A   1      42.899  26.185  27.024  1.00  0.00     0.074 A 
ATOM     30  C   UNL A   1      40.844  26.595  28.357  1.00  0.00     0.049 A 
ATOM     31  N   UNL A   1      43.649  27.202  27.364  1.00  0.00    -0.248 NA
ATOM     32  C   UNL A   1      43.551  25.268  26.068  1.00  0.00     0.031 C 
ATOM     33  C   UNL A   1      39.549  26.297  28.972  1.00  0.00     0.029 A 
ATOM     34  N   UNL A   1      41.153  27.845  28.827  1.00  0.00    -0.354 N 
ATOM     35  C   UNL A   1      44.863  27.002  26.714  1.00  0.00     0.074 A 
ATOM     36  C   UNL A   1      44.794  25.718  26.061  1.00  0.00     0.031 C 
ATOM     37  C   UNL A   1      39.157  27.352  29.705  1.00  0.00     0.029 A 
ATOM     38  C   UNL A   1      40.193  28.376  29.654  1.00  0.00     0.049 A 
ATOM     39  H   UNL A   1      41.986  28.317  28.594  1.00  0.00     0.167 HD
ATOM     40  C   UNL A   1      45.922  27.838  26.615  1.00  0.00     0.037 A 
ATOM     41  C   UNL A   1      40.164  29.559  30.297  1.00  0.00     0.037 A 
ATOM     42  C   UNL A   1      45.938  29.155  27.184  1.00  0.00     0.049 A 
ATOM     43  C   UNL A   1      41.328  30.499  30.132  1.00  0.00     0.074 A 
ATOM     44  C   UNL A   1      46.909  30.132  27.075  1.00  0.00     0.029 A 
ATOM     45  N   UNL A   1      44.912  29.686  27.952  1.00  0.00    -0.354 N 
ATOM     46  N   UNL A   1      42.445  30.326  29.466  1.00  0.00    -0.248 NA
ATOM     47  C   UNL A   1      41.224  31.802  30.802  1.00  0.00     0.031 C 
ATOM     48  C   UNL A   1      46.487  31.242  27.814  1.00  0.00     0.029 A 
ATOM     49  C   UNL A   1      45.231  30.974  28.336  1.00  0.00     0.049 A 
ATOM     50  H   UNL A   1      44.080  29.214  28.188  1.00  0.00     0.167 HD
ATOM     51  C   UNL A   1      43.162  31.507  29.609  1.00  0.00     0.074 A 
ATOM     52  C   UNL A   1      42.344  32.393  30.412  1.00  0.00     0.031 C 
ATOM     53  C   UNL A   1      44.385  31.834  29.124  1.00  0.00     0.037 A 
BRANCH  40  54
ATOM     54  C   UNL A   1      47.116  27.363  25.833  1.00  0.00     0.057 A 
ATOM     55  C   UNL A   1      47.245  27.593  24.454  1.00  0.00     0.134 A 
ATOM     56  C   UNL A   1      48.156  26.670  26.466  1.00  0.00     0.134 A 
ATOM     57  F   UNL A   1      46.279  28.236  23.779  1.00  0.00    -0.206 F 
ATOM     58  C   UNL A   1      48.337  27.116  23.729  1.00  0.00     0.040 A 
ATOM     59  C   UNL A   1      49.273  26.221  25.757  1.00  0.00     0.040 A 
ATOM     60  F   UNL A   1      48.105  26.417  27.782  1.00  0.00    -0.206 F 
ATOM     61  C   UNL A   1      49.360  26.433  24.383  1.00  0.00     0.006 A 
ENDBRANCH  40  54
BRANCH  41  62
ATOM     62  C   UNL A   1      38.983  29.934  31.115  1.00  0.00     0.057 A 
ATOM     63  C   UNL A   1      38.941  29.662  32.488  1.00  0.00     0.134 A 
ATOM     64  C   UNL A   1      37.871  30.574  30.554  1.00  0.00     0.134 A 
ATOM     65  F   UNL A   1      39.969  29.039  33.084  1.00  0.00    -0.206 F 
ATOM     66  C   UNL A   1      37.829  29.988  33.268  1.00  0.00     0.040 A 
ATOM     67  C   UNL A   1      36.764  30.931  31.327  1.00  0.00     0.040 A 
ATOM     68  F   UNL A   1      37.853  30.878  29.248  1.00  0.00    -0.206 F 
ATOM     69  C   UNL A   1      36.738  30.629  32.687  1.00  0.00     0.006 A 
ENDBRANCH  41  62
BRANCH  53  70
ATOM     70  C   UNL A   1      44.891  33.216  29.413  1.00  0.00     0.057 A 
ATOM     71  C   UNL A   1      45.708  33.488  30.517  1.00  0.00     0.134 A 
ATOM     72  C   UNL A   1      44.598  34.273  28.543  1.00  0.00     0.134 A 
ATOM     73  F   UNL A   1      46.016  32.519  31.391  1.00  0.00    -0.206 F 
ATOM     74  C   UNL A   1      46.197  34.772  30.759  1.00  0.00     0.040 A 
ATOM     75  C   UNL A   1      45.107  35.554  28.757  1.00  0.00     0.040 A 
ATOM     76  F   UNL A   1      43.833  34.074  27.459  1.00  0.00    -0.206 F 
ATOM     77  C   UNL A   1      45.903  35.807  29.873  1.00  0.00     0.006 A 
ENDBRANCH  53  70
ENDBRANCH  27  28
ENDBRANCH  19  22
ENDBRANCH  17  18
ENDBRANCH  16  17
ENDBRANCH  15  16
ENDBRANCH  14  15
ENDBRANCH  12  14
ENDBRANCH   5  10
ENDBRANCH   1   5
BRANCH   2  78
ATOM     78  C   UNL A   1      32.216  28.647  24.550  1.00  0.00     0.175 C 
BRANCH  78  79
ATOM     79  N   UNL A   1      33.386  28.637  25.576  1.00  0.00    -0.342 N 
ATOM     80  C   UNL A   1      34.172  29.194  26.522  1.00  0.00     0.240 C 
ATOM     81  H   UNL A   1      33.755  27.729  25.483  1.00  0.00     0.164 HD
ATOM     82  O   UNL A   1      35.192  28.504  26.747  1.00  0.00    -0.273 OA
BRANCH  80  83
ATOM     83  C   UNL A   1      34.060  30.454  27.440  1.00  0.00     0.216 C 
BRANCH  83  84
ATOM     84  N   UNL A   1      34.806  31.703  27.474  1.00  0.00    -0.346 N 
ATOM     85  C   UNL A   1      35.040  32.649  28.415  1.00  0.00     0.239 C 
ATOM     86  H   UNL A   1      35.241  31.908  26.615  1.00  0.00     0.164 HD
ATOM     87  O   UNL A   1      36.007  33.390  28.206  1.00  0.00    -0.273 OA
BRANCH  85  88
ATOM     88  C   UNL A   1      34.252  32.776  29.718  1.00  0.00     0.219 C 
BRANCH  88  89
ATOM     89  N   UNL A   1      34.042  34.128  30.158  1.00  0.00    -0.312 N 
ATOM     90  C   UNL A   1      34.527  34.665  31.298  1.00  0.00     0.407 C 
ATOM     91  H   UNL A   1      33.500  34.712  29.580  1.00  0.00     0.167 HD
ATOM     92  O   UNL A   1      33.991  35.645  31.807  1.00  0.00    -0.225 OA
BRANCH  90  93
ATOM     93  O   UNL A   1      35.546  33.976  31.853  1.00  0.00    -0.445 OA
BRANCH  93  94
ATOM     94  C   UNL A   1      36.540  34.822  32.446  1.00  0.00     0.270 C 
BRANCH  94  95
ATOM     95  C   UNL A   1      37.347  34.155  33.539  1.00  0.00    -0.011 A 
ATOM     96  C   UNL A   1      38.703  33.900  33.315  1.00  0.00     0.007 A 
ATOM     97  C   UNL A   1      36.772  33.675  34.728  1.00  0.00     0.007 A 
ATOM     98  C   UNL A   1      39.458  33.201  34.259  1.00  0.00     0.000 A 
ATOM     99  C   UNL A   1      37.516  32.958  35.659  1.00  0.00     0.000 A 
ATOM    100  C   UNL A   1      38.862  32.726  35.426  1.00  0.00     0.000 A 
ENDBRANCH  94  95
ENDBRANCH  93  94
ENDBRANCH  90  93
ENDBRANCH  88  89
ENDBRANCH  85  88
ENDBRANCH  83  84
ENDBRANCH  80  83
ENDBRANCH  78  79
BRANCH  78 101
ATOM    101  C   UNL A   1      30.810  29.757  24.384  1.00  0.00     0.070 C 
BRANCH 101 102
ATOM    102  C   UNL A   1      29.627  30.359  23.390  1.00  0.00    -0.045 A 
ATOM    103  C   UNL A   1      28.908  31.472  23.874  1.00  0.00     0.004 A 
ATOM    104  C   UNL A   1      29.224  30.019  22.057  1.00  0.00     0.004 A 
ATOM    105  C   UNL A   1      28.075  32.269  23.042  1.00  0.00     0.000 A 
ATOM    106  C   UNL A   1      28.484  30.852  21.195  1.00  0.00     0.000 A 
ATOM    107  C   UNL A   1      27.925  32.005  21.685  1.00  0.00     0.000 A 
ENDBRANCH 101 102
ENDBRANCH  78 101
ENDBRANCH   2  78
TORSDOF 25
ENDMDL
