MODEL 1
REMARK VINA RESULT:     -10.9      0.000      0.000
REMARK SMILES CC[C@](C)(Nc1cccc(Cl)c1C(N)=O)C(=O)NCCCCNC(=O)c1ccc(-c2c3nc(c(-c4c(F)cccc4F)c4ccc([nH]4)c(-c4c(F)cccc4F)c4nc(c(-c5c(F)cccc5F)c5ccc2[nH]5)C=C4)C=C3)cc1
REMARK SMILES IDX 20 1 19 2 18 3 16 4 17 5 3 7 4 8 2 9 1 10 5 11 6 13 7 14
REMARK SMILES IDX 12 15 8 16 10 17 9 18 11 19 13 20 14 21 15 22 21 25 22 26
REMARK SMILES IDX 23 27 24 28 25 30 26 31 27 32 79 33 28 34 78 35 29 36 30 37
REMARK SMILES IDX 31 38 72 39 32 40 77 41 71 42 73 43 33 44 76 45 70 46 69 47
REMARK SMILES IDX 34 49 60 50 43 51 59 52 44 53 47 54 58 55 74 56 45 57 46 58
REMARK SMILES IDX 57 60 75 61 48 62 35 63 36 64 41 65 37 66 38 67 40 68 42 69
REMARK SMILES IDX 39 70 61 71 62 72 67 73 63 74 64 75 66 76 68 77 65 78 49 79
REMARK SMILES IDX 50 80 55 81 51 82 52 83 54 84 56 85 53 86
REMARK H PARENT 18 6 5 12 14 23 14 24 23 29 73 48 47 59
REMARK Flexibility Score: inf
ROOT
ATOM      1  C   UNL A   1      36.832  20.575  24.525  1.00  0.00     0.023 C 
ENDROOT
BRANCH   1   2
ATOM      2  C   UNL A   1      36.580  21.723  25.499  1.00  0.00     0.116 C 
BRANCH   2   3
ATOM      3  N   UNL A   1      35.548  21.456  26.485  1.00  0.00    -0.354 N 
ATOM      4  C   UNL A   1      34.205  21.707  26.484  1.00  0.00     0.245 C 
ATOM      5  O   UNL A   1      33.587  21.328  27.486  1.00  0.00    -0.272 OA
ATOM      6  H   UNL A   1      35.876  21.014  27.302  1.00  0.00     0.163 HD
BRANCH   4   7
ATOM      7  C   UNL A   1      33.486  22.426  25.300  1.00  0.00     0.113 C 
ATOM      8  C   UNL A   1      32.088  22.879  25.772  1.00  0.00     0.045 C 
BRANCH   7   9
ATOM      9  C   UNL A   1      33.391  21.389  24.126  1.00  0.00     0.035 C 
ATOM     10  C   UNL A   1      32.833  20.004  24.420  1.00  0.00     0.007 C 
ENDBRANCH   7   9
BRANCH   7  11
ATOM     11  N   UNL A   1      34.180  23.655  24.814  1.00  0.00    -0.371 N 
ATOM     12  H   UNL A   1      35.059  23.481  24.406  1.00  0.00     0.161 HD
BRANCH  11  13
ATOM     13  C   UNL A   1      33.820  25.004  24.828  1.00  0.00     0.049 A 
ATOM     14  C   UNL A   1      33.928  25.796  25.981  1.00  0.00     0.026 A 
ATOM     15  C   UNL A   1      33.385  25.669  23.638  1.00  0.00     0.081 A 
ATOM     16  C   UNL A   1      33.888  27.191  25.932  1.00  0.00     0.004 A 
ATOM     17  C   UNL A   1      33.344  27.083  23.594  1.00  0.00     0.055 A 
ATOM     18  C   UNL A   1      33.645  27.833  24.731  1.00  0.00     0.021 A 
ATOM     19  Cl  UNL A   1      32.918  28.018  22.200  1.00  0.00    -0.083 Cl
BRANCH  15  20
ATOM     20  C   UNL A   1      32.899  24.880  22.451  1.00  0.00     0.252 C 
ATOM     21  N   UNL A   1      31.538  24.780  22.298  1.00  0.00    -0.365 N 
ATOM     22  O   UNL A   1      33.620  24.363  21.617  1.00  0.00    -0.269 OA
ATOM     23  H   UNL A   1      30.937  25.189  22.960  1.00  0.00     0.159 HD
ATOM     24  H   UNL A   1      31.164  24.297  21.525  1.00  0.00     0.159 HD
ENDBRANCH  15  20
ENDBRANCH  11  13
ENDBRANCH   7  11
ENDBRANCH   4   7
ENDBRANCH   2   3
ENDBRANCH   1   2
BRANCH   1  25
ATOM     25  C   UNL A   1      37.852  19.544  24.997  1.00  0.00     0.023 C 
BRANCH  25  26
ATOM     26  C   UNL A   1      39.014  20.135  25.780  1.00  0.00     0.116 C 
BRANCH  26  27
ATOM     27  N   UNL A   1      40.160  19.241  25.817  1.00  0.00    -0.352 N 
ATOM     28  C   UNL A   1      41.478  19.530  26.067  1.00  0.00     0.251 C 
ATOM     29  H   UNL A   1      39.963  18.294  25.636  1.00  0.00     0.163 HD
ATOM     30  O   UNL A   1      42.345  18.691  25.848  1.00  0.00    -0.269 OA
BRANCH  28  31
ATOM     31  C   UNL A   1      41.848  20.862  26.586  1.00  0.00     0.039 A 
ATOM     32  C   UNL A   1      42.295  21.838  25.694  1.00  0.00     0.014 A 
ATOM     33  C   UNL A   1      41.754  21.143  27.953  1.00  0.00     0.014 A 
ATOM     34  C   UNL A   1      42.601  23.114  26.168  1.00  0.00     0.010 A 
ATOM     35  C   UNL A   1      41.963  22.439  28.406  1.00  0.00     0.010 A 
ATOM     36  C   UNL A   1      42.407  23.433  27.522  1.00  0.00    -0.014 A 
BRANCH  36  37
ATOM     37  C   UNL A   1      42.688  24.792  28.043  1.00  0.00     0.031 A 
ATOM     38  C   UNL A   1      44.089  25.163  28.449  1.00  0.00     0.074 A 
ATOM     39  C   UNL A   1      41.677  25.665  28.210  1.00  0.00     0.049 A 
ATOM     40  N   UNL A   1      44.528  26.273  28.986  1.00  0.00    -0.248 NA
ATOM     41  C   UNL A   1      45.130  24.140  28.254  1.00  0.00     0.031 C 
ATOM     42  C   UNL A   1      40.270  25.402  27.899  1.00  0.00     0.029 A 
ATOM     43  N   UNL A   1      41.676  26.950  28.688  1.00  0.00    -0.354 N 
ATOM     44  C   UNL A   1      45.884  26.072  29.209  1.00  0.00     0.074 A 
ATOM     45  C   UNL A   1      46.185  24.717  28.808  1.00  0.00     0.031 C 
ATOM     46  C   UNL A   1      39.548  26.501  28.163  1.00  0.00     0.029 A 
ATOM     47  C   UNL A   1      40.430  27.531  28.702  1.00  0.00     0.049 A 
ATOM     48  H   UNL A   1      42.489  27.413  28.992  1.00  0.00     0.167 HD
ATOM     49  C   UNL A   1      46.802  26.949  29.680  1.00  0.00     0.037 A 
ATOM     50  C   UNL A   1      40.046  28.754  29.111  1.00  0.00     0.037 A 
ATOM     51  C   UNL A   1      46.500  28.306  30.050  1.00  0.00     0.049 A 
ATOM     52  C   UNL A   1      41.083  29.706  29.640  1.00  0.00     0.074 A 
ATOM     53  C   UNL A   1      47.366  29.296  30.476  1.00  0.00     0.029 A 
ATOM     54  N   UNL A   1      45.228  28.861  30.041  1.00  0.00    -0.354 N 
ATOM     55  N   UNL A   1      42.375  29.529  29.776  1.00  0.00    -0.248 NA
ATOM     56  C   UNL A   1      40.610  31.029  30.067  1.00  0.00     0.031 C 
ATOM     57  C   UNL A   1      46.611  30.434  30.778  1.00  0.00     0.029 A 
ATOM     58  C   UNL A   1      45.283  30.173  30.481  1.00  0.00     0.049 A 
ATOM     59  H   UNL A   1      44.409  28.392  29.763  1.00  0.00     0.167 HD
ATOM     60  C   UNL A   1      42.874  30.727  30.272  1.00  0.00     0.074 A 
ATOM     61  C   UNL A   1      41.745  31.627  30.399  1.00  0.00     0.031 C 
ATOM     62  C   UNL A   1      44.149  31.055  30.593  1.00  0.00     0.037 A 
BRANCH  49  63
ATOM     63  C   UNL A   1      48.217  26.464  29.822  1.00  0.00     0.057 A 
ATOM     64  C   UNL A   1      49.166  26.628  28.803  1.00  0.00     0.134 A 
ATOM     65  C   UNL A   1      48.647  25.852  31.006  1.00  0.00     0.134 A 
ATOM     66  F   UNL A   1      48.818  27.195  27.637  1.00  0.00    -0.206 F 
ATOM     67  C   UNL A   1      50.478  26.174  28.943  1.00  0.00     0.040 A 
ATOM     68  C   UNL A   1      49.965  25.423  31.171  1.00  0.00     0.040 A 
ATOM     69  F   UNL A   1      47.795  25.667  32.026  1.00  0.00    -0.206 F 
ATOM     70  C   UNL A   1      50.883  25.576  30.134  1.00  0.00     0.006 A 
ENDBRANCH  49  63
BRANCH  50  71
ATOM     71  C   UNL A   1      38.620  29.160  29.014  1.00  0.00     0.057 A 
ATOM     72  C   UNL A   1      38.083  29.625  27.807  1.00  0.00     0.134 A 
ATOM     73  C   UNL A   1      37.763  29.104  30.119  1.00  0.00     0.134 A 
ATOM     74  F   UNL A   1      38.857  29.716  26.716  1.00  0.00    -0.206 F 
ATOM     75  C   UNL A   1      36.755  30.041  27.708  1.00  0.00     0.040 A 
ATOM     76  C   UNL A   1      36.424  29.491  30.028  1.00  0.00     0.040 A 
ATOM     77  F   UNL A   1      38.211  28.660  31.302  1.00  0.00    -0.206 F 
ATOM     78  C   UNL A   1      35.920  29.970  28.821  1.00  0.00     0.006 A 
ENDBRANCH  50  71
BRANCH  62  79
ATOM     79  C   UNL A   1      44.399  32.455  31.073  1.00  0.00     0.057 A 
ATOM     80  C   UNL A   1      44.666  33.507  30.189  1.00  0.00     0.134 A 
ATOM     81  C   UNL A   1      44.330  32.760  32.439  1.00  0.00     0.134 A 
ATOM     82  F   UNL A   1      44.758  33.281  28.869  1.00  0.00    -0.206 F 
ATOM     83  C   UNL A   1      44.882  34.808  30.647  1.00  0.00     0.040 A 
ATOM     84  C   UNL A   1      44.513  34.061  32.907  1.00  0.00     0.040 A 
ATOM     85  F   UNL A   1      44.067  31.801  33.340  1.00  0.00    -0.206 F 
ATOM     86  C   UNL A   1      44.797  35.089  32.010  1.00  0.00     0.006 A 
ENDBRANCH  62  79
ENDBRANCH  36  37
ENDBRANCH  28  31
ENDBRANCH  26  27
ENDBRANCH  25  26
ENDBRANCH   1  25
TORSDOF 15
ENDMDL
MODEL 2
REMARK VINA RESULT:     -10.8      0.214      1.623
REMARK SMILES CC[C@](C)(Nc1cccc(Cl)c1C(N)=O)C(=O)NCCCCNC(=O)c1ccc(-c2c3nc(c(-c4c(F)cccc4F)c4ccc([nH]4)c(-c4c(F)cccc4F)c4nc(c(-c5c(F)cccc5F)c5ccc2[nH]5)C=C4)C=C3)cc1
REMARK SMILES IDX 20 1 19 2 18 3 16 4 17 5 3 7 4 8 2 9 1 10 5 11 6 13 7 14
REMARK SMILES IDX 12 15 8 16 10 17 9 18 11 19 13 20 14 21 15 22 21 25 22 26
REMARK SMILES IDX 23 27 24 28 25 30 26 31 27 32 79 33 28 34 78 35 29 36 30 37
REMARK SMILES IDX 31 38 72 39 32 40 77 41 71 42 73 43 33 44 76 45 70 46 69 47
REMARK SMILES IDX 34 49 60 50 43 51 59 52 44 53 47 54 58 55 74 56 45 57 46 58
REMARK SMILES IDX 57 60 75 61 48 62 35 63 36 64 41 65 37 66 38 67 40 68 42 69
REMARK SMILES IDX 39 70 61 71 62 72 67 73 63 74 64 75 66 76 68 77 65 78 49 79
REMARK SMILES IDX 50 80 55 81 51 82 52 83 54 84 56 85 53 86
REMARK H PARENT 18 6 5 12 14 23 14 24 23 29 73 48 47 59
REMARK Flexibility Score: inf
ROOT
ATOM      1  C   UNL A   1      37.092  20.861  24.444  1.00  0.00     0.023 C 
ENDROOT
BRANCH   1   2
ATOM      2  C   UNL A   1      36.740  21.910  25.495  1.00  0.00     0.116 C 
BRANCH   2   3
ATOM      3  N   UNL A   1      35.721  21.492  26.441  1.00  0.00    -0.354 N 
ATOM      4  C   UNL A   1      34.359  21.606  26.417  1.00  0.00     0.245 C 
ATOM      5  O   UNL A   1      33.762  21.117  27.383  1.00  0.00    -0.272 OA
ATOM      6  H   UNL A   1      36.075  21.044  27.243  1.00  0.00     0.163 HD
BRANCH   4   7
ATOM      7  C   UNL A   1      33.597  22.309  25.251  1.00  0.00     0.113 C 
ATOM      8  C   UNL A   1      32.196  22.719  25.753  1.00  0.00     0.045 C 
BRANCH   7   9
ATOM      9  C   UNL A   1      33.508  21.274  24.074  1.00  0.00     0.035 C 
ATOM     10  C   UNL A   1      33.399  19.794  24.412  1.00  0.00     0.007 C 
ENDBRANCH   7   9
BRANCH   7  11
ATOM     11  N   UNL A   1      34.245  23.559  24.757  1.00  0.00    -0.371 N 
ATOM     12  H   UNL A   1      35.101  23.408  24.295  1.00  0.00     0.161 HD
BRANCH  11  13
ATOM     13  C   UNL A   1      33.867  24.902  24.824  1.00  0.00     0.049 A 
ATOM     14  C   UNL A   1      33.993  25.657  26.000  1.00  0.00     0.026 A 
ATOM     15  C   UNL A   1      33.394  25.599  23.667  1.00  0.00     0.081 A 
ATOM     16  C   UNL A   1      33.934  27.052  25.998  1.00  0.00     0.004 A 
ATOM     17  C   UNL A   1      33.334  27.013  23.671  1.00  0.00     0.055 A 
ATOM     18  C   UNL A   1      33.653  27.730  24.825  1.00  0.00     0.021 A 
ATOM     19  Cl  UNL A   1      32.861  27.988  22.320  1.00  0.00    -0.083 Cl
BRANCH  15  20
ATOM     20  C   UNL A   1      32.889  24.844  22.468  1.00  0.00     0.252 C 
ATOM     21  N   UNL A   1      31.526  24.768  22.320  1.00  0.00    -0.365 N 
ATOM     22  O   UNL A   1      33.597  24.333  21.619  1.00  0.00    -0.269 OA
ATOM     23  H   UNL A   1      30.935  25.173  22.994  1.00  0.00     0.159 HD
ATOM     24  H   UNL A   1      31.141  24.307  21.540  1.00  0.00     0.159 HD
ENDBRANCH  15  20
ENDBRANCH  11  13
ENDBRANCH   7  11
ENDBRANCH   4   7
ENDBRANCH   2   3
ENDBRANCH   1   2
BRANCH   1  25
ATOM     25  C   UNL A   1      37.958  19.710  24.948  1.00  0.00     0.023 C 
BRANCH  25  26
ATOM     26  C   UNL A   1      39.037  20.132  25.932  1.00  0.00     0.116 C 
BRANCH  26  27
ATOM     27  N   UNL A   1      40.204  19.265  25.869  1.00  0.00    -0.352 N 
ATOM     28  C   UNL A   1      41.529  19.583  26.022  1.00  0.00     0.251 C 
ATOM     29  H   UNL A   1      40.015  18.316  25.692  1.00  0.00     0.163 HD
ATOM     30  O   UNL A   1      42.396  18.767  25.726  1.00  0.00    -0.269 OA
BRANCH  28  31
ATOM     31  C   UNL A   1      41.907  20.917  26.530  1.00  0.00     0.039 A 
ATOM     32  C   UNL A   1      42.296  21.903  25.622  1.00  0.00     0.014 A 
ATOM     33  C   UNL A   1      41.878  21.191  27.900  1.00  0.00     0.014 A 
ATOM     34  C   UNL A   1      42.609  23.181  26.086  1.00  0.00     0.010 A 
ATOM     35  C   UNL A   1      42.091  22.487  28.349  1.00  0.00     0.010 A 
ATOM     36  C   UNL A   1      42.478  23.491  27.450  1.00  0.00    -0.014 A 
BRANCH  36  37
ATOM     37  C   UNL A   1      42.767  24.851  27.963  1.00  0.00     0.031 A 
ATOM     38  C   UNL A   1      44.177  25.230  28.328  1.00  0.00     0.074 A 
ATOM     39  C   UNL A   1      41.756  25.719  28.160  1.00  0.00     0.049 A 
ATOM     40  N   UNL A   1      44.626  26.342  28.853  1.00  0.00    -0.248 NA
ATOM     41  C   UNL A   1      45.218  24.213  28.103  1.00  0.00     0.031 C 
ATOM     42  C   UNL A   1      40.342  25.448  27.890  1.00  0.00     0.029 A 
ATOM     43  N   UNL A   1      41.762  27.004  28.639  1.00  0.00    -0.354 N 
ATOM     44  C   UNL A   1      45.989  26.148  29.037  1.00  0.00     0.074 A 
ATOM     45  C   UNL A   1      46.285  24.795  28.626  1.00  0.00     0.031 C 
ATOM     46  C   UNL A   1      39.623  26.544  28.176  1.00  0.00     0.029 A 
ATOM     47  C   UNL A   1      40.514  27.577  28.690  1.00  0.00     0.049 A 
ATOM     48  H   UNL A   1      42.581  27.471  28.919  1.00  0.00     0.167 HD
ATOM     49  C   UNL A   1      46.915  27.030  29.482  1.00  0.00     0.037 A 
ATOM     50  C   UNL A   1      40.135  28.799  29.111  1.00  0.00     0.037 A 
ATOM     51  C   UNL A   1      46.616  28.385  29.861  1.00  0.00     0.049 A 
ATOM     52  C   UNL A   1      41.182  29.755  29.610  1.00  0.00     0.074 A 
ATOM     53  C   UNL A   1      47.489  29.380  30.263  1.00  0.00     0.029 A 
ATOM     54  N   UNL A   1      45.342  28.933  29.889  1.00  0.00    -0.354 N 
ATOM     55  N   UNL A   1      42.479  29.586  29.708  1.00  0.00    -0.248 NA
ATOM     56  C   UNL A   1      40.714  31.076  30.051  1.00  0.00     0.031 C 
ATOM     57  C   UNL A   1      46.737  30.513  30.587  1.00  0.00     0.029 A 
ATOM     58  C   UNL A   1      45.403  30.245  30.329  1.00  0.00     0.049 A 
ATOM     59  H   UNL A   1      44.517  28.460  29.635  1.00  0.00     0.167 HD
ATOM     60  C   UNL A   1      42.985  30.787  30.190  1.00  0.00     0.074 A 
ATOM     61  C   UNL A   1      41.856  31.679  30.351  1.00  0.00     0.031 C 
ATOM     62  C   UNL A   1      44.268  31.121  30.474  1.00  0.00     0.037 A 
BRANCH  49  63
ATOM     63  C   UNL A   1      48.337  26.553  29.582  1.00  0.00     0.057 A 
ATOM     64  C   UNL A   1      48.831  25.924  30.732  1.00  0.00     0.134 A 
ATOM     65  C   UNL A   1      49.215  26.698  28.501  1.00  0.00     0.134 A 
ATOM     66  F   UNL A   1      48.047  25.764  31.809  1.00  0.00    -0.206 F 
ATOM     67  C   UNL A   1      50.153  25.485  30.816  1.00  0.00     0.040 A 
ATOM     68  C   UNL A   1      50.531  26.233  28.560  1.00  0.00     0.040 A 
ATOM     69  F   UNL A   1      48.809  27.286  27.365  1.00  0.00    -0.206 F 
ATOM     70  C   UNL A   1      51.005  25.632  29.724  1.00  0.00     0.006 A 
ENDBRANCH  49  63
BRANCH  50  71
ATOM     71  C   UNL A   1      38.705  29.196  29.055  1.00  0.00     0.057 A 
ATOM     72  C   UNL A   1      37.884  29.096  30.185  1.00  0.00     0.134 A 
ATOM     73  C   UNL A   1      38.121  29.675  27.876  1.00  0.00     0.134 A 
ATOM     74  F   UNL A   1      38.380  28.630  31.340  1.00  0.00    -0.206 F 
ATOM     75  C   UNL A   1      36.530  29.434  30.139  1.00  0.00     0.040 A 
ATOM     76  C   UNL A   1      36.775  30.043  27.823  1.00  0.00     0.040 A 
ATOM     77  F   UNL A   1      38.854  29.804  26.761  1.00  0.00    -0.206 F 
ATOM     78  C   UNL A   1      35.974  29.914  28.956  1.00  0.00     0.006 A 
ENDBRANCH  50  71
BRANCH  62  79
ATOM     79  C   UNL A   1      44.524  32.522  30.948  1.00  0.00     0.057 A 
ATOM     80  C   UNL A   1      44.562  32.851  32.309  1.00  0.00     0.134 A 
ATOM     81  C   UNL A   1      44.776  33.547  30.027  1.00  0.00     0.134 A 
ATOM     82  F   UNL A   1      44.316  31.918  33.242  1.00  0.00    -0.206 F 
ATOM     83  C   UNL A   1      44.815  34.156  32.736  1.00  0.00     0.040 A 
ATOM     84  C   UNL A   1      45.062  34.848  30.443  1.00  0.00     0.040 A 
ATOM     85  F   UNL A   1      44.767  33.298  28.709  1.00  0.00    -0.206 F 
ATOM     86  C   UNL A   1      45.075  35.157  31.801  1.00  0.00     0.006 A 
ENDBRANCH  62  79
ENDBRANCH  36  37
ENDBRANCH  28  31
ENDBRANCH  26  27
ENDBRANCH  25  26
ENDBRANCH   1  25
TORSDOF 15
ENDMDL
MODEL 3
REMARK VINA RESULT:     -10.8      4.432      9.290
REMARK SMILES CC[C@](C)(Nc1cccc(Cl)c1C(N)=O)C(=O)NCCCCNC(=O)c1ccc(-c2c3nc(c(-c4c(F)cccc4F)c4ccc([nH]4)c(-c4c(F)cccc4F)c4nc(c(-c5c(F)cccc5F)c5ccc2[nH]5)C=C4)C=C3)cc1
REMARK SMILES IDX 20 1 19 2 18 3 16 4 17 5 3 7 4 8 2 9 1 10 5 11 6 13 7 14
REMARK SMILES IDX 12 15 8 16 10 17 9 18 11 19 13 20 14 21 15 22 21 25 22 26
REMARK SMILES IDX 23 27 24 28 25 30 26 31 27 32 79 33 28 34 78 35 29 36 30 37
REMARK SMILES IDX 31 38 72 39 32 40 77 41 71 42 73 43 33 44 76 45 70 46 69 47
REMARK SMILES IDX 34 49 60 50 43 51 59 52 44 53 47 54 58 55 74 56 45 57 46 58
REMARK SMILES IDX 57 60 75 61 48 62 35 63 36 64 41 65 37 66 38 67 40 68 42 69
REMARK SMILES IDX 39 70 61 71 62 72 67 73 63 74 64 75 66 76 68 77 65 78 49 79
REMARK SMILES IDX 50 80 55 81 51 82 52 83 54 84 56 85 53 86
REMARK H PARENT 18 6 5 12 14 23 14 24 23 29 73 48 47 59
REMARK Flexibility Score: inf
ROOT
ATOM      1  C   UNL A   1      31.413  30.693  26.612  1.00  0.00     0.023 C 
ENDROOT
BRANCH   1   2
ATOM      2  C   UNL A   1      32.166  30.018  25.469  1.00  0.00     0.116 C 
BRANCH   2   3
ATOM      3  N   UNL A   1      31.311  29.443  24.446  1.00  0.00    -0.354 N 
ATOM      4  C   UNL A   1      30.963  28.149  24.176  1.00  0.00     0.245 C 
ATOM      5  O   UNL A   1      30.182  27.989  23.231  1.00  0.00    -0.272 OA
ATOM      6  H   UNL A   1      30.909  30.104  23.838  1.00  0.00     0.163 HD
BRANCH   4   7
ATOM      7  C   UNL A   1      31.512  26.943  25.000  1.00  0.00     0.113 C 
ATOM      8  C   UNL A   1      31.176  27.168  26.490  1.00  0.00     0.045 C 
BRANCH   7   9
ATOM      9  C   UNL A   1      33.062  26.893  24.760  1.00  0.00     0.035 C 
ATOM     10  C   UNL A   1      33.955  26.359  25.872  1.00  0.00     0.007 C 
ENDBRANCH   7   9
BRANCH   7  11
ATOM     11  N   UNL A   1      30.917  25.624  24.633  1.00  0.00    -0.371 N 
ATOM     12  H   UNL A   1      29.937  25.591  24.725  1.00  0.00     0.161 HD
BRANCH  11  13
ATOM     13  C   UNL A   1      31.485  24.430  24.185  1.00  0.00     0.049 A 
ATOM     14  C   UNL A   1      31.926  24.261  22.864  1.00  0.00     0.026 A 
ATOM     15  C   UNL A   1      31.712  23.335  25.077  1.00  0.00     0.081 A 
ATOM     16  C   UNL A   1      32.777  23.218  22.491  1.00  0.00     0.004 A 
ATOM     17  C   UNL A   1      32.573  22.279  24.693  1.00  0.00     0.055 A 
ATOM     18  C   UNL A   1      33.139  22.257  23.418  1.00  0.00     0.021 A 
ATOM     19  Cl  UNL A   1      33.002  20.935  25.699  1.00  0.00    -0.083 Cl
BRANCH  15  20
ATOM     20  C   UNL A   1      30.986  23.252  26.393  1.00  0.00     0.252 C 
ATOM     21  N   UNL A   1      29.910  22.403  26.448  1.00  0.00    -0.365 N 
ATOM     22  O   UNL A   1      31.306  23.855  27.402  1.00  0.00    -0.269 OA
ATOM     23  H   UNL A   1      29.633  21.906  25.644  1.00  0.00     0.159 HD
ATOM     24  H   UNL A   1      29.414  22.290  27.291  1.00  0.00     0.159 HD
ENDBRANCH  15  20
ENDBRANCH  11  13
ENDBRANCH   7  11
ENDBRANCH   4   7
ENDBRANCH   2   3
ENDBRANCH   1   2
BRANCH   1  25
ATOM     25  C   UNL A   1      31.442  32.218  26.589  1.00  0.00     0.023 C 
BRANCH  25  26
ATOM     26  C   UNL A   1      32.762  32.819  27.043  1.00  0.00     0.116 C 
BRANCH  26  27
ATOM     27  N   UNL A   1      32.591  34.145  27.618  1.00  0.00    -0.352 N 
ATOM     28  C   UNL A   1      33.203  34.701  28.712  1.00  0.00     0.251 C 
ATOM     29  H   UNL A   1      31.944  34.724  27.157  1.00  0.00     0.163 HD
ATOM     30  O   UNL A   1      32.785  35.752  29.184  1.00  0.00    -0.269 OA
BRANCH  28  31
ATOM     31  C   UNL A   1      34.359  34.019  29.328  1.00  0.00     0.039 A 
ATOM     32  C   UNL A   1      34.132  32.997  30.251  1.00  0.00     0.014 A 
ATOM     33  C   UNL A   1      35.665  34.390  28.993  1.00  0.00     0.014 A 
ATOM     34  C   UNL A   1      35.216  32.314  30.803  1.00  0.00     0.010 A 
ATOM     35  C   UNL A   1      36.737  33.644  29.465  1.00  0.00     0.010 A 
ATOM     36  C   UNL A   1      36.525  32.611  30.390  1.00  0.00    -0.014 A 
BRANCH  36  37
ATOM     37  C   UNL A   1      37.691  31.874  30.932  1.00  0.00     0.031 A 
ATOM     38  C   UNL A   1      38.228  32.219  32.295  1.00  0.00     0.074 A 
ATOM     39  C   UNL A   1      38.303  30.944  30.174  1.00  0.00     0.049 A 
ATOM     40  N   UNL A   1      39.274  31.740  32.918  1.00  0.00    -0.248 NA
ATOM     41  C   UNL A   1      37.512  33.264  33.046  1.00  0.00     0.031 C 
ATOM     42  C   UNL A   1      37.905  30.560  28.818  1.00  0.00     0.029 A 
ATOM     43  N   UNL A   1      39.396  30.157  30.435  1.00  0.00    -0.354 N 
ATOM     44  C   UNL A   1      39.350  32.436  34.117  1.00  0.00     0.074 A 
ATOM     45  C   UNL A   1      38.285  33.412  34.110  1.00  0.00     0.031 C 
ATOM     46  C   UNL A   1      38.720  29.587  28.380  1.00  0.00     0.029 A 
ATOM     47  C   UNL A   1      39.723  29.311  29.403  1.00  0.00     0.049 A 
ATOM     48  H   UNL A   1      39.897  30.193  31.280  1.00  0.00     0.167 HD
ATOM     49  C   UNL A   1      40.214  32.258  35.144  1.00  0.00     0.037 A 
ATOM     50  C   UNL A   1      40.724  28.418  29.294  1.00  0.00     0.037 A 
ATOM     51  C   UNL A   1      41.254  31.264  35.156  1.00  0.00     0.049 A 
ATOM     52  C   UNL A   1      41.677  28.247  30.445  1.00  0.00     0.074 A 
ATOM     53  C   UNL A   1      42.141  30.957  36.171  1.00  0.00     0.029 A 
ATOM     54  N   UNL A   1      41.547  30.419  34.095  1.00  0.00    -0.354 N 
ATOM     55  N   UNL A   1      41.692  28.860  31.604  1.00  0.00    -0.248 NA
ATOM     56  C   UNL A   1      42.747  27.255  30.276  1.00  0.00     0.031 C 
ATOM     57  C   UNL A   1      43.007  29.963  35.705  1.00  0.00     0.029 A 
ATOM     58  C   UNL A   1      42.622  29.608  34.423  1.00  0.00     0.049 A 
ATOM     59  H   UNL A   1      41.065  30.398  33.238  1.00  0.00     0.167 HD
ATOM     60  C   UNL A   1      42.751  28.307  32.314  1.00  0.00     0.074 A 
ATOM     61  C   UNL A   1      43.344  27.299  31.458  1.00  0.00     0.031 C 
ATOM     62  C   UNL A   1      43.193  28.605  33.560  1.00  0.00     0.037 A 
BRANCH  49  63
ATOM     63  C   UNL A   1      40.069  33.159  36.338  1.00  0.00     0.057 A 
ATOM     64  C   UNL A   1      40.807  34.344  36.470  1.00  0.00     0.134 A 
ATOM     65  C   UNL A   1      39.157  32.854  37.356  1.00  0.00     0.134 A 
ATOM     66  F   UNL A   1      41.708  34.690  35.538  1.00  0.00    -0.206 F 
ATOM     67  C   UNL A   1      40.666  35.174  37.583  1.00  0.00     0.040 A 
ATOM     68  C   UNL A   1      38.983  33.693  38.458  1.00  0.00     0.040 A 
ATOM     69  F   UNL A   1      38.413  31.739  37.293  1.00  0.00    -0.206 F 
ATOM     70  C   UNL A   1      39.745  34.853  38.578  1.00  0.00     0.006 A 
ENDBRANCH  49  63
BRANCH  50  71
ATOM     71  C   UNL A   1      40.864  27.599  28.062  1.00  0.00     0.057 A 
ATOM     72  C   UNL A   1      40.255  26.343  27.959  1.00  0.00     0.134 A 
ATOM     73  C   UNL A   1      41.614  28.043  26.967  1.00  0.00     0.134 A 
ATOM     74  F   UNL A   1      39.537  25.855  28.980  1.00  0.00    -0.206 F 
ATOM     75  C   UNL A   1      40.405  25.548  26.821  1.00  0.00     0.040 A 
ATOM     76  C   UNL A   1      41.750  27.271  25.811  1.00  0.00     0.040 A 
ATOM     77  F   UNL A   1      42.216  29.241  26.998  1.00  0.00    -0.206 F 
ATOM     78  C   UNL A   1      41.151  26.014  25.741  1.00  0.00     0.006 A 
ENDBRANCH  50  71
BRANCH  62  79
ATOM     79  C   UNL A   1      44.347  27.804  34.090  1.00  0.00     0.057 A 
ATOM     80  C   UNL A   1      45.670  28.252  33.990  1.00  0.00     0.134 A 
ATOM     81  C   UNL A   1      44.124  26.586  34.745  1.00  0.00     0.134 A 
ATOM     82  F   UNL A   1      45.953  29.405  33.363  1.00  0.00    -0.206 F 
ATOM     83  C   UNL A   1      46.733  27.504  34.500  1.00  0.00     0.040 A 
ATOM     84  C   UNL A   1      45.175  25.845  35.286  1.00  0.00     0.040 A 
ATOM     85  F   UNL A   1      42.880  26.104  34.885  1.00  0.00    -0.206 F 
ATOM     86  C   UNL A   1      46.485  26.300  35.158  1.00  0.00     0.006 A 
ENDBRANCH  62  79
ENDBRANCH  36  37
ENDBRANCH  28  31
ENDBRANCH  26  27
ENDBRANCH  25  26
ENDBRANCH   1  25
TORSDOF 15
ENDMDL
