MODEL 1
REMARK VINA RESULT:     -12.2      0.000      0.000
REMARK SMILES C[C@H](CNS(=O)(=O)c1ccc(C(=O)NCCCCNC(=O)c2ccc(-c3c4nc(c(-c5c(F)cccc5F)c5ccc([nH]5)c(-c5c(F)cccc5F)c5nc(c(-c6c(F)cccc6F)c6ccc3[nH]6)C=C5)C=C4)cc2)o1)c1ccccc1
REMARK SMILES IDX 15 1 14 2 12 3 13 4 11 6 8 7 9 8 76 9 10 10 5 11 6 12 7 13
REMARK SMILES IDX 4 14 3 16 2 17 1 18 77 19 78 20 82 21 79 22 81 23 80 24
REMARK SMILES IDX 16 25 17 26 18 27 19 28 20 29 21 31 22 32 23 33 75 34 24 35
REMARK SMILES IDX 74 36 25 37 26 38 27 39 68 40 28 41 73 42 67 43 69 44 29 45
REMARK SMILES IDX 72 46 66 47 65 48 30 50 56 51 39 52 55 53 40 54 43 55 54 56
REMARK SMILES IDX 70 57 41 58 42 59 53 61 71 62 44 63 31 64 32 65 37 66 33 67
REMARK SMILES IDX 34 68 36 69 38 70 35 71 57 72 58 73 63 74 59 75 60 76 62 77
REMARK SMILES IDX 64 78 61 79 45 80 46 81 51 82 47 83 48 84 50 85 52 86 49 87
REMARK H PARENT 14 5 4 15 19 30 69 49 43 60
REMARK Flexibility Score: inf
ROOT
ATOM      1  C   UNL A   1      31.950  29.689  27.229  1.00  0.00     0.116 C 
ENDROOT
BRANCH   1   2
ATOM      2  N   UNL A   1      33.352  29.547  27.554  1.00  0.00    -0.349 N 
ATOM      3  C   UNL A   1      34.305  28.701  27.037  1.00  0.00     0.287 C 
ATOM      4  O   UNL A   1      35.458  28.881  27.435  1.00  0.00    -0.266 OA
ATOM      5  H   UNL A   1      33.677  30.155  28.257  1.00  0.00     0.163 HD
BRANCH   3   6
ATOM      6  C   UNL A   1      33.959  27.679  26.065  1.00  0.00     0.193 A 
ATOM      7  C   UNL A   1      33.542  27.023  23.964  1.00  0.00     0.234 A 
ATOM      8  C   UNL A   1      33.412  25.912  24.782  1.00  0.00     0.065 A 
ATOM      9  O   UNL A   1      33.870  28.094  24.762  1.00  0.00    -0.438 OA
ATOM     10  C   UNL A   1      33.710  26.320  26.104  1.00  0.00     0.058 A 
BRANCH   7  11
ATOM     11  S   UNL A   1      33.371  27.193  22.197  1.00  0.00     0.274 S 
ATOM     12  O   UNL A   1      33.677  25.888  21.654  1.00  0.00    -0.204 OA
ATOM     13  O   UNL A   1      34.154  28.359  21.858  1.00  0.00    -0.204 OA
BRANCH  11  14
ATOM     14  N   UNL A   1      31.762  27.564  21.852  1.00  0.00    -0.208 NA
ATOM     15  H   UNL A   1      31.756  28.201  21.056  1.00  0.00     0.141 HD
BRANCH  14  16
ATOM     16  C   UNL A   1      30.978  28.197  22.943  1.00  0.00     0.107 C 
BRANCH  16  17
ATOM     17  C   UNL A   1      29.512  28.441  22.502  1.00  0.00     0.031 C 
ATOM     18  C   UNL A   1      28.562  27.603  23.369  1.00  0.00     0.014 C 
BRANCH  17  19
ATOM     19  C   UNL A   1      29.202  29.937  22.442  1.00  0.00    -0.044 A 
ATOM     20  C   UNL A   1      29.268  30.696  23.627  1.00  0.00     0.004 A 
ATOM     21  C   UNL A   1      28.765  30.578  21.274  1.00  0.00     0.004 A 
ATOM     22  C   UNL A   1      28.856  32.028  23.653  1.00  0.00     0.000 A 
ATOM     23  C   UNL A   1      28.364  31.917  21.299  1.00  0.00     0.000 A 
ATOM     24  C   UNL A   1      28.395  32.637  22.489  1.00  0.00     0.000 A 
ENDBRANCH  17  19
ENDBRANCH  16  17
ENDBRANCH  14  16
ENDBRANCH  11  14
ENDBRANCH   7  11
ENDBRANCH   3   6
ENDBRANCH   1   2
BRANCH   1  25
ATOM     25  C   UNL A   1      31.743  30.718  26.119  1.00  0.00     0.023 C 
BRANCH  25  26
ATOM     26  C   UNL A   1      31.432  32.128  26.630  1.00  0.00     0.023 C 
BRANCH  26  27
ATOM     27  C   UNL A   1      32.591  32.833  27.331  1.00  0.00     0.116 C 
BRANCH  27  28
ATOM     28  N   UNL A   1      32.309  34.221  27.665  1.00  0.00    -0.352 N 
ATOM     29  C   UNL A   1      32.960  35.034  28.560  1.00  0.00     0.251 C 
ATOM     30  H   UNL A   1      31.552  34.632  27.186  1.00  0.00     0.163 HD
ATOM     31  O   UNL A   1      32.536  36.158  28.807  1.00  0.00    -0.269 OA
BRANCH  29  32
ATOM     32  C   UNL A   1      34.158  34.522  29.256  1.00  0.00     0.039 A 
ATOM     33  C   UNL A   1      34.001  33.906  30.499  1.00  0.00     0.014 A 
ATOM     34  C   UNL A   1      35.417  34.605  28.658  1.00  0.00     0.014 A 
ATOM     35  C   UNL A   1      35.102  33.305  31.111  1.00  0.00     0.010 A 
ATOM     36  C   UNL A   1      36.497  33.945  29.234  1.00  0.00     0.010 A 
ATOM     37  C   UNL A   1      36.348  33.284  30.463  1.00  0.00    -0.014 A 
BRANCH  37  38
ATOM     38  C   UNL A   1      37.507  32.565  31.047  1.00  0.00     0.031 A 
ATOM     39  C   UNL A   1      38.110  33.031  32.343  1.00  0.00     0.074 A 
ATOM     40  C   UNL A   1      38.062  31.538  30.374  1.00  0.00     0.049 A 
ATOM     41  N   UNL A   1      39.168  32.585  32.970  1.00  0.00    -0.248 NA
ATOM     42  C   UNL A   1      37.453  34.169  33.006  1.00  0.00     0.031 C 
ATOM     43  C   UNL A   1      37.600  31.023  29.083  1.00  0.00     0.029 A 
ATOM     44  N   UNL A   1      39.144  30.751  30.677  1.00  0.00    -0.354 N 
ATOM     45  C   UNL A   1      39.311  33.394  34.091  1.00  0.00     0.074 A 
ATOM     46  C   UNL A   1      38.265  34.392  34.029  1.00  0.00     0.031 C 
ATOM     47  C   UNL A   1      38.379  29.994  28.716  1.00  0.00     0.029 A 
ATOM     48  C   UNL A   1      39.417  29.800  29.723  1.00  0.00     0.049 A 
ATOM     49  H   UNL A   1      39.675  30.858  31.499  1.00  0.00     0.167 HD
ATOM     50  C   UNL A   1      40.215  33.298  35.093  1.00  0.00     0.037 A 
ATOM     51  C   UNL A   1      40.400  28.881  29.664  1.00  0.00     0.037 A 
ATOM     52  C   UNL A   1      41.240  32.289  35.163  1.00  0.00     0.049 A 
ATOM     53  C   UNL A   1      41.399  28.803  30.785  1.00  0.00     0.074 A 
ATOM     54  C   UNL A   1      42.166  32.070  36.167  1.00  0.00     0.029 A 
ATOM     55  N   UNL A   1      41.474  31.332  34.186  1.00  0.00    -0.354 N 
ATOM     56  N   UNL A   1      41.480  29.528  31.874  1.00  0.00    -0.248 NA
ATOM     57  C   UNL A   1      42.442  27.773  30.671  1.00  0.00     0.031 C 
ATOM     58  C   UNL A   1      42.991  31.010  35.778  1.00  0.00     0.029 A 
ATOM     59  C   UNL A   1      42.546  30.536  34.553  1.00  0.00     0.049 A 
ATOM     60  H   UNL A   1      40.956  31.235  33.355  1.00  0.00     0.167 HD
ATOM     61  C   UNL A   1      42.559  29.026  32.587  1.00  0.00     0.074 A 
ATOM     62  C   UNL A   1      43.097  27.924  31.814  1.00  0.00     0.031 C 
ATOM     63  C   UNL A   1      43.062  29.439  33.776  1.00  0.00     0.037 A 
BRANCH  50  64
ATOM     64  C   UNL A   1      40.135  34.311  36.198  1.00  0.00     0.057 A 
ATOM     65  C   UNL A   1      40.803  35.541  36.121  1.00  0.00     0.134 A 
ATOM     66  C   UNL A   1      39.355  34.070  37.335  1.00  0.00     0.134 A 
ATOM     67  F   UNL A   1      41.577  35.831  35.064  1.00  0.00    -0.206 F 
ATOM     68  C   UNL A   1      40.721  36.482  37.149  1.00  0.00     0.040 A 
ATOM     69  C   UNL A   1      39.242  35.014  38.357  1.00  0.00     0.040 A 
ATOM     70  F   UNL A   1      38.685  32.916  37.471  1.00  0.00    -0.206 F 
ATOM     71  C   UNL A   1      39.933  36.222  38.268  1.00  0.00     0.006 A 
ENDBRANCH  50  64
BRANCH  51  72
ATOM     72  C   UNL A   1      40.478  27.948  28.511  1.00  0.00     0.057 A 
ATOM     73  C   UNL A   1      39.827  26.710  28.541  1.00  0.00     0.134 A 
ATOM     74  C   UNL A   1      41.211  28.263  27.361  1.00  0.00     0.134 A 
ATOM     75  F   UNL A   1      39.124  26.344  29.624  1.00  0.00    -0.206 F 
ATOM     76  C   UNL A   1      39.916  25.809  27.479  1.00  0.00     0.040 A 
ATOM     77  C   UNL A   1      41.289  27.383  26.280  1.00  0.00     0.040 A 
ATOM     78  F   UNL A   1      41.852  29.437  27.266  1.00  0.00    -0.206 F 
ATOM     79  C   UNL A   1      40.646  26.147  26.342  1.00  0.00     0.006 A 
ENDBRANCH  51  72
BRANCH  63  80
ATOM     80  C   UNL A   1      44.229  28.675  34.332  1.00  0.00     0.057 A 
ATOM     81  C   UNL A   1      44.057  27.533  35.125  1.00  0.00     0.134 A 
ATOM     82  C   UNL A   1      45.542  29.063  34.030  1.00  0.00     0.134 A 
ATOM     83  F   UNL A   1      42.827  27.118  35.460  1.00  0.00    -0.206 F 
ATOM     84  C   UNL A   1      45.150  26.818  35.617  1.00  0.00     0.040 A 
ATOM     85  C   UNL A   1      46.641  28.339  34.494  1.00  0.00     0.040 A 
ATOM     86  F   UNL A   1      45.775  30.142  33.269  1.00  0.00    -0.206 F 
ATOM     87  C   UNL A   1      46.446  27.215  35.294  1.00  0.00     0.006 A 
ENDBRANCH  63  80
ENDBRANCH  37  38
ENDBRANCH  29  32
ENDBRANCH  27  28
ENDBRANCH  26  27
ENDBRANCH  25  26
ENDBRANCH   1  25
TORSDOF 16
ENDMDL
MODEL 2
REMARK VINA RESULT:     -12.0      1.095      2.270
REMARK SMILES C[C@H](CNS(=O)(=O)c1ccc(C(=O)NCCCCNC(=O)c2ccc(-c3c4nc(c(-c5c(F)cccc5F)c5ccc([nH]5)c(-c5c(F)cccc5F)c5nc(c(-c6c(F)cccc6F)c6ccc3[nH]6)C=C5)C=C4)cc2)o1)c1ccccc1
REMARK SMILES IDX 15 1 14 2 12 3 13 4 11 6 8 7 9 8 76 9 10 10 5 11 6 12 7 13
REMARK SMILES IDX 4 14 3 16 2 17 1 18 77 19 78 20 82 21 79 22 81 23 80 24
REMARK SMILES IDX 16 25 17 26 18 27 19 28 20 29 21 31 22 32 23 33 75 34 24 35
REMARK SMILES IDX 74 36 25 37 26 38 27 39 68 40 28 41 73 42 67 43 69 44 29 45
REMARK SMILES IDX 72 46 66 47 65 48 30 50 56 51 39 52 55 53 40 54 43 55 54 56
REMARK SMILES IDX 70 57 41 58 42 59 53 61 71 62 44 63 31 64 32 65 37 66 33 67
REMARK SMILES IDX 34 68 36 69 38 70 35 71 57 72 58 73 63 74 59 75 60 76 62 77
REMARK SMILES IDX 64 78 61 79 45 80 46 81 51 82 47 83 48 84 50 85 52 86 49 87
REMARK H PARENT 14 5 4 15 19 30 69 49 43 60
REMARK Flexibility Score: inf
ROOT
ATOM      1  C   UNL A   1      31.877  29.629  27.095  1.00  0.00     0.116 C 
ENDROOT
BRANCH   1   2
ATOM      2  N   UNL A   1      33.241  29.534  27.563  1.00  0.00    -0.349 N 
ATOM      3  C   UNL A   1      34.279  28.743  27.128  1.00  0.00     0.287 C 
ATOM      4  O   UNL A   1      35.375  28.958  27.651  1.00  0.00    -0.266 OA
ATOM      5  H   UNL A   1      33.464  30.133  28.312  1.00  0.00     0.163 HD
BRANCH   3   6
ATOM      6  C   UNL A   1      34.082  27.738  26.100  1.00  0.00     0.193 A 
ATOM      7  C   UNL A   1      33.722  27.147  23.970  1.00  0.00     0.234 A 
ATOM      8  C   UNL A   1      33.802  25.984  24.718  1.00  0.00     0.065 A 
ATOM      9  O   UNL A   1      33.889  28.208  24.828  1.00  0.00    -0.438 OA
ATOM     10  C   UNL A   1      34.063  26.356  26.057  1.00  0.00     0.058 A 
BRANCH   7  11
ATOM     11  S   UNL A   1      33.477  27.390  22.220  1.00  0.00     0.274 S 
ATOM     12  O   UNL A   1      33.505  26.066  21.639  1.00  0.00    -0.204 OA
ATOM     13  O   UNL A   1      34.439  28.403  21.847  1.00  0.00    -0.204 OA
BRANCH  11  14
ATOM     14  N   UNL A   1      31.945  28.057  21.985  1.00  0.00    -0.208 NA
ATOM     15  H   UNL A   1      31.804  28.766  22.704  1.00  0.00     0.141 HD
BRANCH  14  16
ATOM     16  C   UNL A   1      30.796  27.117  22.046  1.00  0.00     0.107 C 
BRANCH  16  17
ATOM     17  C   UNL A   1      30.140  27.135  23.451  1.00  0.00     0.031 C 
ATOM     18  C   UNL A   1      28.699  27.654  23.345  1.00  0.00     0.014 C 
BRANCH  17  19
ATOM     19  C   UNL A   1      30.303  25.783  24.147  1.00  0.00    -0.044 A 
ATOM     20  C   UNL A   1      30.177  25.717  25.548  1.00  0.00     0.004 A 
ATOM     21  C   UNL A   1      30.662  24.613  23.463  1.00  0.00     0.004 A 
ATOM     22  C   UNL A   1      30.458  24.540  26.242  1.00  0.00     0.000 A 
ATOM     23  C   UNL A   1      30.932  23.431  24.159  1.00  0.00     0.000 A 
ATOM     24  C   UNL A   1      30.844  23.398  25.547  1.00  0.00     0.000 A 
ENDBRANCH  17  19
ENDBRANCH  16  17
ENDBRANCH  14  16
ENDBRANCH  11  14
ENDBRANCH   7  11
ENDBRANCH   3   6
ENDBRANCH   1   2
BRANCH   1  25
ATOM     25  C   UNL A   1      31.707  30.795  26.124  1.00  0.00     0.023 C 
BRANCH  25  26
ATOM     26  C   UNL A   1      31.400  32.132  26.806  1.00  0.00     0.023 C 
BRANCH  26  27
ATOM     27  C   UNL A   1      32.623  32.907  27.290  1.00  0.00     0.116 C 
BRANCH  27  28
ATOM     28  N   UNL A   1      32.332  34.288  27.643  1.00  0.00    -0.352 N 
ATOM     29  C   UNL A   1      32.970  35.089  28.560  1.00  0.00     0.251 C 
ATOM     30  H   UNL A   1      31.580  34.704  27.163  1.00  0.00     0.163 HD
ATOM     31  O   UNL A   1      32.539  36.206  28.821  1.00  0.00    -0.269 OA
BRANCH  29  32
ATOM     32  C   UNL A   1      34.161  34.569  29.261  1.00  0.00     0.039 A 
ATOM     33  C   UNL A   1      33.998  33.974  30.513  1.00  0.00     0.014 A 
ATOM     34  C   UNL A   1      35.421  34.625  28.660  1.00  0.00     0.014 A 
ATOM     35  C   UNL A   1      35.091  33.365  31.133  1.00  0.00     0.010 A 
ATOM     36  C   UNL A   1      36.491  33.957  29.243  1.00  0.00     0.010 A 
ATOM     37  C   UNL A   1      36.336  33.316  30.483  1.00  0.00    -0.014 A 
BRANCH  37  38
ATOM     38  C   UNL A   1      37.485  32.589  31.075  1.00  0.00     0.031 A 
ATOM     39  C   UNL A   1      38.072  33.042  32.383  1.00  0.00     0.074 A 
ATOM     40  C   UNL A   1      38.045  31.567  30.400  1.00  0.00     0.049 A 
ATOM     41  N   UNL A   1      39.121  32.588  33.020  1.00  0.00    -0.248 NA
ATOM     42  C   UNL A   1      37.410  34.177  33.047  1.00  0.00     0.031 C 
ATOM     43  C   UNL A   1      37.598  31.064  29.100  1.00  0.00     0.029 A 
ATOM     44  N   UNL A   1      39.121  30.773  30.710  1.00  0.00    -0.354 N 
ATOM     45  C   UNL A   1      39.251  33.386  34.149  1.00  0.00     0.074 A 
ATOM     46  C   UNL A   1      38.210  34.388  34.082  1.00  0.00     0.031 C 
ATOM     47  C   UNL A   1      38.379  30.035  28.734  1.00  0.00     0.029 A 
ATOM     48  C   UNL A   1      39.404  29.830  29.752  1.00  0.00     0.049 A 
ATOM     49  H   UNL A   1      39.642  30.871  31.540  1.00  0.00     0.167 HD
ATOM     50  C   UNL A   1      40.143  33.279  35.162  1.00  0.00     0.037 A 
ATOM     51  C   UNL A   1      40.385  28.909  29.698  1.00  0.00     0.037 A 
ATOM     52  C   UNL A   1      41.164  32.267  35.236  1.00  0.00     0.049 A 
ATOM     53  C   UNL A   1      41.370  28.818  30.830  1.00  0.00     0.074 A 
ATOM     54  C   UNL A   1      42.077  32.036  36.250  1.00  0.00     0.029 A 
ATOM     55  N   UNL A   1      41.408  31.317  34.254  1.00  0.00    -0.354 N 
ATOM     56  N   UNL A   1      41.438  29.533  31.926  1.00  0.00    -0.248 NA
ATOM     57  C   UNL A   1      42.410  27.786  30.721  1.00  0.00     0.031 C 
ATOM     58  C   UNL A   1      42.903  30.977  35.862  1.00  0.00     0.029 A 
ATOM     59  C   UNL A   1      42.473  30.515  34.628  1.00  0.00     0.049 A 
ATOM     60  H   UNL A   1      40.900  31.228  33.416  1.00  0.00     0.167 HD
ATOM     61  C   UNL A   1      42.507  29.021  32.649  1.00  0.00     0.074 A 
ATOM     62  C   UNL A   1      43.051  27.926  31.873  1.00  0.00     0.031 C 
ATOM     63  C   UNL A   1      42.996  29.423  33.848  1.00  0.00     0.037 A 
BRANCH  50  64
ATOM     64  C   UNL A   1      40.051  34.283  36.274  1.00  0.00     0.057 A 
ATOM     65  C   UNL A   1      40.713  35.517  36.211  1.00  0.00     0.134 A 
ATOM     66  C   UNL A   1      39.267  34.028  37.406  1.00  0.00     0.134 A 
ATOM     67  F   UNL A   1      41.491  35.819  35.160  1.00  0.00    -0.206 F 
ATOM     68  C   UNL A   1      40.620  36.449  37.246  1.00  0.00     0.040 A 
ATOM     69  C   UNL A   1      39.144  34.964  38.434  1.00  0.00     0.040 A 
ATOM     70  F   UNL A   1      38.602  32.870  37.528  1.00  0.00    -0.206 F 
ATOM     71  C   UNL A   1      39.828  36.176  38.359  1.00  0.00     0.006 A 
ENDBRANCH  50  64
BRANCH  51  72
ATOM     72  C   UNL A   1      40.475  27.985  28.538  1.00  0.00     0.057 A 
ATOM     73  C   UNL A   1      39.820  26.749  28.549  1.00  0.00     0.134 A 
ATOM     74  C   UNL A   1      41.223  28.309  27.400  1.00  0.00     0.134 A 
ATOM     75  F   UNL A   1      39.103  26.375  29.619  1.00  0.00    -0.206 F 
ATOM     76  C   UNL A   1      39.921  25.857  27.480  1.00  0.00     0.040 A 
ATOM     77  C   UNL A   1      41.313  27.437  26.312  1.00  0.00     0.040 A 
ATOM     78  F   UNL A   1      41.868  29.481  27.323  1.00  0.00    -0.206 F 
ATOM     79  C   UNL A   1      40.666  26.203  26.355  1.00  0.00     0.006 A 
ENDBRANCH  51  72
BRANCH  63  80
ATOM     80  C   UNL A   1      44.153  28.651  34.412  1.00  0.00     0.057 A 
ATOM     81  C   UNL A   1      45.480  29.042  34.194  1.00  0.00     0.134 A 
ATOM     82  C   UNL A   1      43.932  27.528  35.222  1.00  0.00     0.134 A 
ATOM     83  F   UNL A   1      45.759  30.099  33.418  1.00  0.00    -0.206 F 
ATOM     84  C   UNL A   1      46.548  28.330  34.743  1.00  0.00     0.040 A 
ATOM     85  C   UNL A   1      44.992  26.825  35.798  1.00  0.00     0.040 A 
ATOM     86  F   UNL A   1      42.685  27.107  35.477  1.00  0.00    -0.206 F 
ATOM     87  C   UNL A   1      46.304  27.223  35.554  1.00  0.00     0.006 A 
ENDBRANCH  63  80
ENDBRANCH  37  38
ENDBRANCH  29  32
ENDBRANCH  27  28
ENDBRANCH  26  27
ENDBRANCH  25  26
ENDBRANCH   1  25
TORSDOF 16
ENDMDL
MODEL 3
REMARK VINA RESULT:     -12.0      5.310      9.394
REMARK SMILES C[C@H](CNS(=O)(=O)c1ccc(C(=O)NCCCCNC(=O)c2ccc(-c3c4nc(c(-c5c(F)cccc5F)c5ccc([nH]5)c(-c5c(F)cccc5F)c5nc(c(-c6c(F)cccc6F)c6ccc3[nH]6)C=C5)C=C4)cc2)o1)c1ccccc1
REMARK SMILES IDX 15 1 14 2 12 3 13 4 11 6 8 7 9 8 76 9 10 10 5 11 6 12 7 13
REMARK SMILES IDX 4 14 3 16 2 17 1 18 77 19 78 20 82 21 79 22 81 23 80 24
REMARK SMILES IDX 16 25 17 26 18 27 19 28 20 29 21 31 22 32 23 33 75 34 24 35
REMARK SMILES IDX 74 36 25 37 26 38 27 39 68 40 28 41 73 42 67 43 69 44 29 45
REMARK SMILES IDX 72 46 66 47 65 48 30 50 56 51 39 52 55 53 40 54 43 55 54 56
REMARK SMILES IDX 70 57 41 58 42 59 53 61 71 62 44 63 31 64 32 65 37 66 33 67
REMARK SMILES IDX 34 68 36 69 38 70 35 71 57 72 58 73 63 74 59 75 60 76 62 77
REMARK SMILES IDX 64 78 61 79 45 80 46 81 51 82 47 83 48 84 50 85 52 86 49 87
REMARK H PARENT 14 5 4 15 19 30 69 49 43 60
REMARK Flexibility Score: inf
ROOT
ATOM      1  C   UNL A   1      36.867  22.375  25.814  1.00  0.00     0.116 C 
ENDROOT
BRANCH   1   2
ATOM      2  N   UNL A   1      35.621  22.122  26.501  1.00  0.00    -0.349 N 
ATOM      3  C   UNL A   1      34.403  22.753  26.401  1.00  0.00     0.287 C 
ATOM      4  O   UNL A   1      33.479  22.245  27.039  1.00  0.00    -0.266 OA
ATOM      5  H   UNL A   1      35.648  21.376  27.145  1.00  0.00     0.163 HD
BRANCH   3   6
ATOM      6  C   UNL A   1      34.231  23.931  25.570  1.00  0.00     0.193 A 
ATOM      7  C   UNL A   1      33.652  24.911  23.641  1.00  0.00     0.234 A 
ATOM      8  C   UNL A   1      34.061  25.909  24.510  1.00  0.00     0.065 A 
ATOM      9  O   UNL A   1      33.768  23.710  24.300  1.00  0.00    -0.438 OA
ATOM     10  C   UNL A   1      34.393  25.294  25.739  1.00  0.00     0.058 A 
BRANCH   7  11
ATOM     11  S   UNL A   1      33.045  25.003  21.966  1.00  0.00     0.274 S 
ATOM     12  O   UNL A   1      33.283  23.694  21.399  1.00  0.00    -0.204 OA
ATOM     13  O   UNL A   1      33.653  26.192  21.414  1.00  0.00    -0.204 OA
BRANCH  11  14
ATOM     14  N   UNL A   1      31.382  25.280  22.019  1.00  0.00    -0.208 NA
ATOM     15  H   UNL A   1      31.210  26.203  21.622  1.00  0.00     0.141 HD
BRANCH  14  16
ATOM     16  C   UNL A   1      30.744  25.240  23.361  1.00  0.00     0.107 C 
BRANCH  16  17
ATOM     17  C   UNL A   1      30.028  26.579  23.673  1.00  0.00     0.031 C 
ATOM     18  C   UNL A   1      28.528  26.329  23.882  1.00  0.00     0.014 C 
BRANCH  17  19
ATOM     19  C   UNL A   1      30.734  27.325  24.806  1.00  0.00    -0.044 A 
ATOM     20  C   UNL A   1      31.357  28.557  24.527  1.00  0.00     0.004 A 
ATOM     21  C   UNL A   1      30.870  26.797  26.097  1.00  0.00     0.004 A 
ATOM     22  C   UNL A   1      32.135  29.205  25.487  1.00  0.00     0.000 A 
ATOM     23  C   UNL A   1      31.640  27.453  27.062  1.00  0.00     0.000 A 
ATOM     24  C   UNL A   1      32.283  28.647  26.753  1.00  0.00     0.000 A 
ENDBRANCH  17  19
ENDBRANCH  16  17
ENDBRANCH  14  16
ENDBRANCH  11  14
ENDBRANCH   7  11
ENDBRANCH   3   6
ENDBRANCH   1   2
BRANCH   1  25
ATOM     25  C   UNL A   1      37.052  21.416  24.638  1.00  0.00     0.023 C 
BRANCH  25  26
ATOM     26  C   UNL A   1      37.877  20.171  24.978  1.00  0.00     0.023 C 
BRANCH  26  27
ATOM     27  C   UNL A   1      39.156  20.437  25.768  1.00  0.00     0.116 C 
BRANCH  27  28
ATOM     28  N   UNL A   1      40.041  19.285  25.844  1.00  0.00    -0.352 N 
ATOM     29  C   UNL A   1      41.390  19.259  26.100  1.00  0.00     0.251 C 
ATOM     30  H   UNL A   1      39.617  18.408  25.693  1.00  0.00     0.163 HD
ATOM     31  O   UNL A   1      42.020  18.209  26.028  1.00  0.00    -0.269 OA
BRANCH  29  32
ATOM     32  C   UNL A   1      42.085  20.522  26.422  1.00  0.00     0.039 A 
ATOM     33  C   UNL A   1      42.520  21.335  25.374  1.00  0.00     0.014 A 
ATOM     34  C   UNL A   1      42.256  20.920  27.749  1.00  0.00     0.014 A 
ATOM     35  C   UNL A   1      43.063  22.590  25.659  1.00  0.00     0.010 A 
ATOM     36  C   UNL A   1      42.731  22.197  28.028  1.00  0.00     0.010 A 
ATOM     37  C   UNL A   1      43.134  23.046  26.985  1.00  0.00    -0.014 A 
BRANCH  37  38
ATOM     38  C   UNL A   1      43.614  24.413  27.304  1.00  0.00     0.031 A 
ATOM     39  C   UNL A   1      42.643  25.467  27.757  1.00  0.00     0.074 A 
ATOM     40  C   UNL A   1      44.911  24.724  27.116  1.00  0.00     0.049 A 
ATOM     41  N   UNL A   1      42.855  26.734  28.007  1.00  0.00    -0.248 NA
ATOM     42  C   UNL A   1      41.242  25.048  27.922  1.00  0.00     0.031 C 
ATOM     43  C   UNL A   1      45.942  23.803  26.634  1.00  0.00     0.029 A 
ATOM     44  N   UNL A   1      45.582  25.907  27.297  1.00  0.00    -0.354 N 
ATOM     45  C   UNL A   1      41.617  27.264  28.344  1.00  0.00     0.074 A 
ATOM     46  C   UNL A   1      40.649  26.196  28.214  1.00  0.00     0.031 C 
ATOM     47  C   UNL A   1      47.118  24.448  26.577  1.00  0.00     0.029 A 
ATOM     48  C   UNL A   1      46.918  25.836  26.981  1.00  0.00     0.049 A 
ATOM     49  H   UNL A   1      45.148  26.729  27.621  1.00  0.00     0.167 HD
ATOM     50  C   UNL A   1      41.317  28.520  28.750  1.00  0.00     0.037 A 
ATOM     51  C   UNL A   1      47.872  26.787  27.007  1.00  0.00     0.037 A 
ATOM     52  C   UNL A   1      42.285  29.574  28.900  1.00  0.00     0.049 A 
ATOM     53  C   UNL A   1      47.510  28.177  27.450  1.00  0.00     0.074 A 
ATOM     54  C   UNL A   1      42.092  30.863  29.363  1.00  0.00     0.029 A 
ATOM     55  N   UNL A   1      43.632  29.459  28.587  1.00  0.00    -0.354 N 
ATOM     56  N   UNL A   1      46.349  28.647  27.835  1.00  0.00    -0.248 NA
ATOM     57  C   UNL A   1      48.595  29.169  27.469  1.00  0.00     0.031 C 
ATOM     58  C   UNL A   1      43.311  31.543  29.287  1.00  0.00     0.029 A 
ATOM     59  C   UNL A   1      44.276  30.662  28.824  1.00  0.00     0.049 A 
ATOM     60  H   UNL A   1      44.065  28.643  28.246  1.00  0.00     0.167 HD
ATOM     61  C   UNL A   1      46.567  29.977  28.169  1.00  0.00     0.074 A 
ATOM     62  C   UNL A   1      47.976  30.237  27.953  1.00  0.00     0.031 C 
ATOM     63  C   UNL A   1      45.680  30.901  28.613  1.00  0.00     0.037 A 
BRANCH  50  64
ATOM     64  C   UNL A   1      39.879  28.822  29.062  1.00  0.00     0.057 A 
ATOM     65  C   UNL A   1      38.979  29.234  28.069  1.00  0.00     0.134 A 
ATOM     66  C   UNL A   1      39.382  28.669  30.362  1.00  0.00     0.134 A 
ATOM     67  F   UNL A   1      39.394  29.411  26.806  1.00  0.00    -0.206 F 
ATOM     68  C   UNL A   1      37.643  29.508  28.365  1.00  0.00     0.040 A 
ATOM     69  C   UNL A   1      38.041  28.914  30.664  1.00  0.00     0.040 A 
ATOM     70  F   UNL A   1      40.187  28.273  31.359  1.00  0.00    -0.206 F 
ATOM     71  C   UNL A   1      37.169  29.342  29.664  1.00  0.00     0.006 A 
ENDBRANCH  50  64
BRANCH  51  72
ATOM     72  C   UNL A   1      49.266  26.453  26.618  1.00  0.00     0.057 A 
ATOM     73  C   UNL A   1      49.718  26.662  25.310  1.00  0.00     0.134 A 
ATOM     74  C   UNL A   1      50.173  25.911  27.535  1.00  0.00     0.134 A 
ATOM     75  F   UNL A   1      48.890  27.162  24.381  1.00  0.00    -0.206 F 
ATOM     76  C   UNL A   1      51.015  26.324  24.921  1.00  0.00     0.040 A 
ATOM     77  C   UNL A   1      51.481  25.591  27.167  1.00  0.00     0.040 A 
ATOM     78  F   UNL A   1      49.804  25.694  28.806  1.00  0.00    -0.206 F 
ATOM     79  C   UNL A   1      51.903  25.791  25.853  1.00  0.00     0.006 A 
ENDBRANCH  51  72
BRANCH  63  80
ATOM     80  C   UNL A   1      46.214  32.268  28.932  1.00  0.00     0.057 A 
ATOM     81  C   UNL A   1      46.229  33.297  27.981  1.00  0.00     0.134 A 
ATOM     82  C   UNL A   1      46.676  32.568  30.220  1.00  0.00     0.134 A 
ATOM     83  F   UNL A   1      45.813  33.069  26.727  1.00  0.00    -0.206 F 
ATOM     84  C   UNL A   1      46.706  34.570  28.295  1.00  0.00     0.040 A 
ATOM     85  C   UNL A   1      47.129  33.846  30.553  1.00  0.00     0.040 A 
ATOM     86  F   UNL A   1      46.679  31.631  31.178  1.00  0.00    -0.206 F 
ATOM     87  C   UNL A   1      47.149  34.850  29.586  1.00  0.00     0.006 A 
ENDBRANCH  63  80
ENDBRANCH  37  38
ENDBRANCH  29  32
ENDBRANCH  27  28
ENDBRANCH  26  27
ENDBRANCH  25  26
ENDBRANCH   1  25
TORSDOF 16
ENDMDL
