MODEL 1
REMARK VINA RESULT:     -11.7      0.000      0.000
REMARK SMILES CC[C@]1(C(=O)NCCCCNC(=O)c2ccc(-c3c4nc(c(-c5c(F)cccc5F)c5ccc([nH]5)c(-c5c(F)cccc5F)c5nc(c(-c6c(F)cccc6F)c6ccc3[nH]6)C=C5)C=C4)cc2)CCC[N@@H+](Cc2cc(OC)ccc2F)C1
REMARK SMILES IDX 8 1 7 2 6 3 4 4 5 5 3 7 68 8 82 9 69 10 71 11 70 12 2 14
REMARK SMILES IDX 1 15 72 16 73 17 74 18 80 19 75 20 79 21 81 22 78 23 76 24
REMARK SMILES IDX 77 25 9 26 10 27 11 28 12 29 13 31 14 32 15 33 67 34 16 35
REMARK SMILES IDX 66 36 17 37 18 38 19 39 60 40 20 41 65 42 59 43 61 44 21 45
REMARK SMILES IDX 64 46 58 47 57 48 22 50 48 51 31 52 47 53 32 54 35 55 46 56
REMARK SMILES IDX 62 57 33 58 34 59 45 61 63 62 36 63 23 64 24 65 29 66 25 67
REMARK SMILES IDX 26 68 28 69 30 70 27 71 49 72 50 73 55 74 51 75 52 76 54 77
REMARK SMILES IDX 56 78 53 79 37 80 38 81 43 82 39 83 40 84 42 85 44 86 41 87
REMARK H PARENT 6 6 71 13 11 30 61 49 35 60
REMARK Flexibility Score: inf
ROOT
ATOM      1  C   UNL A   1      36.485  20.605  24.985  1.00  0.00     0.023 C 
ENDROOT
BRANCH   1   2
ATOM      2  C   UNL A   1      36.529  21.877  25.833  1.00  0.00     0.116 C 
BRANCH   2   3
ATOM      3  N   UNL A   1      35.445  21.938  26.800  1.00  0.00    -0.355 N 
ATOM      4  C   UNL A   1      34.201  22.496  26.769  1.00  0.00     0.231 C 
ATOM      5  O   UNL A   1      33.556  22.372  27.815  1.00  0.00    -0.274 OA
ATOM      6  H   UNL A   1      35.651  21.484  27.648  1.00  0.00     0.163 HD
BRANCH   4   7
ATOM      7  C   UNL A   1      33.612  23.228  25.524  1.00  0.00     0.098 C 
ATOM      8  C   UNL A   1      33.351  22.195  24.399  1.00  0.00     0.028 C 
ATOM      9  C   UNL A   1      32.331  23.975  25.966  1.00  0.00     0.279 C 
ATOM     10  C   UNL A   1      32.242  22.555  23.411  1.00  0.00     0.063 C 
ATOM     11  N   UNL A   1      31.460  24.354  24.847  1.00  0.00    -0.330 N 
ATOM     12  C   UNL A   1      31.026  23.197  24.076  1.00  0.00     0.262 C 
ATOM     13  H   UNL A   1      32.036  24.904  24.211  1.00  0.00     0.348 HD
BRANCH   7  14
ATOM     14  C   UNL A   1      34.693  24.265  25.047  1.00  0.00     0.019 C 
ATOM     15  C   UNL A   1      34.459  25.740  25.350  1.00  0.00     0.005 C 
ENDBRANCH   7  14
BRANCH  11  16
ATOM     16  C   UNL A   1      30.387  25.289  25.209  1.00  0.00     0.302 C 
BRANCH  16  17
ATOM     17  C   UNL A   1      30.550  26.736  24.812  1.00  0.00     0.046 A 
ATOM     18  C   UNL A   1      30.054  27.207  23.585  1.00  0.00     0.059 A 
ATOM     19  C   UNL A   1      31.256  27.632  25.618  1.00  0.00     0.132 A 
ATOM     20  C   UNL A   1      30.272  28.530  23.181  1.00  0.00     0.119 A 
ATOM     21  C   UNL A   1      31.416  28.966  25.260  1.00  0.00     0.043 A 
ATOM     22  F   UNL A   1      31.810  27.218  26.767  1.00  0.00    -0.206 F 
ATOM     23  C   UNL A   1      30.919  29.419  24.040  1.00  0.00     0.049 A 
BRANCH  20  24
ATOM     24  O   UNL A   1      29.810  28.845  21.933  1.00  0.00    -0.497 OA
ATOM     25  C   UNL A   1      29.238  30.145  21.802  1.00  0.00     0.278 C 
ENDBRANCH  20  24
ENDBRANCH  16  17
ENDBRANCH  11  16
ENDBRANCH   4   7
ENDBRANCH   2   3
ENDBRANCH   1   2
BRANCH   1  26
ATOM     26  C   UNL A   1      37.834  19.940  24.729  1.00  0.00     0.023 C 
BRANCH  26  27
ATOM     27  C   UNL A   1      38.931  20.279  25.727  1.00  0.00     0.116 C 
BRANCH  27  28
ATOM     28  N   UNL A   1      40.020  19.314  25.742  1.00  0.00    -0.352 N 
ATOM     29  C   UNL A   1      41.338  19.489  26.092  1.00  0.00     0.251 C 
ATOM     30  H   UNL A   1      39.778  18.402  25.459  1.00  0.00     0.163 HD
ATOM     31  O   UNL A   1      42.140  18.579  25.944  1.00  0.00    -0.269 OA
BRANCH  29  32
ATOM     32  C   UNL A   1      41.790  20.798  26.615  1.00  0.00     0.039 A 
ATOM     33  C   UNL A   1      42.127  21.804  25.706  1.00  0.00     0.014 A 
ATOM     34  C   UNL A   1      41.864  21.038  27.990  1.00  0.00     0.014 A 
ATOM     35  C   UNL A   1      42.468  23.072  26.177  1.00  0.00     0.010 A 
ATOM     36  C   UNL A   1      42.121  22.324  28.453  1.00  0.00     0.010 A 
ATOM     37  C   UNL A   1      42.430  23.354  27.552  1.00  0.00    -0.014 A 
BRANCH  37  38
ATOM     38  C   UNL A   1      42.714  24.717  28.065  1.00  0.00     0.031 A 
ATOM     39  C   UNL A   1      44.114  25.101  28.457  1.00  0.00     0.074 A 
ATOM     40  C   UNL A   1      41.700  25.588  28.236  1.00  0.00     0.049 A 
ATOM     41  N   UNL A   1      44.551  26.225  28.967  1.00  0.00    -0.248 NA
ATOM     42  C   UNL A   1      45.156  24.077  28.281  1.00  0.00     0.031 C 
ATOM     43  C   UNL A   1      40.291  25.317  27.951  1.00  0.00     0.029 A 
ATOM     44  N   UNL A   1      41.702  26.881  28.699  1.00  0.00    -0.354 N 
ATOM     45  C   UNL A   1      45.909  26.037  29.184  1.00  0.00     0.074 A 
ATOM     46  C   UNL A   1      46.214  24.674  28.807  1.00  0.00     0.031 C 
ATOM     47  C   UNL A   1      39.568  26.416  28.216  1.00  0.00     0.029 A 
ATOM     48  C   UNL A   1      40.455  27.459  28.721  1.00  0.00     0.049 A 
ATOM     49  H   UNL A   1      42.518  27.349  28.988  1.00  0.00     0.167 HD
ATOM     50  C   UNL A   1      46.828  26.927  29.631  1.00  0.00     0.037 A 
ATOM     51  C   UNL A   1      40.073  28.691  29.105  1.00  0.00     0.037 A 
ATOM     52  C   UNL A   1      46.527  28.290  29.980  1.00  0.00     0.049 A 
ATOM     53  C   UNL A   1      41.113  29.665  29.586  1.00  0.00     0.074 A 
ATOM     54  C   UNL A   1      47.396  29.289  30.387  1.00  0.00     0.029 A 
ATOM     55  N   UNL A   1      45.257  28.848  29.963  1.00  0.00    -0.354 N 
ATOM     56  N   UNL A   1      42.407  29.497  29.715  1.00  0.00    -0.248 NA
ATOM     57  C   UNL A   1      40.640  31.005  29.960  1.00  0.00     0.031 C 
ATOM     58  C   UNL A   1      46.645  30.438  30.654  1.00  0.00     0.029 A 
ATOM     59  C   UNL A   1      45.316  30.171  30.367  1.00  0.00     0.049 A 
ATOM     60  H   UNL A   1      44.435  28.372  29.702  1.00  0.00     0.167 HD
ATOM     61  C   UNL A   1      42.906  30.715  30.159  1.00  0.00     0.074 A 
ATOM     62  C   UNL A   1      41.777  31.617  30.260  1.00  0.00     0.031 C 
ATOM     63  C   UNL A   1      44.184  31.057  30.455  1.00  0.00     0.037 A 
BRANCH  50  64
ATOM     64  C   UNL A   1      48.246  26.451  29.757  1.00  0.00     0.057 A 
ATOM     65  C   UNL A   1      49.168  26.591  28.710  1.00  0.00     0.134 A 
ATOM     66  C   UNL A   1      48.704  25.869  30.946  1.00  0.00     0.134 A 
ATOM     67  F   UNL A   1      48.791  27.127  27.540  1.00  0.00    -0.206 F 
ATOM     68  C   UNL A   1      50.484  26.144  28.831  1.00  0.00     0.040 A 
ATOM     69  C   UNL A   1      50.025  25.445  31.089  1.00  0.00     0.040 A 
ATOM     70  F   UNL A   1      47.876  25.709  31.989  1.00  0.00    -0.206 F 
ATOM     71  C   UNL A   1      50.918  25.574  30.027  1.00  0.00     0.006 A 
ENDBRANCH  50  64
BRANCH  51  72
ATOM     72  C   UNL A   1      38.646  29.089  29.016  1.00  0.00     0.057 A 
ATOM     73  C   UNL A   1      38.105  29.571  27.817  1.00  0.00     0.134 A 
ATOM     74  C   UNL A   1      37.792  29.008  30.121  1.00  0.00     0.134 A 
ATOM     75  F   UNL A   1      38.878  29.689  26.728  1.00  0.00    -0.206 F 
ATOM     76  C   UNL A   1      36.773  29.978  27.727  1.00  0.00     0.040 A 
ATOM     77  C   UNL A   1      36.451  29.388  30.039  1.00  0.00     0.040 A 
ATOM     78  F   UNL A   1      38.247  28.546  31.296  1.00  0.00    -0.206 F 
ATOM     79  C   UNL A   1      35.941  29.882  28.840  1.00  0.00     0.006 A 
ENDBRANCH  51  72
BRANCH  63  80
ATOM     80  C   UNL A   1      44.433  32.476  30.876  1.00  0.00     0.057 A 
ATOM     81  C   UNL A   1      44.405  32.866  32.221  1.00  0.00     0.134 A 
ATOM     82  C   UNL A   1      44.728  33.458  29.922  1.00  0.00     0.134 A 
ATOM     83  F   UNL A   1      44.116  31.975  33.181  1.00  0.00    -0.206 F 
ATOM     84  C   UNL A   1      44.638  34.187  32.600  1.00  0.00     0.040 A 
ATOM     85  C   UNL A   1      44.990  34.779  30.292  1.00  0.00     0.040 A 
ATOM     86  F   UNL A   1      44.780  33.150  28.618  1.00  0.00    -0.206 F 
ATOM     87  C   UNL A   1      44.937  35.148  31.634  1.00  0.00     0.006 A 
ENDBRANCH  63  80
ENDBRANCH  37  38
ENDBRANCH  29  32
ENDBRANCH  27  28
ENDBRANCH  26  27
ENDBRANCH   1  26
TORSDOF 15
ENDMDL
MODEL 2
REMARK VINA RESULT:     -11.6      1.201      2.074
REMARK SMILES CC[C@]1(C(=O)NCCCCNC(=O)c2ccc(-c3c4nc(c(-c5c(F)cccc5F)c5ccc([nH]5)c(-c5c(F)cccc5F)c5nc(c(-c6c(F)cccc6F)c6ccc3[nH]6)C=C5)C=C4)cc2)CCC[N@@H+](Cc2cc(OC)ccc2F)C1
REMARK SMILES IDX 8 1 7 2 6 3 4 4 5 5 3 7 68 8 82 9 69 10 71 11 70 12 2 14
REMARK SMILES IDX 1 15 72 16 73 17 74 18 80 19 75 20 79 21 81 22 78 23 76 24
REMARK SMILES IDX 77 25 9 26 10 27 11 28 12 29 13 31 14 32 15 33 67 34 16 35
REMARK SMILES IDX 66 36 17 37 18 38 19 39 60 40 20 41 65 42 59 43 61 44 21 45
REMARK SMILES IDX 64 46 58 47 57 48 22 50 48 51 31 52 47 53 32 54 35 55 46 56
REMARK SMILES IDX 62 57 33 58 34 59 45 61 63 62 36 63 23 64 24 65 29 66 25 67
REMARK SMILES IDX 26 68 28 69 30 70 27 71 49 72 50 73 55 74 51 75 52 76 54 77
REMARK SMILES IDX 56 78 53 79 37 80 38 81 43 82 39 83 40 84 42 85 44 86 41 87
REMARK H PARENT 6 6 71 13 11 30 61 49 35 60
REMARK Flexibility Score: inf
ROOT
ATOM      1  C   UNL A   1      36.519  20.216  25.001  1.00  0.00     0.023 C 
ENDROOT
BRANCH   1   2
ATOM      2  C   UNL A   1      36.353  21.587  25.656  1.00  0.00     0.116 C 
BRANCH   2   3
ATOM      3  N   UNL A   1      35.236  21.628  26.584  1.00  0.00    -0.355 N 
ATOM      4  C   UNL A   1      34.021  22.248  26.551  1.00  0.00     0.231 C 
ATOM      5  O   UNL A   1      33.329  22.077  27.561  1.00  0.00    -0.274 OA
ATOM      6  H   UNL A   1      35.386  21.102  27.403  1.00  0.00     0.163 HD
BRANCH   4   7
ATOM      7  C   UNL A   1      33.516  23.099  25.346  1.00  0.00     0.098 C 
ATOM      8  C   UNL A   1      33.322  22.179  24.115  1.00  0.00     0.028 C 
ATOM      9  C   UNL A   1      32.214  23.817  25.775  1.00  0.00     0.279 C 
ATOM     10  C   UNL A   1      32.281  22.642  23.098  1.00  0.00     0.063 C 
ATOM     11  N   UNL A   1      31.418  24.308  24.643  1.00  0.00    -0.330 N 
ATOM     12  C   UNL A   1      31.028  23.233  23.741  1.00  0.00     0.262 C 
ATOM     13  H   UNL A   1      32.037  24.909  24.099  1.00  0.00     0.348 HD
BRANCH   7  14
ATOM     14  C   UNL A   1      34.632  24.164  25.037  1.00  0.00     0.019 C 
ATOM     15  C   UNL A   1      34.457  25.572  25.592  1.00  0.00     0.005 C 
ENDBRANCH   7  14
BRANCH  11  16
ATOM     16  C   UNL A   1      30.330  25.218  25.023  1.00  0.00     0.302 C 
BRANCH  16  17
ATOM     17  C   UNL A   1      30.490  26.683  24.696  1.00  0.00     0.046 A 
ATOM     18  C   UNL A   1      29.940  27.224  23.523  1.00  0.00     0.059 A 
ATOM     19  C   UNL A   1      31.246  27.527  25.514  1.00  0.00     0.132 A 
ATOM     20  C   UNL A   1      30.153  28.565  23.181  1.00  0.00     0.119 A 
ATOM     21  C   UNL A   1      31.403  28.877  25.220  1.00  0.00     0.043 A 
ATOM     22  F   UNL A   1      31.850  27.046  26.610  1.00  0.00    -0.206 F 
ATOM     23  C   UNL A   1      30.852  29.401  24.053  1.00  0.00     0.049 A 
BRANCH  20  24
ATOM     24  O   UNL A   1      29.634  28.952  21.976  1.00  0.00    -0.497 OA
ATOM     25  C   UNL A   1      29.243  30.320  21.889  1.00  0.00     0.278 C 
ENDBRANCH  20  24
ENDBRANCH  16  17
ENDBRANCH  11  16
ENDBRANCH   4   7
ENDBRANCH   2   3
ENDBRANCH   1   2
BRANCH   1  26
ATOM     26  C   UNL A   1      37.952  19.823  24.651  1.00  0.00     0.023 C 
BRANCH  26  27
ATOM     27  C   UNL A   1      38.979  20.050  25.751  1.00  0.00     0.116 C 
BRANCH  27  28
ATOM     28  N   UNL A   1      40.027  19.042  25.781  1.00  0.00    -0.352 N 
ATOM     29  C   UNL A   1      41.373  19.186  26.025  1.00  0.00     0.251 C 
ATOM     30  H   UNL A   1      39.730  18.120  25.602  1.00  0.00     0.163 HD
ATOM     31  O   UNL A   1      42.126  18.231  25.908  1.00  0.00    -0.269 OA
BRANCH  29  32
ATOM     32  C   UNL A   1      41.913  20.515  26.393  1.00  0.00     0.039 A 
ATOM     33  C   UNL A   1      42.266  21.401  25.372  1.00  0.00     0.014 A 
ATOM     34  C   UNL A   1      42.052  20.890  27.731  1.00  0.00     0.014 A 
ATOM     35  C   UNL A   1      42.691  22.691  25.696  1.00  0.00     0.010 A 
ATOM     36  C   UNL A   1      42.393  22.201  28.048  1.00  0.00     0.010 A 
ATOM     37  C   UNL A   1      42.720  23.114  27.035  1.00  0.00    -0.014 A 
BRANCH  37  38
ATOM     38  C   UNL A   1      43.094  24.505  27.393  1.00  0.00     0.031 A 
ATOM     39  C   UNL A   1      44.534  24.936  27.346  1.00  0.00     0.074 A 
ATOM     40  C   UNL A   1      42.145  25.361  27.818  1.00  0.00     0.049 A 
ATOM     41  N   UNL A   1      45.062  26.091  27.665  1.00  0.00    -0.248 NA
ATOM     42  C   UNL A   1      45.514  23.928  26.913  1.00  0.00     0.031 C 
ATOM     43  C   UNL A   1      40.723  25.046  27.965  1.00  0.00     0.029 A 
ATOM     44  N   UNL A   1      42.237  26.673  28.213  1.00  0.00    -0.354 N 
ATOM     45  C   UNL A   1      46.430  25.942  27.484  1.00  0.00     0.074 A 
ATOM     46  C   UNL A   1      46.659  24.570  27.086  1.00  0.00     0.031 C 
ATOM     47  C   UNL A   1      40.072  26.141  28.389  1.00  0.00     0.029 A 
ATOM     48  C   UNL A   1      41.031  27.224  28.575  1.00  0.00     0.049 A 
ATOM     49  H   UNL A   1      43.085  27.171  28.234  1.00  0.00     0.167 HD
ATOM     50  C   UNL A   1      47.408  26.871  27.612  1.00  0.00     0.037 A 
ATOM     51  C   UNL A   1      40.735  28.464  29.007  1.00  0.00     0.037 A 
ATOM     52  C   UNL A   1      47.176  28.242  27.982  1.00  0.00     0.049 A 
ATOM     53  C   UNL A   1      41.836  29.481  29.129  1.00  0.00     0.074 A 
ATOM     54  C   UNL A   1      48.090  29.276  28.082  1.00  0.00     0.029 A 
ATOM     55  N   UNL A   1      45.937  28.771  28.315  1.00  0.00    -0.354 N 
ATOM     56  N   UNL A   1      43.117  29.346  28.883  1.00  0.00    -0.248 NA
ATOM     57  C   UNL A   1      41.447  30.826  29.575  1.00  0.00     0.031 C 
ATOM     58  C   UNL A   1      47.411  30.420  28.514  1.00  0.00     0.029 A 
ATOM     59  C   UNL A   1      46.066  30.112  28.635  1.00  0.00     0.049 A 
ATOM     60  H   UNL A   1      45.092  28.266  28.322  1.00  0.00     0.167 HD
ATOM     61  C   UNL A   1      43.682  30.594  29.117  1.00  0.00     0.074 A 
ATOM     62  C   UNL A   1      42.600  31.475  29.509  1.00  0.00     0.031 C 
ATOM     63  C   UNL A   1      44.979  30.976  29.016  1.00  0.00     0.037 A 
BRANCH  50  64
ATOM     64  C   UNL A   1      48.817  26.432  27.338  1.00  0.00     0.057 A 
ATOM     65  C   UNL A   1      49.663  25.983  28.362  1.00  0.00     0.134 A 
ATOM     66  C   UNL A   1      49.327  26.431  26.034  1.00  0.00     0.134 A 
ATOM     67  F   UNL A   1      49.241  25.971  29.635  1.00  0.00    -0.206 F 
ATOM     68  C   UNL A   1      50.973  25.578  28.103  1.00  0.00     0.040 A 
ATOM     69  C   UNL A   1      50.626  26.002  25.758  1.00  0.00     0.040 A 
ATOM     70  F   UNL A   1      48.571  26.843  25.005  1.00  0.00    -0.206 F 
ATOM     71  C   UNL A   1      51.456  25.581  26.795  1.00  0.00     0.006 A 
ENDBRANCH  50  64
BRANCH  51  72
ATOM     72  C   UNL A   1      39.330  28.826  29.322  1.00  0.00     0.057 A 
ATOM     73  C   UNL A   1      38.814  28.656  30.613  1.00  0.00     0.134 A 
ATOM     74  C   UNL A   1      38.469  29.341  28.347  1.00  0.00     0.134 A 
ATOM     75  F   UNL A   1      39.586  28.151  31.586  1.00  0.00    -0.206 F 
ATOM     76  C   UNL A   1      37.487  28.963  30.917  1.00  0.00     0.040 A 
ATOM     77  C   UNL A   1      37.147  29.676  28.642  1.00  0.00     0.040 A 
ATOM     78  F   UNL A   1      38.905  29.536  27.093  1.00  0.00    -0.206 F 
ATOM     79  C   UNL A   1      36.651  29.479  29.930  1.00  0.00     0.006 A 
ENDBRANCH  51  72
BRANCH  63  80
ATOM     80  C   UNL A   1      45.290  32.418  29.293  1.00  0.00     0.057 A 
ATOM     81  C   UNL A   1      45.218  33.398  28.295  1.00  0.00     0.134 A 
ATOM     82  C   UNL A   1      45.643  32.832  30.584  1.00  0.00     0.134 A 
ATOM     83  F   UNL A   1      44.898  33.063  27.036  1.00  0.00    -0.206 F 
ATOM     84  C   UNL A   1      45.510  34.734  28.565  1.00  0.00     0.040 A 
ATOM     85  C   UNL A   1      45.912  34.172  30.872  1.00  0.00     0.040 A 
ATOM     86  F   UNL A   1      45.722  31.946  31.587  1.00  0.00    -0.206 F 
ATOM     87  C   UNL A   1      45.853  35.126  29.859  1.00  0.00     0.006 A 
ENDBRANCH  63  80
ENDBRANCH  37  38
ENDBRANCH  29  32
ENDBRANCH  27  28
ENDBRANCH  26  27
ENDBRANCH   1  26
TORSDOF 15
ENDMDL
MODEL 3
REMARK VINA RESULT:     -11.6      2.451      3.908
REMARK SMILES CC[C@]1(C(=O)NCCCCNC(=O)c2ccc(-c3c4nc(c(-c5c(F)cccc5F)c5ccc([nH]5)c(-c5c(F)cccc5F)c5nc(c(-c6c(F)cccc6F)c6ccc3[nH]6)C=C5)C=C4)cc2)CCC[N@@H+](Cc2cc(OC)ccc2F)C1
REMARK SMILES IDX 8 1 7 2 6 3 4 4 5 5 3 7 68 8 82 9 69 10 71 11 70 12 2 14
REMARK SMILES IDX 1 15 72 16 73 17 74 18 80 19 75 20 79 21 81 22 78 23 76 24
REMARK SMILES IDX 77 25 9 26 10 27 11 28 12 29 13 31 14 32 15 33 67 34 16 35
REMARK SMILES IDX 66 36 17 37 18 38 19 39 60 40 20 41 65 42 59 43 61 44 21 45
REMARK SMILES IDX 64 46 58 47 57 48 22 50 48 51 31 52 47 53 32 54 35 55 46 56
REMARK SMILES IDX 62 57 33 58 34 59 45 61 63 62 36 63 23 64 24 65 29 66 25 67
REMARK SMILES IDX 26 68 28 69 30 70 27 71 49 72 50 73 55 74 51 75 52 76 54 77
REMARK SMILES IDX 56 78 53 79 37 80 38 81 43 82 39 83 40 84 42 85 44 86 41 87
REMARK H PARENT 6 6 71 13 11 30 61 49 35 60
REMARK Flexibility Score: inf
ROOT
ATOM      1  C   UNL A   1      34.735  22.837  24.538  1.00  0.00     0.023 C 
ENDROOT
BRANCH   1   2
ATOM      2  C   UNL A   1      33.356  23.464  24.327  1.00  0.00     0.116 C 
BRANCH   2   3
ATOM      3  N   UNL A   1      32.584  23.534  25.556  1.00  0.00    -0.355 N 
ATOM      4  C   UNL A   1      32.010  24.567  26.236  1.00  0.00     0.231 C 
ATOM      5  O   UNL A   1      31.448  24.242  27.288  1.00  0.00    -0.274 OA
ATOM      6  H   UNL A   1      32.447  22.658  25.984  1.00  0.00     0.163 HD
BRANCH   4   7
ATOM      7  C   UNL A   1      32.036  26.048  25.746  1.00  0.00     0.098 C 
ATOM      8  C   UNL A   1      33.500  26.554  25.722  1.00  0.00     0.028 C 
ATOM      9  C   UNL A   1      31.354  26.107  24.358  1.00  0.00     0.279 C 
ATOM     10  C   UNL A   1      33.802  27.666  24.719  1.00  0.00     0.063 C 
ATOM     11  N   UNL A   1      31.669  27.327  23.604  1.00  0.00    -0.330 N 
ATOM     12  C   UNL A   1      33.100  27.476  23.377  1.00  0.00     0.262 C 
ATOM     13  H   UNL A   1      31.406  28.108  24.204  1.00  0.00     0.348 HD
BRANCH   7  14
ATOM     14  C   UNL A   1      31.204  26.889  26.782  1.00  0.00     0.019 C 
ATOM     15  C   UNL A   1      31.843  28.140  27.371  1.00  0.00     0.005 C 
ENDBRANCH   7  14
BRANCH  11  16
ATOM     16  C   UNL A   1      30.832  27.533  22.415  1.00  0.00     0.302 C 
BRANCH  16  17
ATOM     17  C   UNL A   1      29.693  28.517  22.517  1.00  0.00     0.046 A 
ATOM     18  C   UNL A   1      29.855  29.852  22.113  1.00  0.00     0.059 A 
ATOM     19  C   UNL A   1      28.467  28.149  23.079  1.00  0.00     0.132 A 
ATOM     20  C   UNL A   1      28.823  30.784  22.278  1.00  0.00     0.119 A 
ATOM     21  C   UNL A   1      27.413  29.049  23.183  1.00  0.00     0.043 A 
ATOM     22  F   UNL A   1      28.282  26.906  23.546  1.00  0.00    -0.206 F 
ATOM     23  C   UNL A   1      27.587  30.370  22.777  1.00  0.00     0.049 A 
BRANCH  20  24
ATOM     24  O   UNL A   1      29.130  32.068  21.920  1.00  0.00    -0.497 OA
ATOM     25  C   UNL A   1      28.774  33.070  22.870  1.00  0.00     0.278 C 
ENDBRANCH  20  24
ENDBRANCH  16  17
ENDBRANCH  11  16
ENDBRANCH   4   7
ENDBRANCH   2   3
ENDBRANCH   1   2
BRANCH   1  26
ATOM     26  C   UNL A   1      35.877  23.825  24.765  1.00  0.00     0.023 C 
BRANCH  26  27
ATOM     27  C   UNL A   1      36.644  23.649  26.067  1.00  0.00     0.116 C 
BRANCH  27  28
ATOM     28  N   UNL A   1      37.645  22.596  26.013  1.00  0.00    -0.352 N 
ATOM     29  C   UNL A   1      38.993  22.656  26.280  1.00  0.00     0.251 C 
ATOM     30  H   UNL A   1      37.309  21.709  25.747  1.00  0.00     0.163 HD
ATOM     31  O   UNL A   1      39.704  21.681  26.081  1.00  0.00    -0.269 OA
BRANCH  29  32
ATOM     32  C   UNL A   1      39.587  23.918  26.773  1.00  0.00     0.039 A 
ATOM     33  C   UNL A   1      40.008  24.871  25.841  1.00  0.00     0.014 A 
ATOM     34  C   UNL A   1      39.712  24.170  28.141  1.00  0.00     0.014 A 
ATOM     35  C   UNL A   1      40.487  26.104  26.284  1.00  0.00     0.010 A 
ATOM     36  C   UNL A   1      40.108  25.429  28.579  1.00  0.00     0.010 A 
ATOM     37  C   UNL A   1      40.504  26.408  27.655  1.00  0.00    -0.014 A 
BRANCH  37  38
ATOM     38  C   UNL A   1      40.936  27.743  28.141  1.00  0.00     0.031 A 
ATOM     39  C   UNL A   1      42.395  28.105  28.155  1.00  0.00     0.074 A 
ATOM     40  C   UNL A   1      40.021  28.603  28.626  1.00  0.00     0.049 A 
ATOM     41  N   UNL A   1      42.971  29.201  28.583  1.00  0.00    -0.248 NA
ATOM     42  C   UNL A   1      43.335  27.093  27.649  1.00  0.00     0.031 C 
ATOM     43  C   UNL A   1      38.582  28.347  28.723  1.00  0.00     0.029 A 
ATOM     44  N   UNL A   1      40.167  29.869  29.136  1.00  0.00    -0.354 N 
ATOM     45  C   UNL A   1      44.334  29.002  28.411  1.00  0.00     0.074 A 
ATOM     46  C   UNL A   1      44.505  27.661  27.896  1.00  0.00     0.031 C 
ATOM     47  C   UNL A   1      37.975  29.430  29.231  1.00  0.00     0.029 A 
ATOM     48  C   UNL A   1      38.981  30.445  29.527  1.00  0.00     0.049 A 
ATOM     49  H   UNL A   1      41.037  30.322  29.215  1.00  0.00     0.167 HD
ATOM     50  C   UNL A   1      45.352  29.868  28.635  1.00  0.00     0.037 A 
ATOM     51  C   UNL A   1      38.735  31.655  30.063  1.00  0.00     0.037 A 
ATOM     52  C   UNL A   1      45.177  31.210  29.122  1.00  0.00     0.049 A 
ATOM     53  C   UNL A   1      39.881  32.602  30.291  1.00  0.00     0.074 A 
ATOM     54  C   UNL A   1      46.138  32.186  29.327  1.00  0.00     0.029 A 
ATOM     55  N   UNL A   1      43.958  31.767  29.481  1.00  0.00    -0.354 N 
ATOM     56  N   UNL A   1      41.158  32.428  30.054  1.00  0.00    -0.248 NA
ATOM     57  C   UNL A   1      39.547  33.920  30.849  1.00  0.00     0.031 C 
ATOM     58  C   UNL A   1      45.505  33.319  29.847  1.00  0.00     0.029 A 
ATOM     59  C   UNL A   1      44.145  33.067  29.921  1.00  0.00     0.049 A 
ATOM     60  H   UNL A   1      43.090  31.306  29.430  1.00  0.00     0.167 HD
ATOM     61  C   UNL A   1      41.777  33.621  30.406  1.00  0.00     0.074 A 
ATOM     62  C   UNL A   1      40.731  34.516  30.858  1.00  0.00     0.031 C 
ATOM     63  C   UNL A   1      43.092  33.947  30.359  1.00  0.00     0.037 A 
BRANCH  50  64
ATOM     64  C   UNL A   1      46.744  29.386  28.345  1.00  0.00     0.057 A 
ATOM     65  C   UNL A   1      47.544  28.801  29.336  1.00  0.00     0.134 A 
ATOM     66  C   UNL A   1      47.282  29.481  27.055  1.00  0.00     0.134 A 
ATOM     67  F   UNL A   1      47.096  28.692  30.595  1.00  0.00    -0.206 F 
ATOM     68  C   UNL A   1      48.839  28.358  29.062  1.00  0.00     0.040 A 
ATOM     69  C   UNL A   1      48.564  29.015  26.763  1.00  0.00     0.040 A 
ATOM     70  F   UNL A   1      46.568  30.025  26.058  1.00  0.00    -0.206 F 
ATOM     71  C   UNL A   1      49.350  28.458  27.770  1.00  0.00     0.006 A 
ENDBRANCH  50  64
BRANCH  51  72
ATOM     72  C   UNL A   1      37.344  32.057  30.388  1.00  0.00     0.057 A 
ATOM     73  C   UNL A   1      36.780  31.761  31.635  1.00  0.00     0.134 A 
ATOM     74  C   UNL A   1      36.542  32.734  29.463  1.00  0.00     0.134 A 
ATOM     75  F   UNL A   1      37.494  31.097  32.556  1.00  0.00    -0.206 F 
ATOM     76  C   UNL A   1      35.463  32.104  31.944  1.00  0.00     0.040 A 
ATOM     77  C   UNL A   1      35.231  33.106  29.766  1.00  0.00     0.040 A 
ATOM     78  F   UNL A   1      37.025  33.055  28.253  1.00  0.00    -0.206 F 
ATOM     79  C   UNL A   1      34.686  32.784  31.008  1.00  0.00     0.006 A 
ENDBRANCH  51  72
BRANCH  63  80
ATOM     80  C   UNL A   1      43.466  35.342  30.768  1.00  0.00     0.057 A 
ATOM     81  C   UNL A   1      43.518  36.396  29.847  1.00  0.00     0.134 A 
ATOM     82  C   UNL A   1      43.754  35.636  32.107  1.00  0.00     0.134 A 
ATOM     83  F   UNL A   1      43.265  36.176  28.548  1.00  0.00    -0.206 F 
ATOM     84  C   UNL A   1      43.867  37.688  30.239  1.00  0.00     0.040 A 
ATOM     85  C   UNL A   1      44.078  36.931  32.516  1.00  0.00     0.040 A 
ATOM     86  F   UNL A   1      43.713  34.675  33.041  1.00  0.00    -0.206 F 
ATOM     87  C   UNL A   1      44.143  37.960  31.579  1.00  0.00     0.006 A 
ENDBRANCH  63  80
ENDBRANCH  37  38
ENDBRANCH  29  32
ENDBRANCH  27  28
ENDBRANCH  26  27
ENDBRANCH   1  26
TORSDOF 15
ENDMDL
