MODEL 1
REMARK VINA RESULT:     -10.9      0.000      0.000
REMARK SMILES Cc1cc(OCCc2nc(CC(=O)NCCCCNC(=O)c3ccc(-c4c5nc(c(-c6c(F)cccc6F)c6ccc([nH]6)c(-c6c(F)cccc6F)c6nc(c(-c7c(F)cccc7F)c7ccc4[nH]7)C=C6)C=C5)cc3)cs2)ccc1Cl
REMARK SMILES IDX 15 1 14 2 12 3 13 4 11 6 10 7 8 8 9 9 77 10 76 11 7 12 6 13
REMARK SMILES IDX 5 14 4 15 1 16 2 17 3 18 80 19 79 20 81 21 78 22 16 23 17 24
REMARK SMILES IDX 18 25 19 26 20 27 21 29 22 30 23 31 75 32 24 33 74 34 25 35
REMARK SMILES IDX 26 36 27 37 68 38 28 39 73 40 67 41 69 42 29 43 72 44 66 45
REMARK SMILES IDX 65 46 30 48 56 49 39 50 55 51 40 52 43 53 54 54 70 55 41 56
REMARK SMILES IDX 42 57 53 59 71 60 44 61 31 62 32 63 37 64 33 65 34 66 36 67
REMARK SMILES IDX 38 68 35 69 57 70 58 71 63 72 59 73 60 74 62 75 64 76 61 77
REMARK SMILES IDX 45 78 46 79 51 80 47 81 48 82 50 83 52 84 49 85
REMARK H PARENT 14 5 19 28 69 47 43 58
REMARK Flexibility Score: inf
ROOT
ATOM      1  C   UNL A   1      31.967  29.604  24.691  1.00  0.00     0.116 C 
ENDROOT
BRANCH   1   2
ATOM      2  N   UNL A   1      30.789  30.078  23.889  1.00  0.00    -0.356 N 
ATOM      3  C   UNL A   1      29.641  29.714  23.241  1.00  0.00     0.226 C 
ATOM      4  O   UNL A   1      29.093  30.690  22.691  1.00  0.00    -0.275 OA
ATOM      5  H   UNL A   1      30.882  31.053  23.787  1.00  0.00     0.163 HD
BRANCH   3   6
ATOM      6  C   UNL A   1      28.903  28.357  23.125  1.00  0.00     0.157 C 
BRANCH   6   7
ATOM      7  C   UNL A   1      29.764  27.087  23.126  1.00  0.00     0.061 A 
ATOM      8  C   UNL A   1      31.495  25.803  22.374  1.00  0.00     0.096 A 
ATOM      9  N   UNL A   1      30.939  27.009  22.335  1.00  0.00    -0.246 NA
ATOM     10  S   UNL A   1      30.726  24.738  23.502  1.00  0.00    -0.127 S 
ATOM     11  C   UNL A   1      29.571  25.951  23.893  1.00  0.00     0.091 A 
BRANCH   8  12
ATOM     12  C   UNL A   1      32.756  25.336  21.635  1.00  0.00     0.109 C 
BRANCH  12  13
ATOM     13  C   UNL A   1      33.213  23.872  21.847  1.00  0.00     0.237 C 
BRANCH  13  14
ATOM     14  O   UNL A   1      34.560  23.726  22.389  1.00  0.00    -0.493 OA
BRANCH  14  15
ATOM     15  C   UNL A   1      34.528  23.428  23.723  1.00  0.00     0.119 A 
ATOM     16  C   UNL A   1      33.327  25.766  26.078  1.00  0.00     0.046 C 
ATOM     17  C   UNL A   1      33.833  24.394  25.747  1.00  0.00    -0.029 A 
ATOM     18  C   UNL A   1      34.646  24.453  24.634  1.00  0.00     0.051 A 
ATOM     19  C   UNL A   1      33.380  23.132  26.178  1.00  0.00     0.044 A 
ATOM     20  C   UNL A   1      33.597  22.003  25.387  1.00  0.00     0.024 A 
ATOM     21  Cl  UNL A   1      32.534  22.802  27.629  1.00  0.00    -0.084 Cl
ATOM     22  C   UNL A   1      34.122  22.162  24.116  1.00  0.00     0.048 A 
ENDBRANCH  14  15
ENDBRANCH  13  14
ENDBRANCH  12  13
ENDBRANCH   8  12
ENDBRANCH   6   7
ENDBRANCH   3   6
ENDBRANCH   1   2
BRANCH   1  23
ATOM     23  C   UNL A   1      31.685  29.478  26.204  1.00  0.00     0.023 C 
BRANCH  23  24
ATOM     24  C   UNL A   1      32.786  29.601  27.250  1.00  0.00     0.023 C 
BRANCH  24  25
ATOM     25  C   UNL A   1      33.588  30.901  27.204  1.00  0.00     0.116 C 
BRANCH  25  26
ATOM     26  N   UNL A   1      32.819  32.152  27.317  1.00  0.00    -0.352 N 
ATOM     27  C   UNL A   1      33.150  33.313  28.002  1.00  0.00     0.251 C 
ATOM     28  H   UNL A   1      31.956  32.167  26.843  1.00  0.00     0.163 HD
ATOM     29  O   UNL A   1      32.410  34.293  28.001  1.00  0.00    -0.269 OA
BRANCH  27  30
ATOM     30  C   UNL A   1      34.392  33.330  28.805  1.00  0.00     0.039 A 
ATOM     31  C   UNL A   1      34.415  32.708  30.056  1.00  0.00     0.014 A 
ATOM     32  C   UNL A   1      35.571  33.787  28.222  1.00  0.00     0.014 A 
ATOM     33  C   UNL A   1      35.645  32.384  30.637  1.00  0.00     0.010 A 
ATOM     34  C   UNL A   1      36.782  33.341  28.727  1.00  0.00     0.010 A 
ATOM     35  C   UNL A   1      36.836  32.617  29.931  1.00  0.00    -0.014 A 
BRANCH  35  36
ATOM     36  C   UNL A   1      38.155  32.117  30.407  1.00  0.00     0.031 A 
ATOM     37  C   UNL A   1      38.714  30.845  29.829  1.00  0.00     0.074 A 
ATOM     38  C   UNL A   1      38.789  32.726  31.432  1.00  0.00     0.049 A 
ATOM     39  N   UNL A   1      39.755  30.148  30.208  1.00  0.00    -0.248 NA
ATOM     40  C   UNL A   1      37.967  30.245  28.711  1.00  0.00     0.031 C 
ATOM     41  C   UNL A   1      38.320  33.918  32.143  1.00  0.00     0.029 A 
ATOM     42  N   UNL A   1      39.967  32.412  32.066  1.00  0.00    -0.354 N 
ATOM     43  C   UNL A   1      39.758  29.017  29.402  1.00  0.00     0.074 A 
ATOM     44  C   UNL A   1      38.577  29.080  28.572  1.00  0.00     0.031 C 
ATOM     45  C   UNL A   1      39.217  34.253  33.086  1.00  0.00     0.029 A 
ATOM     46  C   UNL A   1      40.305  33.282  33.076  1.00  0.00     0.049 A 
ATOM     47  H   UNL A   1      40.519  31.634  31.820  1.00  0.00     0.167 HD
ATOM     48  C   UNL A   1      40.682  28.030  29.326  1.00  0.00     0.037 A 
ATOM     49  C   UNL A   1      41.372  33.294  33.898  1.00  0.00     0.037 A 
ATOM     50  C   UNL A   1      41.891  28.003  30.101  1.00  0.00     0.049 A 
ATOM     51  C   UNL A   1      42.415  32.217  33.760  1.00  0.00     0.074 A 
ATOM     52  C   UNL A   1      42.932  27.094  30.043  1.00  0.00     0.029 A 
ATOM     53  N   UNL A   1      42.227  28.941  31.065  1.00  0.00    -0.354 N 
ATOM     54  N   UNL A   1      42.439  31.191  32.945  1.00  0.00    -0.248 NA
ATOM     55  C   UNL A   1      43.581  32.304  34.652  1.00  0.00     0.031 C 
ATOM     56  C   UNL A   1      43.890  27.470  30.990  1.00  0.00     0.029 A 
ATOM     57  C   UNL A   1      43.459  28.631  31.613  1.00  0.00     0.049 A 
ATOM     58  H   UNL A   1      41.671  29.712  31.321  1.00  0.00     0.167 HD
ATOM     59  C   UNL A   1      43.631  30.527  33.204  1.00  0.00     0.074 A 
ATOM     60  C   UNL A   1      44.309  31.273  34.244  1.00  0.00     0.031 C 
ATOM     61  C   UNL A   1      44.122  29.400  32.634  1.00  0.00     0.037 A 
BRANCH  48  62
ATOM     62  C   UNL A   1      40.423  26.925  28.346  1.00  0.00     0.057 A 
ATOM     63  C   UNL A   1      41.052  26.889  27.094  1.00  0.00     0.134 A 
ATOM     64  C   UNL A   1      39.535  25.886  28.654  1.00  0.00     0.134 A 
ATOM     65  F   UNL A   1      41.899  27.863  26.731  1.00  0.00    -0.206 F 
ATOM     66  C   UNL A   1      40.777  25.882  26.166  1.00  0.00     0.040 A 
ATOM     67  C   UNL A   1      39.276  24.858  27.746  1.00  0.00     0.040 A 
ATOM     68  F   UNL A   1      38.902  25.858  29.836  1.00  0.00    -0.206 F 
ATOM     69  C   UNL A   1      39.891  24.859  26.496  1.00  0.00     0.006 A 
ENDBRANCH  48  62
BRANCH  49  70
ATOM     70  C   UNL A   1      41.538  34.380  34.899  1.00  0.00     0.057 A 
ATOM     71  C   UNL A   1      41.095  34.215  36.218  1.00  0.00     0.134 A 
ATOM     72  C   UNL A   1      42.121  35.607  34.566  1.00  0.00     0.134 A 
ATOM     73  F   UNL A   1      40.509  33.068  36.593  1.00  0.00    -0.206 F 
ATOM     74  C   UNL A   1      41.206  35.237  37.162  1.00  0.00     0.040 A 
ATOM     75  C   UNL A   1      42.259  36.630  35.506  1.00  0.00     0.040 A 
ATOM     76  F   UNL A   1      42.573  35.827  33.322  1.00  0.00    -0.206 F 
ATOM     77  C   UNL A   1      41.793  36.449  36.808  1.00  0.00     0.006 A 
ENDBRANCH  49  70
BRANCH  61  78
ATOM     78  C   UNL A   1      45.468  28.927  33.092  1.00  0.00     0.057 A 
ATOM     79  C   UNL A   1      46.650  29.375  32.491  1.00  0.00     0.134 A 
ATOM     80  C   UNL A   1      45.581  28.058  34.185  1.00  0.00     0.134 A 
ATOM     81  F   UNL A   1      46.606  30.199  31.434  1.00  0.00    -0.206 F 
ATOM     82  C   UNL A   1      47.900  28.962  32.953  1.00  0.00     0.040 A 
ATOM     83  C   UNL A   1      46.826  27.657  34.669  1.00  0.00     0.040 A 
ATOM     84  F   UNL A   1      44.485  27.601  34.808  1.00  0.00    -0.206 F 
ATOM     85  C   UNL A   1      47.991  28.108  34.050  1.00  0.00     0.006 A 
ENDBRANCH  61  78
ENDBRANCH  35  36
ENDBRANCH  27  30
ENDBRANCH  25  26
ENDBRANCH  24  25
ENDBRANCH  23  24
ENDBRANCH   1  23
TORSDOF 16
ENDMDL
MODEL 2
REMARK VINA RESULT:     -10.8      3.359      8.534
REMARK SMILES Cc1cc(OCCc2nc(CC(=O)NCCCCNC(=O)c3ccc(-c4c5nc(c(-c6c(F)cccc6F)c6ccc([nH]6)c(-c6c(F)cccc6F)c6nc(c(-c7c(F)cccc7F)c7ccc4[nH]7)C=C6)C=C5)cc3)cs2)ccc1Cl
REMARK SMILES IDX 15 1 14 2 12 3 13 4 11 6 10 7 8 8 9 9 77 10 76 11 7 12 6 13
REMARK SMILES IDX 5 14 4 15 1 16 2 17 3 18 80 19 79 20 81 21 78 22 16 23 17 24
REMARK SMILES IDX 18 25 19 26 20 27 21 29 22 30 23 31 75 32 24 33 74 34 25 35
REMARK SMILES IDX 26 36 27 37 68 38 28 39 73 40 67 41 69 42 29 43 72 44 66 45
REMARK SMILES IDX 65 46 30 48 56 49 39 50 55 51 40 52 43 53 54 54 70 55 41 56
REMARK SMILES IDX 42 57 53 59 71 60 44 61 31 62 32 63 37 64 33 65 34 66 36 67
REMARK SMILES IDX 38 68 35 69 57 70 58 71 63 72 59 73 60 74 62 75 64 76 61 77
REMARK SMILES IDX 45 78 46 79 51 80 47 81 48 82 50 83 52 84 49 85
REMARK H PARENT 14 5 19 28 69 47 43 58
REMARK Flexibility Score: inf
ROOT
ATOM      1  C   UNL A   1      40.422  21.729  27.321  1.00  0.00     0.116 C 
ENDROOT
BRANCH   1   2
ATOM      2  N   UNL A   1      39.333  22.499  26.630  1.00  0.00    -0.356 N 
ATOM      3  C   UNL A   1      38.223  22.424  25.835  1.00  0.00     0.226 C 
ATOM      4  O   UNL A   1      37.765  23.554  25.575  1.00  0.00    -0.275 OA
ATOM      5  H   UNL A   1      39.477  23.451  26.836  1.00  0.00     0.163 HD
BRANCH   3   6
ATOM      6  C   UNL A   1      37.437  21.216  25.266  1.00  0.00     0.157 C 
BRANCH   6   7
ATOM      7  C   UNL A   1      35.928  21.167  25.541  1.00  0.00     0.061 A 
ATOM      8  C   UNL A   1      34.057  21.728  26.722  1.00  0.00     0.096 A 
ATOM      9  N   UNL A   1      35.350  21.981  26.549  1.00  0.00    -0.246 NA
ATOM     10  S   UNL A   1      33.424  20.611  25.561  1.00  0.00    -0.127 S 
ATOM     11  C   UNL A   1      34.980  20.432  24.852  1.00  0.00     0.091 A 
BRANCH   8  12
ATOM     12  C   UNL A   1      33.107  22.390  27.728  1.00  0.00     0.109 C 
BRANCH  12  13
ATOM     13  C   UNL A   1      31.713  22.832  27.218  1.00  0.00     0.237 C 
BRANCH  13  14
ATOM     14  O   UNL A   1      31.488  24.274  27.229  1.00  0.00    -0.493 OA
BRANCH  14  15
ATOM     15  C   UNL A   1      30.983  24.705  26.035  1.00  0.00     0.119 A 
ATOM     16  C   UNL A   1      31.335  28.067  25.021  1.00  0.00     0.046 C 
ATOM     17  C   UNL A   1      30.905  26.660  24.736  1.00  0.00    -0.029 A 
ATOM     18  C   UNL A   1      30.592  26.020  25.917  1.00  0.00     0.051 A 
ATOM     19  C   UNL A   1      31.069  25.879  23.575  1.00  0.00     0.044 A 
ATOM     20  C   UNL A   1      31.098  24.486  23.667  1.00  0.00     0.024 A 
ATOM     21  Cl  UNL A   1      31.264  26.466  21.980  1.00  0.00    -0.084 Cl
ATOM     22  C   UNL A   1      31.117  23.894  24.919  1.00  0.00     0.048 A 
ENDBRANCH  14  15
ENDBRANCH  13  14
ENDBRANCH  12  13
ENDBRANCH   8  12
ENDBRANCH   6   7
ENDBRANCH   3   6
ENDBRANCH   1   2
BRANCH   1  23
ATOM     23  C   UNL A   1      41.317  20.912  26.364  1.00  0.00     0.023 C 
BRANCH  23  24
ATOM     24  C   UNL A   1      42.676  21.413  25.892  1.00  0.00     0.023 C 
BRANCH  24  25
ATOM     25  C   UNL A   1      42.639  22.661  25.011  1.00  0.00     0.116 C 
BRANCH  25  26
ATOM     26  N   UNL A   1      43.932  23.312  24.738  1.00  0.00    -0.352 N 
ATOM     27  C   UNL A   1      44.373  24.565  25.142  1.00  0.00     0.251 C 
ATOM     28  H   UNL A   1      44.567  22.789  24.198  1.00  0.00     0.163 HD
ATOM     29  O   UNL A   1      45.492  24.978  24.847  1.00  0.00    -0.269 OA
BRANCH  27  30
ATOM     30  C   UNL A   1      43.439  25.438  25.885  1.00  0.00     0.039 A 
ATOM     31  C   UNL A   1      42.465  24.866  26.708  1.00  0.00     0.014 A 
ATOM     32  C   UNL A   1      43.670  26.811  25.912  1.00  0.00     0.014 A 
ATOM     33  C   UNL A   1      41.850  25.652  27.687  1.00  0.00     0.010 A 
ATOM     34  C   UNL A   1      43.168  27.551  26.971  1.00  0.00     0.010 A 
ATOM     35  C   UNL A   1      42.266  26.978  27.885  1.00  0.00    -0.014 A 
BRANCH  35  36
ATOM     36  C   UNL A   1      41.794  27.799  29.034  1.00  0.00     0.031 A 
ATOM     37  C   UNL A   1      42.480  27.666  30.367  1.00  0.00     0.074 A 
ATOM     38  C   UNL A   1      40.686  28.563  28.921  1.00  0.00     0.049 A 
ATOM     39  N   UNL A   1      42.136  28.157  31.530  1.00  0.00    -0.248 NA
ATOM     40  C   UNL A   1      43.683  26.819  30.407  1.00  0.00     0.031 C 
ATOM     41  C   UNL A   1      39.873  28.719  27.712  1.00  0.00     0.029 A 
ATOM     42  N   UNL A   1      40.043  29.346  29.849  1.00  0.00    -0.354 N 
ATOM     43  C   UNL A   1      43.055  27.645  32.437  1.00  0.00     0.074 A 
ATOM     44  C   UNL A   1      43.920  26.747  31.707  1.00  0.00     0.031 C 
ATOM     45  C   UNL A   1      38.865  29.572  27.963  1.00  0.00     0.029 A 
ATOM     46  C   UNL A   1      38.934  29.995  29.357  1.00  0.00     0.049 A 
ATOM     47  H   UNL A   1      40.347  29.435  30.781  1.00  0.00     0.167 HD
ATOM     48  C   UNL A   1      43.198  27.926  33.753  1.00  0.00     0.037 A 
ATOM     49  C   UNL A   1      38.074  30.836  29.963  1.00  0.00     0.037 A 
ATOM     50  C   UNL A   1      42.383  28.871  34.464  1.00  0.00     0.049 A 
ATOM     51  C   UNL A   1      38.283  31.177  31.414  1.00  0.00     0.074 A 
ATOM     52  C   UNL A   1      42.495  29.291  35.777  1.00  0.00     0.029 A 
ATOM     53  N   UNL A   1      41.313  29.558  33.910  1.00  0.00    -0.354 N 
ATOM     54  N   UNL A   1      39.200  30.738  32.241  1.00  0.00    -0.248 NA
ATOM     55  C   UNL A   1      37.341  32.135  32.013  1.00  0.00     0.031 C 
ATOM     56  C   UNL A   1      41.476  30.217  36.025  1.00  0.00     0.029 A 
ATOM     57  C   UNL A   1      40.752  30.397  34.857  1.00  0.00     0.049 A 
ATOM     58  H   UNL A   1      41.000  29.462  32.982  1.00  0.00     0.167 HD
ATOM     59  C   UNL A   1      38.965  31.385  33.448  1.00  0.00     0.074 A 
ATOM     60  C   UNL A   1      37.827  32.256  33.241  1.00  0.00     0.031 C 
ATOM     61  C   UNL A   1      39.631  31.269  34.622  1.00  0.00     0.037 A 
BRANCH  48  62
ATOM     62  C   UNL A   1      44.298  27.220  34.488  1.00  0.00     0.057 A 
ATOM     63  C   UNL A   1      45.588  27.761  34.580  1.00  0.00     0.134 A 
ATOM     64  C   UNL A   1      44.069  25.985  35.108  1.00  0.00     0.134 A 
ATOM     65  F   UNL A   1      45.877  28.932  33.992  1.00  0.00    -0.206 F 
ATOM     66  C   UNL A   1      46.621  27.082  35.228  1.00  0.00     0.040 A 
ATOM     67  C   UNL A   1      45.087  25.312  35.786  1.00  0.00     0.040 A 
ATOM     68  F   UNL A   1      42.857  25.413  35.062  1.00  0.00    -0.206 F 
ATOM     69  C   UNL A   1      46.369  25.856  35.838  1.00  0.00     0.006 A 
ENDBRANCH  48  62
BRANCH  49  70
ATOM     70  C   UNL A   1      36.959  31.451  29.197  1.00  0.00     0.057 A 
ATOM     71  C   UNL A   1      37.036  32.780  28.759  1.00  0.00     0.134 A 
ATOM     72  C   UNL A   1      35.788  30.744  28.902  1.00  0.00     0.134 A 
ATOM     73  F   UNL A   1      38.124  33.516  29.029  1.00  0.00    -0.206 F 
ATOM     74  C   UNL A   1      35.983  33.389  28.073  1.00  0.00     0.040 A 
ATOM     75  C   UNL A   1      34.736  31.334  28.197  1.00  0.00     0.040 A 
ATOM     76  F   UNL A   1      35.653  29.466  29.286  1.00  0.00    -0.206 F 
ATOM     77  C   UNL A   1      34.829  32.663  27.788  1.00  0.00     0.006 A 
ENDBRANCH  49  70
BRANCH  61  78
ATOM     78  C   UNL A   1      39.172  32.128  35.761  1.00  0.00     0.057 A 
ATOM     79  C   UNL A   1      39.598  33.454  35.901  1.00  0.00     0.134 A 
ATOM     80  C   UNL A   1      38.249  31.638  36.693  1.00  0.00     0.134 A 
ATOM     81  F   UNL A   1      40.490  33.976  35.047  1.00  0.00    -0.206 F 
ATOM     82  C   UNL A   1      39.132  34.260  36.941  1.00  0.00     0.040 A 
ATOM     83  C   UNL A   1      37.758  32.441  37.723  1.00  0.00     0.040 A 
ATOM     84  F   UNL A   1      37.796  30.378  36.606  1.00  0.00    -0.206 F 
ATOM     85  C   UNL A   1      38.203  33.756  37.850  1.00  0.00     0.006 A 
ENDBRANCH  61  78
ENDBRANCH  35  36
ENDBRANCH  27  30
ENDBRANCH  25  26
ENDBRANCH  24  25
ENDBRANCH  23  24
ENDBRANCH   1  23
TORSDOF 16
ENDMDL
MODEL 3
REMARK VINA RESULT:     -10.8      2.733      7.685
REMARK SMILES Cc1cc(OCCc2nc(CC(=O)NCCCCNC(=O)c3ccc(-c4c5nc(c(-c6c(F)cccc6F)c6ccc([nH]6)c(-c6c(F)cccc6F)c6nc(c(-c7c(F)cccc7F)c7ccc4[nH]7)C=C6)C=C5)cc3)cs2)ccc1Cl
REMARK SMILES IDX 15 1 14 2 12 3 13 4 11 6 10 7 8 8 9 9 77 10 76 11 7 12 6 13
REMARK SMILES IDX 5 14 4 15 1 16 2 17 3 18 80 19 79 20 81 21 78 22 16 23 17 24
REMARK SMILES IDX 18 25 19 26 20 27 21 29 22 30 23 31 75 32 24 33 74 34 25 35
REMARK SMILES IDX 26 36 27 37 68 38 28 39 73 40 67 41 69 42 29 43 72 44 66 45
REMARK SMILES IDX 65 46 30 48 56 49 39 50 55 51 40 52 43 53 54 54 70 55 41 56
REMARK SMILES IDX 42 57 53 59 71 60 44 61 31 62 32 63 37 64 33 65 34 66 36 67
REMARK SMILES IDX 38 68 35 69 57 70 58 71 63 72 59 73 60 74 62 75 64 76 61 77
REMARK SMILES IDX 45 78 46 79 51 80 47 81 48 82 50 83 52 84 49 85
REMARK H PARENT 14 5 19 28 69 47 43 58
REMARK Flexibility Score: inf
ROOT
ATOM      1  C   UNL A   1      35.774  19.590  24.950  1.00  0.00     0.116 C 
ENDROOT
BRANCH   1   2
ATOM      2  N   UNL A   1      34.297  19.386  25.127  1.00  0.00    -0.356 N 
ATOM      3  C   UNL A   1      33.047  19.705  24.673  1.00  0.00     0.226 C 
ATOM      4  O   UNL A   1      32.155  19.168  25.359  1.00  0.00    -0.275 OA
ATOM      5  H   UNL A   1      34.179  18.765  25.882  1.00  0.00     0.163 HD
BRANCH   3   6
ATOM      6  C   UNL A   1      32.570  20.546  23.462  1.00  0.00     0.157 C 
BRANCH   6   7
ATOM      7  C   UNL A   1      32.981  22.024  23.427  1.00  0.00     0.061 A 
ATOM      8  C   UNL A   1      33.724  23.951  24.398  1.00  0.00     0.096 A 
ATOM      9  N   UNL A   1      33.531  22.649  24.576  1.00  0.00    -0.246 NA
ATOM     10  S   UNL A   1      33.410  24.468  22.776  1.00  0.00    -0.127 S 
ATOM     11  C   UNL A   1      32.942  22.873  22.335  1.00  0.00     0.091 A 
BRANCH   8  12
ATOM     12  C   UNL A   1      34.281  24.956  25.415  1.00  0.00     0.109 C 
BRANCH  12  13
ATOM     13  C   UNL A   1      33.336  26.082  25.905  1.00  0.00     0.237 C 
BRANCH  13  14
ATOM     14  O   UNL A   1      33.648  27.409  25.384  1.00  0.00    -0.493 OA
BRANCH  14  15
ATOM     15  C   UNL A   1      32.845  28.362  25.945  1.00  0.00     0.119 A 
ATOM     16  C   UNL A   1      34.212  31.002  27.847  1.00  0.00     0.046 C 
ATOM     17  C   UNL A   1      33.034  30.338  27.198  1.00  0.00    -0.029 A 
ATOM     18  C   UNL A   1      33.259  28.980  27.103  1.00  0.00     0.051 A 
ATOM     19  C   UNL A   1      31.975  30.895  26.457  1.00  0.00     0.044 A 
ATOM     20  C   UNL A   1      31.299  30.120  25.512  1.00  0.00     0.024 A 
ATOM     21  Cl  UNL A   1      31.393  32.500  26.570  1.00  0.00    -0.084 Cl
ATOM     22  C   UNL A   1      31.780  28.857  25.208  1.00  0.00     0.048 A 
ENDBRANCH  14  15
ENDBRANCH  13  14
ENDBRANCH  12  13
ENDBRANCH   8  12
ENDBRANCH   6   7
ENDBRANCH   3   6
ENDBRANCH   1   2
BRANCH   1  23
ATOM     23  C   UNL A   1      36.183  21.064  24.742  1.00  0.00     0.023 C 
BRANCH  23  24
ATOM     24  C   UNL A   1      36.641  21.952  25.892  1.00  0.00     0.023 C 
BRANCH  24  25
ATOM     25  C   UNL A   1      37.715  22.979  25.535  1.00  0.00     0.116 C 
BRANCH  25  26
ATOM     26  N   UNL A   1      39.114  22.553  25.704  1.00  0.00    -0.352 N 
ATOM     27  C   UNL A   1      40.143  23.204  26.372  1.00  0.00     0.251 C 
ATOM     28  H   UNL A   1      39.352  21.693  25.288  1.00  0.00     0.163 HD
ATOM     29  O   UNL A   1      41.270  22.721  26.442  1.00  0.00    -0.269 OA
BRANCH  27  30
ATOM     30  C   UNL A   1      39.878  24.540  26.949  1.00  0.00     0.039 A 
ATOM     31  C   UNL A   1      39.255  24.642  28.196  1.00  0.00     0.014 A 
ATOM     32  C   UNL A   1      40.431  25.663  26.340  1.00  0.00     0.014 A 
ATOM     33  C   UNL A   1      39.349  25.841  28.910  1.00  0.00     0.010 A 
ATOM     34  C   UNL A   1      40.645  26.799  27.106  1.00  0.00     0.010 A 
ATOM     35  C   UNL A   1      40.124  26.898  28.407  1.00  0.00    -0.014 A 
BRANCH  35  36
ATOM     36  C   UNL A   1      40.423  28.117  29.208  1.00  0.00     0.031 A 
ATOM     37  C   UNL A   1      41.721  28.202  29.965  1.00  0.00     0.074 A 
ATOM     38  C   UNL A   1      39.493  29.084  29.355  1.00  0.00     0.049 A 
ATOM     39  N   UNL A   1      42.112  29.090  30.844  1.00  0.00    -0.248 NA
ATOM     40  C   UNL A   1      42.685  27.111  29.746  1.00  0.00     0.031 C 
ATOM     41  C   UNL A   1      38.160  29.092  28.748  1.00  0.00     0.029 A 
ATOM     42  N   UNL A   1      39.526  30.251  30.081  1.00  0.00    -0.354 N 
ATOM     43  C   UNL A   1      43.342  28.638  31.306  1.00  0.00     0.074 A 
ATOM     44  C   UNL A   1      43.595  27.365  30.672  1.00  0.00     0.031 C 
ATOM     45  C   UNL A   1      37.520  30.221  29.095  1.00  0.00     0.029 A 
ATOM     46  C   UNL A   1      38.377  31.002  29.980  1.00  0.00     0.049 A 
ATOM     47  H   UNL A   1      40.300  30.525  30.624  1.00  0.00     0.167 HD
ATOM     48  C   UNL A   1      44.207  29.246  32.151  1.00  0.00     0.037 A 
ATOM     49  C   UNL A   1      38.055  32.185  30.537  1.00  0.00     0.037 A 
ATOM     50  C   UNL A   1      43.988  30.543  32.727  1.00  0.00     0.049 A 
ATOM     51  C   UNL A   1      39.055  32.869  31.432  1.00  0.00     0.074 A 
ATOM     52  C   UNL A   1      44.836  31.285  33.529  1.00  0.00     0.029 A 
ATOM     53  N   UNL A   1      42.841  31.300  32.543  1.00  0.00    -0.354 N 
ATOM     54  N   UNL A   1      40.244  32.462  31.804  1.00  0.00    -0.248 NA
ATOM     55  C   UNL A   1      38.670  34.180  31.977  1.00  0.00     0.031 C 
ATOM     56  C   UNL A   1      44.191  32.483  33.851  1.00  0.00     0.029 A 
ATOM     57  C   UNL A   1      42.956  32.500  33.222  1.00  0.00     0.049 A 
ATOM     58  H   UNL A   1      42.061  31.023  32.011  1.00  0.00     0.167 HD
ATOM     59  C   UNL A   1      40.760  33.475  32.602  1.00  0.00     0.074 A 
ATOM     60  C   UNL A   1      39.761  34.521  32.649  1.00  0.00     0.031 C 
ATOM     61  C   UNL A   1      41.955  33.535  33.239  1.00  0.00     0.037 A 
BRANCH  48  62
ATOM     62  C   UNL A   1      45.479  28.517  32.469  1.00  0.00     0.057 A 
ATOM     63  C   UNL A   1      45.581  27.663  33.576  1.00  0.00     0.134 A 
ATOM     64  C   UNL A   1      46.614  28.669  31.663  1.00  0.00     0.134 A 
ATOM     65  F   UNL A   1      44.536  27.489  34.398  1.00  0.00    -0.206 F 
ATOM     66  C   UNL A   1      46.778  27.019  33.895  1.00  0.00     0.040 A 
ATOM     67  C   UNL A   1      47.807  28.005  31.954  1.00  0.00     0.040 A 
ATOM     68  F   UNL A   1      46.584  29.468  30.586  1.00  0.00    -0.206 F 
ATOM     69  C   UNL A   1      47.893  27.185  33.077  1.00  0.00     0.006 A 
ENDBRANCH  48  62
BRANCH  49  70
ATOM     70  C   UNL A   1      36.748  32.826  30.240  1.00  0.00     0.057 A 
ATOM     71  C   UNL A   1      36.587  33.635  29.108  1.00  0.00     0.134 A 
ATOM     72  C   UNL A   1      35.640  32.666  31.079  1.00  0.00     0.134 A 
ATOM     73  F   UNL A   1      37.618  33.844  28.276  1.00  0.00    -0.206 F 
ATOM     74  C   UNL A   1      35.379  34.278  28.832  1.00  0.00     0.040 A 
ATOM     75  C   UNL A   1      34.419  33.285  30.803  1.00  0.00     0.040 A 
ATOM     76  F   UNL A   1      35.726  31.898  32.175  1.00  0.00    -0.206 F 
ATOM     77  C   UNL A   1      34.289  34.101  29.680  1.00  0.00     0.006 A 
ENDBRANCH  49  70
BRANCH  61  78
ATOM     78  C   UNL A   1      42.262  34.783  34.009  1.00  0.00     0.057 A 
ATOM     79  C   UNL A   1      42.039  34.870  35.388  1.00  0.00     0.134 A 
ATOM     80  C   UNL A   1      42.843  35.886  33.372  1.00  0.00     0.134 A 
ATOM     81  F   UNL A   1      41.475  33.851  36.053  1.00  0.00    -0.206 F 
ATOM     82  C   UNL A   1      42.369  36.021  36.105  1.00  0.00     0.040 A 
ATOM     83  C   UNL A   1      43.199  37.032  34.081  1.00  0.00     0.040 A 
ATOM     84  F   UNL A   1      43.091  35.858  32.053  1.00  0.00    -0.206 F 
ATOM     85  C   UNL A   1      42.958  37.103  35.453  1.00  0.00     0.006 A 
ENDBRANCH  61  78
ENDBRANCH  35  36
ENDBRANCH  27  30
ENDBRANCH  25  26
ENDBRANCH  24  25
ENDBRANCH  23  24
ENDBRANCH   1  23
TORSDOF 16
ENDMDL
