MODEL 1
REMARK VINA RESULT:     -12.5      0.000      0.000
REMARK SMILES Cc1cc(F)c([C@H](O)[C@H]2CCCC[C@@H]2C(=O)NCCCCNC(=O)c2ccc(-c3c4nc(c(-c5c(F)cccc5F)c5ccc([nH]5)c(-c5c(F)cccc5F)c5nc(c(-c6c(F)cccc6F)c6ccc3[nH]6)C=C5)C=C4)cc2)cc1F
REMARK SMILES IDX 19 1 18 2 17 3 15 4 16 5 14 7 9 8 10 9 11 10 13 11 12 12
REMARK SMILES IDX 7 13 6 14 1 15 2 16 3 17 80 18 4 19 79 20 81 21 5 22 8 23
REMARK SMILES IDX 20 25 21 26 22 27 23 28 24 30 25 31 26 32 78 33 27 34 77 35
REMARK SMILES IDX 28 36 29 37 30 38 71 39 31 40 76 41 70 42 72 43 32 44 75 45
REMARK SMILES IDX 69 46 68 47 33 49 59 50 42 51 58 52 43 53 46 54 57 55 73 56
REMARK SMILES IDX 44 57 45 58 56 60 74 61 47 62 34 63 35 64 40 65 36 66 37 67
REMARK SMILES IDX 39 68 41 69 38 70 60 71 61 72 66 73 62 74 63 75 65 76 67 77
REMARK SMILES IDX 64 78 48 79 49 80 54 81 50 82 51 83 53 84 55 85 52 86
REMARK H PARENT 17 6 8 24 22 29 72 48 46 59
REMARK Flexibility Score: inf
ROOT
ATOM      1  C   UNL A   1      35.957  23.476  23.744  1.00  0.00     0.023 C 
ENDROOT
BRANCH   1   2
ATOM      2  C   UNL A   1      34.554  23.313  23.174  1.00  0.00     0.116 C 
BRANCH   2   3
ATOM      3  N   UNL A   1      33.914  24.546  22.796  1.00  0.00    -0.356 N 
ATOM      4  C   UNL A   1      33.410  25.549  23.560  1.00  0.00     0.223 C 
ATOM      5  O   UNL A   1      33.110  26.592  22.966  1.00  0.00    -0.275 OA
ATOM      6  H   UNL A   1      33.828  24.685  21.825  1.00  0.00     0.163 HD
BRANCH   4   7
ATOM      7  C   UNL A   1      33.185  25.458  25.082  1.00  0.00     0.084 C 
ATOM      8  C   UNL A   1      31.745  25.075  25.521  1.00  0.00     0.035 C 
ATOM      9  C   UNL A   1      30.898  26.305  25.895  1.00  0.00     0.007 C 
ATOM     10  C   UNL A   1      31.585  27.260  26.862  1.00  0.00     0.000 C 
ATOM     11  C   UNL A   1      33.873  26.565  25.894  1.00  0.00     0.014 C 
ATOM     12  C   UNL A   1      32.994  27.673  26.464  1.00  0.00     0.001 C 
BRANCH   8  13
ATOM     13  C   UNL A   1      31.770  24.003  26.669  1.00  0.00     0.151 C 
BRANCH  13  14
ATOM     14  C   UNL A   1      32.347  22.672  26.234  1.00  0.00     0.019 A 
ATOM     15  C   UNL A   1      34.321  19.141  24.699  1.00  0.00     0.047 C 
ATOM     16  C   UNL A   1      33.636  20.348  25.260  1.00  0.00    -0.012 A 
ATOM     17  C   UNL A   1      34.156  21.040  26.359  1.00  0.00     0.046 A 
ATOM     18  C   UNL A   1      32.448  20.804  24.687  1.00  0.00     0.126 A 
ATOM     19  C   UNL A   1      33.517  22.189  26.829  1.00  0.00     0.129 A 
ATOM     20  C   UNL A   1      31.802  21.940  25.166  1.00  0.00     0.049 A 
ATOM     21  F   UNL A   1      31.928  20.161  23.631  1.00  0.00    -0.207 F 
ATOM     22  F   UNL A   1      34.066  22.860  27.852  1.00  0.00    -0.207 F 
ENDBRANCH  13  14
BRANCH  13  23
ATOM     23  O   UNL A   1      30.461  23.786  27.198  1.00  0.00    -0.388 OA
ATOM     24  H   UNL A   1      29.848  23.588  26.472  1.00  0.00     0.211 HD
ENDBRANCH  13  23
ENDBRANCH   8  13
ENDBRANCH   4   7
ENDBRANCH   2   3
ENDBRANCH   1   2
BRANCH   1  25
ATOM     25  C   UNL A   1      36.757  22.187  23.879  1.00  0.00     0.023 C 
BRANCH  25  26
ATOM     26  C   UNL A   1      37.293  21.879  25.273  1.00  0.00     0.116 C 
BRANCH  26  27
ATOM     27  N   UNL A   1      38.362  20.887  25.332  1.00  0.00    -0.352 N 
ATOM     28  C   UNL A   1      39.534  20.962  26.059  1.00  0.00     0.251 C 
ATOM     29  H   UNL A   1      38.233  20.074  24.793  1.00  0.00     0.163 HD
ATOM     30  O   UNL A   1      40.371  20.068  26.020  1.00  0.00    -0.269 OA
BRANCH  28  31
ATOM     31  C   UNL A   1      39.785  22.195  26.832  1.00  0.00     0.039 A 
ATOM     32  C   UNL A   1      39.142  23.377  26.465  1.00  0.00     0.014 A 
ATOM     33  C   UNL A   1      40.816  22.201  27.775  1.00  0.00     0.014 A 
ATOM     34  C   UNL A   1      39.686  24.589  26.866  1.00  0.00     0.010 A 
ATOM     35  C   UNL A   1      41.299  23.422  28.248  1.00  0.00     0.010 A 
ATOM     36  C   UNL A   1      40.794  24.626  27.730  1.00  0.00    -0.014 A 
BRANCH  36  37
ATOM     37  C   UNL A   1      41.452  25.928  28.011  1.00  0.00     0.031 A 
ATOM     38  C   UNL A   1      42.817  26.239  27.451  1.00  0.00     0.074 A 
ATOM     39  C   UNL A   1      40.782  26.870  28.700  1.00  0.00     0.049 A 
ATOM     40  N   UNL A   1      43.537  27.327  27.582  1.00  0.00    -0.248 NA
ATOM     41  C   UNL A   1      43.464  25.194  26.640  1.00  0.00     0.031 C 
ATOM     42  C   UNL A   1      39.446  26.703  29.275  1.00  0.00     0.029 A 
ATOM     43  N   UNL A   1      41.117  28.165  29.003  1.00  0.00    -0.354 N 
ATOM     44  C   UNL A   1      44.728  27.083  26.909  1.00  0.00     0.074 A 
ATOM     45  C   UNL A   1      44.643  25.740  26.377  1.00  0.00     0.031 C 
ATOM     46  C   UNL A   1      39.049  27.870  29.803  1.00  0.00     0.029 A 
ATOM     47  C   UNL A   1      40.125  28.844  29.664  1.00  0.00     0.049 A 
ATOM     48  H   UNL A   1      41.984  28.567  28.768  1.00  0.00     0.167 HD
ATOM     49  C   UNL A   1      45.794  27.904  26.743  1.00  0.00     0.037 A 
ATOM     50  C   UNL A   1      40.089  30.109  30.119  1.00  0.00     0.037 A 
ATOM     51  C   UNL A   1      45.863  29.257  27.230  1.00  0.00     0.049 A 
ATOM     52  C   UNL A   1      41.283  30.994  29.931  1.00  0.00     0.074 A 
ATOM     53  C   UNL A   1      46.887  30.176  27.084  1.00  0.00     0.029 A 
ATOM     54  N   UNL A   1      44.858  29.888  27.948  1.00  0.00    -0.354 N 
ATOM     55  N   UNL A   1      42.411  30.738  29.314  1.00  0.00    -0.248 NA
ATOM     56  C   UNL A   1      41.208  32.336  30.522  1.00  0.00     0.031 C 
ATOM     57  C   UNL A   1      46.514  31.357  27.739  1.00  0.00     0.029 A 
ATOM     58  C   UNL A   1      45.245  31.179  28.266  1.00  0.00     0.049 A 
ATOM     59  H   UNL A   1      43.998  29.479  28.194  1.00  0.00     0.167 HD
ATOM     60  C   UNL A   1      43.182  31.884  29.445  1.00  0.00     0.074 A 
ATOM     61  C   UNL A   1      42.382  32.846  30.177  1.00  0.00     0.031 C 
ATOM     62  C   UNL A   1      44.442  32.116  29.009  1.00  0.00     0.037 A 
BRANCH  49  63
ATOM     63  C   UNL A   1      46.986  27.351  26.019  1.00  0.00     0.057 A 
ATOM     64  C   UNL A   1      47.091  27.477  24.628  1.00  0.00     0.134 A 
ATOM     65  C   UNL A   1      48.009  26.668  26.686  1.00  0.00     0.134 A 
ATOM     66  F   UNL A   1      46.141  28.116  23.928  1.00  0.00    -0.206 F 
ATOM     67  C   UNL A   1      48.172  26.942  23.926  1.00  0.00     0.040 A 
ATOM     68  C   UNL A   1      49.106  26.145  25.997  1.00  0.00     0.040 A 
ATOM     69  F   UNL A   1      47.975  26.527  28.019  1.00  0.00    -0.206 F 
ATOM     70  C   UNL A   1      49.187  26.277  24.612  1.00  0.00     0.006 A 
ENDBRANCH  49  63
BRANCH  50  71
ATOM     71  C   UNL A   1      38.875  30.602  30.810  1.00  0.00     0.057 A 
ATOM     72  C   UNL A   1      38.689  30.402  32.182  1.00  0.00     0.134 A 
ATOM     73  C   UNL A   1      37.862  31.262  30.106  1.00  0.00     0.134 A 
ATOM     74  F   UNL A   1      39.624  29.770  32.908  1.00  0.00    -0.206 F 
ATOM     75  C   UNL A   1      37.528  30.825  32.829  1.00  0.00     0.040 A 
ATOM     76  C   UNL A   1      36.706  31.709  30.745  1.00  0.00     0.040 A 
ATOM     77  F   UNL A   1      37.995  31.495  28.792  1.00  0.00    -0.206 F 
ATOM     78  C   UNL A   1      36.534  31.483  32.110  1.00  0.00     0.006 A 
ENDBRANCH  50  71
BRANCH  62  79
ATOM     79  C   UNL A   1      45.025  33.459  29.320  1.00  0.00     0.057 A 
ATOM     80  C   UNL A   1      45.777  33.664  30.482  1.00  0.00     0.134 A 
ATOM     81  C   UNL A   1      44.837  34.552  28.464  1.00  0.00     0.134 A 
ATOM     82  F   UNL A   1      45.990  32.657  31.342  1.00  0.00    -0.206 F 
ATOM     83  C   UNL A   1      46.327  34.911  30.781  1.00  0.00     0.040 A 
ATOM     84  C   UNL A   1      45.397  35.798  28.743  1.00  0.00     0.040 A 
ATOM     85  F   UNL A   1      44.139  34.412  27.327  1.00  0.00    -0.206 F 
ATOM     86  C   UNL A   1      46.143  35.981  29.907  1.00  0.00     0.006 A 
ENDBRANCH  62  79
ENDBRANCH  36  37
ENDBRANCH  28  31
ENDBRANCH  26  27
ENDBRANCH  25  26
ENDBRANCH   1  25
TORSDOF 14
ENDMDL
MODEL 2
REMARK VINA RESULT:     -12.5      3.166      7.745
REMARK SMILES Cc1cc(F)c([C@H](O)[C@H]2CCCC[C@@H]2C(=O)NCCCCNC(=O)c2ccc(-c3c4nc(c(-c5c(F)cccc5F)c5ccc([nH]5)c(-c5c(F)cccc5F)c5nc(c(-c6c(F)cccc6F)c6ccc3[nH]6)C=C5)C=C4)cc2)cc1F
REMARK SMILES IDX 19 1 18 2 17 3 15 4 16 5 14 7 9 8 10 9 11 10 13 11 12 12
REMARK SMILES IDX 7 13 6 14 1 15 2 16 3 17 80 18 4 19 79 20 81 21 5 22 8 23
REMARK SMILES IDX 20 25 21 26 22 27 23 28 24 30 25 31 26 32 78 33 27 34 77 35
REMARK SMILES IDX 28 36 29 37 30 38 71 39 31 40 76 41 70 42 72 43 32 44 75 45
REMARK SMILES IDX 69 46 68 47 33 49 59 50 42 51 58 52 43 53 46 54 57 55 73 56
REMARK SMILES IDX 44 57 45 58 56 60 74 61 47 62 34 63 35 64 40 65 36 66 37 67
REMARK SMILES IDX 39 68 41 69 38 70 60 71 61 72 66 73 62 74 63 75 65 76 67 77
REMARK SMILES IDX 64 78 48 79 49 80 54 81 50 82 51 83 53 84 55 85 52 86
REMARK H PARENT 17 6 8 24 22 29 72 48 46 59
REMARK Flexibility Score: inf
ROOT
ATOM      1  C   UNL A   1      31.853  27.722  27.347  1.00  0.00     0.023 C 
ENDROOT
BRANCH   1   2
ATOM      2  C   UNL A   1      31.252  26.823  26.274  1.00  0.00     0.116 C 
BRANCH   2   3
ATOM      3  N   UNL A   1      31.489  25.417  26.469  1.00  0.00    -0.356 N 
ATOM      4  C   UNL A   1      32.504  24.625  26.036  1.00  0.00     0.223 C 
ATOM      5  O   UNL A   1      32.567  23.495  26.533  1.00  0.00    -0.275 OA
ATOM      6  H   UNL A   1      30.804  24.953  27.003  1.00  0.00     0.163 HD
BRANCH   4   7
ATOM      7  C   UNL A   1      33.546  25.042  24.979  1.00  0.00     0.084 C 
ATOM      8  C   UNL A   1      33.255  24.564  23.530  1.00  0.00     0.035 C 
ATOM      9  C   UNL A   1      34.024  23.280  23.170  1.00  0.00     0.007 C 
ATOM     10  C   UNL A   1      35.511  23.337  23.494  1.00  0.00     0.000 C 
ATOM     11  C   UNL A   1      35.004  24.940  25.450  1.00  0.00     0.014 C 
ATOM     12  C   UNL A   1      35.842  23.787  24.909  1.00  0.00     0.001 C 
BRANCH   8  13
ATOM     13  C   UNL A   1      33.507  25.716  22.493  1.00  0.00     0.151 C 
BRANCH  13  14
ATOM     14  C   UNL A   1      32.561  26.888  22.656  1.00  0.00     0.019 A 
ATOM     15  C   UNL A   1      29.878  30.139  23.629  1.00  0.00     0.047 C 
ATOM     16  C   UNL A   1      30.820  29.033  23.270  1.00  0.00    -0.012 A 
ATOM     17  C   UNL A   1      32.207  29.206  23.326  1.00  0.00     0.046 A 
ATOM     18  C   UNL A   1      30.319  27.796  22.862  1.00  0.00     0.126 A 
ATOM     19  C   UNL A   1      33.058  28.141  23.028  1.00  0.00     0.129 A 
ATOM     20  C   UNL A   1      31.168  26.738  22.549  1.00  0.00     0.049 A 
ATOM     21  F   UNL A   1      28.993  27.601  22.801  1.00  0.00    -0.207 F 
ATOM     22  F   UNL A   1      34.382  28.322  23.139  1.00  0.00    -0.207 F 
ENDBRANCH  13  14
BRANCH  13  23
ATOM     23  O   UNL A   1      33.411  25.230  21.153  1.00  0.00    -0.388 OA
ATOM     24  H   UNL A   1      33.197  25.967  20.558  1.00  0.00     0.211 HD
ENDBRANCH  13  23
ENDBRANCH   8  13
ENDBRANCH   4   7
ENDBRANCH   2   3
ENDBRANCH   1   2
BRANCH   1  25
ATOM     25  C   UNL A   1      32.165  29.144  26.902  1.00  0.00     0.023 C 
BRANCH  25  26
ATOM     26  C   UNL A   1      33.599  29.613  27.127  1.00  0.00     0.116 C 
BRANCH  26  27
ATOM     27  N   UNL A   1      33.757  30.745  28.033  1.00  0.00    -0.352 N 
ATOM     28  C   UNL A   1      34.888  31.096  28.745  1.00  0.00     0.251 C 
ATOM     29  H   UNL A   1      32.969  31.323  28.152  1.00  0.00     0.163 HD
ATOM     30  O   UNL A   1      34.900  32.067  29.492  1.00  0.00    -0.269 OA
BRANCH  28  31
ATOM     31  C   UNL A   1      36.069  30.217  28.635  1.00  0.00     0.039 A 
ATOM     32  C   UNL A   1      36.478  29.475  29.743  1.00  0.00     0.014 A 
ATOM     33  C   UNL A   1      36.873  30.308  27.496  1.00  0.00     0.014 A 
ATOM     34  C   UNL A   1      37.787  29.020  29.800  1.00  0.00     0.010 A 
ATOM     35  C   UNL A   1      38.158  29.765  27.524  1.00  0.00     0.010 A 
ATOM     36  C   UNL A   1      38.654  29.194  28.707  1.00  0.00    -0.014 A 
BRANCH  36  37
ATOM     37  C   UNL A   1      40.090  28.843  28.857  1.00  0.00     0.031 A 
ATOM     38  C   UNL A   1      41.038  29.767  29.580  1.00  0.00     0.074 A 
ATOM     39  C   UNL A   1      40.526  27.648  28.419  1.00  0.00     0.049 A 
ATOM     40  N   UNL A   1      42.319  29.617  29.816  1.00  0.00    -0.248 NA
ATOM     41  C   UNL A   1      40.481  31.024  30.104  1.00  0.00     0.031 C 
ATOM     42  C   UNL A   1      39.705  26.654  27.725  1.00  0.00     0.029 A 
ATOM     43  N   UNL A   1      41.756  27.051  28.522  1.00  0.00    -0.354 N 
ATOM     44  C   UNL A   1      42.725  30.772  30.477  1.00  0.00     0.074 A 
ATOM     45  C   UNL A   1      41.559  31.620  30.596  1.00  0.00     0.031 C 
ATOM     46  C   UNL A   1      40.435  25.548  27.524  1.00  0.00     0.029 A 
ATOM     47  C   UNL A   1      41.790  25.778  28.012  1.00  0.00     0.049 A 
ATOM     48  H   UNL A   1      42.539  27.494  28.924  1.00  0.00     0.167 HD
ATOM     49  C   UNL A   1      43.955  31.094  30.945  1.00  0.00     0.037 A 
ATOM     50  C   UNL A   1      42.802  24.896  27.935  1.00  0.00     0.037 A 
ATOM     51  C   UNL A   1      45.106  30.233  30.871  1.00  0.00     0.049 A 
ATOM     52  C   UNL A   1      44.154  25.280  28.453  1.00  0.00     0.074 A 
ATOM     53  C   UNL A   1      46.387  30.459  31.346  1.00  0.00     0.029 A 
ATOM     54  N   UNL A   1      45.112  28.973  30.292  1.00  0.00    -0.354 N 
ATOM     55  N   UNL A   1      44.526  26.385  29.052  1.00  0.00    -0.248 NA
ATOM     56  C   UNL A   1      45.234  24.301  28.265  1.00  0.00     0.031 C 
ATOM     57  C   UNL A   1      47.176  29.346  31.029  1.00  0.00     0.029 A 
ATOM     58  C   UNL A   1      46.377  28.416  30.383  1.00  0.00     0.049 A 
ATOM     59  H   UNL A   1      44.331  28.539  29.877  1.00  0.00     0.167 HD
ATOM     60  C   UNL A   1      45.881  26.239  29.308  1.00  0.00     0.074 A 
ATOM     61  C   UNL A   1      46.260  24.925  28.825  1.00  0.00     0.031 C 
ATOM     62  C   UNL A   1      46.738  27.116  29.882  1.00  0.00     0.037 A 
BRANCH  49  63
ATOM     63  C   UNL A   1      44.124  32.449  31.567  1.00  0.00     0.057 A 
ATOM     64  C   UNL A   1      44.480  33.551  30.778  1.00  0.00     0.134 A 
ATOM     65  C   UNL A   1      43.972  32.660  32.942  1.00  0.00     0.134 A 
ATOM     66  F   UNL A   1      44.647  33.415  29.454  1.00  0.00    -0.206 F 
ATOM     67  C   UNL A   1      44.678  34.815  31.335  1.00  0.00     0.040 A 
ATOM     68  C   UNL A   1      44.148  33.924  33.509  1.00  0.00     0.040 A 
ATOM     69  F   UNL A   1      43.618  31.650  33.749  1.00  0.00    -0.206 F 
ATOM     70  C   UNL A   1      44.507  35.005  32.705  1.00  0.00     0.006 A 
ENDBRANCH  49  63
BRANCH  50  71
ATOM     71  C   UNL A   1      42.566  23.566  27.327  1.00  0.00     0.057 A 
ATOM     72  C   UNL A   1      42.191  22.467  28.107  1.00  0.00     0.134 A 
ATOM     73  C   UNL A   1      42.737  23.361  25.953  1.00  0.00     0.134 A 
ATOM     74  F   UNL A   1      42.018  22.603  29.430  1.00  0.00    -0.206 F 
ATOM     75  C   UNL A   1      42.011  21.203  27.546  1.00  0.00     0.040 A 
ATOM     76  C   UNL A   1      42.540  22.107  25.376  1.00  0.00     0.040 A 
ATOM     77  F   UNL A   1      43.080  24.383  25.156  1.00  0.00    -0.206 F 
ATOM     78  C   UNL A   1      42.183  21.021  26.175  1.00  0.00     0.006 A 
ENDBRANCH  50  71
BRANCH  62  79
ATOM     79  C   UNL A   1      48.164  26.678  30.009  1.00  0.00     0.057 A 
ATOM     80  C   UNL A   1      48.598  25.961  31.130  1.00  0.00     0.134 A 
ATOM     81  C   UNL A   1      49.107  26.970  29.016  1.00  0.00     0.134 A 
ATOM     82  F   UNL A   1      47.742  25.653  32.116  1.00  0.00    -0.206 F 
ATOM     83  C   UNL A   1      49.924  25.546  31.257  1.00  0.00     0.040 A 
ATOM     84  C   UNL A   1      50.431  26.544  29.124  1.00  0.00     0.040 A 
ATOM     85  F   UNL A   1      48.746  27.640  27.911  1.00  0.00    -0.206 F 
ATOM     86  C   UNL A   1      50.844  25.832  30.249  1.00  0.00     0.006 A 
ENDBRANCH  62  79
ENDBRANCH  36  37
ENDBRANCH  28  31
ENDBRANCH  26  27
ENDBRANCH  25  26
ENDBRANCH   1  25
TORSDOF 14
ENDMDL
MODEL 3
REMARK VINA RESULT:     -12.5      4.104      8.973
REMARK SMILES Cc1cc(F)c([C@H](O)[C@H]2CCCC[C@@H]2C(=O)NCCCCNC(=O)c2ccc(-c3c4nc(c(-c5c(F)cccc5F)c5ccc([nH]5)c(-c5c(F)cccc5F)c5nc(c(-c6c(F)cccc6F)c6ccc3[nH]6)C=C5)C=C4)cc2)cc1F
REMARK SMILES IDX 19 1 18 2 17 3 15 4 16 5 14 7 9 8 10 9 11 10 13 11 12 12
REMARK SMILES IDX 7 13 6 14 1 15 2 16 3 17 80 18 4 19 79 20 81 21 5 22 8 23
REMARK SMILES IDX 20 25 21 26 22 27 23 28 24 30 25 31 26 32 78 33 27 34 77 35
REMARK SMILES IDX 28 36 29 37 30 38 71 39 31 40 76 41 70 42 72 43 32 44 75 45
REMARK SMILES IDX 69 46 68 47 33 49 59 50 42 51 58 52 43 53 46 54 57 55 73 56
REMARK SMILES IDX 44 57 45 58 56 60 74 61 47 62 34 63 35 64 40 65 36 66 37 67
REMARK SMILES IDX 39 68 41 69 38 70 60 71 61 72 66 73 62 74 63 75 65 76 67 77
REMARK SMILES IDX 64 78 48 79 49 80 54 81 50 82 51 83 53 84 55 85 52 86
REMARK H PARENT 17 6 8 24 22 29 72 48 46 59
REMARK Flexibility Score: inf
ROOT
ATOM      1  C   UNL A   1      32.200  27.689  26.581  1.00  0.00     0.023 C 
ENDROOT
BRANCH   1   2
ATOM      2  C   UNL A   1      31.063  26.748  26.206  1.00  0.00     0.116 C 
BRANCH   2   3
ATOM      3  N   UNL A   1      31.316  25.359  26.490  1.00  0.00    -0.356 N 
ATOM      4  C   UNL A   1      32.311  24.539  26.067  1.00  0.00     0.223 C 
ATOM      5  O   UNL A   1      32.403  23.448  26.642  1.00  0.00    -0.275 OA
ATOM      6  H   UNL A   1      30.659  24.935  27.090  1.00  0.00     0.163 HD
BRANCH   4   7
ATOM      7  C   UNL A   1      33.299  24.878  24.934  1.00  0.00     0.084 C 
ATOM      8  C   UNL A   1      32.948  24.281  23.543  1.00  0.00     0.035 C 
ATOM      9  C   UNL A   1      33.717  22.979  23.253  1.00  0.00     0.007 C 
ATOM     10  C   UNL A   1      35.216  23.076  23.501  1.00  0.00     0.000 C 
ATOM     11  C   UNL A   1      34.778  24.829  25.343  1.00  0.00     0.014 C 
ATOM     12  C   UNL A   1      35.606  23.643  24.858  1.00  0.00     0.001 C 
BRANCH   8  13
ATOM     13  C   UNL A   1      33.138  25.347  22.405  1.00  0.00     0.151 C 
BRANCH  13  14
ATOM     14  C   UNL A   1      32.262  26.570  22.577  1.00  0.00     0.019 A 
ATOM     15  C   UNL A   1      29.842  30.015  23.575  1.00  0.00     0.047 C 
ATOM     16  C   UNL A   1      30.690  28.840  23.203  1.00  0.00    -0.012 A 
ATOM     17  C   UNL A   1      32.077  28.955  23.057  1.00  0.00     0.046 A 
ATOM     18  C   UNL A   1      30.099  27.594  22.990  1.00  0.00     0.126 A 
ATOM     19  C   UNL A   1      32.845  27.829  22.754  1.00  0.00     0.129 A 
ATOM     20  C   UNL A   1      30.863  26.474  22.672  1.00  0.00     0.049 A 
ATOM     21  F   UNL A   1      28.772  27.454  23.126  1.00  0.00    -0.207 F 
ATOM     22  F   UNL A   1      34.176  27.961  22.669  1.00  0.00    -0.207 F 
ENDBRANCH  13  14
BRANCH  13  23
ATOM     23  O   UNL A   1      32.886  24.777  21.120  1.00  0.00    -0.388 OA
ATOM     24  H   UNL A   1      33.501  24.043  20.966  1.00  0.00     0.211 HD
ENDBRANCH  13  23
ENDBRANCH   8  13
ENDBRANCH   4   7
ENDBRANCH   2   3
ENDBRANCH   1   2
BRANCH   1  25
ATOM     25  C   UNL A   1      31.780  29.114  26.915  1.00  0.00     0.023 C 
BRANCH  25  26
ATOM     26  C   UNL A   1      32.696  30.218  26.395  1.00  0.00     0.116 C 
BRANCH  26  27
ATOM     27  N   UNL A   1      32.476  31.541  26.967  1.00  0.00    -0.352 N 
ATOM     28  C   UNL A   1      33.400  32.339  27.614  1.00  0.00     0.251 C 
ATOM     29  H   UNL A   1      31.565  31.907  26.884  1.00  0.00     0.163 HD
ATOM     30  O   UNL A   1      33.095  33.435  28.068  1.00  0.00    -0.269 OA
BRANCH  28  31
ATOM     31  C   UNL A   1      34.759  31.796  27.807  1.00  0.00     0.039 A 
ATOM     32  C   UNL A   1      34.928  30.425  27.999  1.00  0.00     0.014 A 
ATOM     33  C   UNL A   1      35.818  32.684  28.004  1.00  0.00     0.014 A 
ATOM     34  C   UNL A   1      36.087  29.971  28.613  1.00  0.00     0.010 A 
ATOM     35  C   UNL A   1      37.018  32.208  28.534  1.00  0.00     0.010 A 
ATOM     36  C   UNL A   1      37.129  30.863  28.923  1.00  0.00    -0.014 A 
BRANCH  36  37
ATOM     37  C   UNL A   1      38.285  30.379  29.722  1.00  0.00     0.031 A 
ATOM     38  C   UNL A   1      38.422  30.746  31.179  1.00  0.00     0.074 A 
ATOM     39  C   UNL A   1      39.167  29.533  29.160  1.00  0.00     0.049 A 
ATOM     40  N   UNL A   1      39.356  30.404  32.033  1.00  0.00    -0.248 NA
ATOM     41  C   UNL A   1      37.380  31.612  31.754  1.00  0.00     0.031 C 
ATOM     42  C   UNL A   1      39.132  29.082  27.768  1.00  0.00     0.029 A 
ATOM     43  N   UNL A   1      40.243  28.875  29.698  1.00  0.00    -0.354 N 
ATOM     44  C   UNL A   1      39.037  31.042  33.227  1.00  0.00     0.074 A 
ATOM     45  C   UNL A   1      37.829  31.801  32.988  1.00  0.00     0.031 C 
ATOM     46  C   UNL A   1      40.100  28.173  27.579  1.00  0.00     0.029 A 
ATOM     47  C   UNL A   1      40.862  28.028  28.814  1.00  0.00     0.049 A 
ATOM     48  H   UNL A   1      40.542  28.999  30.628  1.00  0.00     0.167 HD
ATOM     49  C   UNL A   1      39.687  30.995  34.414  1.00  0.00     0.037 A 
ATOM     50  C   UNL A   1      41.932  27.230  28.975  1.00  0.00     0.037 A 
ATOM     51  C   UNL A   1      40.863  30.203  34.669  1.00  0.00     0.049 A 
ATOM     52  C   UNL A   1      42.638  27.203  30.296  1.00  0.00     0.074 A 
ATOM     53  C   UNL A   1      41.573  30.067  35.849  1.00  0.00     0.029 A 
ATOM     54  N   UNL A   1      41.493  29.404  33.728  1.00  0.00    -0.354 N 
ATOM     55  N   UNL A   1      42.338  27.831  31.406  1.00  0.00    -0.248 NA
ATOM     56  C   UNL A   1      43.847  26.372  30.379  1.00  0.00     0.031 C 
ATOM     57  C   UNL A   1      42.652  29.205  35.615  1.00  0.00     0.029 A 
ATOM     58  C   UNL A   1      42.594  28.784  34.296  1.00  0.00     0.049 A 
ATOM     59  H   UNL A   1      41.201  29.293  32.794  1.00  0.00     0.167 HD
ATOM     60  C   UNL A   1      43.319  27.476  32.319  1.00  0.00     0.074 A 
ATOM     61  C   UNL A   1      44.210  26.555  31.641  1.00  0.00     0.031 C 
ATOM     62  C   UNL A   1      43.477  27.884  33.601  1.00  0.00     0.037 A 
BRANCH  49  63
ATOM     63  C   UNL A   1      39.151  31.843  35.530  1.00  0.00     0.057 A 
ATOM     64  C   UNL A   1      39.566  33.173  35.672  1.00  0.00     0.134 A 
ATOM     65  C   UNL A   1      38.254  31.339  36.480  1.00  0.00     0.134 A 
ATOM     66  F   UNL A   1      40.428  33.714  34.798  1.00  0.00    -0.206 F 
ATOM     67  C   UNL A   1      39.109  33.973  36.720  1.00  0.00     0.040 A 
ATOM     68  C   UNL A   1      37.775  32.136  37.523  1.00  0.00     0.040 A 
ATOM     69  F   UNL A   1      37.807  30.079  36.391  1.00  0.00    -0.206 F 
ATOM     70  C   UNL A   1      38.207  33.455  37.648  1.00  0.00     0.006 A 
ENDBRANCH  49  63
BRANCH  50  71
ATOM     71  C   UNL A   1      42.403  26.402  27.840  1.00  0.00     0.057 A 
ATOM     72  C   UNL A   1      43.273  26.919  26.875  1.00  0.00     0.134 A 
ATOM     73  C   UNL A   1      41.970  25.080  27.683  1.00  0.00     0.134 A 
ATOM     74  F   UNL A   1      43.716  28.182  26.971  1.00  0.00    -0.206 F 
ATOM     75  C   UNL A   1      43.684  26.159  25.781  1.00  0.00     0.040 A 
ATOM     76  C   UNL A   1      42.390  24.302  26.606  1.00  0.00     0.040 A 
ATOM     77  F   UNL A   1      41.149  24.528  28.588  1.00  0.00    -0.206 F 
ATOM     78  C   UNL A   1      43.245  24.844  25.646  1.00  0.00     0.006 A 
ENDBRANCH  50  71
BRANCH  62  79
ATOM     79  C   UNL A   1      44.658  27.336  34.340  1.00  0.00     0.057 A 
ATOM     80  C   UNL A   1      45.878  28.021  34.352  1.00  0.00     0.134 A 
ATOM     81  C   UNL A   1      44.582  26.126  35.041  1.00  0.00     0.134 A 
ATOM     82  F   UNL A   1      46.013  29.184  33.698  1.00  0.00    -0.206 F 
ATOM     83  C   UNL A   1      46.985  27.521  35.040  1.00  0.00     0.040 A 
ATOM     84  C   UNL A   1      45.676  25.625  35.747  1.00  0.00     0.040 A 
ATOM     85  F   UNL A   1      43.434  25.433  35.079  1.00  0.00    -0.206 F 
ATOM     86  C   UNL A   1      46.883  26.323  35.745  1.00  0.00     0.006 A 
ENDBRANCH  62  79
ENDBRANCH  36  37
ENDBRANCH  28  31
ENDBRANCH  26  27
ENDBRANCH  25  26
ENDBRANCH   1  25
TORSDOF 14
ENDMDL
