MODEL 1
REMARK VINA RESULT:     -12.2      0.000      0.000
REMARK SMILES O=C(NCCCCNC(=O)[C@H]1CC[C@@H](CNC(=O)N2CCO[C@@H]3CCC[C@H]32)O1)c1ccc(-c2c3nc(c(-c4c(F)cccc4F)c4ccc([nH]4)c(-c4c(F)cccc4F)c4nc(c(-c5c(F)cccc5F)c5ccc2[nH]5)C=C4)C=C3)cc1
REMARK SMILES IDX 6 1 5 2 4 3 3 4 1 5 2 6 29 8 30 9 82 10 31 11 81 12 32 13
REMARK SMILES IDX 33 14 34 15 75 16 35 17 80 18 74 19 76 20 36 21 79 22 73 23
REMARK SMILES IDX 72 24 37 26 63 27 46 28 62 29 47 30 50 31 61 32 77 33 48 34
REMARK SMILES IDX 49 35 60 37 78 38 51 39 38 40 39 41 44 42 40 43 41 44 43 45
REMARK SMILES IDX 45 46 42 47 64 48 65 49 70 50 66 51 67 52 69 53 71 54 68 55
REMARK SMILES IDX 52 56 53 57 58 58 54 59 55 60 57 61 59 62 56 63 7 64 8 65
REMARK SMILES IDX 9 66 10 68 11 69 12 70 28 71 13 72 14 73 15 74 16 75 17 76
REMARK SMILES IDX 18 78 19 79 20 80 27 81 21 82 23 83 26 84 22 85 24 86 25 87
REMARK H PARENT 3 7 76 25 50 36 8 67 16 77
REMARK Flexibility Score: inf
ROOT
ATOM      1  C   UNL A   1      31.779  30.781  26.083  1.00  0.00     0.023 C 
ENDROOT
BRANCH   1   2
ATOM      2  C   UNL A   1      31.456  32.046  26.876  1.00  0.00     0.023 C 
BRANCH   2   3
ATOM      3  C   UNL A   1      32.677  32.861  27.284  1.00  0.00     0.116 C 
BRANCH   3   4
ATOM      4  N   UNL A   1      32.361  34.240  27.626  1.00  0.00    -0.352 N 
ATOM      5  O   UNL A   1      32.528  36.156  28.815  1.00  0.00    -0.269 OA
ATOM      6  C   UNL A   1      32.965  35.043  28.564  1.00  0.00     0.251 C 
ATOM      7  H   UNL A   1      31.621  34.649  27.121  1.00  0.00     0.163 HD
BRANCH   6   8
ATOM      8  C   UNL A   1      34.132  34.510  29.292  1.00  0.00     0.039 A 
ATOM      9  C   UNL A   1      35.406  34.580  28.721  1.00  0.00     0.014 A 
ATOM     10  C   UNL A   1      33.931  33.878  30.521  1.00  0.00     0.014 A 
ATOM     11  C   UNL A   1      36.458  33.897  29.316  1.00  0.00     0.010 A 
ATOM     12  C   UNL A   1      35.008  33.254  31.152  1.00  0.00     0.010 A 
ATOM     13  C   UNL A   1      36.269  33.230  30.536  1.00  0.00    -0.014 A 
BRANCH  13  14
ATOM     14  C   UNL A   1      37.413  32.540  31.176  1.00  0.00     0.031 A 
ATOM     15  C   UNL A   1      37.936  32.987  32.510  1.00  0.00     0.074 A 
ATOM     16  C   UNL A   1      37.970  31.492  30.541  1.00  0.00     0.049 A 
ATOM     17  N   UNL A   1      38.952  32.524  33.193  1.00  0.00    -0.248 NA
ATOM     18  C   UNL A   1      37.234  34.104  33.161  1.00  0.00     0.031 C 
ATOM     19  C   UNL A   1      37.541  30.972  29.242  1.00  0.00     0.029 A 
ATOM     20  N   UNL A   1      39.007  30.676  30.903  1.00  0.00    -0.354 N 
ATOM     21  C   UNL A   1      39.029  33.304  34.338  1.00  0.00     0.074 A 
ATOM     22  C   UNL A   1      37.965  34.283  34.253  1.00  0.00     0.031 C 
ATOM     23  C   UNL A   1      38.287  29.903  28.930  1.00  0.00     0.029 A 
ATOM     24  C   UNL A   1      39.283  29.702  29.977  1.00  0.00     0.049 A 
ATOM     25  H   UNL A   1      39.506  30.776  31.747  1.00  0.00     0.167 HD
ATOM     26  C   UNL A   1      39.908  33.210  35.365  1.00  0.00     0.037 A 
ATOM     27  C   UNL A   1      40.246  28.763  29.959  1.00  0.00     0.037 A 
ATOM     28  C   UNL A   1      40.949  32.219  35.451  1.00  0.00     0.049 A 
ATOM     29  C   UNL A   1      41.213  28.690  31.101  1.00  0.00     0.074 A 
ATOM     30  C   UNL A   1      41.871  32.020  36.466  1.00  0.00     0.029 A 
ATOM     31  N   UNL A   1      41.208  31.260  34.484  1.00  0.00    -0.354 N 
ATOM     32  N   UNL A   1      41.269  29.429  32.181  1.00  0.00    -0.248 NA
ATOM     33  C   UNL A   1      42.255  27.658  31.018  1.00  0.00     0.031 C 
ATOM     34  C   UNL A   1      42.708  30.963  36.096  1.00  0.00     0.029 A 
ATOM     35  C   UNL A   1      42.286  30.478  34.868  1.00  0.00     0.049 A 
ATOM     36  H   UNL A   1      40.703  31.151  33.646  1.00  0.00     0.167 HD
ATOM     37  C   UNL A   1      42.343  28.947  32.916  1.00  0.00     0.074 A 
ATOM     38  C   UNL A   1      42.900  27.840  32.162  1.00  0.00     0.031 C 
ATOM     39  C   UNL A   1      42.826  29.383  34.104  1.00  0.00     0.037 A 
BRANCH  26  40
ATOM     40  C   UNL A   1      39.794  34.219  36.470  1.00  0.00     0.057 A 
ATOM     41  C   UNL A   1      39.059  33.964  37.635  1.00  0.00     0.134 A 
ATOM     42  C   UNL A   1      40.459  35.449  36.382  1.00  0.00     0.134 A 
ATOM     43  F   UNL A   1      38.386  32.812  37.775  1.00  0.00    -0.206 F 
ATOM     44  C   UNL A   1      38.974  34.903  38.664  1.00  0.00     0.040 A 
ATOM     45  C   UNL A   1      40.399  36.387  37.414  1.00  0.00     0.040 A 
ATOM     46  F   UNL A   1      41.184  35.754  35.296  1.00  0.00    -0.206 F 
ATOM     47  C   UNL A   1      39.652  36.117  38.558  1.00  0.00     0.006 A 
ENDBRANCH  26  40
BRANCH  27  48
ATOM     48  C   UNL A   1      40.331  27.832  28.811  1.00  0.00     0.057 A 
ATOM     49  C   UNL A   1      39.627  26.624  28.807  1.00  0.00     0.134 A 
ATOM     50  C   UNL A   1      41.080  28.150  27.671  1.00  0.00     0.134 A 
ATOM     51  F   UNL A   1      38.903  26.261  29.876  1.00  0.00    -0.206 F 
ATOM     52  C   UNL A   1      39.666  25.761  27.711  1.00  0.00     0.040 A 
ATOM     53  C   UNL A   1      41.110  27.309  26.559  1.00  0.00     0.040 A 
ATOM     54  F   UNL A   1      41.767  29.300  27.612  1.00  0.00    -0.206 F 
ATOM     55  C   UNL A   1      40.403  26.109  26.579  1.00  0.00     0.006 A 
ENDBRANCH  27  48
BRANCH  39  56
ATOM     56  C   UNL A   1      44.001  28.645  34.668  1.00  0.00     0.057 A 
ATOM     57  C   UNL A   1      43.839  27.519  35.483  1.00  0.00     0.134 A 
ATOM     58  C   UNL A   1      45.307  29.051  34.371  1.00  0.00     0.134 A 
ATOM     59  F   UNL A   1      42.611  27.090  35.815  1.00  0.00    -0.206 F 
ATOM     60  C   UNL A   1      44.938  26.831  36.000  1.00  0.00     0.040 A 
ATOM     61  C   UNL A   1      46.414  28.361  34.865  1.00  0.00     0.040 A 
ATOM     62  F   UNL A   1      45.527  30.121  33.591  1.00  0.00    -0.206 F 
ATOM     63  C   UNL A   1      46.230  27.249  35.685  1.00  0.00     0.006 A 
ENDBRANCH  39  56
ENDBRANCH  13  14
ENDBRANCH   6   8
ENDBRANCH   3   4
ENDBRANCH   2   3
ENDBRANCH   1   2
BRANCH   1  64
ATOM     64  C   UNL A   1      33.042  30.070  26.560  1.00  0.00     0.116 C 
BRANCH  64  65
ATOM     65  N   UNL A   1      33.570  29.221  25.516  1.00  0.00    -0.354 N 
ATOM     66  C   UNL A   1      33.016  28.113  24.942  1.00  0.00     0.249 C 
ATOM     67  H   UNL A   1      34.454  29.480  25.167  1.00  0.00     0.163 HD
ATOM     68  O   UNL A   1      33.719  27.447  24.178  1.00  0.00    -0.272 OA
BRANCH  66  69
ATOM     69  C   UNL A   1      31.560  27.714  25.234  1.00  0.00     0.207 C 
ATOM     70  C   UNL A   1      30.634  27.624  24.030  1.00  0.00     0.045 C 
ATOM     71  O   UNL A   1      31.523  26.449  25.897  1.00  0.00    -0.363 OA
ATOM     72  C   UNL A   1      29.971  26.262  24.134  1.00  0.00     0.037 C 
ATOM     73  C   UNL A   1      30.305  25.782  25.539  1.00  0.00     0.138 C 
BRANCH  73  74
ATOM     74  C   UNL A   1      30.531  24.268  25.630  1.00  0.00     0.149 C 
BRANCH  74  75
ATOM     75  N   UNL A   1      31.246  23.920  26.852  1.00  0.00    -0.335 N 
ATOM     76  C   UNL A   1      32.346  23.138  26.997  1.00  0.00     0.317 C 
ATOM     77  H   UNL A   1      30.884  24.305  27.683  1.00  0.00     0.165 HD
ATOM     78  O   UNL A   1      32.528  22.577  28.073  1.00  0.00    -0.249 OA
BRANCH  76  79
ATOM     79  N   UNL A   1      33.166  23.005  25.912  1.00  0.00    -0.317 N 
ATOM     80  C   UNL A   1      34.411  23.786  25.840  1.00  0.00     0.150 C 
ATOM     81  C   UNL A   1      33.256  21.775  25.136  1.00  0.00     0.116 C 
ATOM     82  C   UNL A   1      35.648  22.905  26.126  1.00  0.00     0.182 C 
ATOM     83  C   UNL A   1      34.487  20.961  25.537  1.00  0.00     0.141 C 
ATOM     84  C   UNL A   1      32.153  20.722  25.139  1.00  0.00     0.028 C 
ATOM     85  O   UNL A   1      35.676  21.720  25.306  1.00  0.00    -0.374 OA
ATOM     86  C   UNL A   1      34.359  19.750  24.627  1.00  0.00     0.034 C 
ATOM     87  C   UNL A   1      32.850  19.469  24.578  1.00  0.00     0.005 C 
ENDBRANCH  76  79
ENDBRANCH  74  75
ENDBRANCH  73  74
ENDBRANCH  66  69
ENDBRANCH  64  65
ENDBRANCH   1  64
TORSDOF 14
ENDMDL
MODEL 2
REMARK VINA RESULT:     -12.2      4.956      9.756
REMARK SMILES O=C(NCCCCNC(=O)[C@H]1CC[C@@H](CNC(=O)N2CCO[C@@H]3CCC[C@H]32)O1)c1ccc(-c2c3nc(c(-c4c(F)cccc4F)c4ccc([nH]4)c(-c4c(F)cccc4F)c4nc(c(-c5c(F)cccc5F)c5ccc2[nH]5)C=C4)C=C3)cc1
REMARK SMILES IDX 6 1 5 2 4 3 3 4 1 5 2 6 29 8 30 9 82 10 31 11 81 12 32 13
REMARK SMILES IDX 33 14 34 15 75 16 35 17 80 18 74 19 76 20 36 21 79 22 73 23
REMARK SMILES IDX 72 24 37 26 63 27 46 28 62 29 47 30 50 31 61 32 77 33 48 34
REMARK SMILES IDX 49 35 60 37 78 38 51 39 38 40 39 41 44 42 40 43 41 44 43 45
REMARK SMILES IDX 45 46 42 47 64 48 65 49 70 50 66 51 67 52 69 53 71 54 68 55
REMARK SMILES IDX 52 56 53 57 58 58 54 59 55 60 57 61 59 62 56 63 7 64 8 65
REMARK SMILES IDX 9 66 10 68 11 69 12 70 28 71 13 72 14 73 15 74 16 75 17 76
REMARK SMILES IDX 18 78 19 79 20 80 27 81 21 82 23 83 26 84 22 85 24 86 25 87
REMARK H PARENT 3 7 76 25 50 36 8 67 16 77
REMARK Flexibility Score: inf
ROOT
ATOM      1  C   UNL A   1      37.263  21.167  24.514  1.00  0.00     0.023 C 
ENDROOT
BRANCH   1   2
ATOM      2  C   UNL A   1      38.017  19.941  25.027  1.00  0.00     0.023 C 
BRANCH   2   3
ATOM      3  C   UNL A   1      39.274  20.265  25.825  1.00  0.00     0.116 C 
BRANCH   3   4
ATOM      4  N   UNL A   1      40.225  19.163  25.872  1.00  0.00    -0.352 N 
ATOM      5  O   UNL A   1      42.272  18.218  26.042  1.00  0.00    -0.269 OA
ATOM      6  C   UNL A   1      41.573  19.216  26.134  1.00  0.00     0.251 C 
ATOM      7  H   UNL A   1      39.855  18.269  25.692  1.00  0.00     0.163 HD
BRANCH   6   8
ATOM      8  C   UNL A   1      42.165  20.519  26.491  1.00  0.00     0.039 A 
ATOM      9  C   UNL A   1      42.225  20.919  27.829  1.00  0.00     0.014 A 
ATOM     10  C   UNL A   1      42.596  21.368  25.469  1.00  0.00     0.014 A 
ATOM     11  C   UNL A   1      42.591  22.223  28.135  1.00  0.00     0.010 A 
ATOM     12  C   UNL A   1      43.032  22.655  25.788  1.00  0.00     0.010 A 
ATOM     13  C   UNL A   1      42.999  23.100  27.118  1.00  0.00    -0.014 A 
BRANCH  13  14
ATOM     14  C   UNL A   1      43.424  24.476  27.468  1.00  0.00     0.031 A 
ATOM     15  C   UNL A   1      42.425  25.502  27.919  1.00  0.00     0.074 A 
ATOM     16  C   UNL A   1      44.731  24.787  27.386  1.00  0.00     0.049 A 
ATOM     17  N   UNL A   1      42.619  26.760  28.223  1.00  0.00    -0.248 NA
ATOM     18  C   UNL A   1      41.026  25.063  28.036  1.00  0.00     0.031 C 
ATOM     19  C   UNL A   1      45.789  23.867  26.962  1.00  0.00     0.029 A 
ATOM     20  N   UNL A   1      45.392  25.953  27.661  1.00  0.00    -0.354 N 
ATOM     21  C   UNL A   1      41.368  27.271  28.543  1.00  0.00     0.074 A 
ATOM     22  C   UNL A   1      40.417  26.190  28.381  1.00  0.00     0.031 C 
ATOM     23  C   UNL A   1      46.971  24.495  27.035  1.00  0.00     0.029 A 
ATOM     24  C   UNL A   1      46.746  25.874  27.453  1.00  0.00     0.049 A 
ATOM     25  H   UNL A   1      44.940  26.770  27.977  1.00  0.00     0.167 HD
ATOM     26  C   UNL A   1      41.045  28.526  28.936  1.00  0.00     0.037 A 
ATOM     27  C   UNL A   1      47.701  26.815  27.565  1.00  0.00     0.037 A 
ATOM     28  C   UNL A   1      42.001  29.589  29.115  1.00  0.00     0.049 A 
ATOM     29  C   UNL A   1      47.315  28.200  27.988  1.00  0.00     0.074 A 
ATOM     30  C   UNL A   1      41.778  30.888  29.542  1.00  0.00     0.029 A 
ATOM     31  N   UNL A   1      43.362  29.475  28.878  1.00  0.00    -0.354 N 
ATOM     32  N   UNL A   1      46.130  28.666  28.294  1.00  0.00    -0.248 NA
ATOM     33  C   UNL A   1      48.397  29.189  28.073  1.00  0.00     0.031 C 
ATOM     34  C   UNL A   1      43.000  31.568  29.529  1.00  0.00     0.029 A 
ATOM     35  C   UNL A   1      43.990  30.684  29.132  1.00  0.00     0.049 A 
ATOM     36  H   UNL A   1      43.816  28.657  28.574  1.00  0.00     0.167 HD
ATOM     37  C   UNL A   1      46.321  30.001  28.621  1.00  0.00     0.074 A 
ATOM     38  C   UNL A   1      47.741  30.263  28.489  1.00  0.00     0.031 C 
ATOM     39  C   UNL A   1      45.404  30.925  28.993  1.00  0.00     0.037 A 
BRANCH  26  40
ATOM     40  C   UNL A   1      39.595  28.826  29.179  1.00  0.00     0.057 A 
ATOM     41  C   UNL A   1      38.743  29.252  28.152  1.00  0.00     0.134 A 
ATOM     42  C   UNL A   1      39.037  28.652  30.452  1.00  0.00     0.134 A 
ATOM     43  F   UNL A   1      39.218  29.453  26.914  1.00  0.00    -0.206 F 
ATOM     44  C   UNL A   1      37.392  29.512  28.386  1.00  0.00     0.040 A 
ATOM     45  C   UNL A   1      37.682  28.888  30.694  1.00  0.00     0.040 A 
ATOM     46  F   UNL A   1      39.796  28.242  31.479  1.00  0.00    -0.206 F 
ATOM     47  C   UNL A   1      36.856  29.323  29.660  1.00  0.00     0.006 A 
ENDBRANCH  26  40
BRANCH  27  48
ATOM     48  C   UNL A   1      49.107  26.462  27.260  1.00  0.00     0.057 A 
ATOM     49  C   UNL A   1      49.965  25.989  28.257  1.00  0.00     0.134 A 
ATOM     50  C   UNL A   1      49.611  26.544  25.956  1.00  0.00     0.134 A 
ATOM     51  F   UNL A   1      49.541  25.902  29.527  1.00  0.00    -0.206 F 
ATOM     52  C   UNL A   1      51.278  25.612  27.970  1.00  0.00     0.040 A 
ATOM     53  C   UNL A   1      50.913  26.148  25.650  1.00  0.00     0.040 A 
ATOM     54  F   UNL A   1      48.831  26.979  24.955  1.00  0.00    -0.206 F 
ATOM     55  C   UNL A   1      51.751  25.683  26.661  1.00  0.00     0.006 A 
ENDBRANCH  27  48
BRANCH  39  56
ATOM     56  C   UNL A   1      45.915  32.298  29.304  1.00  0.00     0.057 A 
ATOM     57  C   UNL A   1      45.964  33.302  28.330  1.00  0.00     0.134 A 
ATOM     58  C   UNL A   1      46.339  32.626  30.598  1.00  0.00     0.134 A 
ATOM     59  F   UNL A   1      45.586  33.045  27.068  1.00  0.00    -0.206 F 
ATOM     60  C   UNL A   1      46.434  34.582  28.628  1.00  0.00     0.040 A 
ATOM     61  C   UNL A   1      46.792  33.906  30.913  1.00  0.00     0.040 A 
ATOM     62  F   UNL A   1      46.311  31.707  31.576  1.00  0.00    -0.206 F 
ATOM     63  C   UNL A   1      46.845  34.888  29.925  1.00  0.00     0.006 A 
ENDBRANCH  39  56
ENDBRANCH  13  14
ENDBRANCH   6   8
ENDBRANCH   3   4
ENDBRANCH   2   3
ENDBRANCH   1   2
BRANCH   1  64
ATOM     64  C   UNL A   1      36.953  22.190  25.602  1.00  0.00     0.116 C 
BRANCH  64  65
ATOM     65  N   UNL A   1      35.822  21.759  26.394  1.00  0.00    -0.354 N 
ATOM     66  C   UNL A   1      34.551  21.463  25.992  1.00  0.00     0.249 C 
ATOM     67  H   UNL A   1      35.993  21.664  27.359  1.00  0.00     0.163 HD
ATOM     68  O   UNL A   1      33.701  21.271  26.865  1.00  0.00    -0.272 OA
BRANCH  66  69
ATOM     69  C   UNL A   1      34.195  21.364  24.500  1.00  0.00     0.207 C 
ATOM     70  C   UNL A   1      32.946  20.563  24.159  1.00  0.00     0.045 C 
ATOM     71  O   UNL A   1      34.027  22.671  23.949  1.00  0.00    -0.363 OA
ATOM     72  C   UNL A   1      32.119  21.469  23.266  1.00  0.00     0.037 C 
ATOM     73  C   UNL A   1      33.066  22.598  22.887  1.00  0.00     0.138 C 
BRANCH  73  74
ATOM     74  C   UNL A   1      32.373  23.960  22.760  1.00  0.00     0.149 C 
BRANCH  74  75
ATOM     75  N   UNL A   1      33.285  24.961  22.219  1.00  0.00    -0.335 N 
ATOM     76  C   UNL A   1      33.310  26.298  22.451  1.00  0.00     0.317 C 
ATOM     77  H   UNL A   1      33.975  24.622  21.605  1.00  0.00     0.165 HD
ATOM     78  O   UNL A   1      33.796  27.032  21.597  1.00  0.00    -0.249 OA
BRANCH  76  79
ATOM     79  N   UNL A   1      32.758  26.741  23.621  1.00  0.00    -0.317 N 
ATOM     80  C   UNL A   1      33.630  27.067  24.760  1.00  0.00     0.150 C 
ATOM     81  C   UNL A   1      31.505  27.482  23.671  1.00  0.00     0.116 C 
ATOM     82  C   UNL A   1      33.766  28.594  24.949  1.00  0.00     0.182 C 
ATOM     83  C   UNL A   1      31.760  28.983  23.809  1.00  0.00     0.141 C 
ATOM     84  C   UNL A   1      30.474  27.427  22.550  1.00  0.00     0.028 C 
ATOM     85  O   UNL A   1      32.485  29.253  25.011  1.00  0.00    -0.374 OA
ATOM     86  C   UNL A   1      30.342  29.532  23.824  1.00  0.00     0.034 C 
ATOM     87  C   UNL A   1      29.584  28.655  22.818  1.00  0.00     0.005 C 
ENDBRANCH  76  79
ENDBRANCH  74  75
ENDBRANCH  73  74
ENDBRANCH  66  69
ENDBRANCH  64  65
ENDBRANCH   1  64
TORSDOF 14
ENDMDL
MODEL 3
REMARK VINA RESULT:     -12.1      0.221      6.200
REMARK SMILES O=C(NCCCCNC(=O)[C@H]1CC[C@@H](CNC(=O)N2CCO[C@@H]3CCC[C@H]32)O1)c1ccc(-c2c3nc(c(-c4c(F)cccc4F)c4ccc([nH]4)c(-c4c(F)cccc4F)c4nc(c(-c5c(F)cccc5F)c5ccc2[nH]5)C=C4)C=C3)cc1
REMARK SMILES IDX 6 1 5 2 4 3 3 4 1 5 2 6 29 8 30 9 82 10 31 11 81 12 32 13
REMARK SMILES IDX 33 14 34 15 75 16 35 17 80 18 74 19 76 20 36 21 79 22 73 23
REMARK SMILES IDX 72 24 37 26 63 27 46 28 62 29 47 30 50 31 61 32 77 33 48 34
REMARK SMILES IDX 49 35 60 37 78 38 51 39 38 40 39 41 44 42 40 43 41 44 43 45
REMARK SMILES IDX 45 46 42 47 64 48 65 49 70 50 66 51 67 52 69 53 71 54 68 55
REMARK SMILES IDX 52 56 53 57 58 58 54 59 55 60 57 61 59 62 56 63 7 64 8 65
REMARK SMILES IDX 9 66 10 68 11 69 12 70 28 71 13 72 14 73 15 74 16 75 17 76
REMARK SMILES IDX 18 78 19 79 20 80 27 81 21 82 23 83 26 84 22 85 24 86 25 87
REMARK H PARENT 3 7 76 25 50 36 8 67 16 77
REMARK Flexibility Score: inf
ROOT
ATOM      1  C   UNL A   1      31.810  30.798  26.065  1.00  0.00     0.023 C 
ENDROOT
BRANCH   1   2
ATOM      2  C   UNL A   1      31.488  31.995  26.959  1.00  0.00     0.023 C 
BRANCH   2   3
ATOM      3  C   UNL A   1      32.700  32.831  27.351  1.00  0.00     0.116 C 
BRANCH   3   4
ATOM      4  N   UNL A   1      32.367  34.212  27.670  1.00  0.00    -0.352 N 
ATOM      5  O   UNL A   1      32.523  36.153  28.820  1.00  0.00    -0.269 OA
ATOM      6  C   UNL A   1      32.973  35.042  28.583  1.00  0.00     0.251 C 
ATOM      7  H   UNL A   1      31.614  34.599  27.169  1.00  0.00     0.163 HD
BRANCH   6   8
ATOM      8  C   UNL A   1      34.159  34.542  29.303  1.00  0.00     0.039 A 
ATOM      9  C   UNL A   1      35.425  34.637  28.720  1.00  0.00     0.014 A 
ATOM     10  C   UNL A   1      33.984  33.913  30.538  1.00  0.00     0.014 A 
ATOM     11  C   UNL A   1      36.499  33.983  29.309  1.00  0.00     0.010 A 
ATOM     12  C   UNL A   1      35.081  33.318  31.162  1.00  0.00     0.010 A 
ATOM     13  C   UNL A   1      36.337  33.320  30.535  1.00  0.00    -0.014 A 
BRANCH  13  14
ATOM     14  C   UNL A   1      37.502  32.661  31.168  1.00  0.00     0.031 A 
ATOM     15  C   UNL A   1      38.179  31.491  30.513  1.00  0.00     0.074 A 
ATOM     16  C   UNL A   1      37.954  33.140  32.342  1.00  0.00     0.049 A 
ATOM     17  N   UNL A   1      39.183  30.773  30.947  1.00  0.00    -0.248 NA
ATOM     18  C   UNL A   1      37.658  31.068  29.205  1.00  0.00     0.031 C 
ATOM     19  C   UNL A   1      37.374  34.272  33.067  1.00  0.00     0.029 A 
ATOM     20  N   UNL A   1      39.004  32.743  33.126  1.00  0.00    -0.354 N 
ATOM     21  C   UNL A   1      39.398  29.798  29.983  1.00  0.00     0.074 A 
ATOM     22  C   UNL A   1      38.410  30.006  28.945  1.00  0.00     0.031 C 
ATOM     23  C   UNL A   1      38.095  34.500  34.174  1.00  0.00     0.029 A 
ATOM     24  C   UNL A   1      39.148  33.495  34.265  1.00  0.00     0.049 A 
ATOM     25  H   UNL A   1      39.598  31.992  32.895  1.00  0.00     0.167 HD
ATOM     26  C   UNL A   1      40.335  28.820  29.967  1.00  0.00     0.037 A 
ATOM     27  C   UNL A   1      40.018  33.375  35.283  1.00  0.00     0.037 A 
ATOM     28  C   UNL A   1      41.328  28.634  30.994  1.00  0.00     0.049 A 
ATOM     29  C   UNL A   1      41.036  32.276  35.248  1.00  0.00     0.074 A 
ATOM     30  C   UNL A   1      42.342  27.692  31.054  1.00  0.00     0.029 A 
ATOM     31  N   UNL A   1      41.432  29.405  32.141  1.00  0.00    -0.354 N 
ATOM     32  N   UNL A   1      41.233  31.367  34.325  1.00  0.00    -0.248 NA
ATOM     33  C   UNL A   1      41.946  32.182  36.396  1.00  0.00     0.031 C 
ATOM     34  C   UNL A   1      43.037  27.873  32.255  1.00  0.00     0.029 A 
ATOM     35  C   UNL A   1      42.480  28.951  32.925  1.00  0.00     0.049 A 
ATOM     36  H   UNL A   1      40.846  30.163  32.367  1.00  0.00     0.167 HD
ATOM     37  C   UNL A   1      42.297  30.597  34.773  1.00  0.00     0.074 A 
ATOM     38  C   UNL A   1      42.712  31.159  36.044  1.00  0.00     0.031 C 
ATOM     39  C   UNL A   1      42.876  29.522  34.187  1.00  0.00     0.037 A 
BRANCH  26  40
ATOM     40  C   UNL A   1      40.320  27.862  28.812  1.00  0.00     0.057 A 
ATOM     41  C   UNL A   1      39.588  26.669  28.847  1.00  0.00     0.134 A 
ATOM     42  C   UNL A   1      41.020  28.156  27.635  1.00  0.00     0.134 A 
ATOM     43  F   UNL A   1      38.908  26.321  29.950  1.00  0.00    -0.206 F 
ATOM     44  C   UNL A   1      39.566  25.794  27.760  1.00  0.00     0.040 A 
ATOM     45  C   UNL A   1      40.989  27.299  26.533  1.00  0.00     0.040 A 
ATOM     46  F   UNL A   1      41.738  29.285  27.533  1.00  0.00    -0.206 F 
ATOM     47  C   UNL A   1      40.264  26.112  26.595  1.00  0.00     0.006 A 
ENDBRANCH  26  40
BRANCH  27  48
ATOM     48  C   UNL A   1      39.944  34.325  36.417  1.00  0.00     0.057 A 
ATOM     49  C   UNL A   1      40.566  35.576  36.353  1.00  0.00     0.134 A 
ATOM     50  C   UNL A   1      39.209  34.025  37.571  1.00  0.00     0.134 A 
ATOM     51  F   UNL A   1      41.294  35.913  35.278  1.00  0.00    -0.206 F 
ATOM     52  C   UNL A   1      40.464  36.495  37.398  1.00  0.00     0.040 A 
ATOM     53  C   UNL A   1      39.079  34.942  38.613  1.00  0.00     0.040 A 
ATOM     54  F   UNL A   1      38.581  32.845  37.685  1.00  0.00    -0.206 F 
ATOM     55  C   UNL A   1      39.711  36.181  38.529  1.00  0.00     0.006 A 
ENDBRANCH  27  48
BRANCH  39  56
ATOM     56  C   UNL A   1      44.033  28.900  34.907  1.00  0.00     0.057 A 
ATOM     57  C   UNL A   1      45.348  29.326  34.690  1.00  0.00     0.134 A 
ATOM     58  C   UNL A   1      43.824  27.882  35.845  1.00  0.00     0.134 A 
ATOM     59  F   UNL A   1      45.612  30.288  33.792  1.00  0.00    -0.206 F 
ATOM     60  C   UNL A   1      46.421  28.748  35.370  1.00  0.00     0.040 A 
ATOM     61  C   UNL A   1      44.886  27.309  36.546  1.00  0.00     0.040 A 
ATOM     62  F   UNL A   1      42.586  27.434  36.100  1.00  0.00    -0.206 F 
ATOM     63  C   UNL A   1      46.190  27.740  36.305  1.00  0.00     0.006 A 
ENDBRANCH  39  56
ENDBRANCH  13  14
ENDBRANCH   6   8
ENDBRANCH   3   4
ENDBRANCH   2   3
ENDBRANCH   1   2
BRANCH   1  64
ATOM     64  C   UNL A   1      33.077  30.055  26.479  1.00  0.00     0.116 C 
BRANCH  64  65
ATOM     65  N   UNL A   1      33.566  29.242  25.388  1.00  0.00    -0.354 N 
ATOM     66  C   UNL A   1      32.982  28.162  24.788  1.00  0.00     0.249 C 
ATOM     67  H   UNL A   1      34.442  29.504  25.025  1.00  0.00     0.163 HD
ATOM     68  O   UNL A   1      33.655  27.519  23.979  1.00  0.00    -0.272 OA
BRANCH  66  69
ATOM     69  C   UNL A   1      31.530  27.769  25.106  1.00  0.00     0.207 C 
ATOM     70  C   UNL A   1      30.593  27.638  23.913  1.00  0.00     0.045 C 
ATOM     71  O   UNL A   1      31.503  26.525  25.809  1.00  0.00    -0.363 OA
ATOM     72  C   UNL A   1      29.936  26.278  24.066  1.00  0.00     0.037 C 
ATOM     73  C   UNL A   1      30.283  25.844  25.482  1.00  0.00     0.138 C 
BRANCH  73  74
ATOM     74  C   UNL A   1      30.515  24.335  25.619  1.00  0.00     0.149 C 
BRANCH  74  75
ATOM     75  N   UNL A   1      31.212  24.024  26.861  1.00  0.00    -0.335 N 
ATOM     76  C   UNL A   1      32.319  23.260  27.044  1.00  0.00     0.317 C 
ATOM     77  H   UNL A   1      30.831  24.423  27.676  1.00  0.00     0.165 HD
ATOM     78  O   UNL A   1      32.490  22.726  28.135  1.00  0.00    -0.249 OA
BRANCH  76  79
ATOM     79  N   UNL A   1      33.161  23.113  25.977  1.00  0.00    -0.317 N 
ATOM     80  C   UNL A   1      34.430  23.858  25.941  1.00  0.00     0.150 C 
ATOM     81  C   UNL A   1      33.234  21.888  25.191  1.00  0.00     0.116 C 
ATOM     82  C   UNL A   1      35.633  22.939  26.248  1.00  0.00     0.182 C 
ATOM     83  C   UNL A   1      34.431  21.036  25.612  1.00  0.00     0.141 C 
ATOM     84  C   UNL A   1      32.101  20.868  25.158  1.00  0.00     0.028 C 
ATOM     85  O   UNL A   1      35.646  21.761  25.417  1.00  0.00    -0.374 OA
ATOM     86  C   UNL A   1      34.289  19.837  24.688  1.00  0.00     0.034 C 
ATOM     87  C   UNL A   1      32.775  19.601  24.601  1.00  0.00     0.005 C 
ENDBRANCH  76  79
ENDBRANCH  74  75
ENDBRANCH  73  74
ENDBRANCH  66  69
ENDBRANCH  64  65
ENDBRANCH   1  64
TORSDOF 14
ENDMDL
