MODEL 1
REMARK VINA RESULT:     -11.9      0.000      0.000
REMARK SMILES Cc1ccc(S(=O)(=O)Nc2cc3c(cc2C(=O)NCCCCNC(=O)c2ccc(-c4c5nc(c(-c6c(F)cccc6F)c6ccc([nH]6)c(-c6c(F)cccc6F)c6nc(c(-c7c(F)cccc7F)c7ccc4[nH]7)C=C6)C=C5)cc2)OCCO3)s1
REMARK SMILES IDX 20 1 19 2 18 3 16 4 17 5 15 7 10 8 11 9 12 10 14 11 13 12
REMARK SMILES IDX 83 13 80 14 82 15 81 16 9 17 6 19 7 20 8 21 5 22 1 23 2 24
REMARK SMILES IDX 3 25 84 26 4 27 21 28 22 29 23 30 24 31 25 33 26 34 27 35
REMARK SMILES IDX 79 36 28 37 78 38 29 39 30 40 31 41 72 42 32 43 77 44 71 45
REMARK SMILES IDX 73 46 33 47 76 48 70 49 69 50 34 52 60 53 43 54 59 55 44 56
REMARK SMILES IDX 47 57 58 58 74 59 45 60 46 61 57 63 75 64 48 65 35 66 36 67
REMARK SMILES IDX 41 68 37 69 38 70 40 71 42 72 39 73 61 74 62 75 67 76 63 77
REMARK SMILES IDX 64 78 66 79 68 80 65 81 49 82 50 83 55 84 51 85 52 86 54 87
REMARK SMILES IDX 56 88 53 89
REMARK H PARENT 18 6 9 18 23 32 73 51 47 62
REMARK Flexibility Score: inf
ROOT
ATOM      1  C   UNL A   1      38.258  22.561  25.758  1.00  0.00     0.023 C 
ENDROOT
BRANCH   1   2
ATOM      2  C   UNL A   1      36.812  23.034  25.832  1.00  0.00     0.116 C 
BRANCH   2   3
ATOM      3  N   UNL A   1      36.217  23.428  24.566  1.00  0.00    -0.352 N 
ATOM      4  C   UNL A   1      35.058  23.015  23.945  1.00  0.00     0.253 C 
ATOM      5  O   UNL A   1      34.678  23.631  22.953  1.00  0.00    -0.269 OA
ATOM      6  H   UNL A   1      36.729  24.104  24.068  1.00  0.00     0.163 HD
BRANCH   4   7
ATOM      7  C   UNL A   1      34.300  21.834  24.436  1.00  0.00     0.067 A 
ATOM      8  C   UNL A   1      32.962  21.959  24.868  1.00  0.00     0.066 A 
ATOM      9  C   UNL A   1      32.230  20.811  25.200  1.00  0.00     0.078 A 
ATOM     10  C   UNL A   1      32.824  19.551  25.095  1.00  0.00     0.163 A 
ATOM     11  C   UNL A   1      34.917  20.579  24.461  1.00  0.00     0.066 A 
ATOM     12  C   UNL A   1      34.163  19.440  24.717  1.00  0.00     0.162 A 
ATOM     13  O   UNL A   1      32.031  18.464  25.359  1.00  0.00    -0.486 OA
ATOM     14  O   UNL A   1      34.800  18.240  24.540  1.00  0.00    -0.486 OA
ATOM     15  C   UNL A   1      32.791  17.250  25.448  1.00  0.00     0.271 C 
ATOM     16  C   UNL A   1      33.848  17.185  24.358  1.00  0.00     0.271 C 
BRANCH   8  17
ATOM     17  N   UNL A   1      32.347  23.247  24.983  1.00  0.00    -0.278 N 
ATOM     18  H   UNL A   1      31.871  23.645  24.218  1.00  0.00     0.180 HD
BRANCH  17  19
ATOM     19  S   UNL A   1      32.449  24.073  26.451  1.00  0.00     0.271 S 
ATOM     20  O   UNL A   1      33.552  23.510  27.190  1.00  0.00    -0.200 OA
ATOM     21  O   UNL A   1      31.111  24.085  27.020  1.00  0.00    -0.200 OA
BRANCH  19  22
ATOM     22  C   UNL A   1      32.801  25.788  26.137  1.00  0.00     0.140 A 
ATOM     23  C   UNL A   1      31.992  29.619  25.853  1.00  0.00     0.056 C 
ATOM     24  C   UNL A   1      32.532  28.228  25.878  1.00  0.00     0.003 A 
ATOM     25  C   UNL A   1      33.771  27.793  25.452  1.00  0.00     0.016 A 
ATOM     26  S   UNL A   1      31.586  26.937  26.486  1.00  0.00    -0.127 S 
ATOM     27  C   UNL A   1      33.931  26.391  25.618  1.00  0.00     0.034 A 
ENDBRANCH  19  22
ENDBRANCH  17  19
ENDBRANCH   8  17
ENDBRANCH   4   7
ENDBRANCH   2   3
ENDBRANCH   1   2
BRANCH   1  28
ATOM     28  C   UNL A   1      38.519  21.234  25.063  1.00  0.00     0.023 C 
BRANCH  28  29
ATOM     29  C   UNL A   1      38.622  20.023  25.978  1.00  0.00     0.116 C 
BRANCH  29  30
ATOM     30  N   UNL A   1      39.823  19.234  25.765  1.00  0.00    -0.352 N 
ATOM     31  C   UNL A   1      41.140  19.560  25.981  1.00  0.00     0.251 C 
ATOM     32  H   UNL A   1      39.671  18.328  25.412  1.00  0.00     0.163 HD
ATOM     33  O   UNL A   1      42.022  18.769  25.663  1.00  0.00    -0.269 OA
BRANCH  31  34
ATOM     34  C   UNL A   1      41.500  20.874  26.558  1.00  0.00     0.039 A 
ATOM     35  C   UNL A   1      42.016  21.856  25.707  1.00  0.00     0.014 A 
ATOM     36  C   UNL A   1      41.341  21.141  27.919  1.00  0.00     0.014 A 
ATOM     37  C   UNL A   1      42.318  23.122  26.213  1.00  0.00     0.010 A 
ATOM     38  C   UNL A   1      41.559  22.427  28.404  1.00  0.00     0.010 A 
ATOM     39  C   UNL A   1      42.069  23.424  27.560  1.00  0.00    -0.014 A 
BRANCH  39  40
ATOM     40  C   UNL A   1      42.379  24.763  28.115  1.00  0.00     0.031 A 
ATOM     41  C   UNL A   1      43.784  25.090  28.539  1.00  0.00     0.074 A 
ATOM     42  C   UNL A   1      41.392  25.662  28.291  1.00  0.00     0.049 A 
ATOM     43  N   UNL A   1      44.251  26.185  29.084  1.00  0.00    -0.248 NA
ATOM     44  C   UNL A   1      44.792  24.032  28.360  1.00  0.00     0.031 C 
ATOM     45  C   UNL A   1      39.977  25.440  27.986  1.00  0.00     0.029 A 
ATOM     46  N   UNL A   1      41.430  26.943  28.779  1.00  0.00    -0.354 N 
ATOM     47  C   UNL A   1      45.593  25.934  29.340  1.00  0.00     0.074 A 
ATOM     48  C   UNL A   1      45.855  24.569  28.939  1.00  0.00     0.031 C 
ATOM     49  C   UNL A   1      39.287  26.558  28.269  1.00  0.00     0.029 A 
ATOM     50  C   UNL A   1      40.206  27.564  28.793  1.00  0.00     0.049 A 
ATOM     51  H   UNL A   1      42.258  27.377  29.091  1.00  0.00     0.167 HD
ATOM     52  C   UNL A   1      46.532  26.772  29.839  1.00  0.00     0.037 A 
ATOM     53  C   UNL A   1      39.867  28.810  29.173  1.00  0.00     0.037 A 
ATOM     54  C   UNL A   1      46.282  28.143  30.190  1.00  0.00     0.049 A 
ATOM     55  C   UNL A   1      40.938  29.747  29.653  1.00  0.00     0.074 A 
ATOM     56  C   UNL A   1      47.178  29.099  30.638  1.00  0.00     0.029 A 
ATOM     57  N   UNL A   1      45.040  28.758  30.123  1.00  0.00    -0.354 N 
ATOM     58  N   UNL A   1      42.219  29.522  29.818  1.00  0.00    -0.248 NA
ATOM     59  C   UNL A   1      40.521  31.118  29.976  1.00  0.00     0.031 C 
ATOM     60  C   UNL A   1      46.473  30.287  30.861  1.00  0.00     0.029 A 
ATOM     61  C   UNL A   1      45.145  30.079  30.522  1.00  0.00     0.049 A 
ATOM     62  H   UNL A   1      44.208  28.318  29.835  1.00  0.00     0.167 HD
ATOM     63  C   UNL A   1      42.766  30.727  30.239  1.00  0.00     0.074 A 
ATOM     64  C   UNL A   1      41.679  31.683  30.292  1.00  0.00     0.031 C 
ATOM     65  C   UNL A   1      44.052  31.017  30.553  1.00  0.00     0.037 A 
BRANCH  52  66
ATOM     66  C   UNL A   1      47.915  26.220  30.021  1.00  0.00     0.057 A 
ATOM     67  C   UNL A   1      48.348  25.703  31.249  1.00  0.00     0.134 A 
ATOM     68  C   UNL A   1      48.826  26.208  28.958  1.00  0.00     0.134 A 
ATOM     69  F   UNL A   1      47.529  25.701  32.312  1.00  0.00    -0.206 F 
ATOM     70  C   UNL A   1      49.648  25.227  31.425  1.00  0.00     0.040 A 
ATOM     71  C   UNL A   1      50.122  25.710  29.113  1.00  0.00     0.040 A 
ATOM     72  F   UNL A   1      48.476  26.685  27.754  1.00  0.00    -0.206 F 
ATOM     73  C   UNL A   1      50.538  25.226  30.352  1.00  0.00     0.006 A 
ENDBRANCH  52  66
BRANCH  53  74
ATOM     74  C   UNL A   1      38.458  29.259  29.058  1.00  0.00     0.057 A 
ATOM     75  C   UNL A   1      37.610  29.250  30.170  1.00  0.00     0.134 A 
ATOM     76  C   UNL A   1      37.931  29.714  27.845  1.00  0.00     0.134 A 
ATOM     77  F   UNL A   1      38.055  28.810  31.356  1.00  0.00    -0.206 F 
ATOM     78  C   UNL A   1      36.279  29.663  30.078  1.00  0.00     0.040 A 
ATOM     79  C   UNL A   1      36.608  30.148  27.742  1.00  0.00     0.040 A 
ATOM     80  F   UNL A   1      38.699  29.756  26.746  1.00  0.00    -0.206 F 
ATOM     81  C   UNL A   1      35.777  30.117  28.860  1.00  0.00     0.006 A 
ENDBRANCH  53  74
BRANCH  65  82
ATOM     82  C   UNL A   1      44.357  32.432  30.941  1.00  0.00     0.057 A 
ATOM     83  C   UNL A   1      44.688  33.404  29.990  1.00  0.00     0.134 A 
ATOM     84  C   UNL A   1      44.288  32.831  32.282  1.00  0.00     0.134 A 
ATOM     85  F   UNL A   1      44.783  33.080  28.691  1.00  0.00    -0.206 F 
ATOM     86  C   UNL A   1      44.962  34.721  30.361  1.00  0.00     0.040 A 
ATOM     87  C   UNL A   1      44.538  34.149  32.663  1.00  0.00     0.040 A 
ATOM     88  F   UNL A   1      43.969  31.949  33.241  1.00  0.00    -0.206 F 
ATOM     89  C   UNL A   1      44.882  35.098  31.701  1.00  0.00     0.006 A 
ENDBRANCH  65  82
ENDBRANCH  39  40
ENDBRANCH  31  34
ENDBRANCH  29  30
ENDBRANCH  28  29
ENDBRANCH   1  28
TORSDOF 14
ENDMDL
MODEL 2
REMARK VINA RESULT:     -11.9      0.103      1.565
REMARK SMILES Cc1ccc(S(=O)(=O)Nc2cc3c(cc2C(=O)NCCCCNC(=O)c2ccc(-c4c5nc(c(-c6c(F)cccc6F)c6ccc([nH]6)c(-c6c(F)cccc6F)c6nc(c(-c7c(F)cccc7F)c7ccc4[nH]7)C=C6)C=C5)cc2)OCCO3)s1
REMARK SMILES IDX 20 1 19 2 18 3 16 4 17 5 15 7 10 8 11 9 12 10 14 11 13 12
REMARK SMILES IDX 83 13 80 14 82 15 81 16 9 17 6 19 7 20 8 21 5 22 1 23 2 24
REMARK SMILES IDX 3 25 84 26 4 27 21 28 22 29 23 30 24 31 25 33 26 34 27 35
REMARK SMILES IDX 79 36 28 37 78 38 29 39 30 40 31 41 72 42 32 43 77 44 71 45
REMARK SMILES IDX 73 46 33 47 76 48 70 49 69 50 34 52 60 53 43 54 59 55 44 56
REMARK SMILES IDX 47 57 58 58 74 59 45 60 46 61 57 63 75 64 48 65 35 66 36 67
REMARK SMILES IDX 41 68 37 69 38 70 40 71 42 72 39 73 61 74 62 75 67 76 63 77
REMARK SMILES IDX 64 78 66 79 68 80 65 81 49 82 50 83 55 84 51 85 52 86 54 87
REMARK SMILES IDX 56 88 53 89
REMARK H PARENT 18 6 9 18 23 32 73 51 47 62
REMARK Flexibility Score: inf
ROOT
ATOM      1  C   UNL A   1      38.187  22.617  25.831  1.00  0.00     0.023 C 
ENDROOT
BRANCH   1   2
ATOM      2  C   UNL A   1      36.716  22.999  25.921  1.00  0.00     0.116 C 
BRANCH   2   3
ATOM      3  N   UNL A   1      36.105  23.434  24.676  1.00  0.00    -0.352 N 
ATOM      4  C   UNL A   1      34.949  23.026  24.044  1.00  0.00     0.253 C 
ATOM      5  O   UNL A   1      34.552  23.675  23.081  1.00  0.00    -0.269 OA
ATOM      6  H   UNL A   1      36.601  24.140  24.203  1.00  0.00     0.163 HD
BRANCH   4   7
ATOM      7  C   UNL A   1      34.217  21.811  24.490  1.00  0.00     0.067 A 
ATOM      8  C   UNL A   1      32.866  21.885  24.891  1.00  0.00     0.066 A 
ATOM      9  C   UNL A   1      32.162  20.708  25.179  1.00  0.00     0.078 A 
ATOM     10  C   UNL A   1      32.797  19.470  25.062  1.00  0.00     0.163 A 
ATOM     11  C   UNL A   1      34.872  20.575  24.504  1.00  0.00     0.066 A 
ATOM     12  C   UNL A   1      34.148  19.408  24.715  1.00  0.00     0.162 A 
ATOM     13  O   UNL A   1      32.033  18.353  25.281  1.00  0.00    -0.486 OA
ATOM     14  O   UNL A   1      34.826  18.233  24.528  1.00  0.00    -0.486 OA
ATOM     15  C   UNL A   1      32.828  17.161  25.364  1.00  0.00     0.271 C 
ATOM     16  C   UNL A   1      33.912  17.153  24.299  1.00  0.00     0.271 C 
BRANCH   8  17
ATOM     17  N   UNL A   1      32.208  23.150  25.019  1.00  0.00    -0.278 N 
ATOM     18  H   UNL A   1      31.683  23.519  24.273  1.00  0.00     0.180 HD
BRANCH  17  19
ATOM     19  S   UNL A   1      32.346  24.000  26.470  1.00  0.00     0.271 S 
ATOM     20  O   UNL A   1      33.458  23.439  27.198  1.00  0.00    -0.200 OA
ATOM     21  O   UNL A   1      31.021  24.037  27.064  1.00  0.00    -0.200 OA
BRANCH  19  22
ATOM     22  C   UNL A   1      32.710  25.706  26.120  1.00  0.00     0.140 A 
ATOM     23  C   UNL A   1      31.881  29.489  25.479  1.00  0.00     0.056 C 
ATOM     24  C   UNL A   1      32.438  28.119  25.676  1.00  0.00     0.003 A 
ATOM     25  C   UNL A   1      33.740  27.700  25.492  1.00  0.00     0.016 A 
ATOM     26  S   UNL A   1      31.430  26.835  26.190  1.00  0.00    -0.127 S 
ATOM     27  C   UNL A   1      33.899  26.315  25.764  1.00  0.00     0.034 A 
ENDBRANCH  19  22
ENDBRANCH  17  19
ENDBRANCH   8  17
ENDBRANCH   4   7
ENDBRANCH   2   3
ENDBRANCH   1   2
BRANCH   1  28
ATOM     28  C   UNL A   1      38.524  21.327  25.100  1.00  0.00     0.023 C 
BRANCH  28  29
ATOM     29  C   UNL A   1      38.574  20.076  25.965  1.00  0.00     0.116 C 
BRANCH  29  30
ATOM     30  N   UNL A   1      39.771  19.278  25.764  1.00  0.00    -0.352 N 
ATOM     31  C   UNL A   1      41.088  19.595  25.993  1.00  0.00     0.251 C 
ATOM     32  H   UNL A   1      39.616  18.372  25.411  1.00  0.00     0.163 HD
ATOM     33  O   UNL A   1      41.967  18.797  25.685  1.00  0.00    -0.269 OA
BRANCH  31  34
ATOM     34  C   UNL A   1      41.452  20.906  26.572  1.00  0.00     0.039 A 
ATOM     35  C   UNL A   1      41.993  21.881  25.728  1.00  0.00     0.014 A 
ATOM     36  C   UNL A   1      41.272  21.180  27.929  1.00  0.00     0.014 A 
ATOM     37  C   UNL A   1      42.300  23.144  26.234  1.00  0.00     0.010 A 
ATOM     38  C   UNL A   1      41.496  22.465  28.414  1.00  0.00     0.010 A 
ATOM     39  C   UNL A   1      42.031  23.453  27.576  1.00  0.00    -0.014 A 
BRANCH  39  40
ATOM     40  C   UNL A   1      42.345  24.792  28.132  1.00  0.00     0.031 A 
ATOM     41  C   UNL A   1      43.751  25.114  28.555  1.00  0.00     0.074 A 
ATOM     42  C   UNL A   1      41.361  25.693  28.311  1.00  0.00     0.049 A 
ATOM     43  N   UNL A   1      44.222  26.206  29.101  1.00  0.00    -0.248 NA
ATOM     44  C   UNL A   1      44.756  24.053  28.374  1.00  0.00     0.031 C 
ATOM     45  C   UNL A   1      39.945  25.475  28.006  1.00  0.00     0.029 A 
ATOM     46  N   UNL A   1      41.403  26.974  28.800  1.00  0.00    -0.354 N 
ATOM     47  C   UNL A   1      45.564  25.952  29.355  1.00  0.00     0.074 A 
ATOM     48  C   UNL A   1      45.821  24.586  28.952  1.00  0.00     0.031 C 
ATOM     49  C   UNL A   1      39.259  26.595  28.291  1.00  0.00     0.029 A 
ATOM     50  C   UNL A   1      40.181  27.598  28.815  1.00  0.00     0.049 A 
ATOM     51  H   UNL A   1      42.233  27.405  29.111  1.00  0.00     0.167 HD
ATOM     52  C   UNL A   1      46.506  26.786  29.854  1.00  0.00     0.037 A 
ATOM     53  C   UNL A   1      39.846  28.844  29.197  1.00  0.00     0.037 A 
ATOM     54  C   UNL A   1      46.260  28.158  30.207  1.00  0.00     0.049 A 
ATOM     55  C   UNL A   1      40.921  29.778  29.677  1.00  0.00     0.074 A 
ATOM     56  C   UNL A   1      47.159  29.111  30.655  1.00  0.00     0.029 A 
ATOM     57  N   UNL A   1      45.020  28.776  30.142  1.00  0.00    -0.354 N 
ATOM     58  N   UNL A   1      42.201  29.549  29.841  1.00  0.00    -0.248 NA
ATOM     59  C   UNL A   1      40.507  31.150  30.003  1.00  0.00     0.031 C 
ATOM     60  C   UNL A   1      46.458  30.300  30.880  1.00  0.00     0.029 A 
ATOM     61  C   UNL A   1      45.129  30.097  30.542  1.00  0.00     0.049 A 
ATOM     62  H   UNL A   1      44.186  28.339  29.854  1.00  0.00     0.167 HD
ATOM     63  C   UNL A   1      42.752  30.752  30.263  1.00  0.00     0.074 A 
ATOM     64  C   UNL A   1      41.667  31.711  30.317  1.00  0.00     0.031 C 
ATOM     65  C   UNL A   1      44.039  31.037  30.576  1.00  0.00     0.037 A 
BRANCH  52  66
ATOM     66  C   UNL A   1      47.888  26.230  30.034  1.00  0.00     0.057 A 
ATOM     67  C   UNL A   1      48.807  26.183  28.978  1.00  0.00     0.134 A 
ATOM     68  C   UNL A   1      48.303  25.733  31.274  1.00  0.00     0.134 A 
ATOM     69  F   UNL A   1      48.466  26.628  27.758  1.00  0.00    -0.206 F 
ATOM     70  C   UNL A   1      50.078  25.629  29.139  1.00  0.00     0.040 A 
ATOM     71  C   UNL A   1      49.581  25.200  31.456  1.00  0.00     0.040 A 
ATOM     72  F   UNL A   1      47.473  25.750  32.329  1.00  0.00    -0.206 F 
ATOM     73  C   UNL A   1      50.469  25.139  30.384  1.00  0.00     0.006 A 
ENDBRANCH  52  66
BRANCH  53  74
ATOM     74  C   UNL A   1      38.439  29.298  29.084  1.00  0.00     0.057 A 
ATOM     75  C   UNL A   1      37.925  29.744  27.861  1.00  0.00     0.134 A 
ATOM     76  C   UNL A   1      37.575  29.288  30.184  1.00  0.00     0.134 A 
ATOM     77  F   UNL A   1      38.711  29.791  26.776  1.00  0.00    -0.206 F 
ATOM     78  C   UNL A   1      36.606  30.182  27.739  1.00  0.00     0.040 A 
ATOM     79  C   UNL A   1      36.246  29.704  30.071  1.00  0.00     0.040 A 
ATOM     80  F   UNL A   1      38.006  28.861  31.380  1.00  0.00    -0.206 F 
ATOM     81  C   UNL A   1      35.761  30.158  28.847  1.00  0.00     0.006 A 
ENDBRANCH  53  74
BRANCH  65  82
ATOM     82  C   UNL A   1      44.348  32.451  30.965  1.00  0.00     0.057 A 
ATOM     83  C   UNL A   1      44.322  32.873  32.299  1.00  0.00     0.134 A 
ATOM     84  C   UNL A   1      44.705  33.394  29.992  1.00  0.00     0.134 A 
ATOM     85  F   UNL A   1      43.975  32.020  33.275  1.00  0.00    -0.206 F 
ATOM     86  C   UNL A   1      44.620  34.190  32.652  1.00  0.00     0.040 A 
ATOM     87  C   UNL A   1      45.026  34.707  30.334  1.00  0.00     0.040 A 
ATOM     88  F   UNL A   1      44.755  33.050  28.696  1.00  0.00    -0.206 F 
ATOM     89  C   UNL A   1      44.978  35.110  31.668  1.00  0.00     0.006 A 
ENDBRANCH  65  82
ENDBRANCH  39  40
ENDBRANCH  31  34
ENDBRANCH  29  30
ENDBRANCH  28  29
ENDBRANCH   1  28
TORSDOF 14
ENDMDL
MODEL 3
REMARK VINA RESULT:     -11.9      0.441      6.070
REMARK SMILES Cc1ccc(S(=O)(=O)Nc2cc3c(cc2C(=O)NCCCCNC(=O)c2ccc(-c4c5nc(c(-c6c(F)cccc6F)c6ccc([nH]6)c(-c6c(F)cccc6F)c6nc(c(-c7c(F)cccc7F)c7ccc4[nH]7)C=C6)C=C5)cc2)OCCO3)s1
REMARK SMILES IDX 20 1 19 2 18 3 16 4 17 5 15 7 10 8 11 9 12 10 14 11 13 12
REMARK SMILES IDX 83 13 80 14 82 15 81 16 9 17 6 19 7 20 8 21 5 22 1 23 2 24
REMARK SMILES IDX 3 25 84 26 4 27 21 28 22 29 23 30 24 31 25 33 26 34 27 35
REMARK SMILES IDX 79 36 28 37 78 38 29 39 30 40 31 41 72 42 32 43 77 44 71 45
REMARK SMILES IDX 73 46 33 47 76 48 70 49 69 50 34 52 60 53 43 54 59 55 44 56
REMARK SMILES IDX 47 57 58 58 74 59 45 60 46 61 57 63 75 64 48 65 35 66 36 67
REMARK SMILES IDX 41 68 37 69 38 70 40 71 42 72 39 73 61 74 62 75 67 76 63 77
REMARK SMILES IDX 64 78 66 79 68 80 65 81 49 82 50 83 55 84 51 85 52 86 54 87
REMARK SMILES IDX 56 88 53 89
REMARK H PARENT 18 6 9 18 23 32 73 51 47 62
REMARK Flexibility Score: inf
ROOT
ATOM      1  C   UNL A   1      38.151  22.784  25.934  1.00  0.00     0.023 C 
ENDROOT
BRANCH   1   2
ATOM      2  C   UNL A   1      36.697  23.235  25.958  1.00  0.00     0.116 C 
BRANCH   2   3
ATOM      3  N   UNL A   1      36.141  23.619  24.671  1.00  0.00    -0.352 N 
ATOM      4  C   UNL A   1      35.015  23.182  24.006  1.00  0.00     0.253 C 
ATOM      5  O   UNL A   1      34.658  23.791  23.002  1.00  0.00    -0.269 OA
ATOM      6  H   UNL A   1      36.655  24.309  24.194  1.00  0.00     0.163 HD
BRANCH   4   7
ATOM      7  C   UNL A   1      34.268  21.982  24.466  1.00  0.00     0.067 A 
ATOM      8  C   UNL A   1      32.917  22.078  24.864  1.00  0.00     0.066 A 
ATOM      9  C   UNL A   1      32.198  20.913  25.166  1.00  0.00     0.078 A 
ATOM     10  C   UNL A   1      32.818  19.666  25.065  1.00  0.00     0.163 A 
ATOM     11  C   UNL A   1      34.907  20.738  24.496  1.00  0.00     0.066 A 
ATOM     12  C   UNL A   1      34.168  19.583  24.722  1.00  0.00     0.162 A 
ATOM     13  O   UNL A   1      32.039  18.561  25.298  1.00  0.00    -0.486 OA
ATOM     14  O   UNL A   1      34.832  18.397  24.551  1.00  0.00    -0.486 OA
ATOM     15  C   UNL A   1      32.820  17.361  25.397  1.00  0.00     0.271 C 
ATOM     16  C   UNL A   1      33.905  17.326  24.334  1.00  0.00     0.271 C 
BRANCH   8  17
ATOM     17  N   UNL A   1      32.274  23.353  24.974  1.00  0.00    -0.278 N 
ATOM     18  H   UNL A   1      31.804  23.745  24.203  1.00  0.00     0.180 HD
BRANCH  17  19
ATOM     19  S   UNL A   1      32.334  24.173  26.448  1.00  0.00     0.271 S 
ATOM     20  O   UNL A   1      33.415  23.607  27.216  1.00  0.00    -0.200 OA
ATOM     21  O   UNL A   1      30.981  24.185  26.977  1.00  0.00    -0.200 OA
BRANCH  19  22
ATOM     22  C   UNL A   1      32.697  25.889  26.151  1.00  0.00     0.140 A 
ATOM     23  C   UNL A   1      31.890  29.714  25.800  1.00  0.00     0.056 C 
ATOM     24  C   UNL A   1      32.434  28.327  25.865  1.00  0.00     0.003 A 
ATOM     25  C   UNL A   1      33.700  27.897  25.522  1.00  0.00     0.016 A 
ATOM     26  S   UNL A   1      31.457  27.033  26.415  1.00  0.00    -0.127 S 
ATOM     27  C   UNL A   1      33.856  26.496  25.703  1.00  0.00     0.034 A 
ENDBRANCH  19  22
ENDBRANCH  17  19
ENDBRANCH   8  17
ENDBRANCH   4   7
ENDBRANCH   2   3
ENDBRANCH   1   2
BRANCH   1  28
ATOM     28  C   UNL A   1      38.467  21.502  25.179  1.00  0.00     0.023 C 
BRANCH  28  29
ATOM     29  C   UNL A   1      38.490  20.234  26.018  1.00  0.00     0.116 C 
BRANCH  29  30
ATOM     30  N   UNL A   1      39.642  19.388  25.761  1.00  0.00    -0.352 N 
ATOM     31  C   UNL A   1      40.979  19.637  25.958  1.00  0.00     0.251 C 
ATOM     32  H   UNL A   1      39.435  18.500  25.389  1.00  0.00     0.163 HD
ATOM     33  O   UNL A   1      41.810  18.808  25.602  1.00  0.00    -0.269 OA
BRANCH  31  34
ATOM     34  C   UNL A   1      41.420  20.914  26.559  1.00  0.00     0.039 A 
ATOM     35  C   UNL A   1      41.994  21.880  25.727  1.00  0.00     0.014 A 
ATOM     36  C   UNL A   1      41.280  21.164  27.926  1.00  0.00     0.014 A 
ATOM     37  C   UNL A   1      42.375  23.114  26.256  1.00  0.00     0.010 A 
ATOM     38  C   UNL A   1      41.578  22.424  28.435  1.00  0.00     0.010 A 
ATOM     39  C   UNL A   1      42.147  23.404  27.609  1.00  0.00    -0.014 A 
BRANCH  39  40
ATOM     40  C   UNL A   1      42.540  24.711  28.189  1.00  0.00     0.031 A 
ATOM     41  C   UNL A   1      41.501  25.777  28.403  1.00  0.00     0.074 A 
ATOM     42  C   UNL A   1      43.833  24.961  28.469  1.00  0.00     0.049 A 
ATOM     43  N   UNL A   1      41.646  26.996  28.856  1.00  0.00    -0.248 NA
ATOM     44  C   UNL A   1      40.120  25.439  28.022  1.00  0.00     0.031 C 
ATOM     45  C   UNL A   1      44.945  24.036  28.241  1.00  0.00     0.029 A 
ATOM     46  N   UNL A   1      44.431  26.075  29.000  1.00  0.00    -0.354 N 
ATOM     47  C   UNL A   1      40.386  27.576  28.784  1.00  0.00     0.074 A 
ATOM     48  C   UNL A   1      39.499  26.596  28.197  1.00  0.00     0.031 C 
ATOM     49  C   UNL A   1      46.086  24.611  28.655  1.00  0.00     0.029 A 
ATOM     50  C   UNL A   1      45.789  25.949  29.157  1.00  0.00     0.049 A 
ATOM     51  H   UNL A   1      43.933  26.889  29.246  1.00  0.00     0.167 HD
ATOM     52  C   UNL A   1      39.993  28.805  29.194  1.00  0.00     0.037 A 
ATOM     53  C   UNL A   1      46.689  26.813  29.662  1.00  0.00     0.037 A 
ATOM     54  C   UNL A   1      40.865  29.760  29.823  1.00  0.00     0.049 A 
ATOM     55  C   UNL A   1      46.220  28.142  30.180  1.00  0.00     0.074 A 
ATOM     56  C   UNL A   1      40.554  31.006  30.340  1.00  0.00     0.029 A 
ATOM     57  N   UNL A   1      42.223  29.568  30.028  1.00  0.00    -0.354 N 
ATOM     58  N   UNL A   1      45.011  28.650  30.177  1.00  0.00    -0.248 NA
ATOM     59  C   UNL A   1      47.235  29.009  30.794  1.00  0.00     0.031 C 
ATOM     60  C   UNL A   1      41.730  31.576  30.840  1.00  0.00     0.029 A 
ATOM     61  C   UNL A   1      42.766  30.672  30.664  1.00  0.00     0.049 A 
ATOM     62  H   UNL A   1      42.726  28.765  29.762  1.00  0.00     0.167 HD
ATOM     63  C   UNL A   1      45.114  29.882  30.809  1.00  0.00     0.074 A 
ATOM     64  C   UNL A   1      46.502  30.039  31.194  1.00  0.00     0.031 C 
ATOM     65  C   UNL A   1      44.147  30.801  31.050  1.00  0.00     0.037 A 
BRANCH  52  66
ATOM     66  C   UNL A   1      38.555  29.172  28.978  1.00  0.00     0.057 A 
ATOM     67  C   UNL A   1      38.082  29.606  27.733  1.00  0.00     0.134 A 
ATOM     68  C   UNL A   1      37.632  29.096  30.028  1.00  0.00     0.134 A 
ATOM     69  F   UNL A   1      38.919  29.717  26.689  1.00  0.00    -0.206 F 
ATOM     70  C   UNL A   1      36.752  29.984  27.546  1.00  0.00     0.040 A 
ATOM     71  C   UNL A   1      36.292  29.445  29.849  1.00  0.00     0.040 A 
ATOM     72  F   UNL A   1      38.017  28.686  31.246  1.00  0.00    -0.206 F 
ATOM     73  C   UNL A   1      35.851  29.900  28.607  1.00  0.00     0.006 A 
ENDBRANCH  52  66
BRANCH  53  74
ATOM     74  C   UNL A   1      48.116  26.421  29.756  1.00  0.00     0.057 A 
ATOM     75  C   UNL A   1      48.606  25.760  30.888  1.00  0.00     0.134 A 
ATOM     76  C   UNL A   1      49.018  26.685  28.720  1.00  0.00     0.134 A 
ATOM     77  F   UNL A   1      47.790  25.493  31.919  1.00  0.00    -0.206 F 
ATOM     78  C   UNL A   1      49.947  25.390  30.995  1.00  0.00     0.040 A 
ATOM     79  C   UNL A   1      50.359  26.303  28.806  1.00  0.00     0.040 A 
ATOM     80  F   UNL A   1      48.607  27.306  27.606  1.00  0.00    -0.206 F 
ATOM     81  C   UNL A   1      50.827  25.659  29.949  1.00  0.00     0.006 A 
ENDBRANCH  53  74
BRANCH  65  82
ATOM     82  C   UNL A   1      44.551  32.035  31.798  1.00  0.00     0.057 A 
ATOM     83  C   UNL A   1      44.989  33.189  31.137  1.00  0.00     0.134 A 
ATOM     84  C   UNL A   1      44.471  32.077  33.195  1.00  0.00     0.134 A 
ATOM     85  F   UNL A   1      45.098  33.207  29.800  1.00  0.00    -0.206 F 
ATOM     86  C   UNL A   1      45.355  34.336  31.842  1.00  0.00     0.040 A 
ATOM     87  C   UNL A   1      44.814  33.224  33.911  1.00  0.00     0.040 A 
ATOM     88  F   UNL A   1      44.053  31.006  33.886  1.00  0.00    -0.206 F 
ATOM     89  C   UNL A   1      45.263  34.357  33.233  1.00  0.00     0.006 A 
ENDBRANCH  65  82
ENDBRANCH  39  40
ENDBRANCH  31  34
ENDBRANCH  29  30
ENDBRANCH  28  29
ENDBRANCH   1  28
TORSDOF 14
ENDMDL
