MODEL 1
REMARK VINA RESULT:     -11.3      0.000      0.000
REMARK SMILES CC(=O)N[C@@H](Cc1cc(Br)c(O)c(Br)c1)C(=O)NCCCCNC(=O)c1ccc(-c2c3nc(c(-c4c(F)cccc4F)c4ccc([nH]4)c(-c4c(F)cccc4F)c4nc(c(-c5c(F)cccc5F)c5ccc2[nH]5)C=C4)C=C3)cc1
REMARK SMILES IDX 20 1 19 2 18 3 16 4 17 5 5 7 4 8 1 9 2 10 3 11 6 13 7 14
REMARK SMILES IDX 8 15 15 16 9 17 13 18 10 19 11 20 14 21 12 22 21 24 22 25
REMARK SMILES IDX 23 26 24 27 25 29 26 30 27 31 79 32 28 33 78 34 29 35 30 36
REMARK SMILES IDX 31 37 72 38 32 39 77 40 71 41 73 42 33 43 76 44 70 45 69 46
REMARK SMILES IDX 34 48 60 49 43 50 59 51 44 52 47 53 58 54 74 55 45 56 46 57
REMARK SMILES IDX 57 59 75 60 48 61 35 62 36 63 41 64 37 65 38 66 40 67 42 68
REMARK SMILES IDX 39 69 61 70 62 71 67 72 63 73 64 74 66 75 68 76 65 77 49 78
REMARK SMILES IDX 50 79 55 80 51 81 52 82 54 83 56 84 53 85
REMARK H PARENT 18 6 4 12 12 23 23 28 73 47 47 58
REMARK Flexibility Score: inf
ROOT
ATOM      1  C   UNL A   1      31.752  30.150  26.487  1.00  0.00     0.023 C 
ENDROOT
BRANCH   1   2
ATOM      2  C   UNL A   1      31.731  29.543  25.093  1.00  0.00     0.116 C 
BRANCH   2   3
ATOM      3  N   UNL A   1      32.993  29.597  24.387  1.00  0.00    -0.354 N 
ATOM      4  C   UNL A   1      33.660  28.618  23.706  1.00  0.00     0.242 C 
ATOM      5  O   UNL A   1      34.478  28.998  22.858  1.00  0.00    -0.273 OA
ATOM      6  H   UNL A   1      33.440  30.474  24.399  1.00  0.00     0.163 HD
BRANCH   4   7
ATOM      7  C   UNL A   1      33.360  27.104  23.850  1.00  0.00     0.175 C 
BRANCH   7   8
ATOM      8  N   UNL A   1      33.633  26.314  22.647  1.00  0.00    -0.344 N 
ATOM      9  C   UNL A   1      31.308  26.221  21.819  1.00  0.00     0.114 C 
ATOM     10  C   UNL A   1      32.779  25.975  21.641  1.00  0.00     0.217 C 
ATOM     11  O   UNL A   1      33.236  25.449  20.628  1.00  0.00    -0.275 OA
ATOM     12  H   UNL A   1      34.556  25.985  22.552  1.00  0.00     0.164 HD
ENDBRANCH   7   8
BRANCH   7  13
ATOM     13  C   UNL A   1      33.920  26.475  25.146  1.00  0.00     0.070 C 
BRANCH  13  14
ATOM     14  C   UNL A   1      33.575  25.028  25.414  1.00  0.00    -0.043 A 
ATOM     15  C   UNL A   1      32.276  24.674  25.814  1.00  0.00     0.023 A 
ATOM     16  C   UNL A   1      34.550  24.026  25.314  1.00  0.00     0.023 A 
ATOM     17  C   UNL A   1      31.984  23.354  26.177  1.00  0.00     0.061 A 
ATOM     18  C   UNL A   1      34.258  22.712  25.697  1.00  0.00     0.061 A 
ATOM     19  Br  UNL A   1      30.237  22.942  26.790  1.00  0.00    -0.047 Br
ATOM     20  C   UNL A   1      32.980  22.376  26.143  1.00  0.00     0.143 A 
ATOM     21  Br  UNL A   1      35.667  21.442  25.676  1.00  0.00    -0.047 Br
BRANCH  20  22
ATOM     22  O   UNL A   1      32.736  21.099  26.569  1.00  0.00    -0.506 OA
ATOM     23  H   UNL A   1      32.767  20.387  25.960  1.00  0.00     0.293 HD
ENDBRANCH  20  22
ENDBRANCH  13  14
ENDBRANCH   7  13
ENDBRANCH   4   7
ENDBRANCH   2   3
ENDBRANCH   1   2
BRANCH   1  24
ATOM     24  C   UNL A   1      31.312  31.608  26.570  1.00  0.00     0.023 C 
BRANCH  24  25
ATOM     25  C   UNL A   1      32.424  32.653  26.530  1.00  0.00     0.116 C 
BRANCH  25  26
ATOM     26  N   UNL A   1      32.176  33.833  27.350  1.00  0.00    -0.352 N 
ATOM     27  C   UNL A   1      32.947  34.338  28.374  1.00  0.00     0.251 C 
ATOM     28  H   UNL A   1      31.353  34.332  27.146  1.00  0.00     0.163 HD
ATOM     29  O   UNL A   1      32.601  35.331  29.003  1.00  0.00    -0.269 OA
BRANCH  27  30
ATOM     30  C   UNL A   1      34.196  33.641  28.730  1.00  0.00     0.039 A 
ATOM     31  C   UNL A   1      35.420  34.257  28.455  1.00  0.00     0.014 A 
ATOM     32  C   UNL A   1      34.144  32.429  29.422  1.00  0.00     0.014 A 
ATOM     33  C   UNL A   1      36.595  33.706  28.970  1.00  0.00     0.010 A 
ATOM     34  C   UNL A   1      35.307  31.922  29.990  1.00  0.00     0.010 A 
ATOM     35  C   UNL A   1      36.539  32.566  29.787  1.00  0.00    -0.014 A 
BRANCH  35  36
ATOM     36  C   UNL A   1      37.743  32.025  30.466  1.00  0.00     0.031 A 
ATOM     37  C   UNL A   1      38.545  30.943  29.803  1.00  0.00     0.074 A 
ATOM     38  C   UNL A   1      38.041  32.417  31.720  1.00  0.00     0.049 A 
ATOM     39  N   UNL A   1      39.500  30.200  30.297  1.00  0.00    -0.248 NA
ATOM     40  C   UNL A   1      38.197  30.633  28.408  1.00  0.00     0.031 C 
ATOM     41  C   UNL A   1      37.320  33.433  32.489  1.00  0.00     0.029 A 
ATOM     42  N   UNL A   1      39.020  31.985  32.581  1.00  0.00    -0.354 N 
ATOM     43  C   UNL A   1      39.842  29.310  29.287  1.00  0.00     0.074 A 
ATOM     44  C   UNL A   1      38.970  29.585  28.165  1.00  0.00     0.031 C 
ATOM     45  C   UNL A   1      37.884  33.551  33.702  1.00  0.00     0.029 A 
ATOM     46  C   UNL A   1      38.978  32.591  33.814  1.00  0.00     0.049 A 
ATOM     47  H   UNL A   1      39.688  31.304  32.337  1.00  0.00     0.167 HD
ATOM     48  C   UNL A   1      40.805  28.359  29.292  1.00  0.00     0.037 A 
ATOM     49  C   UNL A   1      39.725  32.382  34.915  1.00  0.00     0.037 A 
ATOM     50  C   UNL A   1      41.701  28.119  30.390  1.00  0.00     0.049 A 
ATOM     51  C   UNL A   1      40.801  31.333  34.887  1.00  0.00     0.074 A 
ATOM     52  C   UNL A   1      42.751  27.221  30.467  1.00  0.00     0.029 A 
ATOM     53  N   UNL A   1      41.658  28.791  31.603  1.00  0.00    -0.354 N 
ATOM     54  N   UNL A   1      41.139  30.524  33.913  1.00  0.00    -0.248 NA
ATOM     55  C   UNL A   1      41.597  31.165  36.112  1.00  0.00     0.031 C 
ATOM     56  C   UNL A   1      43.329  27.333  31.736  1.00  0.00     0.029 A 
ATOM     57  C   UNL A   1      42.657  28.321  32.437  1.00  0.00     0.049 A 
ATOM     58  H   UNL A   1      41.011  29.496  31.835  1.00  0.00     0.167 HD
ATOM     59  C   UNL A   1      42.203  29.774  34.395  1.00  0.00     0.074 A 
ATOM     60  C   UNL A   1      42.458  30.224  35.748  1.00  0.00     0.031 C 
ATOM     61  C   UNL A   1      42.908  28.799  33.771  1.00  0.00     0.037 A 
BRANCH  48  62
ATOM     62  C   UNL A   1      40.938  27.510  28.064  1.00  0.00     0.057 A 
ATOM     63  C   UNL A   1      40.258  26.294  27.932  1.00  0.00     0.134 A 
ATOM     64  C   UNL A   1      41.740  27.924  26.994  1.00  0.00     0.134 A 
ATOM     65  F   UNL A   1      39.486  25.834  28.929  1.00  0.00    -0.206 F 
ATOM     66  C   UNL A   1      40.390  25.506  26.787  1.00  0.00     0.040 A 
ATOM     67  C   UNL A   1      41.861  27.157  25.834  1.00  0.00     0.040 A 
ATOM     68  F   UNL A   1      42.417  29.081  27.056  1.00  0.00    -0.206 F 
ATOM     69  C   UNL A   1      41.190  25.940  25.732  1.00  0.00     0.006 A 
ENDBRANCH  48  62
BRANCH  49  70
ATOM     70  C   UNL A   1      39.493  33.194  36.134  1.00  0.00     0.057 A 
ATOM     71  C   UNL A   1      38.622  32.749  37.135  1.00  0.00     0.134 A 
ATOM     72  C   UNL A   1      40.125  34.426  36.329  1.00  0.00     0.134 A 
ATOM     73  F   UNL A   1      37.971  31.584  36.994  1.00  0.00    -0.206 F 
ATOM     74  C   UNL A   1      38.374  33.508  38.280  1.00  0.00     0.040 A 
ATOM     75  C   UNL A   1      39.903  35.187  37.479  1.00  0.00     0.040 A 
ATOM     76  F   UNL A   1      40.977  34.904  35.409  1.00  0.00    -0.206 F 
ATOM     77  C   UNL A   1      39.020  34.731  38.455  1.00  0.00     0.006 A 
ENDBRANCH  49  70
BRANCH  61  78
ATOM     78  C   UNL A   1      44.050  28.186  34.522  1.00  0.00     0.057 A 
ATOM     79  C   UNL A   1      45.327  28.757  34.514  1.00  0.00     0.134 A 
ATOM     80  C   UNL A   1      43.848  27.050  35.315  1.00  0.00     0.134 A 
ATOM     81  F   UNL A   1      45.583  29.839  33.764  1.00  0.00    -0.206 F 
ATOM     82  C   UNL A   1      46.370  28.213  35.267  1.00  0.00     0.040 A 
ATOM     83  C   UNL A   1      44.877  26.509  36.086  1.00  0.00     0.040 A 
ATOM     84  F   UNL A   1      42.644  26.462  35.369  1.00  0.00    -0.206 F 
ATOM     85  C   UNL A   1      46.143  27.091  36.061  1.00  0.00     0.006 A 
ENDBRANCH  61  78
ENDBRANCH  35  36
ENDBRANCH  27  30
ENDBRANCH  25  26
ENDBRANCH  24  25
ENDBRANCH   1  24
TORSDOF 15
ENDMDL
MODEL 2
REMARK VINA RESULT:     -11.3      4.079      7.894
REMARK SMILES CC(=O)N[C@@H](Cc1cc(Br)c(O)c(Br)c1)C(=O)NCCCCNC(=O)c1ccc(-c2c3nc(c(-c4c(F)cccc4F)c4ccc([nH]4)c(-c4c(F)cccc4F)c4nc(c(-c5c(F)cccc5F)c5ccc2[nH]5)C=C4)C=C3)cc1
REMARK SMILES IDX 20 1 19 2 18 3 16 4 17 5 5 7 4 8 1 9 2 10 3 11 6 13 7 14
REMARK SMILES IDX 8 15 15 16 9 17 13 18 10 19 11 20 14 21 12 22 21 24 22 25
REMARK SMILES IDX 23 26 24 27 25 29 26 30 27 31 79 32 28 33 78 34 29 35 30 36
REMARK SMILES IDX 31 37 72 38 32 39 77 40 71 41 73 42 33 43 76 44 70 45 69 46
REMARK SMILES IDX 34 48 60 49 43 50 59 51 44 52 47 53 58 54 74 55 45 56 46 57
REMARK SMILES IDX 57 59 75 60 48 61 35 62 36 63 41 64 37 65 38 66 40 67 42 68
REMARK SMILES IDX 39 69 61 70 62 71 67 72 63 73 64 74 66 75 68 76 65 77 49 78
REMARK SMILES IDX 50 79 55 80 51 81 52 82 54 83 56 84 53 85
REMARK H PARENT 18 6 4 12 12 23 23 28 73 47 47 58
REMARK Flexibility Score: inf
ROOT
ATOM      1  C   UNL A   1      32.206  27.070  26.444  1.00  0.00     0.023 C 
ENDROOT
BRANCH   1   2
ATOM      2  C   UNL A   1      33.148  26.690  25.312  1.00  0.00     0.116 C 
BRANCH   2   3
ATOM      3  N   UNL A   1      32.500  26.410  24.049  1.00  0.00    -0.354 N 
ATOM      4  C   UNL A   1      31.779  25.317  23.656  1.00  0.00     0.242 C 
ATOM      5  O   UNL A   1      30.994  25.486  22.714  1.00  0.00    -0.273 OA
ATOM      6  H   UNL A   1      32.591  27.114  23.368  1.00  0.00     0.163 HD
BRANCH   4   7
ATOM      7  C   UNL A   1      31.804  23.953  24.392  1.00  0.00     0.175 C 
BRANCH   7   8
ATOM      8  N   UNL A   1      30.689  23.743  25.319  1.00  0.00    -0.344 N 
ATOM      9  C   UNL A   1      32.044  23.034  27.258  1.00  0.00     0.114 C 
ATOM     10  C   UNL A   1      30.733  23.435  26.645  1.00  0.00     0.217 C 
ATOM     11  O   UNL A   1      29.690  23.467  27.296  1.00  0.00    -0.275 OA
ATOM     12  H   UNL A   1      29.788  23.839  24.933  1.00  0.00     0.164 HD
ENDBRANCH   7   8
BRANCH   7  13
ATOM     13  C   UNL A   1      32.075  22.746  23.465  1.00  0.00     0.070 C 
BRANCH  13  14
ATOM     14  C   UNL A   1      32.998  21.670  23.988  1.00  0.00    -0.043 A 
ATOM     15  C   UNL A   1      34.336  21.970  24.287  1.00  0.00     0.023 A 
ATOM     16  C   UNL A   1      32.550  20.349  24.137  1.00  0.00     0.023 A 
ATOM     17  C   UNL A   1      35.223  20.954  24.659  1.00  0.00     0.061 A 
ATOM     18  C   UNL A   1      33.445  19.333  24.489  1.00  0.00     0.061 A 
ATOM     19  Br  UNL A   1      37.040  21.397  24.973  1.00  0.00    -0.047 Br
ATOM     20  C   UNL A   1      34.786  19.629  24.736  1.00  0.00     0.143 A 
ATOM     21  Br  UNL A   1      32.801  17.549  24.528  1.00  0.00    -0.047 Br
BRANCH  20  22
ATOM     22  O   UNL A   1      35.654  18.611  25.018  1.00  0.00    -0.506 OA
ATOM     23  H   UNL A   1      36.568  18.709  24.835  1.00  0.00     0.293 HD
ENDBRANCH  20  22
ENDBRANCH  13  14
ENDBRANCH   7  13
ENDBRANCH   4   7
ENDBRANCH   2   3
ENDBRANCH   1   2
BRANCH   1  24
ATOM     24  C   UNL A   1      32.352  28.497  26.962  1.00  0.00     0.023 C 
BRANCH  24  25
ATOM     25  C   UNL A   1      33.760  28.931  27.359  1.00  0.00     0.116 C 
BRANCH  25  26
ATOM     26  N   UNL A   1      33.834  30.242  27.993  1.00  0.00    -0.352 N 
ATOM     27  C   UNL A   1      34.919  30.837  28.599  1.00  0.00     0.251 C 
ATOM     28  H   UNL A   1      33.002  30.769  27.988  1.00  0.00     0.163 HD
ATOM     29  O   UNL A   1      34.831  31.942  29.122  1.00  0.00    -0.269 OA
BRANCH  27  30
ATOM     30  C   UNL A   1      36.198  30.104  28.640  1.00  0.00     0.039 A 
ATOM     31  C   UNL A   1      37.046  30.158  27.531  1.00  0.00     0.014 A 
ATOM     32  C   UNL A   1      36.589  29.452  29.811  1.00  0.00     0.014 A 
ATOM     33  C   UNL A   1      38.341  29.644  27.634  1.00  0.00     0.010 A 
ATOM     34  C   UNL A   1      37.899  29.004  29.932  1.00  0.00     0.010 A 
ATOM     35  C   UNL A   1      38.793  29.114  28.852  1.00  0.00    -0.014 A 
BRANCH  35  36
ATOM     36  C   UNL A   1      40.198  28.681  29.049  1.00  0.00     0.031 A 
ATOM     37  C   UNL A   1      41.217  29.670  29.537  1.00  0.00     0.074 A 
ATOM     38  C   UNL A   1      40.580  27.444  28.675  1.00  0.00     0.049 A 
ATOM     39  N   UNL A   1      42.519  29.560  29.587  1.00  0.00    -0.248 NA
ATOM     40  C   UNL A   1      40.701  30.969  29.994  1.00  0.00     0.031 C 
ATOM     41  C   UNL A   1      39.695  26.401  28.152  1.00  0.00     0.029 A 
ATOM     42  N   UNL A   1      41.824  26.862  28.656  1.00  0.00    -0.354 N 
ATOM     43  C   UNL A   1      42.980  30.787  30.045  1.00  0.00     0.074 A 
ATOM     44  C   UNL A   1      41.822  31.635  30.227  1.00  0.00     0.031 C 
ATOM     45  C   UNL A   1      40.421  25.307  27.871  1.00  0.00     0.029 A 
ATOM     46  C   UNL A   1      41.827  25.583  28.151  1.00  0.00     0.049 A 
ATOM     47  H   UNL A   1      42.636  27.318  28.972  1.00  0.00     0.167 HD
ATOM     48  C   UNL A   1      44.254  31.167  30.303  1.00  0.00     0.037 A 
ATOM     49  C   UNL A   1      42.850  24.737  27.924  1.00  0.00     0.037 A 
ATOM     50  C   UNL A   1      45.398  30.307  30.166  1.00  0.00     0.049 A 
ATOM     51  C   UNL A   1      44.253  25.176  28.237  1.00  0.00     0.074 A 
ATOM     52  C   UNL A   1      46.722  30.579  30.464  1.00  0.00     0.029 A 
ATOM     53  N   UNL A   1      45.351  29.002  29.701  1.00  0.00    -0.354 N 
ATOM     54  N   UNL A   1      44.672  26.326  28.706  1.00  0.00    -0.248 NA
ATOM     55  C   UNL A   1      45.325  24.202  27.987  1.00  0.00     0.031 C 
ATOM     56  C   UNL A   1      47.480  29.445  30.156  1.00  0.00     0.029 A 
ATOM     57  C   UNL A   1      46.624  28.458  29.695  1.00  0.00     0.049 A 
ATOM     58  H   UNL A   1      44.534  28.532  29.416  1.00  0.00     0.167 HD
ATOM     59  C   UNL A   1      46.049  26.204  28.835  1.00  0.00     0.074 A 
ATOM     60  C   UNL A   1      46.396  24.868  28.397  1.00  0.00     0.031 C 
ATOM     61  C   UNL A   1      46.945  27.119  29.278  1.00  0.00     0.037 A 
BRANCH  48  62
ATOM     62  C   UNL A   1      44.471  32.576  30.765  1.00  0.00     0.057 A 
ATOM     63  C   UNL A   1      44.761  33.609  29.866  1.00  0.00     0.134 A 
ATOM     64  C   UNL A   1      44.368  32.906  32.122  1.00  0.00     0.134 A 
ATOM     65  F   UNL A   1      44.888  33.354  28.555  1.00  0.00    -0.206 F 
ATOM     66  C   UNL A   1      44.966  34.919  30.303  1.00  0.00     0.040 A 
ATOM     67  C   UNL A   1      44.547  34.216  32.568  1.00  0.00     0.040 A 
ATOM     68  F   UNL A   1      44.090  31.962  33.034  1.00  0.00    -0.206 F 
ATOM     69  C   UNL A   1      44.855  35.225  31.658  1.00  0.00     0.006 A 
ENDBRANCH  48  62
BRANCH  49  70
ATOM     70  C   UNL A   1      42.586  23.381  27.383  1.00  0.00     0.057 A 
ATOM     71  C   UNL A   1      42.652  23.133  26.008  1.00  0.00     0.134 A 
ATOM     72  C   UNL A   1      42.259  22.307  28.218  1.00  0.00     0.134 A 
ATOM     73  F   UNL A   1      42.942  24.129  25.156  1.00  0.00    -0.206 F 
ATOM     74  C   UNL A   1      42.387  21.870  25.478  1.00  0.00     0.040 A 
ATOM     75  C   UNL A   1      42.010  21.033  27.705  1.00  0.00     0.040 A 
ATOM     76  F   UNL A   1      42.186  22.479  29.547  1.00  0.00    -0.206 F 
ATOM     77  C   UNL A   1      42.068  20.814  26.330  1.00  0.00     0.006 A 
ENDBRANCH  49  70
BRANCH  61  78
ATOM     78  C   UNL A   1      48.379  26.694  29.359  1.00  0.00     0.057 A 
ATOM     79  C   UNL A   1      49.285  26.958  28.326  1.00  0.00     0.134 A 
ATOM     80  C   UNL A   1      48.871  26.075  30.515  1.00  0.00     0.134 A 
ATOM     81  F   UNL A   1      48.870  27.539  27.190  1.00  0.00    -0.206 F 
ATOM     82  C   UNL A   1      50.633  26.614  28.437  1.00  0.00     0.040 A 
ATOM     83  C   UNL A   1      50.219  25.743  30.644  1.00  0.00     0.040 A 
ATOM     84  F   UNL A   1      48.053  25.802  31.542  1.00  0.00    -0.206 F 
ATOM     85  C   UNL A   1      51.104  26.012  29.602  1.00  0.00     0.006 A 
ENDBRANCH  61  78
ENDBRANCH  35  36
ENDBRANCH  27  30
ENDBRANCH  25  26
ENDBRANCH  24  25
ENDBRANCH   1  24
TORSDOF 15
ENDMDL
MODEL 3
REMARK VINA RESULT:     -11.2      4.518      9.263
REMARK SMILES CC(=O)N[C@@H](Cc1cc(Br)c(O)c(Br)c1)C(=O)NCCCCNC(=O)c1ccc(-c2c3nc(c(-c4c(F)cccc4F)c4ccc([nH]4)c(-c4c(F)cccc4F)c4nc(c(-c5c(F)cccc5F)c5ccc2[nH]5)C=C4)C=C3)cc1
REMARK SMILES IDX 20 1 19 2 18 3 16 4 17 5 5 7 4 8 1 9 2 10 3 11 6 13 7 14
REMARK SMILES IDX 8 15 15 16 9 17 13 18 10 19 11 20 14 21 12 22 21 24 22 25
REMARK SMILES IDX 23 26 24 27 25 29 26 30 27 31 79 32 28 33 78 34 29 35 30 36
REMARK SMILES IDX 31 37 72 38 32 39 77 40 71 41 73 42 33 43 76 44 70 45 69 46
REMARK SMILES IDX 34 48 60 49 43 50 59 51 44 52 47 53 58 54 74 55 45 56 46 57
REMARK SMILES IDX 57 59 75 60 48 61 35 62 36 63 41 64 37 65 38 66 40 67 42 68
REMARK SMILES IDX 39 69 61 70 62 71 67 72 63 73 64 74 66 75 68 76 65 77 49 78
REMARK SMILES IDX 50 79 55 80 51 81 52 82 54 83 56 84 53 85
REMARK H PARENT 18 6 4 12 12 23 23 28 73 47 47 58
REMARK Flexibility Score: inf
ROOT
ATOM      1  C   UNL A   1      36.584  20.313  24.912  1.00  0.00     0.023 C 
ENDROOT
BRANCH   1   2
ATOM      2  C   UNL A   1      35.185  20.792  25.267  1.00  0.00     0.116 C 
BRANCH   2   3
ATOM      3  N   UNL A   1      35.047  21.332  26.602  1.00  0.00    -0.354 N 
ATOM      4  C   UNL A   1      34.274  22.363  27.057  1.00  0.00     0.242 C 
ATOM      5  O   UNL A   1      34.012  22.362  28.267  1.00  0.00    -0.273 OA
ATOM      6  H   UNL A   1      35.595  20.888  27.290  1.00  0.00     0.163 HD
BRANCH   4   7
ATOM      7  C   UNL A   1      33.625  23.428  26.137  1.00  0.00     0.175 C 
BRANCH   7   8
ATOM      8  N   UNL A   1      32.370  23.988  26.649  1.00  0.00    -0.344 N 
ATOM      9  C   UNL A   1      30.950  23.323  24.741  1.00  0.00     0.114 C 
ATOM     10  C   UNL A   1      31.118  23.883  26.124  1.00  0.00     0.217 C 
ATOM     11  O   UNL A   1      30.162  24.278  26.790  1.00  0.00    -0.275 OA
ATOM     12  H   UNL A   1      32.443  24.508  27.482  1.00  0.00     0.164 HD
ENDBRANCH   7   8
BRANCH   7  13
ATOM     13  C   UNL A   1      34.615  24.497  25.620  1.00  0.00     0.070 C 
BRANCH  13  14
ATOM     14  C   UNL A   1      34.061  25.561  24.701  1.00  0.00    -0.043 A 
ATOM     15  C   UNL A   1      33.815  26.856  25.184  1.00  0.00     0.023 A 
ATOM     16  C   UNL A   1      33.742  25.263  23.368  1.00  0.00     0.023 A 
ATOM     17  C   UNL A   1      33.194  27.809  24.369  1.00  0.00     0.061 A 
ATOM     18  C   UNL A   1      33.103  26.213  22.563  1.00  0.00     0.061 A 
ATOM     19  Br  UNL A   1      32.808  29.518  25.095  1.00  0.00    -0.047 Br
ATOM     20  C   UNL A   1      32.814  27.482  23.065  1.00  0.00     0.143 A 
ATOM     21  Br  UNL A   1      32.568  25.692  20.819  1.00  0.00    -0.047 Br
BRANCH  20  22
ATOM     22  O   UNL A   1      32.135  28.373  22.280  1.00  0.00    -0.506 OA
ATOM     23  H   UNL A   1      32.488  28.629  21.450  1.00  0.00     0.293 HD
ENDBRANCH  20  22
ENDBRANCH  13  14
ENDBRANCH   7  13
ENDBRANCH   4   7
ENDBRANCH   2   3
ENDBRANCH   1   2
BRANCH   1  24
ATOM     24  C   UNL A   1      37.656  21.397  24.885  1.00  0.00     0.023 C 
BRANCH  24  25
ATOM     25  C   UNL A   1      38.781  21.259  25.908  1.00  0.00     0.116 C 
BRANCH  25  26
ATOM     26  N   UNL A   1      39.657  20.113  25.695  1.00  0.00    -0.352 N 
ATOM     27  C   UNL A   1      41.001  20.003  25.976  1.00  0.00     0.251 C 
ATOM     28  H   UNL A   1      39.234  19.317  25.299  1.00  0.00     0.163 HD
ATOM     29  O   UNL A   1      41.625  18.981  25.715  1.00  0.00    -0.269 OA
BRANCH  27  30
ATOM     30  C   UNL A   1      41.697  21.157  26.573  1.00  0.00     0.039 A 
ATOM     31  C   UNL A   1      42.211  22.148  25.734  1.00  0.00     0.014 A 
ATOM     32  C   UNL A   1      41.748  21.297  27.962  1.00  0.00     0.014 A 
ATOM     33  C   UNL A   1      42.687  23.338  26.290  1.00  0.00     0.010 A 
ATOM     34  C   UNL A   1      42.157  22.508  28.506  1.00  0.00     0.010 A 
ATOM     35  C   UNL A   1      42.611  23.547  27.675  1.00  0.00    -0.014 A 
BRANCH  35  36
ATOM     36  C   UNL A   1      42.976  24.844  28.296  1.00  0.00     0.031 A 
ATOM     37  C   UNL A   1      41.915  25.879  28.531  1.00  0.00     0.074 A 
ATOM     38  C   UNL A   1      44.271  25.135  28.534  1.00  0.00     0.049 A 
ATOM     39  N   UNL A   1      42.044  27.134  28.872  1.00  0.00    -0.248 NA
ATOM     40  C   UNL A   1      40.524  25.449  28.318  1.00  0.00     0.031 C 
ATOM     41  C   UNL A   1      45.401  24.231  28.314  1.00  0.00     0.029 A 
ATOM     42  N   UNL A   1      44.856  26.290  28.990  1.00  0.00    -0.354 N 
ATOM     43  C   UNL A   1      40.757  27.655  28.877  1.00  0.00     0.074 A 
ATOM     44  C   UNL A   1      39.865  26.588  28.475  1.00  0.00     0.031 C 
ATOM     45  C   UNL A   1      46.541  24.862  28.643  1.00  0.00     0.029 A 
ATOM     46  C   UNL A   1      46.228  26.227  29.054  1.00  0.00     0.049 A 
ATOM     47  H   UNL A   1      44.341  27.089  29.246  1.00  0.00     0.167 HD
ATOM     48  C   UNL A   1      40.354  28.906  29.201  1.00  0.00     0.037 A 
ATOM     49  C   UNL A   1      47.130  27.169  29.388  1.00  0.00     0.037 A 
ATOM     50  C   UNL A   1      41.236  29.950  29.645  1.00  0.00     0.049 A 
ATOM     51  C   UNL A   1      46.655  28.545  29.762  1.00  0.00     0.074 A 
ATOM     52  C   UNL A   1      40.916  31.232  30.057  1.00  0.00     0.029 A 
ATOM     53  N   UNL A   1      42.614  29.829  29.745  1.00  0.00    -0.354 N 
ATOM     54  N   UNL A   1      45.432  29.013  29.800  1.00  0.00    -0.248 NA
ATOM     55  C   UNL A   1      47.686  29.524  30.138  1.00  0.00     0.031 C 
ATOM     56  C   UNL A   1      42.104  31.895  30.384  1.00  0.00     0.029 A 
ATOM     57  C   UNL A   1      43.159  31.015  30.204  1.00  0.00     0.049 A 
ATOM     58  H   UNL A   1      43.127  29.018  29.521  1.00  0.00     0.167 HD
ATOM     59  C   UNL A   1      45.542  30.329  30.230  1.00  0.00     0.074 A 
ATOM     60  C   UNL A   1      46.951  30.586  30.443  1.00  0.00     0.031 C 
ATOM     61  C   UNL A   1      44.562  31.242  30.432  1.00  0.00     0.037 A 
BRANCH  48  62
ATOM     62  C   UNL A   1      38.890  29.207  29.088  1.00  0.00     0.057 A 
ATOM     63  C   UNL A   1      38.301  29.555  27.867  1.00  0.00     0.134 A 
ATOM     64  C   UNL A   1      38.058  29.129  30.212  1.00  0.00     0.134 A 
ATOM     65  F   UNL A   1      39.048  29.662  26.758  1.00  0.00    -0.206 F 
ATOM     66  C   UNL A   1      36.937  29.838  27.770  1.00  0.00     0.040 A 
ATOM     67  C   UNL A   1      36.689  29.387  30.123  1.00  0.00     0.040 A 
ATOM     68  F   UNL A   1      38.559  28.799  31.411  1.00  0.00    -0.206 F 
ATOM     69  C   UNL A   1      36.127  29.750  28.901  1.00  0.00     0.006 A 
ENDBRANCH  48  62
BRANCH  49  70
ATOM     70  C   UNL A   1      48.576  26.840  29.400  1.00  0.00     0.057 A 
ATOM     71  C   UNL A   1      49.356  26.999  28.248  1.00  0.00     0.134 A 
ATOM     72  C   UNL A   1      49.213  26.359  30.548  1.00  0.00     0.134 A 
ATOM     73  F   UNL A   1      48.796  27.439  27.110  1.00  0.00    -0.206 F 
ATOM     74  C   UNL A   1      50.713  26.676  28.233  1.00  0.00     0.040 A 
ATOM     75  C   UNL A   1      50.574  26.050  30.554  1.00  0.00     0.040 A 
ATOM     76  F   UNL A   1      48.522  26.191  31.686  1.00  0.00    -0.206 F 
ATOM     77  C   UNL A   1      51.327  26.203  29.391  1.00  0.00     0.006 A 
ENDBRANCH  49  70
BRANCH  61  78
ATOM     78  C   UNL A   1      44.969  32.587  30.952  1.00  0.00     0.057 A 
ATOM     79  C   UNL A   1      45.254  33.653  30.092  1.00  0.00     0.134 A 
ATOM     80  C   UNL A   1      45.009  32.831  32.330  1.00  0.00     0.134 A 
ATOM     81  F   UNL A   1      45.244  33.476  28.762  1.00  0.00    -0.206 F 
ATOM     82  C   UNL A   1      45.573  34.918  30.587  1.00  0.00     0.040 A 
ATOM     83  C   UNL A   1      45.308  34.096  32.835  1.00  0.00     0.040 A 
ATOM     84  F   UNL A   1      44.738  31.850  33.203  1.00  0.00    -0.206 F 
ATOM     85  C   UNL A   1      45.592  35.144  31.962  1.00  0.00     0.006 A 
ENDBRANCH  61  78
ENDBRANCH  35  36
ENDBRANCH  27  30
ENDBRANCH  25  26
ENDBRANCH  24  25
ENDBRANCH   1  24
TORSDOF 15
ENDMDL
