MODEL 1
REMARK VINA RESULT:     -13.3      0.000      0.000
REMARK SMILES Cc1c(CC(=O)NCCCCNC(=O)c2ccc(-c3c4nc(c(-c5c(F)cccc5F)c5ccc([nH]5)c(-c5c(F)cccc5F)c5nc(c(-c6c(F)cccc6F)c6ccc3[nH]6)C=C5)C=C4)cc2)cc(-c2ccccc2)cc1-c1ccccc1
REMARK SMILES IDX 9 1 8 2 7 3 5 4 6 5 4 7 3 8 1 9 2 10 78 11 69 12 77 13 70 14
REMARK SMILES IDX 79 15 80 16 84 17 81 18 83 19 82 20 71 21 72 22 76 23 73 24
REMARK SMILES IDX 75 25 74 26 10 27 11 28 12 29 13 30 14 32 15 33 16 34 68 35
REMARK SMILES IDX 17 36 67 37 18 38 19 39 20 40 61 41 21 42 66 43 60 44 62 45
REMARK SMILES IDX 22 46 65 47 59 48 58 49 23 51 49 52 32 53 48 54 33 55 36 56
REMARK SMILES IDX 47 57 63 58 34 59 35 60 46 62 64 63 37 64 24 65 25 66 30 67
REMARK SMILES IDX 26 68 27 69 29 70 31 71 28 72 50 73 51 74 56 75 52 76 53 77
REMARK SMILES IDX 55 78 57 79 54 80 38 81 39 82 44 83 40 84 41 85 43 86 45 87
REMARK SMILES IDX 42 88
REMARK H PARENT 7 6 12 31 62 50 36 61
REMARK Flexibility Score: inf
ROOT
ATOM      1  C   UNL A   1      33.741  28.177  25.149  1.00  0.00     0.023 C 
ENDROOT
BRANCH   1   2
ATOM      2  C   UNL A   1      33.666  26.799  24.476  1.00  0.00     0.116 C 
BRANCH   2   3
ATOM      3  N   UNL A   1      32.689  25.911  25.081  1.00  0.00    -0.356 N 
ATOM      4  C   UNL A   1      32.347  24.631  24.748  1.00  0.00     0.224 C 
ATOM      5  O   UNL A   1      31.489  24.068  25.431  1.00  0.00    -0.275 OA
ATOM      6  H   UNL A   1      32.199  26.289  25.847  1.00  0.00     0.163 HD
BRANCH   4   7
ATOM      7  C   UNL A   1      33.035  23.905  23.595  1.00  0.00     0.135 C 
BRANCH   7   8
ATOM      8  C   UNL A   1      33.907  22.744  24.039  1.00  0.00    -0.035 A 
ATOM      9  C   UNL A   1      32.193  20.998  23.325  1.00  0.00     0.045 C 
ATOM     10  C   UNL A   1      33.490  21.388  24.000  1.00  0.00    -0.040 A 
ATOM     11  C   UNL A   1      34.332  20.394  24.568  1.00  0.00    -0.015 A 
ATOM     12  C   UNL A   1      35.177  23.068  24.559  1.00  0.00     0.013 A 
ATOM     13  C   UNL A   1      35.579  20.774  25.109  1.00  0.00     0.017 A 
ATOM     14  C   UNL A   1      36.026  22.101  25.103  1.00  0.00    -0.017 A 
BRANCH  11  15
ATOM     15  C   UNL A   1      33.940  18.975  24.671  1.00  0.00    -0.018 A 
ATOM     16  C   UNL A   1      32.944  18.577  25.581  1.00  0.00     0.009 A 
ATOM     17  C   UNL A   1      34.537  17.988  23.871  1.00  0.00     0.009 A 
ATOM     18  C   UNL A   1      32.548  17.241  25.679  1.00  0.00     0.001 A 
ATOM     19  C   UNL A   1      34.130  16.654  23.957  1.00  0.00     0.001 A 
ATOM     20  C   UNL A   1      33.138  16.282  24.861  1.00  0.00     0.000 A 
ENDBRANCH  11  15
BRANCH  14  21
ATOM     21  C   UNL A   1      37.335  22.473  25.661  1.00  0.00    -0.018 A 
ATOM     22  C   UNL A   1      38.380  21.538  25.750  1.00  0.00     0.009 A 
ATOM     23  C   UNL A   1      37.568  23.771  26.141  1.00  0.00     0.009 A 
ATOM     24  C   UNL A   1      39.613  21.887  26.308  1.00  0.00     0.001 A 
ATOM     25  C   UNL A   1      38.798  24.122  26.701  1.00  0.00     0.001 A 
ATOM     26  C   UNL A   1      39.820  23.179  26.786  1.00  0.00     0.000 A 
ENDBRANCH  14  21
ENDBRANCH   7   8
ENDBRANCH   4   7
ENDBRANCH   2   3
ENDBRANCH   1   2
BRANCH   1  27
ATOM     27  C   UNL A   1      34.084  28.163  26.639  1.00  0.00     0.023 C 
BRANCH  27  28
ATOM     28  C   UNL A   1      34.869  29.382  27.099  1.00  0.00     0.116 C 
BRANCH  28  29
ATOM     29  N   UNL A   1      34.137  30.639  27.075  1.00  0.00    -0.352 N 
ATOM     30  C   UNL A   1      34.258  31.757  27.889  1.00  0.00     0.251 C 
ATOM     31  H   UNL A   1      33.450  30.708  26.373  1.00  0.00     0.163 HD
ATOM     32  O   UNL A   1      33.458  32.673  27.768  1.00  0.00    -0.269 OA
BRANCH  30  33
ATOM     33  C   UNL A   1      35.434  31.918  28.792  1.00  0.00     0.039 A 
ATOM     34  C   UNL A   1      36.464  32.775  28.373  1.00  0.00     0.014 A 
ATOM     35  C   UNL A   1      35.643  31.092  29.889  1.00  0.00     0.014 A 
ATOM     36  C   UNL A   1      37.756  32.589  28.860  1.00  0.00     0.010 A 
ATOM     37  C   UNL A   1      36.937  30.811  30.276  1.00  0.00     0.010 A 
ATOM     38  C   UNL A   1      38.001  31.515  29.711  1.00  0.00    -0.014 A 
BRANCH  38  39
ATOM     39  C   UNL A   1      39.327  30.959  29.944  1.00  0.00     0.031 A 
ATOM     40  C   UNL A   1      39.785  29.754  29.226  1.00  0.00     0.074 A 
ATOM     41  C   UNL A   1      40.186  31.620  30.752  1.00  0.00     0.049 A 
ATOM     42  N   UNL A   1      40.663  28.932  29.697  1.00  0.00    -0.248 NA
ATOM     43  C   UNL A   1      39.269  29.360  27.919  1.00  0.00     0.031 C 
ATOM     44  C   UNL A   1      41.626  31.410  30.871  1.00  0.00     0.029 A 
ATOM     45  N   UNL A   1      39.882  32.525  31.774  1.00  0.00    -0.354 N 
ATOM     46  C   UNL A   1      41.025  28.085  28.677  1.00  0.00     0.074 A 
ATOM     47  C   UNL A   1      40.083  28.346  27.612  1.00  0.00     0.031 C 
ATOM     48  C   UNL A   1      42.050  31.939  32.029  1.00  0.00     0.029 A 
ATOM     49  C   UNL A   1      40.874  32.375  32.763  1.00  0.00     0.049 A 
ATOM     50  H   UNL A   1      39.118  33.147  31.799  1.00  0.00     0.167 HD
ATOM     51  C   UNL A   1      42.171  27.354  28.773  1.00  0.00     0.037 A 
ATOM     52  C   UNL A   1      40.564  31.988  34.033  1.00  0.00     0.037 A 
ATOM     53  C   UNL A   1      42.886  27.644  30.009  1.00  0.00     0.049 A 
ATOM     54  C   UNL A   1      41.222  30.696  34.454  1.00  0.00     0.074 A 
ATOM     55  C   UNL A   1      43.924  28.519  30.286  1.00  0.00     0.029 A 
ATOM     56  N   UNL A   1      42.361  27.254  31.235  1.00  0.00    -0.354 N 
ATOM     57  N   UNL A   1      41.698  29.820  33.615  1.00  0.00    -0.248 NA
ATOM     58  C   UNL A   1      41.369  30.273  35.844  1.00  0.00     0.031 C 
ATOM     59  C   UNL A   1      44.007  28.678  31.687  1.00  0.00     0.029 A 
ATOM     60  C   UNL A   1      43.028  27.889  32.264  1.00  0.00     0.049 A 
ATOM     61  H   UNL A   1      41.621  26.615  31.352  1.00  0.00     0.167 HD
ATOM     62  C   UNL A   1      42.171  28.733  34.305  1.00  0.00     0.074 A 
ATOM     63  C   UNL A   1      41.961  29.073  35.698  1.00  0.00     0.031 C 
ATOM     64  C   UNL A   1      42.682  27.646  33.656  1.00  0.00     0.037 A 
BRANCH  51  65
ATOM     65  C   UNL A   1      42.786  26.644  27.594  1.00  0.00     0.057 A 
ATOM     66  C   UNL A   1      43.327  27.358  26.507  1.00  0.00     0.134 A 
ATOM     67  C   UNL A   1      42.838  25.246  27.458  1.00  0.00     0.134 A 
ATOM     68  F   UNL A   1      43.450  28.691  26.527  1.00  0.00    -0.206 F 
ATOM     69  C   UNL A   1      43.765  26.739  25.331  1.00  0.00     0.040 A 
ATOM     70  C   UNL A   1      43.229  24.613  26.269  1.00  0.00     0.040 A 
ATOM     71  F   UNL A   1      42.537  24.437  28.485  1.00  0.00    -0.206 F 
ATOM     72  C   UNL A   1      43.679  25.363  25.191  1.00  0.00     0.006 A 
ENDBRANCH  51  65
BRANCH  52  73
ATOM     73  C   UNL A   1      39.215  32.428  34.469  1.00  0.00     0.057 A 
ATOM     74  C   UNL A   1      39.052  33.748  34.923  1.00  0.00     0.134 A 
ATOM     75  C   UNL A   1      38.061  31.740  34.079  1.00  0.00     0.134 A 
ATOM     76  F   UNL A   1      40.122  34.462  35.310  1.00  0.00    -0.206 F 
ATOM     77  C   UNL A   1      37.816  34.394  34.884  1.00  0.00     0.040 A 
ATOM     78  C   UNL A   1      36.815  32.376  34.041  1.00  0.00     0.040 A 
ATOM     79  F   UNL A   1      38.141  30.486  33.611  1.00  0.00    -0.206 F 
ATOM     80  C   UNL A   1      36.697  33.716  34.406  1.00  0.00     0.006 A 
ENDBRANCH  52  73
BRANCH  64  81
ATOM     81  C   UNL A   1      43.008  26.301  34.261  1.00  0.00     0.057 A 
ATOM     82  C   UNL A   1      42.078  25.477  34.909  1.00  0.00     0.134 A 
ATOM     83  C   UNL A   1      44.282  25.717  34.064  1.00  0.00     0.134 A 
ATOM     84  F   UNL A   1      40.802  25.850  35.073  1.00  0.00    -0.206 F 
ATOM     85  C   UNL A   1      42.402  24.193  35.373  1.00  0.00     0.040 A 
ATOM     86  C   UNL A   1      44.601  24.419  34.473  1.00  0.00     0.040 A 
ATOM     87  F   UNL A   1      45.273  26.374  33.440  1.00  0.00    -0.206 F 
ATOM     88  C   UNL A   1      43.662  23.655  35.143  1.00  0.00     0.006 A 
ENDBRANCH  64  81
ENDBRANCH  38  39
ENDBRANCH  30  33
ENDBRANCH  28  29
ENDBRANCH  27  28
ENDBRANCH   1  27
TORSDOF 14
ENDMDL
MODEL 2
REMARK VINA RESULT:     -13.2      1.725      2.549
REMARK SMILES Cc1c(CC(=O)NCCCCNC(=O)c2ccc(-c3c4nc(c(-c5c(F)cccc5F)c5ccc([nH]5)c(-c5c(F)cccc5F)c5nc(c(-c6c(F)cccc6F)c6ccc3[nH]6)C=C5)C=C4)cc2)cc(-c2ccccc2)cc1-c1ccccc1
REMARK SMILES IDX 9 1 8 2 7 3 5 4 6 5 4 7 3 8 1 9 2 10 78 11 69 12 77 13 70 14
REMARK SMILES IDX 79 15 80 16 84 17 81 18 83 19 82 20 71 21 72 22 76 23 73 24
REMARK SMILES IDX 75 25 74 26 10 27 11 28 12 29 13 30 14 32 15 33 16 34 68 35
REMARK SMILES IDX 17 36 67 37 18 38 19 39 20 40 61 41 21 42 66 43 60 44 62 45
REMARK SMILES IDX 22 46 65 47 59 48 58 49 23 51 49 52 32 53 48 54 33 55 36 56
REMARK SMILES IDX 47 57 63 58 34 59 35 60 46 62 64 63 37 64 24 65 25 66 30 67
REMARK SMILES IDX 26 68 27 69 29 70 31 71 28 72 50 73 51 74 56 75 52 76 53 77
REMARK SMILES IDX 55 78 57 79 54 80 38 81 39 82 44 83 40 84 41 85 43 86 45 87
REMARK SMILES IDX 42 88
REMARK H PARENT 7 6 12 31 62 50 36 61
REMARK Flexibility Score: inf
ROOT
ATOM      1  C   UNL A   1      33.050  27.908  25.533  1.00  0.00     0.023 C 
ENDROOT
BRANCH   1   2
ATOM      2  C   UNL A   1      33.602  26.490  25.325  1.00  0.00     0.116 C 
BRANCH   2   3
ATOM      3  N   UNL A   1      33.910  26.186  23.939  1.00  0.00    -0.356 N 
ATOM      4  C   UNL A   1      33.635  25.065  23.209  1.00  0.00     0.224 C 
ATOM      5  O   UNL A   1      33.986  25.047  22.026  1.00  0.00    -0.275 OA
ATOM      6  H   UNL A   1      34.390  26.895  23.452  1.00  0.00     0.163 HD
BRANCH   4   7
ATOM      7  C   UNL A   1      32.879  23.890  23.821  1.00  0.00     0.135 C 
BRANCH   7   8
ATOM      8  C   UNL A   1      33.767  22.713  24.181  1.00  0.00    -0.035 A 
ATOM      9  C   UNL A   1      32.028  20.995  23.460  1.00  0.00     0.045 C 
ATOM     10  C   UNL A   1      33.349  21.359  24.101  1.00  0.00    -0.040 A 
ATOM     11  C   UNL A   1      34.213  20.343  24.593  1.00  0.00    -0.015 A 
ATOM     12  C   UNL A   1      35.056  23.017  24.666  1.00  0.00     0.013 A 
ATOM     13  C   UNL A   1      35.480  20.703  25.103  1.00  0.00     0.017 A 
ATOM     14  C   UNL A   1      35.925  22.029  25.136  1.00  0.00    -0.017 A 
BRANCH  11  15
ATOM     15  C   UNL A   1      33.826  18.920  24.650  1.00  0.00    -0.018 A 
ATOM     16  C   UNL A   1      34.383  17.995  23.749  1.00  0.00     0.009 A 
ATOM     17  C   UNL A   1      32.904  18.448  25.598  1.00  0.00     0.009 A 
ATOM     18  C   UNL A   1      34.042  16.642  23.802  1.00  0.00     0.001 A 
ATOM     19  C   UNL A   1      32.573  17.092  25.661  1.00  0.00     0.001 A 
ATOM     20  C   UNL A   1      33.141  16.191  24.763  1.00  0.00     0.000 A 
ENDBRANCH  11  15
BRANCH  14  21
ATOM     21  C   UNL A   1      37.255  22.381  25.659  1.00  0.00    -0.018 A 
ATOM     22  C   UNL A   1      38.293  21.435  25.699  1.00  0.00     0.009 A 
ATOM     23  C   UNL A   1      37.514  23.668  26.154  1.00  0.00     0.009 A 
ATOM     24  C   UNL A   1      39.546  21.764  26.224  1.00  0.00     0.001 A 
ATOM     25  C   UNL A   1      38.764  23.998  26.682  1.00  0.00     0.001 A 
ATOM     26  C   UNL A   1      39.780  23.045  26.718  1.00  0.00     0.000 A 
ENDBRANCH  14  21
ENDBRANCH   7   8
ENDBRANCH   4   7
ENDBRANCH   2   3
ENDBRANCH   1   2
BRANCH   1  27
ATOM     27  C   UNL A   1      34.086  28.967  25.914  1.00  0.00     0.023 C 
BRANCH  27  28
ATOM     28  C   UNL A   1      33.767  29.697  27.209  1.00  0.00     0.116 C 
BRANCH  28  29
ATOM     29  N   UNL A   1      34.493  30.940  27.420  1.00  0.00    -0.352 N 
ATOM     30  C   UNL A   1      35.794  31.150  27.855  1.00  0.00     0.251 C 
ATOM     31  H   UNL A   1      33.983  31.759  27.222  1.00  0.00     0.163 HD
ATOM     32  O   UNL A   1      36.174  32.291  28.072  1.00  0.00    -0.269 OA
BRANCH  30  33
ATOM     33  C   UNL A   1      36.771  30.024  27.908  1.00  0.00     0.039 A 
ATOM     34  C   UNL A   1      36.865  29.300  29.107  1.00  0.00     0.014 A 
ATOM     35  C   UNL A   1      37.726  29.827  26.919  1.00  0.00     0.014 A 
ATOM     36  C   UNL A   1      38.046  28.624  29.412  1.00  0.00     0.010 A 
ATOM     37  C   UNL A   1      38.943  29.277  27.266  1.00  0.00     0.010 A 
ATOM     38  C   UNL A   1      39.124  28.735  28.539  1.00  0.00    -0.014 A 
BRANCH  38  39
ATOM     39  C   UNL A   1      40.501  28.456  28.922  1.00  0.00     0.031 A 
ATOM     40  C   UNL A   1      41.248  27.334  28.321  1.00  0.00     0.074 A 
ATOM     41  C   UNL A   1      41.136  29.304  29.763  1.00  0.00     0.049 A 
ATOM     42  N   UNL A   1      42.214  26.718  28.918  1.00  0.00    -0.248 NA
ATOM     43  C   UNL A   1      40.948  26.794  27.000  1.00  0.00     0.031 C 
ATOM     44  C   UNL A   1      42.570  29.382  30.023  1.00  0.00     0.029 A 
ATOM     45  N   UNL A   1      40.565  30.176  30.697  1.00  0.00    -0.354 N 
ATOM     46  C   UNL A   1      42.829  25.915  27.987  1.00  0.00     0.074 A 
ATOM     47  C   UNL A   1      41.965  25.944  26.828  1.00  0.00     0.031 C 
ATOM     48  C   UNL A   1      42.769  30.032  31.180  1.00  0.00     0.029 A 
ATOM     49  C   UNL A   1      41.465  30.262  31.778  1.00  0.00     0.049 A 
ATOM     50  H   UNL A   1      39.700  30.638  30.616  1.00  0.00     0.167 HD
ATOM     51  C   UNL A   1      44.077  25.425  28.229  1.00  0.00     0.037 A 
ATOM     52  C   UNL A   1      41.109  29.875  33.036  1.00  0.00     0.037 A 
ATOM     53  C   UNL A   1      44.599  25.900  29.505  1.00  0.00     0.049 A 
ATOM     54  C   UNL A   1      41.954  28.754  33.591  1.00  0.00     0.074 A 
ATOM     55  C   UNL A   1      45.419  26.971  29.820  1.00  0.00     0.029 A 
ATOM     56  N   UNL A   1      44.037  25.467  30.699  1.00  0.00    -0.354 N 
ATOM     57  N   UNL A   1      42.668  27.953  32.852  1.00  0.00    -0.248 NA
ATOM     58  C   UNL A   1      42.039  28.426  35.012  1.00  0.00     0.031 C 
ATOM     59  C   UNL A   1      45.331  27.200  31.211  1.00  0.00     0.029 A 
ATOM     60  C   UNL A   1      44.466  26.262  31.744  1.00  0.00     0.049 A 
ATOM     61  H   UNL A   1      43.423  24.702  30.788  1.00  0.00     0.167 HD
ATOM     62  C   UNL A   1      43.267  27.008  33.646  1.00  0.00     0.074 A 
ATOM     63  C   UNL A   1      42.859  27.359  34.992  1.00  0.00     0.031 C 
ATOM     64  C   UNL A   1      44.036  26.014  33.111  1.00  0.00     0.037 A 
BRANCH  51  65
ATOM     65  C   UNL A   1      44.930  24.799  27.154  1.00  0.00     0.057 A 
ATOM     66  C   UNL A   1      44.829  23.429  26.842  1.00  0.00     0.134 A 
ATOM     67  C   UNL A   1      45.902  25.496  26.417  1.00  0.00     0.134 A 
ATOM     68  F   UNL A   1      43.882  22.650  27.378  1.00  0.00    -0.206 F 
ATOM     69  C   UNL A   1      45.706  22.782  25.965  1.00  0.00     0.040 A 
ATOM     70  C   UNL A   1      46.818  24.854  25.571  1.00  0.00     0.040 A 
ATOM     71  F   UNL A   1      45.984  26.834  26.467  1.00  0.00    -0.206 F 
ATOM     72  C   UNL A   1      46.732  23.486  25.356  1.00  0.00     0.006 A 
ENDBRANCH  51  65
BRANCH  52  73
ATOM     73  C   UNL A   1      39.664  30.064  33.323  1.00  0.00     0.057 A 
ATOM     74  C   UNL A   1      39.198  31.358  33.607  1.00  0.00     0.134 A 
ATOM     75  C   UNL A   1      38.714  29.112  32.936  1.00  0.00     0.134 A 
ATOM     76  F   UNL A   1      40.061  32.317  33.980  1.00  0.00    -0.206 F 
ATOM     77  C   UNL A   1      37.866  31.723  33.406  1.00  0.00     0.040 A 
ATOM     78  C   UNL A   1      37.375  29.465  32.738  1.00  0.00     0.040 A 
ATOM     79  F   UNL A   1      39.087  27.863  32.626  1.00  0.00    -0.206 F 
ATOM     80  C   UNL A   1      36.956  30.781  32.934  1.00  0.00     0.006 A 
ENDBRANCH  52  73
BRANCH  64  81
ATOM     81  C   UNL A   1      44.549  24.784  33.823  1.00  0.00     0.057 A 
ATOM     82  C   UNL A   1      43.732  23.772  34.345  1.00  0.00     0.134 A 
ATOM     83  C   UNL A   1      45.936  24.510  33.868  1.00  0.00     0.134 A 
ATOM     84  F   UNL A   1      42.396  23.842  34.276  1.00  0.00    -0.206 F 
ATOM     85  C   UNL A   1      44.253  22.601  34.914  1.00  0.00     0.040 A 
ATOM     86  C   UNL A   1      46.465  23.323  34.382  1.00  0.00     0.040 A 
ATOM     87  F   UNL A   1      46.845  25.373  33.388  1.00  0.00    -0.206 F 
ATOM     88  C   UNL A   1      45.622  22.367  34.921  1.00  0.00     0.006 A 
ENDBRANCH  64  81
ENDBRANCH  38  39
ENDBRANCH  30  33
ENDBRANCH  28  29
ENDBRANCH  27  28
ENDBRANCH   1  27
TORSDOF 14
ENDMDL
MODEL 3
REMARK VINA RESULT:     -13.0      2.485      5.004
REMARK SMILES Cc1c(CC(=O)NCCCCNC(=O)c2ccc(-c3c4nc(c(-c5c(F)cccc5F)c5ccc([nH]5)c(-c5c(F)cccc5F)c5nc(c(-c6c(F)cccc6F)c6ccc3[nH]6)C=C5)C=C4)cc2)cc(-c2ccccc2)cc1-c1ccccc1
REMARK SMILES IDX 9 1 8 2 7 3 5 4 6 5 4 7 3 8 1 9 2 10 78 11 69 12 77 13 70 14
REMARK SMILES IDX 79 15 80 16 84 17 81 18 83 19 82 20 71 21 72 22 76 23 73 24
REMARK SMILES IDX 75 25 74 26 10 27 11 28 12 29 13 30 14 32 15 33 16 34 68 35
REMARK SMILES IDX 17 36 67 37 18 38 19 39 20 40 61 41 21 42 66 43 60 44 62 45
REMARK SMILES IDX 22 46 65 47 59 48 58 49 23 51 49 52 32 53 48 54 33 55 36 56
REMARK SMILES IDX 47 57 63 58 34 59 35 60 46 62 64 63 37 64 24 65 25 66 30 67
REMARK SMILES IDX 26 68 27 69 29 70 31 71 28 72 50 73 51 74 56 75 52 76 53 77
REMARK SMILES IDX 55 78 57 79 54 80 38 81 39 82 44 83 40 84 41 85 43 86 45 87
REMARK SMILES IDX 42 88
REMARK H PARENT 7 6 12 31 62 50 36 61
REMARK Flexibility Score: inf
ROOT
ATOM      1  C   UNL A   1      35.444  32.037  27.972  1.00  0.00     0.023 C 
ENDROOT
BRANCH   1   2
ATOM      2  C   UNL A   1      35.528  30.534  27.673  1.00  0.00     0.116 C 
BRANCH   2   3
ATOM      3  N   UNL A   1      34.313  29.809  28.000  1.00  0.00    -0.356 N 
ATOM      4  C   UNL A   1      33.553  28.981  27.223  1.00  0.00     0.224 C 
ATOM      5  O   UNL A   1      32.560  28.460  27.737  1.00  0.00    -0.275 OA
ATOM      6  H   UNL A   1      33.986  29.935  28.920  1.00  0.00     0.163 HD
BRANCH   4   7
ATOM      7  C   UNL A   1      33.943  28.675  25.780  1.00  0.00     0.135 C 
BRANCH   7   8
ATOM      8  C   UNL A   1      32.921  27.833  25.037  1.00  0.00    -0.035 A 
ATOM      9  C   UNL A   1      34.110  25.647  25.585  1.00  0.00     0.045 C 
ATOM     10  C   UNL A   1      33.036  26.430  24.863  1.00  0.00    -0.040 A 
ATOM     11  C   UNL A   1      32.095  25.761  24.033  1.00  0.00    -0.015 A 
ATOM     12  C   UNL A   1      31.836  28.522  24.455  1.00  0.00     0.013 A 
ATOM     13  C   UNL A   1      31.047  26.502  23.444  1.00  0.00     0.017 A 
ATOM     14  C   UNL A   1      30.892  27.877  23.652  1.00  0.00    -0.017 A 
BRANCH  11  15
ATOM     15  C   UNL A   1      32.192  24.325  23.706  1.00  0.00    -0.018 A 
ATOM     16  C   UNL A   1      31.613  23.363  24.554  1.00  0.00     0.009 A 
ATOM     17  C   UNL A   1      32.854  23.878  22.552  1.00  0.00     0.009 A 
ATOM     18  C   UNL A   1      31.679  22.002  24.249  1.00  0.00     0.001 A 
ATOM     19  C   UNL A   1      32.908  22.517  22.240  1.00  0.00     0.001 A 
ATOM     20  C   UNL A   1      32.322  21.581  23.088  1.00  0.00     0.000 A 
ENDBRANCH  11  15
BRANCH  14  21
ATOM     21  C   UNL A   1      29.784  28.627  23.040  1.00  0.00    -0.018 A 
ATOM     22  C   UNL A   1      30.029  29.709  22.176  1.00  0.00     0.009 A 
ATOM     23  C   UNL A   1      28.450  28.295  23.322  1.00  0.00     0.009 A 
ATOM     24  C   UNL A   1      28.974  30.438  21.620  1.00  0.00     0.001 A 
ATOM     25  C   UNL A   1      27.395  29.024  22.769  1.00  0.00     0.001 A 
ATOM     26  C   UNL A   1      27.657  30.096  21.919  1.00  0.00     0.000 A 
ENDBRANCH  14  21
ENDBRANCH   7   8
ENDBRANCH   4   7
ENDBRANCH   2   3
ENDBRANCH   1   2
BRANCH   1  27
ATOM     27  C   UNL A   1      34.795  32.406  29.307  1.00  0.00     0.023 C 
BRANCH  27  28
ATOM     28  C   UNL A   1      34.652  33.904  29.526  1.00  0.00     0.116 C 
BRANCH  28  29
ATOM     29  N   UNL A   1      33.789  34.293  30.630  1.00  0.00    -0.352 N 
ATOM     30  C   UNL A   1      33.987  34.181  32.000  1.00  0.00     0.251 C 
ATOM     31  H   UNL A   1      32.932  34.700  30.366  1.00  0.00     0.163 HD
ATOM     32  O   UNL A   1      33.076  34.470  32.761  1.00  0.00    -0.269 OA
BRANCH  30  33
ATOM     33  C   UNL A   1      35.337  33.865  32.551  1.00  0.00     0.039 A 
ATOM     34  C   UNL A   1      36.416  34.654  32.124  1.00  0.00     0.014 A 
ATOM     35  C   UNL A   1      35.589  32.703  33.269  1.00  0.00     0.014 A 
ATOM     36  C   UNL A   1      37.709  34.133  32.163  1.00  0.00     0.010 A 
ATOM     37  C   UNL A   1      36.839  32.126  33.189  1.00  0.00     0.010 A 
ATOM     38  C   UNL A   1      37.886  32.816  32.575  1.00  0.00    -0.014 A 
BRANCH  38  39
ATOM     39  C   UNL A   1      39.072  32.029  32.266  1.00  0.00     0.031 A 
ATOM     40  C   UNL A   1      39.008  30.884  31.337  1.00  0.00     0.074 A 
ATOM     41  C   UNL A   1      40.269  32.421  32.758  1.00  0.00     0.049 A 
ATOM     42  N   UNL A   1      39.811  29.874  31.391  1.00  0.00    -0.248 NA
ATOM     43  C   UNL A   1      38.010  30.772  30.279  1.00  0.00     0.031 C 
ATOM     44  C   UNL A   1      41.590  31.971  32.331  1.00  0.00     0.029 A 
ATOM     45  N   UNL A   1      40.518  33.205  33.891  1.00  0.00    -0.354 N 
ATOM     46  C   UNL A   1      39.627  29.138  30.245  1.00  0.00     0.074 A 
ATOM     47  C   UNL A   1      38.450  29.697  29.618  1.00  0.00     0.031 C 
ATOM     48  C   UNL A   1      42.481  32.253  33.295  1.00  0.00     0.029 A 
ATOM     49  C   UNL A   1      41.737  32.758  34.437  1.00  0.00     0.049 A 
ATOM     50  H   UNL A   1      39.950  33.930  34.239  1.00  0.00     0.167 HD
ATOM     51  C   UNL A   1      40.567  28.230  29.861  1.00  0.00     0.037 A 
ATOM     52  C   UNL A   1      41.808  32.243  35.698  1.00  0.00     0.037 A 
ATOM     53  C   UNL A   1      41.704  28.220  30.774  1.00  0.00     0.049 A 
ATOM     54  C   UNL A   1      42.298  30.817  35.748  1.00  0.00     0.074 A 
ATOM     55  C   UNL A   1      42.925  28.871  30.725  1.00  0.00     0.029 A 
ATOM     56  N   UNL A   1      41.561  27.743  32.071  1.00  0.00    -0.354 N 
ATOM     57  N   UNL A   1      42.275  30.008  34.726  1.00  0.00    -0.248 NA
ATOM     58  C   UNL A   1      42.823  30.178  36.953  1.00  0.00     0.031 C 
ATOM     59  C   UNL A   1      43.511  28.808  32.009  1.00  0.00     0.029 A 
ATOM     60  C   UNL A   1      42.651  28.109  32.836  1.00  0.00     0.049 A 
ATOM     61  H   UNL A   1      40.793  27.220  32.397  1.00  0.00     0.167 HD
ATOM     62  C   UNL A   1      42.728  28.771  35.109  1.00  0.00     0.074 A 
ATOM     63  C   UNL A   1      43.078  28.934  36.507  1.00  0.00     0.031 C 
ATOM     64  C   UNL A   1      42.759  27.723  34.234  1.00  0.00     0.037 A 
BRANCH  51  65
ATOM     65  C   UNL A   1      40.589  27.610  28.486  1.00  0.00     0.057 A 
ATOM     66  C   UNL A   1      39.994  26.358  28.236  1.00  0.00     0.134 A 
ATOM     67  C   UNL A   1      41.220  28.190  27.373  1.00  0.00     0.134 A 
ATOM     68  F   UNL A   1      39.264  25.724  29.162  1.00  0.00    -0.206 F 
ATOM     69  C   UNL A   1      40.127  25.682  27.018  1.00  0.00     0.040 A 
ATOM     70  C   UNL A   1      41.402  27.507  26.163  1.00  0.00     0.040 A 
ATOM     71  F   UNL A   1      41.662  29.457  27.408  1.00  0.00    -0.206 F 
ATOM     72  C   UNL A   1      40.868  26.238  25.987  1.00  0.00     0.006 A 
ENDBRANCH  51  65
BRANCH  52  73
ATOM     73  C   UNL A   1      40.805  32.823  36.627  1.00  0.00     0.057 A 
ATOM     74  C   UNL A   1      41.078  34.067  37.220  1.00  0.00     0.134 A 
ATOM     75  C   UNL A   1      39.473  32.397  36.621  1.00  0.00     0.134 A 
ATOM     76  F   UNL A   1      42.337  34.533  37.255  1.00  0.00    -0.206 F 
ATOM     77  C   UNL A   1      40.060  34.902  37.685  1.00  0.00     0.040 A 
ATOM     78  C   UNL A   1      38.445  33.223  37.089  1.00  0.00     0.040 A 
ATOM     79  F   UNL A   1      39.132  31.232  36.050  1.00  0.00    -0.206 F 
ATOM     80  C   UNL A   1      38.733  34.493  37.585  1.00  0.00     0.006 A 
ENDBRANCH  52  73
BRANCH  64  81
ATOM     81  C   UNL A   1      42.997  26.270  34.571  1.00  0.00     0.057 A 
ATOM     82  C   UNL A   1      42.070  25.445  35.223  1.00  0.00     0.134 A 
ATOM     83  C   UNL A   1      44.151  25.604  34.093  1.00  0.00     0.134 A 
ATOM     84  F   UNL A   1      40.883  25.910  35.637  1.00  0.00    -0.206 F 
ATOM     85  C   UNL A   1      42.294  24.076  35.431  1.00  0.00     0.040 A 
ATOM     86  C   UNL A   1      44.360  24.231  34.246  1.00  0.00     0.040 A 
ATOM     87  F   UNL A   1      45.120  26.254  33.431  1.00  0.00    -0.206 F 
ATOM     88  C   UNL A   1      43.434  23.462  34.930  1.00  0.00     0.006 A 
ENDBRANCH  64  81
ENDBRANCH  38  39
ENDBRANCH  30  33
ENDBRANCH  28  29
ENDBRANCH  27  28
ENDBRANCH   1  27
TORSDOF 14
ENDMDL
