MODEL 1
REMARK VINA RESULT:     -10.8      0.000      0.000
REMARK SMILES CCC(CC)([NH2+]Cc1ccc(Cl)cc1[N+](=O)[O-])C(=O)NCCCCNC(=O)c1ccc(-c2c3nc(c(-c4c(F)cccc4F)c4ccc([nH]4)c(-c4c(F)cccc4F)c4nc(c(-c5c(F)cccc5F)c5ccc2[nH]5)C=C4)C=C3)cc1
REMARK SMILES IDX 21 1 20 2 18 3 19 4 3 6 2 7 1 8 4 9 5 10 6 11 7 14 8 15 9 16
REMARK SMILES IDX 14 17 10 18 13 19 11 20 12 21 15 22 16 23 17 24 22 25 23 26
REMARK SMILES IDX 24 27 25 28 26 29 27 31 28 32 29 33 81 34 30 35 80 36 31 37
REMARK SMILES IDX 32 38 33 39 74 40 34 41 79 42 73 43 75 44 35 45 78 46 72 47
REMARK SMILES IDX 71 48 36 50 62 51 45 52 61 53 46 54 49 55 60 56 76 57 47 58
REMARK SMILES IDX 48 59 59 61 77 62 50 63 37 64 38 65 43 66 39 67 40 68 42 69
REMARK SMILES IDX 44 70 41 71 63 72 64 73 69 74 65 75 66 76 68 77 70 78 67 79
REMARK SMILES IDX 51 80 52 81 57 82 53 83 54 84 56 85 58 86 55 87
REMARK H PARENT 20 5 6 12 6 13 25 30 75 49 49 60
REMARK Flexibility Score: inf
ROOT
ATOM      1  C   UNL A   1      35.304  20.381  25.162  1.00  0.00     0.116 C 
ENDROOT
BRANCH   1   2
ATOM      2  N   UNL A   1      34.032  20.855  25.677  1.00  0.00    -0.351 N 
ATOM      3  C   UNL A   1      33.050  21.261  24.791  1.00  0.00     0.281 C 
ATOM      4  O   UNL A   1      32.693  20.504  23.889  1.00  0.00    -0.268 OA
ATOM      5  H   UNL A   1      33.869  20.889  26.647  1.00  0.00     0.163 HD
BRANCH   3   6
ATOM      6  C   UNL A   1      32.369  22.660  25.050  1.00  0.00     0.175 C 
BRANCH   6   7
ATOM      7  C   UNL A   1      33.455  23.762  24.829  1.00  0.00     0.076 C 
ATOM      8  C   UNL A   1      33.686  24.719  26.003  1.00  0.00     0.011 C 
ENDBRANCH   6   7
BRANCH   6   9
ATOM      9  C   UNL A   1      31.837  22.700  26.507  1.00  0.00     0.076 C 
ATOM     10  C   UNL A   1      30.347  22.988  26.664  1.00  0.00     0.011 C 
ENDBRANCH   6   9
BRANCH   6  11
ATOM     11  N   UNL A   1      31.283  22.944  24.059  1.00  0.00    -0.330 N 
ATOM     12  H   UNL A   1      30.527  23.390  24.578  1.00  0.00     0.347 HD
ATOM     13  H   UNL A   1      31.110  22.027  23.648  1.00  0.00     0.347 HD
BRANCH  11  14
ATOM     14  C   UNL A   1      31.532  23.780  22.886  1.00  0.00     0.305 C 
BRANCH  14  15
ATOM     15  C   UNL A   1      31.110  25.230  22.917  1.00  0.00     0.084 A 
ATOM     16  C   UNL A   1      30.045  25.621  23.743  1.00  0.00     0.018 A 
ATOM     17  C   UNL A   1      31.790  26.262  22.232  1.00  0.00     0.279 A 
ATOM     18  C   UNL A   1      29.683  26.970  23.860  1.00  0.00     0.021 A 
ATOM     19  C   UNL A   1      31.422  27.609  22.315  1.00  0.00     0.106 A 
ATOM     20  C   UNL A   1      30.365  27.953  23.142  1.00  0.00     0.047 A 
ATOM     21  Cl  UNL A   1      29.925  29.606  23.309  1.00  0.00    -0.084 Cl
BRANCH  17  22
ATOM     22  N   UNL A   1      33.002  26.001  21.489  1.00  0.00     0.063 N 
ATOM     23  O   UNL A   1      32.855  25.629  20.321  1.00  0.00    -0.258 OA
ATOM     24  O   UNL A   1      34.079  26.129  22.081  1.00  0.00    -0.258 OA
ENDBRANCH  17  22
ENDBRANCH  14  15
ENDBRANCH  11  14
ENDBRANCH   6  11
ENDBRANCH   3   6
ENDBRANCH   1   2
BRANCH   1  25
ATOM     25  C   UNL A   1      36.440  21.374  25.438  1.00  0.00     0.023 C 
BRANCH  25  26
ATOM     26  C   UNL A   1      37.777  20.951  24.834  1.00  0.00     0.023 C 
BRANCH  26  27
ATOM     27  C   UNL A   1      38.975  20.966  25.777  1.00  0.00     0.116 C 
BRANCH  27  28
ATOM     28  N   UNL A   1      39.836  19.799  25.676  1.00  0.00    -0.352 N 
ATOM     29  C   UNL A   1      41.169  19.683  26.044  1.00  0.00     0.251 C 
ATOM     30  H   UNL A   1      39.422  18.989  25.299  1.00  0.00     0.163 HD
ATOM     31  O   UNL A   1      41.788  18.657  25.901  1.00  0.00    -0.269 OA
BRANCH  29  32
ATOM     32  C   UNL A   1      41.833  20.893  26.586  1.00  0.00     0.039 A 
ATOM     33  C   UNL A   1      42.342  21.837  25.693  1.00  0.00     0.014 A 
ATOM     34  C   UNL A   1      41.829  21.139  27.961  1.00  0.00     0.014 A 
ATOM     35  C   UNL A   1      42.746  23.084  26.176  1.00  0.00     0.010 A 
ATOM     36  C   UNL A   1      42.159  22.407  28.428  1.00  0.00     0.010 A 
ATOM     37  C   UNL A   1      42.601  23.399  27.538  1.00  0.00    -0.014 A 
BRANCH  37  38
ATOM     38  C   UNL A   1      42.867  24.771  28.040  1.00  0.00     0.031 A 
ATOM     39  C   UNL A   1      44.261  25.181  28.422  1.00  0.00     0.074 A 
ATOM     40  C   UNL A   1      41.841  25.627  28.223  1.00  0.00     0.049 A 
ATOM     41  N   UNL A   1      44.681  26.314  28.925  1.00  0.00    -0.248 NA
ATOM     42  C   UNL A   1      45.319  24.174  28.239  1.00  0.00     0.031 C 
ATOM     43  C   UNL A   1      40.431  25.334  27.953  1.00  0.00     0.029 A 
ATOM     44  N   UNL A   1      41.824  26.918  28.691  1.00  0.00    -0.354 N 
ATOM     45  C   UNL A   1      46.044  26.151  29.132  1.00  0.00     0.074 A 
ATOM     46  C   UNL A   1      46.372  24.794  28.750  1.00  0.00     0.031 C 
ATOM     47  C   UNL A   1      39.693  26.421  28.230  1.00  0.00     0.029 A 
ATOM     48  C   UNL A   1      40.569  27.477  28.729  1.00  0.00     0.049 A 
ATOM     49  H   UNL A   1      42.637  27.399  28.971  1.00  0.00     0.167 HD
ATOM     50  C   UNL A   1      46.946  27.057  29.577  1.00  0.00     0.037 A 
ATOM     51  C   UNL A   1      40.169  28.702  29.121  1.00  0.00     0.037 A 
ATOM     52  C   UNL A   1      46.628  28.415  29.930  1.00  0.00     0.049 A 
ATOM     53  C   UNL A   1      41.193  29.692  29.605  1.00  0.00     0.074 A 
ATOM     54  C   UNL A   1      47.485  29.427  30.322  1.00  0.00     0.029 A 
ATOM     55  N   UNL A   1      45.348  28.949  29.934  1.00  0.00    -0.354 N 
ATOM     56  N   UNL A   1      42.491  29.550  29.717  1.00  0.00    -0.248 NA
ATOM     57  C   UNL A   1      40.696  31.015  30.009  1.00  0.00     0.031 C 
ATOM     58  C   UNL A   1      46.720  30.565  30.601  1.00  0.00     0.029 A 
ATOM     59  C   UNL A   1      45.391  30.272  30.341  1.00  0.00     0.049 A 
ATOM     60  H   UNL A   1      44.531  28.461  29.684  1.00  0.00     0.167 HD
ATOM     61  C   UNL A   1      42.968  30.770  30.177  1.00  0.00     0.074 A 
ATOM     62  C   UNL A   1      41.822  31.645  30.311  1.00  0.00     0.031 C 
ATOM     63  C   UNL A   1      44.243  31.134  30.461  1.00  0.00     0.037 A 
BRANCH  50  64
ATOM     64  C   UNL A   1      48.372  26.605  29.696  1.00  0.00     0.057 A 
ATOM     65  C   UNL A   1      49.298  26.812  28.664  1.00  0.00     0.134 A 
ATOM     66  C   UNL A   1      48.830  25.980  30.861  1.00  0.00     0.134 A 
ATOM     67  F   UNL A   1      48.919  27.394  27.517  1.00  0.00    -0.206 F 
ATOM     68  C   UNL A   1      50.623  26.387  28.778  1.00  0.00     0.040 A 
ATOM     69  C   UNL A   1      50.158  25.573  30.997  1.00  0.00     0.040 A 
ATOM     70  F   UNL A   1      47.997  25.757  31.889  1.00  0.00    -0.206 F 
ATOM     71  C   UNL A   1      51.058  25.771  29.949  1.00  0.00     0.006 A 
ENDBRANCH  50  64
BRANCH  51  72
ATOM     72  C   UNL A   1      38.735  29.079  29.046  1.00  0.00     0.057 A 
ATOM     73  C   UNL A   1      38.183  29.570  27.857  1.00  0.00     0.134 A 
ATOM     74  C   UNL A   1      37.890  28.976  30.156  1.00  0.00     0.134 A 
ATOM     75  F   UNL A   1      38.947  29.711  26.766  1.00  0.00    -0.206 F 
ATOM     76  C   UNL A   1      36.846  29.964  27.781  1.00  0.00     0.040 A 
ATOM     77  C   UNL A   1      36.546  29.345  30.087  1.00  0.00     0.040 A 
ATOM     78  F   UNL A   1      38.358  28.508  31.323  1.00  0.00    -0.206 F 
ATOM     79  C   UNL A   1      36.022  29.847  28.898  1.00  0.00     0.006 A 
ENDBRANCH  51  72
BRANCH  63  80
ATOM     80  C   UNL A   1      44.471  32.546  30.911  1.00  0.00     0.057 A 
ATOM     81  C   UNL A   1      44.505  32.893  32.268  1.00  0.00     0.134 A 
ATOM     82  C   UNL A   1      44.702  33.563  29.976  1.00  0.00     0.134 A 
ATOM     83  F   UNL A   1      44.278  31.968  33.212  1.00  0.00    -0.206 F 
ATOM     84  C   UNL A   1      44.742  34.207  32.677  1.00  0.00     0.040 A 
ATOM     85  C   UNL A   1      44.964  34.874  30.373  1.00  0.00     0.040 A 
ATOM     86  F   UNL A   1      44.690  33.295  28.661  1.00  0.00    -0.206 F 
ATOM     87  C   UNL A   1      44.980  35.200  31.728  1.00  0.00     0.006 A 
ENDBRANCH  63  80
ENDBRANCH  37  38
ENDBRANCH  29  32
ENDBRANCH  27  28
ENDBRANCH  26  27
ENDBRANCH  25  26
ENDBRANCH   1  25
TORSDOF 17
ENDMDL
MODEL 2
REMARK VINA RESULT:     -10.7      4.648      9.418
REMARK SMILES CCC(CC)([NH2+]Cc1ccc(Cl)cc1[N+](=O)[O-])C(=O)NCCCCNC(=O)c1ccc(-c2c3nc(c(-c4c(F)cccc4F)c4ccc([nH]4)c(-c4c(F)cccc4F)c4nc(c(-c5c(F)cccc5F)c5ccc2[nH]5)C=C4)C=C3)cc1
REMARK SMILES IDX 21 1 20 2 18 3 19 4 3 6 2 7 1 8 4 9 5 10 6 11 7 14 8 15 9 16
REMARK SMILES IDX 14 17 10 18 13 19 11 20 12 21 15 22 16 23 17 24 22 25 23 26
REMARK SMILES IDX 24 27 25 28 26 29 27 31 28 32 29 33 81 34 30 35 80 36 31 37
REMARK SMILES IDX 32 38 33 39 74 40 34 41 79 42 73 43 75 44 35 45 78 46 72 47
REMARK SMILES IDX 71 48 36 50 62 51 45 52 61 53 46 54 49 55 60 56 76 57 47 58
REMARK SMILES IDX 48 59 59 61 77 62 50 63 37 64 38 65 43 66 39 67 40 68 42 69
REMARK SMILES IDX 44 70 41 71 63 72 64 73 69 74 65 75 66 76 68 77 70 78 67 79
REMARK SMILES IDX 51 80 52 81 57 82 53 83 54 84 56 85 58 86 55 87
REMARK H PARENT 20 5 6 12 6 13 25 30 75 49 49 60
REMARK Flexibility Score: inf
ROOT
ATOM      1  C   UNL A   1      30.347  31.032  25.107  1.00  0.00     0.116 C 
ENDROOT
BRANCH   1   2
ATOM      2  N   UNL A   1      31.310  30.062  24.619  1.00  0.00    -0.351 N 
ATOM      3  C   UNL A   1      30.889  28.780  24.320  1.00  0.00     0.281 C 
ATOM      4  O   UNL A   1      29.946  28.612  23.548  1.00  0.00    -0.268 OA
ATOM      5  H   UNL A   1      32.254  30.314  24.502  1.00  0.00     0.163 HD
BRANCH   3   6
ATOM      6  C   UNL A   1      31.717  27.581  24.928  1.00  0.00     0.175 C 
BRANCH   6   7
ATOM      7  C   UNL A   1      31.108  27.249  26.328  1.00  0.00     0.076 C 
ATOM      8  C   UNL A   1      31.719  27.998  27.517  1.00  0.00     0.011 C 
ENDBRANCH   6   7
BRANCH   6   9
ATOM      9  C   UNL A   1      33.201  28.012  25.062  1.00  0.00     0.076 C 
ATOM     10  C   UNL A   1      34.012  28.018  23.770  1.00  0.00     0.011 C 
ENDBRANCH   6   9
BRANCH   6  11
ATOM     11  N   UNL A   1      31.577  26.335  24.109  1.00  0.00    -0.330 N 
ATOM     12  H   UNL A   1      32.506  25.918  24.055  1.00  0.00     0.347 HD
ATOM     13  H   UNL A   1      31.152  26.679  23.248  1.00  0.00     0.347 HD
BRANCH  11  14
ATOM     14  C   UNL A   1      30.664  25.266  24.513  1.00  0.00     0.305 C 
BRANCH  14  15
ATOM     15  C   UNL A   1      31.142  23.834  24.450  1.00  0.00     0.084 A 
ATOM     16  C   UNL A   1      31.634  23.323  23.239  1.00  0.00     0.018 A 
ATOM     17  C   UNL A   1      31.220  22.981  25.574  1.00  0.00     0.279 A 
ATOM     18  C   UNL A   1      32.163  22.027  23.168  1.00  0.00     0.021 A 
ATOM     19  C   UNL A   1      31.717  21.675  25.512  1.00  0.00     0.106 A 
ATOM     20  C   UNL A   1      32.194  21.209  24.297  1.00  0.00     0.047 A 
ATOM     21  Cl  UNL A   1      32.863  19.629  24.201  1.00  0.00    -0.084 Cl
BRANCH  17  22
ATOM     22  N   UNL A   1      30.901  23.455  26.902  1.00  0.00     0.063 N 
ATOM     23  O   UNL A   1      31.847  23.895  27.564  1.00  0.00    -0.258 OA
ATOM     24  O   UNL A   1      29.732  23.351  27.285  1.00  0.00    -0.258 OA
ENDBRANCH  17  22
ENDBRANCH  14  15
ENDBRANCH  11  14
ENDBRANCH   6  11
ENDBRANCH   3   6
ENDBRANCH   1   2
BRANCH   1  25
ATOM     25  C   UNL A   1      30.970  31.996  26.126  1.00  0.00     0.023 C 
BRANCH  25  26
ATOM     26  C   UNL A   1      32.180  31.413  26.852  1.00  0.00     0.023 C 
BRANCH  26  27
ATOM     27  C   UNL A   1      33.233  32.415  27.312  1.00  0.00     0.116 C 
BRANCH  27  28
ATOM     28  N   UNL A   1      32.707  33.724  27.663  1.00  0.00    -0.352 N 
ATOM     29  C   UNL A   1      33.180  34.610  28.620  1.00  0.00     0.251 C 
ATOM     30  H   UNL A   1      31.916  34.020  27.156  1.00  0.00     0.163 HD
ATOM     31  O   UNL A   1      32.649  35.673  28.830  1.00  0.00    -0.269 OA
BRANCH  29  32
ATOM     32  C   UNL A   1      34.351  34.183  29.423  1.00  0.00     0.039 A 
ATOM     33  C   UNL A   1      34.137  33.398  30.558  1.00  0.00     0.014 A 
ATOM     34  C   UNL A   1      35.646  34.452  28.974  1.00  0.00     0.014 A 
ATOM     35  C   UNL A   1      35.229  32.789  31.180  1.00  0.00     0.010 A 
ATOM     36  C   UNL A   1      36.720  33.782  29.548  1.00  0.00     0.010 A 
ATOM     37  C   UNL A   1      36.521  32.927  30.643  1.00  0.00    -0.014 A 
BRANCH  37  38
ATOM     38  C   UNL A   1      37.665  32.153  31.190  1.00  0.00     0.031 A 
ATOM     39  C   UNL A   1      38.208  32.467  32.556  1.00  0.00     0.074 A 
ATOM     40  C   UNL A   1      38.265  31.217  30.428  1.00  0.00     0.049 A 
ATOM     41  N   UNL A   1      39.229  31.938  33.180  1.00  0.00    -0.248 NA
ATOM     42  C   UNL A   1      37.530  33.535  33.307  1.00  0.00     0.031 C 
ATOM     43  C   UNL A   1      37.878  30.860  29.059  1.00  0.00     0.029 A 
ATOM     44  N   UNL A   1      39.337  30.400  30.690  1.00  0.00    -0.354 N 
ATOM     45  C   UNL A   1      39.324  32.617  34.387  1.00  0.00     0.074 A 
ATOM     46  C   UNL A   1      38.292  33.631  34.386  1.00  0.00     0.031 C 
ATOM     47  C   UNL A   1      38.679  29.877  28.618  1.00  0.00     0.029 A 
ATOM     48  C   UNL A   1      39.657  29.557  29.653  1.00  0.00     0.049 A 
ATOM     49  H   UNL A   1      39.828  30.415  31.543  1.00  0.00     0.167 HD
ATOM     50  C   UNL A   1      40.178  32.400  35.415  1.00  0.00     0.037 A 
ATOM     51  C   UNL A   1      40.630  28.631  29.548  1.00  0.00     0.037 A 
ATOM     52  C   UNL A   1      41.186  31.373  35.431  1.00  0.00     0.049 A 
ATOM     53  C   UNL A   1      41.560  28.404  30.707  1.00  0.00     0.074 A 
ATOM     54  C   UNL A   1      42.050  31.030  36.456  1.00  0.00     0.029 A 
ATOM     55  N   UNL A   1      41.465  30.525  34.370  1.00  0.00    -0.354 N 
ATOM     56  N   UNL A   1      41.585  28.999  31.875  1.00  0.00    -0.248 NA
ATOM     57  C   UNL A   1      42.594  27.373  30.536  1.00  0.00     0.031 C 
ATOM     58  C   UNL A   1      42.879  29.998  36.001  1.00  0.00     0.029 A 
ATOM     59  C   UNL A   1      42.502  29.672  34.708  1.00  0.00     0.049 A 
ATOM     60  H   UNL A   1      40.995  30.529  33.505  1.00  0.00     0.167 HD
ATOM     61  C   UNL A   1      42.615  28.396  32.586  1.00  0.00     0.074 A 
ATOM     62  C   UNL A   1      43.183  27.381  31.723  1.00  0.00     0.031 C 
ATOM     63  C   UNL A   1      43.050  28.660  33.843  1.00  0.00     0.037 A 
BRANCH  50  64
ATOM     64  C   UNL A   1      40.047  33.289  36.617  1.00  0.00     0.057 A 
ATOM     65  C   UNL A   1      39.170  32.985  37.666  1.00  0.00     0.134 A 
ATOM     66  C   UNL A   1      40.823  34.448  36.737  1.00  0.00     0.134 A 
ATOM     67  F   UNL A   1      38.389  31.897  37.606  1.00  0.00    -0.206 F 
ATOM     68  C   UNL A   1      39.049  33.817  38.780  1.00  0.00     0.040 A 
ATOM     69  C   UNL A   1      40.730  35.274  37.858  1.00  0.00     0.040 A 
ATOM     70  F   UNL A   1      41.688  34.793  35.771  1.00  0.00    -0.206 F 
ATOM     71  C   UNL A   1      39.835  34.963  38.881  1.00  0.00     0.006 A 
ENDBRANCH  50  64
BRANCH  51  72
ATOM     72  C   UNL A   1      40.758  27.820  28.311  1.00  0.00     0.057 A 
ATOM     73  C   UNL A   1      41.510  28.282  27.224  1.00  0.00     0.134 A 
ATOM     74  C   UNL A   1      40.123  26.580  28.176  1.00  0.00     0.134 A 
ATOM     75  F   UNL A   1      42.124  29.471  27.285  1.00  0.00    -0.206 F 
ATOM     76  C   UNL A   1      41.610  27.548  26.040  1.00  0.00     0.040 A 
ATOM     77  C   UNL A   1      40.233  25.827  27.007  1.00  0.00     0.040 A 
ATOM     78  F   UNL A   1      39.392  26.081  29.184  1.00  0.00    -0.206 F 
ATOM     79  C   UNL A   1      40.973  26.314  25.931  1.00  0.00     0.006 A 
ENDBRANCH  51  72
BRANCH  63  80
ATOM     80  C   UNL A   1      44.171  27.816  34.373  1.00  0.00     0.057 A 
ATOM     81  C   UNL A   1      45.507  28.225  34.289  1.00  0.00     0.134 A 
ATOM     82  C   UNL A   1      43.904  26.599  35.014  1.00  0.00     0.134 A 
ATOM     83  F   UNL A   1      45.830  29.373  33.676  1.00  0.00    -0.206 F 
ATOM     84  C   UNL A   1      46.542  27.443  34.808  1.00  0.00     0.040 A 
ATOM     85  C   UNL A   1      44.926  25.822  35.558  1.00  0.00     0.040 A 
ATOM     86  F   UNL A   1      42.644  26.155  35.134  1.00  0.00    -0.206 F 
ATOM     87  C   UNL A   1      46.251  26.241  35.451  1.00  0.00     0.006 A 
ENDBRANCH  63  80
ENDBRANCH  37  38
ENDBRANCH  29  32
ENDBRANCH  27  28
ENDBRANCH  26  27
ENDBRANCH  25  26
ENDBRANCH   1  25
TORSDOF 17
ENDMDL
MODEL 3
REMARK VINA RESULT:     -10.6      4.482      9.242
REMARK SMILES CCC(CC)([NH2+]Cc1ccc(Cl)cc1[N+](=O)[O-])C(=O)NCCCCNC(=O)c1ccc(-c2c3nc(c(-c4c(F)cccc4F)c4ccc([nH]4)c(-c4c(F)cccc4F)c4nc(c(-c5c(F)cccc5F)c5ccc2[nH]5)C=C4)C=C3)cc1
REMARK SMILES IDX 21 1 20 2 18 3 19 4 3 6 2 7 1 8 4 9 5 10 6 11 7 14 8 15 9 16
REMARK SMILES IDX 14 17 10 18 13 19 11 20 12 21 15 22 16 23 17 24 22 25 23 26
REMARK SMILES IDX 24 27 25 28 26 29 27 31 28 32 29 33 81 34 30 35 80 36 31 37
REMARK SMILES IDX 32 38 33 39 74 40 34 41 79 42 73 43 75 44 35 45 78 46 72 47
REMARK SMILES IDX 71 48 36 50 62 51 45 52 61 53 46 54 49 55 60 56 76 57 47 58
REMARK SMILES IDX 48 59 59 61 77 62 50 63 37 64 38 65 43 66 39 67 40 68 42 69
REMARK SMILES IDX 44 70 41 71 63 72 64 73 69 74 65 75 66 76 68 77 70 78 67 79
REMARK SMILES IDX 51 80 52 81 57 82 53 83 54 84 56 85 58 86 55 87
REMARK H PARENT 20 5 6 12 6 13 25 30 75 49 49 60
REMARK Flexibility Score: inf
ROOT
ATOM      1  C   UNL A   1      31.903  28.711  27.009  1.00  0.00     0.116 C 
ENDROOT
BRANCH   1   2
ATOM      2  N   UNL A   1      31.402  27.756  26.038  1.00  0.00    -0.351 N 
ATOM      3  C   UNL A   1      32.278  27.188  25.131  1.00  0.00     0.281 C 
ATOM      4  O   UNL A   1      33.297  26.629  25.535  1.00  0.00    -0.268 OA
ATOM      5  H   UNL A   1      30.448  27.515  26.023  1.00  0.00     0.163 HD
BRANCH   3   6
ATOM      6  C   UNL A   1      31.867  27.213  23.607  1.00  0.00     0.175 C 
BRANCH   6   7
ATOM      7  C   UNL A   1      33.142  26.881  22.769  1.00  0.00     0.076 C 
ATOM      8  C   UNL A   1      32.903  26.128  21.456  1.00  0.00     0.011 C 
ENDBRANCH   6   7
BRANCH   6   9
ATOM      9  C   UNL A   1      31.329  28.624  23.254  1.00  0.00     0.076 C 
ATOM     10  C   UNL A   1      29.852  28.699  22.877  1.00  0.00     0.011 C 
ENDBRANCH   6   9
BRANCH   6  11
ATOM     11  N   UNL A   1      30.868  26.145  23.282  1.00  0.00    -0.330 N 
ATOM     12  H   UNL A   1      31.275  25.587  22.532  1.00  0.00     0.347 HD
ATOM     13  H   UNL A   1      30.025  26.682  23.079  1.00  0.00     0.347 HD
BRANCH  11  14
ATOM     14  C   UNL A   1      30.412  25.203  24.302  1.00  0.00     0.305 C 
BRANCH  14  15
ATOM     15  C   UNL A   1      31.023  23.821  24.348  1.00  0.00     0.084 A 
ATOM     16  C   UNL A   1      31.583  23.276  23.182  1.00  0.00     0.018 A 
ATOM     17  C   UNL A   1      31.159  23.060  25.530  1.00  0.00     0.279 A 
ATOM     18  C   UNL A   1      32.233  22.034  23.210  1.00  0.00     0.021 A 
ATOM     19  C   UNL A   1      31.777  21.807  25.567  1.00  0.00     0.106 A 
ATOM     20  C   UNL A   1      32.319  21.304  24.395  1.00  0.00     0.047 A 
ATOM     21  Cl  UNL A   1      33.135  19.792  24.420  1.00  0.00    -0.084 Cl
BRANCH  17  22
ATOM     22  N   UNL A   1      30.773  23.594  26.817  1.00  0.00     0.063 N 
ATOM     23  O   UNL A   1      29.807  23.052  27.363  1.00  0.00    -0.258 OA
ATOM     24  O   UNL A   1      31.403  24.564  27.251  1.00  0.00    -0.258 OA
ENDBRANCH  17  22
ENDBRANCH  14  15
ENDBRANCH  11  14
ENDBRANCH   6  11
ENDBRANCH   3   6
ENDBRANCH   1   2
BRANCH   1  25
ATOM     25  C   UNL A   1      32.527  29.940  26.336  1.00  0.00     0.023 C 
BRANCH  25  26
ATOM     26  C   UNL A   1      31.994  31.265  26.876  1.00  0.00     0.023 C 
BRANCH  26  27
ATOM     27  C   UNL A   1      33.040  32.269  27.345  1.00  0.00     0.116 C 
BRANCH  27  28
ATOM     28  N   UNL A   1      32.531  33.612  27.569  1.00  0.00    -0.352 N 
ATOM     29  C   UNL A   1      33.031  34.588  28.418  1.00  0.00     0.251 C 
ATOM     30  H   UNL A   1      31.730  33.860  27.052  1.00  0.00     0.163 HD
ATOM     31  O   UNL A   1      32.511  35.672  28.528  1.00  0.00    -0.269 OA
BRANCH  29  32
ATOM     32  C   UNL A   1      34.218  34.238  29.234  1.00  0.00     0.039 A 
ATOM     33  C   UNL A   1      34.028  33.553  30.436  1.00  0.00     0.014 A 
ATOM     34  C   UNL A   1      35.503  34.474  28.741  1.00  0.00     0.014 A 
ATOM     35  C   UNL A   1      35.134  33.004  31.089  1.00  0.00     0.010 A 
ATOM     36  C   UNL A   1      36.592  33.861  29.352  1.00  0.00     0.010 A 
ATOM     37  C   UNL A   1      36.416  33.102  30.520  1.00  0.00    -0.014 A 
BRANCH  37  38
ATOM     38  C   UNL A   1      37.574  32.384  31.112  1.00  0.00     0.031 A 
ATOM     39  C   UNL A   1      38.188  32.865  32.396  1.00  0.00     0.074 A 
ATOM     40  C   UNL A   1      38.121  31.341  30.455  1.00  0.00     0.049 A 
ATOM     41  N   UNL A   1      39.231  32.402  33.037  1.00  0.00    -0.248 NA
ATOM     42  C   UNL A   1      37.565  34.039  33.027  1.00  0.00     0.031 C 
ATOM     43  C   UNL A   1      37.661  30.813  29.167  1.00  0.00     0.029 A 
ATOM     44  N   UNL A   1      39.192  30.543  30.774  1.00  0.00    -0.354 N 
ATOM     45  C   UNL A   1      39.396  33.234  34.136  1.00  0.00     0.074 A 
ATOM     46  C   UNL A   1      38.381  34.261  34.046  1.00  0.00     0.031 C 
ATOM     47  C   UNL A   1      38.424  29.762  28.824  1.00  0.00     0.029 A 
ATOM     48  C   UNL A   1      39.448  29.562  29.846  1.00  0.00     0.049 A 
ATOM     49  H   UNL A   1      39.725  30.662  31.593  1.00  0.00     0.167 HD
ATOM     50  C   UNL A   1      40.296  33.138  35.142  1.00  0.00     0.037 A 
ATOM     51  C   UNL A   1      40.399  28.609  29.821  1.00  0.00     0.037 A 
ATOM     52  C   UNL A   1      41.288  32.101  35.249  1.00  0.00     0.049 A 
ATOM     53  C   UNL A   1      41.383  28.520  30.955  1.00  0.00     0.074 A 
ATOM     54  C   UNL A   1      42.197  31.879  36.268  1.00  0.00     0.029 A 
ATOM     55  N   UNL A   1      41.501  31.113  34.299  1.00  0.00    -0.354 N 
ATOM     56  N   UNL A   1      41.475  29.264  32.029  1.00  0.00    -0.248 NA
ATOM     57  C   UNL A   1      42.391  27.453  30.875  1.00  0.00     0.031 C 
ATOM     58  C   UNL A   1      42.987  30.778  35.918  1.00  0.00     0.029 A 
ATOM     59  C   UNL A   1      42.540  30.290  34.700  1.00  0.00     0.049 A 
ATOM     60  H   UNL A   1      40.989  31.011  33.465  1.00  0.00     0.167 HD
ATOM     61  C   UNL A   1      42.529  28.740  32.766  1.00  0.00     0.074 A 
ATOM     62  C   UNL A   1      43.038  27.607  32.022  1.00  0.00     0.031 C 
ATOM     63  C   UNL A   1      43.030  29.160  33.954  1.00  0.00     0.037 A 
BRANCH  50  64
ATOM     64  C   UNL A   1      40.239  34.182  36.218  1.00  0.00     0.057 A 
ATOM     65  C   UNL A   1      41.001  35.356  36.145  1.00  0.00     0.134 A 
ATOM     66  C   UNL A   1      39.398  34.024  37.325  1.00  0.00     0.134 A 
ATOM     67  F   UNL A   1      41.836  35.562  35.116  1.00  0.00    -0.206 F 
ATOM     68  C   UNL A   1      40.948  36.324  37.150  1.00  0.00     0.040 A 
ATOM     69  C   UNL A   1      39.317  34.996  38.324  1.00  0.00     0.040 A 
ATOM     70  F   UNL A   1      38.638  32.927  37.453  1.00  0.00    -0.206 F 
ATOM     71  C   UNL A   1      40.099  36.148  38.241  1.00  0.00     0.006 A 
ENDBRANCH  50  64
BRANCH  51  72
ATOM     72  C   UNL A   1      40.454  27.638  28.699  1.00  0.00     0.057 A 
ATOM     73  C   UNL A   1      41.261  27.877  27.580  1.00  0.00     0.134 A 
ATOM     74  C   UNL A   1      39.694  26.463  28.708  1.00  0.00     0.134 A 
ATOM     75  F   UNL A   1      41.996  28.995  27.505  1.00  0.00    -0.206 F 
ATOM     76  C   UNL A   1      41.294  26.992  26.501  1.00  0.00     0.040 A 
ATOM     77  C   UNL A   1      39.735  25.559  27.645  1.00  0.00     0.040 A 
ATOM     78  F   UNL A   1      38.905  26.175  29.753  1.00  0.00    -0.206 F 
ATOM     79  C   UNL A   1      40.532  25.826  26.534  1.00  0.00     0.006 A 
ENDBRANCH  51  72
BRANCH  63  80
ATOM     80  C   UNL A   1      44.162  28.370  34.540  1.00  0.00     0.057 A 
ATOM     81  C   UNL A   1      43.940  27.252  35.354  1.00  0.00     0.134 A 
ATOM     82  C   UNL A   1      45.491  28.708  34.250  1.00  0.00     0.134 A 
ATOM     83  F   UNL A   1      42.692  26.885  35.679  1.00  0.00    -0.206 F 
ATOM     84  C   UNL A   1      45.002  26.509  35.874  1.00  0.00     0.040 A 
ATOM     85  C   UNL A   1      46.558  27.959  34.744  1.00  0.00     0.040 A 
ATOM     86  F   UNL A   1      45.770  29.763  33.470  1.00  0.00    -0.206 F 
ATOM     87  C   UNL A   1      46.315  26.858  35.563  1.00  0.00     0.006 A 
ENDBRANCH  63  80
ENDBRANCH  37  38
ENDBRANCH  29  32
ENDBRANCH  27  28
ENDBRANCH  26  27
ENDBRANCH  25  26
ENDBRANCH   1  25
TORSDOF 17
ENDMDL
