MODEL 1
REMARK VINA RESULT:     -13.4      0.000      0.000
REMARK SMILES COc1ccc(-n2c(SCc3cn(-c4ccc(C(=O)NCCCCNC(=O)c5ccc(-c6c7nc(c(-c8c(F)cccc8F)c8ccc([nH]8)c(-c8c(F)cccc8F)c8nc(c(-c9c(F)cccc9F)c9ccc6[nH]9)C=C8)C=C7)cc5)cc4)nn3)nc3ccccc3c2=O)cc1
REMARK SMILES IDX 18 1 19 2 20 3 17 5 14 6 15 7 83 8 16 9 82 10 13 11 11 12
REMARK SMILES IDX 12 13 85 14 84 15 10 16 9 17 8 18 7 19 93 20 86 21 92 22
REMARK SMILES IDX 94 23 87 24 91 25 88 26 90 27 89 28 6 29 3 30 4 31 96 32
REMARK SMILES IDX 5 33 95 34 2 35 1 36 21 37 22 38 23 39 24 40 25 41 26 42
REMARK SMILES IDX 27 44 28 45 29 46 81 47 30 48 80 49 31 50 32 51 33 52 74 53
REMARK SMILES IDX 34 54 79 55 73 56 75 57 35 58 78 59 72 60 71 61 36 63 62 64
REMARK SMILES IDX 45 65 61 66 46 67 49 68 60 69 76 70 47 71 48 72 59 74 77 75
REMARK SMILES IDX 50 76 37 77 38 78 43 79 39 80 40 81 42 82 44 83 41 84 63 85
REMARK SMILES IDX 64 86 69 87 65 88 66 89 68 90 70 91 67 92 51 93 52 94 57 95
REMARK SMILES IDX 53 96 54 97 56 98 58 99 55 100
REMARK H PARENT 20 4 25 43 75 62 49 73
REMARK Flexibility Score: inf
ROOT
ATOM      1  C   UNL A   1      41.956  20.864  27.516  1.00  0.00     0.251 C 
ATOM      2  O   UNL A   1      42.319  21.698  28.349  1.00  0.00    -0.269 OA
ATOM      3  N   UNL A   1      42.761  19.767  27.359  1.00  0.00    -0.352 N 
ATOM      4  H   UNL A   1      43.578  19.804  27.907  1.00  0.00     0.163 HD
ENDROOT
BRANCH   1   5
ATOM      5  C   UNL A   1      40.679  21.098  26.780  1.00  0.00     0.039 A 
ATOM      6  C   UNL A   1      38.328  21.762  25.434  1.00  0.00     0.066 A 
ATOM      7  C   UNL A   1      38.977  22.746  26.169  1.00  0.00     0.029 A 
ATOM      8  C   UNL A   1      38.817  20.460  25.361  1.00  0.00     0.029 A 
ATOM      9  C   UNL A   1      40.149  22.405  26.843  1.00  0.00     0.016 A 
ATOM     10  C   UNL A   1      40.009  20.143  26.009  1.00  0.00     0.016 A 
BRANCH   6  11
ATOM     11  N   UNL A   1      37.103  22.059  24.844  1.00  0.00    -0.220 N 
ATOM     12  C   UNL A   1      35.442  23.126  23.958  1.00  0.00     0.093 A 
ATOM     13  C   UNL A   1      36.768  23.258  24.293  1.00  0.00     0.141 A 
ATOM     14  N   UNL A   1      35.018  21.878  24.341  1.00  0.00    -0.134 NA
ATOM     15  N   UNL A   1      36.044  21.235  24.885  1.00  0.00    -0.062 NA
BRANCH  12  16
ATOM     16  C   UNL A   1      34.491  24.071  23.346  1.00  0.00     0.138 C 
BRANCH  16  17
ATOM     17  S   UNL A   1      33.980  25.436  24.371  1.00  0.00    -0.081 SA
BRANCH  17  18
ATOM     18  C   UNL A   1      32.226  25.618  24.144  1.00  0.00     0.176 A 
ATOM     19  N   UNL A   1      31.503  25.850  25.304  1.00  0.00    -0.255 N 
ATOM     20  C   UNL A   1      30.695  24.815  25.748  1.00  0.00     0.266 A 
ATOM     21  N   UNL A   1      31.727  24.877  23.198  1.00  0.00    -0.223 NA
ATOM     22  C   UNL A   1      31.001  23.523  25.077  1.00  0.00     0.066 A 
ATOM     23  O   UNL A   1      29.827  24.873  26.612  1.00  0.00    -0.268 OA
ATOM     24  C   UNL A   1      31.384  23.615  23.728  1.00  0.00     0.079 A 
ATOM     25  C   UNL A   1      31.207  22.348  25.791  1.00  0.00     0.016 A 
ATOM     26  C   UNL A   1      31.805  22.479  23.042  1.00  0.00     0.029 A 
ATOM     27  C   UNL A   1      31.757  21.247  25.127  1.00  0.00     0.001 A 
ATOM     28  C   UNL A   1      32.014  21.297  23.750  1.00  0.00     0.002 A 
BRANCH  19  29
ATOM     29  C   UNL A   1      31.302  27.193  25.719  1.00  0.00     0.052 A 
ATOM     30  C   UNL A   1      31.935  29.825  26.393  1.00  0.00     0.119 A 
ATOM     31  C   UNL A   1      31.426  29.543  25.126  1.00  0.00     0.048 A 
ATOM     32  C   UNL A   1      31.938  28.836  27.373  1.00  0.00     0.048 A 
ATOM     33  C   UNL A   1      31.130  28.219  24.777  1.00  0.00     0.030 A 
ATOM     34  C   UNL A   1      31.598  27.522  27.040  1.00  0.00     0.030 A 
BRANCH  30  35
ATOM     35  O   UNL A   1      32.394  31.090  26.640  1.00  0.00    -0.497 OA
ATOM     36  C   UNL A   1      31.342  32.067  26.643  1.00  0.00     0.278 C 
ENDBRANCH  30  35
ENDBRANCH  19  29
ENDBRANCH  17  18
ENDBRANCH  16  17
ENDBRANCH  12  16
ENDBRANCH   6  11
ENDBRANCH   1   5
BRANCH   3  37
ATOM     37  C   UNL A   1      42.669  18.564  26.555  1.00  0.00     0.116 C 
BRANCH  37  38
ATOM     38  C   UNL A   1      43.564  18.638  25.313  1.00  0.00     0.023 C 
BRANCH  38  39
ATOM     39  C   UNL A   1      45.075  18.552  25.581  1.00  0.00     0.023 C 
BRANCH  39  40
ATOM     40  C   UNL A   1      45.850  19.841  25.326  1.00  0.00     0.116 C 
BRANCH  40  41
ATOM     41  N   UNL A   1      45.600  20.414  24.000  1.00  0.00    -0.352 N 
ATOM     42  C   UNL A   1      44.845  21.526  23.689  1.00  0.00     0.251 C 
ATOM     43  H   UNL A   1      46.022  19.949  23.242  1.00  0.00     0.163 HD
ATOM     44  O   UNL A   1      44.366  21.679  22.564  1.00  0.00    -0.269 OA
BRANCH  42  45
ATOM     45  C   UNL A   1      44.643  22.551  24.722  1.00  0.00     0.039 A 
ATOM     46  C   UNL A   1      45.660  22.956  25.590  1.00  0.00     0.014 A 
ATOM     47  C   UNL A   1      43.386  23.144  24.768  1.00  0.00     0.014 A 
ATOM     48  C   UNL A   1      45.414  24.024  26.452  1.00  0.00     0.010 A 
ATOM     49  C   UNL A   1      43.209  24.303  25.470  1.00  0.00     0.010 A 
ATOM     50  C   UNL A   1      44.188  24.702  26.370  1.00  0.00    -0.014 A 
BRANCH  50  51
ATOM     51  C   UNL A   1      43.930  25.919  27.128  1.00  0.00     0.031 A 
ATOM     52  C   UNL A   1      44.849  27.041  26.807  1.00  0.00     0.074 A 
ATOM     53  C   UNL A   1      42.809  26.083  27.867  1.00  0.00     0.049 A 
ATOM     54  N   UNL A   1      45.748  27.556  27.577  1.00  0.00    -0.248 NA
ATOM     55  C   UNL A   1      44.891  27.550  25.425  1.00  0.00     0.031 C 
ATOM     56  C   UNL A   1      41.671  25.168  28.019  1.00  0.00     0.029 A 
ATOM     57  N   UNL A   1      42.397  27.175  28.564  1.00  0.00    -0.354 N 
ATOM     58  C   UNL A   1      46.309  28.607  26.860  1.00  0.00     0.074 A 
ATOM     59  C   UNL A   1      45.895  28.428  25.493  1.00  0.00     0.031 C 
ATOM     60  C   UNL A   1      40.617  25.832  28.546  1.00  0.00     0.029 A 
ATOM     61  C   UNL A   1      41.051  27.161  28.925  1.00  0.00     0.049 A 
ATOM     62  H   UNL A   1      43.002  27.917  28.796  1.00  0.00     0.167 HD
ATOM     63  C   UNL A   1      46.849  29.679  27.504  1.00  0.00     0.037 A 
ATOM     64  C   UNL A   1      40.352  28.191  29.468  1.00  0.00     0.037 A 
ATOM     65  C   UNL A   1      47.053  29.389  28.904  1.00  0.00     0.049 A 
ATOM     66  C   UNL A   1      41.345  29.131  30.050  1.00  0.00     0.074 A 
ATOM     67  C   UNL A   1      47.770  28.436  29.601  1.00  0.00     0.029 A 
ATOM     68  N   UNL A   1      46.131  29.888  29.793  1.00  0.00    -0.354 N 
ATOM     69  N   UNL A   1      42.087  28.842  31.083  1.00  0.00    -0.248 NA
ATOM     70  C   UNL A   1      41.860  30.180  29.183  1.00  0.00     0.031 C 
ATOM     71  C   UNL A   1      46.922  28.061  30.685  1.00  0.00     0.029 A 
ATOM     72  C   UNL A   1      45.785  28.870  30.642  1.00  0.00     0.049 A 
ATOM     73  H   UNL A   1      45.785  30.809  29.816  1.00  0.00     0.167 HD
ATOM     74  C   UNL A   1      43.345  29.328  30.755  1.00  0.00     0.074 A 
ATOM     75  C   UNL A   1      43.126  30.206  29.605  1.00  0.00     0.031 C 
ATOM     76  C   UNL A   1      44.477  28.738  31.241  1.00  0.00     0.037 A 
BRANCH  63  77
ATOM     77  C   UNL A   1      46.819  31.095  26.987  1.00  0.00     0.057 A 
ATOM     78  C   UNL A   1      47.997  31.863  27.035  1.00  0.00     0.134 A 
ATOM     79  C   UNL A   1      45.639  31.824  26.735  1.00  0.00     0.134 A 
ATOM     80  F   UNL A   1      49.184  31.287  27.280  1.00  0.00    -0.206 F 
ATOM     81  C   UNL A   1      47.989  33.258  26.926  1.00  0.00     0.040 A 
ATOM     82  C   UNL A   1      45.627  33.211  26.572  1.00  0.00     0.040 A 
ATOM     83  F   UNL A   1      44.428  31.257  26.739  1.00  0.00    -0.206 F 
ATOM     84  C   UNL A   1      46.799  33.939  26.701  1.00  0.00     0.006 A 
ENDBRANCH  63  77
BRANCH  64  85
ATOM     85  C   UNL A   1      38.941  28.584  29.230  1.00  0.00     0.057 A 
ATOM     86  C   UNL A   1      38.018  28.640  30.286  1.00  0.00     0.134 A 
ATOM     87  C   UNL A   1      38.537  29.199  28.032  1.00  0.00     0.134 A 
ATOM     88  F   UNL A   1      38.320  28.112  31.482  1.00  0.00    -0.206 F 
ATOM     89  C   UNL A   1      36.786  29.301  30.171  1.00  0.00     0.040 A 
ATOM     90  C   UNL A   1      37.308  29.858  27.902  1.00  0.00     0.040 A 
ATOM     91  F   UNL A   1      39.356  29.262  26.973  1.00  0.00    -0.206 F 
ATOM     92  C   UNL A   1      36.435  29.927  28.980  1.00  0.00     0.006 A 
ENDBRANCH  64  85
BRANCH  76  93
ATOM     93  C   UNL A   1      44.331  27.710  32.330  1.00  0.00     0.057 A 
ATOM     94  C   UNL A   1      44.187  26.330  32.112  1.00  0.00     0.134 A 
ATOM     95  C   UNL A   1      44.496  28.120  33.657  1.00  0.00     0.134 A 
ATOM     96  F   UNL A   1      44.124  25.825  30.874  1.00  0.00    -0.206 F 
ATOM     97  C   UNL A   1      44.165  25.411  33.166  1.00  0.00     0.040 A 
ATOM     98  C   UNL A   1      44.510  27.210  34.717  1.00  0.00     0.040 A 
ATOM     99  F   UNL A   1      44.696  29.416  33.942  1.00  0.00    -0.206 F 
ATOM    100  C   UNL A   1      44.333  25.851  34.474  1.00  0.00     0.006 A 
ENDBRANCH  76  93
ENDBRANCH  50  51
ENDBRANCH  42  45
ENDBRANCH  40  41
ENDBRANCH  39  40
ENDBRANCH  38  39
ENDBRANCH  37  38
ENDBRANCH   3  37
TORSDOF 17
ENDMDL
MODEL 2
REMARK VINA RESULT:     -13.0      1.547      2.080
REMARK SMILES COc1ccc(-n2c(SCc3cn(-c4ccc(C(=O)NCCCCNC(=O)c5ccc(-c6c7nc(c(-c8c(F)cccc8F)c8ccc([nH]8)c(-c8c(F)cccc8F)c8nc(c(-c9c(F)cccc9F)c9ccc6[nH]9)C=C8)C=C7)cc5)cc4)nn3)nc3ccccc3c2=O)cc1
REMARK SMILES IDX 18 1 19 2 20 3 17 5 14 6 15 7 83 8 16 9 82 10 13 11 11 12
REMARK SMILES IDX 12 13 85 14 84 15 10 16 9 17 8 18 7 19 93 20 86 21 92 22
REMARK SMILES IDX 94 23 87 24 91 25 88 26 90 27 89 28 6 29 3 30 4 31 96 32
REMARK SMILES IDX 5 33 95 34 2 35 1 36 21 37 22 38 23 39 24 40 25 41 26 42
REMARK SMILES IDX 27 44 28 45 29 46 81 47 30 48 80 49 31 50 32 51 33 52 74 53
REMARK SMILES IDX 34 54 79 55 73 56 75 57 35 58 78 59 72 60 71 61 36 63 62 64
REMARK SMILES IDX 45 65 61 66 46 67 49 68 60 69 76 70 47 71 48 72 59 74 77 75
REMARK SMILES IDX 50 76 37 77 38 78 43 79 39 80 40 81 42 82 44 83 41 84 63 85
REMARK SMILES IDX 64 86 69 87 65 88 66 89 68 90 70 91 67 92 51 93 52 94 57 95
REMARK SMILES IDX 53 96 54 97 56 98 58 99 55 100
REMARK H PARENT 20 4 25 43 75 62 49 73
REMARK Flexibility Score: inf
ROOT
ATOM      1  C   UNL A   1      41.256  19.898  27.278  1.00  0.00     0.251 C 
ATOM      2  O   UNL A   1      41.083  19.484  28.426  1.00  0.00    -0.269 OA
ATOM      3  N   UNL A   1      42.422  19.525  26.662  1.00  0.00    -0.352 N 
ATOM      4  H   UNL A   1      43.017  19.001  27.246  1.00  0.00     0.163 HD
ENDROOT
BRANCH   1   5
ATOM      5  C   UNL A   1      40.190  20.734  26.652  1.00  0.00     0.039 A 
ATOM      6  C   UNL A   1      38.094  22.098  25.415  1.00  0.00     0.066 A 
ATOM      7  C   UNL A   1      38.253  20.742  25.157  1.00  0.00     0.029 A 
ATOM      8  C   UNL A   1      38.956  22.787  26.264  1.00  0.00     0.029 A 
ATOM      9  C   UNL A   1      39.305  20.068  25.775  1.00  0.00     0.016 A 
ATOM     10  C   UNL A   1      39.981  22.093  26.904  1.00  0.00     0.016 A 
BRANCH   6  11
ATOM     11  N   UNL A   1      37.116  22.805  24.724  1.00  0.00    -0.220 N 
ATOM     12  C   UNL A   1      35.458  24.113  24.252  1.00  0.00     0.093 A 
ATOM     13  C   UNL A   1      36.357  23.807  25.245  1.00  0.00     0.141 A 
ATOM     14  N   UNL A   1      35.681  23.274  23.188  1.00  0.00    -0.134 NA
ATOM     15  N   UNL A   1      36.698  22.476  23.491  1.00  0.00    -0.062 NA
BRANCH  12  16
ATOM     16  C   UNL A   1      34.358  25.092  24.198  1.00  0.00     0.138 C 
BRANCH  16  17
ATOM     17  S   UNL A   1      33.281  24.978  22.783  1.00  0.00    -0.081 SA
BRANCH  17  18
ATOM     18  C   UNL A   1      31.664  24.572  23.402  1.00  0.00     0.176 A 
ATOM     19  N   UNL A   1      31.316  25.196  24.591  1.00  0.00    -0.255 N 
ATOM     20  C   UNL A   1      31.252  24.389  25.718  1.00  0.00     0.266 A 
ATOM     21  N   UNL A   1      31.292  23.347  23.171  1.00  0.00    -0.223 NA
ATOM     22  C   UNL A   1      31.887  23.061  25.506  1.00  0.00     0.066 A 
ATOM     23  O   UNL A   1      30.769  24.679  26.807  1.00  0.00    -0.268 OA
ATOM     24  C   UNL A   1      31.745  22.517  24.219  1.00  0.00     0.079 A 
ATOM     25  C   UNL A   1      32.816  22.534  26.396  1.00  0.00     0.016 A 
ATOM     26  C   UNL A   1      32.401  21.336  23.882  1.00  0.00     0.029 A 
ATOM     27  C   UNL A   1      33.570  21.425  26.001  1.00  0.00     0.001 A 
ATOM     28  C   UNL A   1      33.334  20.802  24.769  1.00  0.00     0.002 A 
BRANCH  19  29
ATOM     29  C   UNL A   1      30.665  26.456  24.530  1.00  0.00     0.052 A 
ATOM     30  C   UNL A   1      29.959  28.967  23.542  1.00  0.00     0.119 A 
ATOM     31  C   UNL A   1      29.109  27.883  23.332  1.00  0.00     0.048 A 
ATOM     32  C   UNL A   1      31.045  28.838  24.404  1.00  0.00     0.048 A 
ATOM     33  C   UNL A   1      29.473  26.615  23.807  1.00  0.00     0.030 A 
ATOM     34  C   UNL A   1      31.385  27.584  24.917  1.00  0.00     0.030 A 
BRANCH  30  35
ATOM     35  O   UNL A   1      29.675  30.145  22.907  1.00  0.00    -0.497 OA
ATOM     36  C   UNL A   1      28.786  29.971  21.794  1.00  0.00     0.278 C 
ENDBRANCH  30  35
ENDBRANCH  19  29
ENDBRANCH  17  18
ENDBRANCH  16  17
ENDBRANCH  12  16
ENDBRANCH   6  11
ENDBRANCH   1   5
BRANCH   3  37
ATOM     37  C   UNL A   1      42.967  19.739  25.336  1.00  0.00     0.116 C 
BRANCH  37  38
ATOM     38  C   UNL A   1      44.256  18.939  25.114  1.00  0.00     0.023 C 
BRANCH  38  39
ATOM     39  C   UNL A   1      45.539  19.774  24.980  1.00  0.00     0.023 C 
BRANCH  39  40
ATOM     40  C   UNL A   1      45.336  21.284  25.051  1.00  0.00     0.116 C 
BRANCH  40  41
ATOM     41  N   UNL A   1      46.412  22.043  24.407  1.00  0.00    -0.352 N 
ATOM     42  C   UNL A   1      46.564  23.413  24.354  1.00  0.00     0.251 C 
ATOM     43  H   UNL A   1      47.109  21.511  23.959  1.00  0.00     0.163 HD
ATOM     44  O   UNL A   1      47.238  23.948  23.471  1.00  0.00    -0.269 OA
BRANCH  42  45
ATOM     45  C   UNL A   1      45.930  24.233  25.395  1.00  0.00     0.039 A 
ATOM     46  C   UNL A   1      46.443  24.335  26.691  1.00  0.00     0.014 A 
ATOM     47  C   UNL A   1      44.800  24.951  25.015  1.00  0.00     0.014 A 
ATOM     48  C   UNL A   1      45.847  25.235  27.574  1.00  0.00     0.010 A 
ATOM     49  C   UNL A   1      44.342  25.962  25.811  1.00  0.00     0.010 A 
ATOM     50  C   UNL A   1      44.806  26.058  27.116  1.00  0.00    -0.014 A 
BRANCH  50  51
ATOM     51  C   UNL A   1      44.250  27.124  27.938  1.00  0.00     0.031 A 
ATOM     52  C   UNL A   1      45.040  28.382  27.916  1.00  0.00     0.074 A 
ATOM     53  C   UNL A   1      43.008  27.052  28.467  1.00  0.00     0.049 A 
ATOM     54  N   UNL A   1      45.710  28.897  28.891  1.00  0.00    -0.248 NA
ATOM     55  C   UNL A   1      45.244  29.069  26.628  1.00  0.00     0.031 C 
ATOM     56  C   UNL A   1      42.004  25.992  28.304  1.00  0.00     0.029 A 
ATOM     57  N   UNL A   1      42.329  27.984  29.187  1.00  0.00    -0.354 N 
ATOM     58  C   UNL A   1      46.229  30.094  28.408  1.00  0.00     0.074 A 
ATOM     59  C   UNL A   1      46.085  30.047  26.977  1.00  0.00     0.031 C 
ATOM     60  C   UNL A   1      40.791  26.448  28.692  1.00  0.00     0.029 A 
ATOM     61  C   UNL A   1      40.958  27.759  29.286  1.00  0.00     0.049 A 
ATOM     62  H   UNL A   1      42.773  28.758  29.606  1.00  0.00     0.167 HD
ATOM     63  C   UNL A   1      46.490  31.130  29.254  1.00  0.00     0.037 A 
ATOM     64  C   UNL A   1      40.036  28.615  29.795  1.00  0.00     0.037 A 
ATOM     65  C   UNL A   1      46.491  30.686  30.627  1.00  0.00     0.049 A 
ATOM     66  C   UNL A   1      40.768  29.585  30.649  1.00  0.00     0.074 A 
ATOM     67  C   UNL A   1      47.208  29.745  31.340  1.00  0.00     0.029 A 
ATOM     68  N   UNL A   1      45.369  30.948  31.376  1.00  0.00    -0.354 N 
ATOM     69  N   UNL A   1      41.357  29.257  31.767  1.00  0.00    -0.248 NA
ATOM     70  C   UNL A   1      41.268  30.794  30.011  1.00  0.00     0.031 C 
ATOM     71  C   UNL A   1      46.249  29.130  32.200  1.00  0.00     0.029 A 
ATOM     72  C   UNL A   1      45.032  29.792  32.031  1.00  0.00     0.049 A 
ATOM     73  H   UNL A   1      44.895  31.809  31.432  1.00  0.00     0.167 HD
ATOM     74  C   UNL A   1      42.569  29.931  31.733  1.00  0.00     0.074 A 
ATOM     75  C   UNL A   1      42.427  30.919  30.663  1.00  0.00     0.031 C 
ATOM     76  C   UNL A   1      43.674  29.425  32.357  1.00  0.00     0.037 A 
BRANCH  63  77
ATOM     77  C   UNL A   1      46.347  32.587  28.894  1.00  0.00     0.057 A 
ATOM     78  C   UNL A   1      45.125  33.042  28.365  1.00  0.00     0.134 A 
ATOM     79  C   UNL A   1      47.428  33.482  28.759  1.00  0.00     0.134 A 
ATOM     80  F   UNL A   1      44.024  32.276  28.421  1.00  0.00    -0.206 F 
ATOM     81  C   UNL A   1      45.009  34.256  27.679  1.00  0.00     0.040 A 
ATOM     82  C   UNL A   1      47.310  34.720  28.122  1.00  0.00     0.040 A 
ATOM     83  F   UNL A   1      48.673  33.169  29.135  1.00  0.00    -0.206 F 
ATOM     84  C   UNL A   1      46.107  35.097  27.548  1.00  0.00     0.006 A 
ENDBRANCH  63  77
BRANCH  64  85
ATOM     85  C   UNL A   1      38.644  28.862  29.340  1.00  0.00     0.057 A 
ATOM     86  C   UNL A   1      37.583  28.916  30.257  1.00  0.00     0.134 A 
ATOM     87  C   UNL A   1      38.362  29.343  28.050  1.00  0.00     0.134 A 
ATOM     88  F   UNL A   1      37.757  28.511  31.524  1.00  0.00    -0.206 F 
ATOM     89  C   UNL A   1      36.331  29.454  29.924  1.00  0.00     0.040 A 
ATOM     90  C   UNL A   1      37.115  29.878  27.702  1.00  0.00     0.040 A 
ATOM     91  F   UNL A   1      39.313  29.398  27.106  1.00  0.00    -0.206 F 
ATOM     92  C   UNL A   1      36.100  29.952  28.646  1.00  0.00     0.006 A 
ENDBRANCH  64  85
BRANCH  76  93
ATOM     93  C   UNL A   1      43.492  28.252  33.284  1.00  0.00     0.057 A 
ATOM     94  C   UNL A   1      43.637  26.908  32.907  1.00  0.00     0.134 A 
ATOM     95  C   UNL A   1      43.315  28.506  34.648  1.00  0.00     0.134 A 
ATOM     96  F   UNL A   1      43.912  26.565  31.643  1.00  0.00    -0.206 F 
ATOM     97  C   UNL A   1      43.563  25.866  33.837  1.00  0.00     0.040 A 
ATOM     98  C   UNL A   1      43.273  27.477  35.592  1.00  0.00     0.040 A 
ATOM     99  F   UNL A   1      43.226  29.769  35.093  1.00  0.00    -0.206 F 
ATOM    100  C   UNL A   1      43.387  26.150  35.187  1.00  0.00     0.006 A 
ENDBRANCH  76  93
ENDBRANCH  50  51
ENDBRANCH  42  45
ENDBRANCH  40  41
ENDBRANCH  39  40
ENDBRANCH  38  39
ENDBRANCH  37  38
ENDBRANCH   3  37
TORSDOF 17
ENDMDL
MODEL 3
REMARK VINA RESULT:     -12.7      3.895      9.553
REMARK SMILES COc1ccc(-n2c(SCc3cn(-c4ccc(C(=O)NCCCCNC(=O)c5ccc(-c6c7nc(c(-c8c(F)cccc8F)c8ccc([nH]8)c(-c8c(F)cccc8F)c8nc(c(-c9c(F)cccc9F)c9ccc6[nH]9)C=C8)C=C7)cc5)cc4)nn3)nc3ccccc3c2=O)cc1
REMARK SMILES IDX 18 1 19 2 20 3 17 5 14 6 15 7 83 8 16 9 82 10 13 11 11 12
REMARK SMILES IDX 12 13 85 14 84 15 10 16 9 17 8 18 7 19 93 20 86 21 92 22
REMARK SMILES IDX 94 23 87 24 91 25 88 26 90 27 89 28 6 29 3 30 4 31 96 32
REMARK SMILES IDX 5 33 95 34 2 35 1 36 21 37 22 38 23 39 24 40 25 41 26 42
REMARK SMILES IDX 27 44 28 45 29 46 81 47 30 48 80 49 31 50 32 51 33 52 74 53
REMARK SMILES IDX 34 54 79 55 73 56 75 57 35 58 78 59 72 60 71 61 36 63 62 64
REMARK SMILES IDX 45 65 61 66 46 67 49 68 60 69 76 70 47 71 48 72 59 74 77 75
REMARK SMILES IDX 50 76 37 77 38 78 43 79 39 80 40 81 42 82 44 83 41 84 63 85
REMARK SMILES IDX 64 86 69 87 65 88 66 89 68 90 70 91 67 92 51 93 52 94 57 95
REMARK SMILES IDX 53 96 54 97 56 98 58 99 55 100
REMARK H PARENT 20 4 25 43 75 62 49 73
REMARK Flexibility Score: inf
ROOT
ATOM      1  C   UNL A   1      35.454  34.072  28.932  1.00  0.00     0.251 C 
ATOM      2  O   UNL A   1      36.679  34.209  28.944  1.00  0.00    -0.269 OA
ATOM      3  N   UNL A   1      34.719  35.093  29.476  1.00  0.00    -0.352 N 
ATOM      4  H   UNL A   1      35.276  35.806  29.865  1.00  0.00     0.163 HD
ENDROOT
BRANCH   1   5
ATOM      5  C   UNL A   1      34.878  32.843  28.314  1.00  0.00     0.039 A 
ATOM      6  C   UNL A   1      33.986  30.428  27.238  1.00  0.00     0.066 A 
ATOM      7  C   UNL A   1      35.297  30.514  27.690  1.00  0.00     0.029 A 
ATOM      8  C   UNL A   1      33.117  31.514  27.302  1.00  0.00     0.029 A 
ATOM      9  C   UNL A   1      35.737  31.725  28.222  1.00  0.00     0.016 A 
ATOM     10  C   UNL A   1      33.558  32.707  27.871  1.00  0.00     0.016 A 
BRANCH   6  11
ATOM     11  N   UNL A   1      33.566  29.261  26.608  1.00  0.00    -0.220 N 
ATOM     12  C   UNL A   1      32.870  27.244  26.248  1.00  0.00     0.093 A 
ATOM     13  C   UNL A   1      33.000  28.192  27.233  1.00  0.00     0.141 A 
ATOM     14  N   UNL A   1      33.384  27.754  25.081  1.00  0.00    -0.134 NA
ATOM     15  N   UNL A   1      33.809  28.989  25.316  1.00  0.00    -0.062 NA
BRANCH  12  16
ATOM     16  C   UNL A   1      32.350  25.865  26.281  1.00  0.00     0.138 C 
BRANCH  16  17
ATOM     17  S   UNL A   1      33.545  24.574  25.997  1.00  0.00    -0.081 SA
BRANCH  17  18
ATOM     18  C   UNL A   1      33.623  24.328  24.238  1.00  0.00     0.176 A 
ATOM     19  N   UNL A   1      32.443  23.892  23.651  1.00  0.00    -0.255 N 
ATOM     20  C   UNL A   1      32.426  22.583  23.192  1.00  0.00     0.266 A 
ATOM     21  N   UNL A   1      34.769  23.890  23.807  1.00  0.00    -0.223 NA
ATOM     22  C   UNL A   1      33.569  21.783  23.708  1.00  0.00     0.066 A 
ATOM     23  O   UNL A   1      31.584  22.066  22.468  1.00  0.00    -0.268 OA
ATOM     24  C   UNL A   1      34.779  22.479  23.861  1.00  0.00     0.079 A 
ATOM     25  C   UNL A   1      33.394  20.534  24.293  1.00  0.00     0.016 A 
ATOM     26  C   UNL A   1      35.877  21.854  24.447  1.00  0.00     0.029 A 
ATOM     27  C   UNL A   1      34.462  19.967  24.997  1.00  0.00     0.001 A 
ATOM     28  C   UNL A   1      35.710  20.602  25.037  1.00  0.00     0.002 A 
BRANCH  19  29
ATOM     29  C   UNL A   1      31.519  24.864  23.188  1.00  0.00     0.052 A 
ATOM     30  C   UNL A   1      30.141  27.287  23.068  1.00  0.00     0.119 A 
ATOM     31  C   UNL A   1      31.201  27.055  22.193  1.00  0.00     0.048 A 
ATOM     32  C   UNL A   1      29.651  26.246  23.853  1.00  0.00     0.048 A 
ATOM     33  C   UNL A   1      31.910  25.848  22.267  1.00  0.00     0.030 A 
ATOM     34  C   UNL A   1      30.328  25.025  23.895  1.00  0.00     0.030 A 
BRANCH  30  35
ATOM     35  O   UNL A   1      29.593  28.540  23.104  1.00  0.00    -0.497 OA
ATOM     36  C   UNL A   1      30.371  29.459  23.885  1.00  0.00     0.278 C 
ENDBRANCH  30  35
ENDBRANCH  19  29
ENDBRANCH  17  18
ENDBRANCH  16  17
ENDBRANCH  12  16
ENDBRANCH   6  11
ENDBRANCH   1   5
BRANCH   3  37
ATOM     37  C   UNL A   1      33.298  35.347  29.603  1.00  0.00     0.116 C 
BRANCH  37  38
ATOM     38  C   UNL A   1      32.993  36.329  30.741  1.00  0.00     0.023 C 
BRANCH  38  39
ATOM     39  C   UNL A   1      33.001  35.726  32.155  1.00  0.00     0.023 C 
BRANCH  39  40
ATOM     40  C   UNL A   1      34.264  34.954  32.520  1.00  0.00     0.116 C 
BRANCH  40  41
ATOM     41  N   UNL A   1      34.581  35.005  33.950  1.00  0.00    -0.352 N 
ATOM     42  C   UNL A   1      35.471  34.215  34.648  1.00  0.00     0.251 C 
ATOM     43  H   UNL A   1      34.100  35.685  34.476  1.00  0.00     0.163 HD
ATOM     44  O   UNL A   1      35.366  34.054  35.865  1.00  0.00    -0.269 OA
BRANCH  42  45
ATOM     45  C   UNL A   1      36.579  33.587  33.914  1.00  0.00     0.039 A 
ATOM     46  C   UNL A   1      37.782  34.248  33.656  1.00  0.00     0.014 A 
ATOM     47  C   UNL A   1      36.389  32.266  33.520  1.00  0.00     0.014 A 
ATOM     48  C   UNL A   1      38.822  33.531  33.066  1.00  0.00     0.010 A 
ATOM     49  C   UNL A   1      37.461  31.519  33.122  1.00  0.00     0.010 A 
ATOM     50  C   UNL A   1      38.656  32.159  32.819  1.00  0.00    -0.014 A 
BRANCH  50  51
ATOM     51  C   UNL A   1      39.753  31.323  32.353  1.00  0.00     0.031 A 
ATOM     52  C   UNL A   1      40.641  30.827  33.437  1.00  0.00     0.074 A 
ATOM     53  C   UNL A   1      39.808  30.846  31.089  1.00  0.00     0.049 A 
ATOM     54  N   UNL A   1      41.871  31.155  33.646  1.00  0.00    -0.248 NA
ATOM     55  C   UNL A   1      40.060  29.995  34.505  1.00  0.00     0.031 C 
ATOM     56  C   UNL A   1      38.830  31.008  30.006  1.00  0.00     0.029 A 
ATOM     57  N   UNL A   1      40.719  30.004  30.532  1.00  0.00    -0.354 N 
ATOM     58  C   UNL A   1      42.291  30.394  34.732  1.00  0.00     0.074 A 
ATOM     59  C   UNL A   1      41.097  29.863  35.336  1.00  0.00     0.031 C 
ATOM     60  C   UNL A   1      39.075  30.105  29.030  1.00  0.00     0.029 A 
ATOM     61  C   UNL A   1      40.317  29.422  29.332  1.00  0.00     0.049 A 
ATOM     62  H   UNL A   1      41.596  29.822  30.943  1.00  0.00     0.167 HD
ATOM     63  C   UNL A   1      43.602  30.056  34.879  1.00  0.00     0.037 A 
ATOM     64  C   UNL A   1      40.956  28.427  28.665  1.00  0.00     0.037 A 
ATOM     65  C   UNL A   1      44.439  30.853  34.016  1.00  0.00     0.049 A 
ATOM     66  C   UNL A   1      42.359  28.411  29.150  1.00  0.00     0.074 A 
ATOM     67  C   UNL A   1      44.665  32.208  33.866  1.00  0.00     0.029 A 
ATOM     68  N   UNL A   1      44.885  30.269  32.854  1.00  0.00    -0.354 N 
ATOM     69  N   UNL A   1      43.211  29.371  28.917  1.00  0.00    -0.248 NA
ATOM     70  C   UNL A   1      42.658  27.577  30.305  1.00  0.00     0.031 C 
ATOM     71  C   UNL A   1      44.753  32.410  32.456  1.00  0.00     0.029 A 
ATOM     72  C   UNL A   1      44.672  31.162  31.836  1.00  0.00     0.049 A 
ATOM     73  H   UNL A   1      45.285  29.374  32.769  1.00  0.00     0.167 HD
ATOM     74  C   UNL A   1      43.875  29.549  30.122  1.00  0.00     0.074 A 
ATOM     75  C   UNL A   1      43.543  28.367  30.918  1.00  0.00     0.031 C 
ATOM     76  C   UNL A   1      44.373  30.770  30.479  1.00  0.00     0.037 A 
BRANCH  63  77
ATOM     77  C   UNL A   1      44.092  28.763  35.481  1.00  0.00     0.057 A 
ATOM     78  C   UNL A   1      43.623  27.545  34.956  1.00  0.00     0.134 A 
ATOM     79  C   UNL A   1      44.748  28.665  36.725  1.00  0.00     0.134 A 
ATOM     80  F   UNL A   1      42.971  27.508  33.783  1.00  0.00    -0.206 F 
ATOM     81  C   UNL A   1      43.725  26.337  35.653  1.00  0.00     0.040 A 
ATOM     82  C   UNL A   1      44.902  27.455  37.406  1.00  0.00     0.040 A 
ATOM     83  F   UNL A   1      45.180  29.737  37.398  1.00  0.00    -0.206 F 
ATOM     84  C   UNL A   1      44.360  26.290  36.888  1.00  0.00     0.006 A 
ENDBRANCH  63  77
BRANCH  64  85
ATOM     85  C   UNL A   1      40.372  27.293  27.904  1.00  0.00     0.057 A 
ATOM     86  C   UNL A   1      40.839  26.967  26.621  1.00  0.00     0.134 A 
ATOM     87  C   UNL A   1      39.562  26.326  28.524  1.00  0.00     0.134 A 
ATOM     88  F   UNL A   1      41.646  27.808  25.957  1.00  0.00    -0.206 F 
ATOM     89  C   UNL A   1      40.552  25.738  26.010  1.00  0.00     0.040 A 
ATOM     90  C   UNL A   1      39.264  25.097  27.923  1.00  0.00     0.040 A 
ATOM     91  F   UNL A   1      39.106  26.499  29.773  1.00  0.00    -0.206 F 
ATOM     92  C   UNL A   1      39.775  24.791  26.669  1.00  0.00     0.006 A 
ENDBRANCH  64  85
BRANCH  76  93
ATOM     93  C   UNL A   1      44.405  31.856  29.436  1.00  0.00     0.057 A 
ATOM     94  C   UNL A   1      43.379  32.792  29.228  1.00  0.00     0.134 A 
ATOM     95  C   UNL A   1      45.590  32.054  28.721  1.00  0.00     0.134 A 
ATOM     96  F   UNL A   1      42.245  32.751  29.937  1.00  0.00    -0.206 F 
ATOM     97  C   UNL A   1      43.512  33.846  28.318  1.00  0.00     0.040 A 
ATOM     98  C   UNL A   1      45.750  33.122  27.834  1.00  0.00     0.040 A 
ATOM     99  F   UNL A   1      46.636  31.234  28.908  1.00  0.00    -0.206 F 
ATOM    100  C   UNL A   1      44.704  34.016  27.621  1.00  0.00     0.006 A 
ENDBRANCH  76  93
ENDBRANCH  50  51
ENDBRANCH  42  45
ENDBRANCH  40  41
ENDBRANCH  39  40
ENDBRANCH  38  39
ENDBRANCH  37  38
ENDBRANCH   3  37
TORSDOF 17
ENDMDL
