MODEL 1
REMARK VINA RESULT:     -12.5      0.000      0.000
REMARK SMILES [NH3+][C@@H](Cc1cn(-c2nc(Cl)nc(N3CCOCC3)n2)c2ccccc12)C(=O)NCCCCNC(=O)c1ccc(-c2c3nc(c(-c4c(F)cccc4F)c4ccc([nH]4)c(-c4c(F)cccc4F)c4nc(c(-c5c(F)cccc5F)c5ccc2[nH]5)C=C4)C=C3)cc1
REMARK SMILES IDX 29 1 28 2 26 3 27 4 2 6 1 7 3 11 4 12 5 13 25 14 6 15 20 16
REMARK SMILES IDX 24 17 21 18 23 19 22 20 7 21 8 22 19 23 9 24 12 25 10 26
REMARK SMILES IDX 11 27 13 28 14 29 18 30 15 31 17 32 16 33 30 34 31 35 32 36
REMARK SMILES IDX 33 37 34 38 35 40 36 41 37 42 89 43 38 44 88 45 39 46 40 47
REMARK SMILES IDX 41 48 82 49 42 50 87 51 81 52 83 53 43 54 86 55 80 56 79 57
REMARK SMILES IDX 44 59 70 60 53 61 69 62 54 63 57 64 68 65 84 66 55 67 56 68
REMARK SMILES IDX 67 70 85 71 58 72 45 73 46 74 51 75 47 76 48 77 50 78 52 79
REMARK SMILES IDX 49 80 71 81 72 82 77 83 73 84 74 85 76 86 78 87 75 88 59 89
REMARK SMILES IDX 60 90 65 91 61 92 62 93 64 94 66 95 63 96
REMARK H PARENT 28 5 1 8 1 9 1 10 33 39 83 58 57 69
REMARK Flexibility Score: inf
ROOT
ATOM      1  C   UNL A   1      34.730  29.001  27.020  1.00  0.00     0.116 C 
ENDROOT
BRANCH   1   2
ATOM      2  N   UNL A   1      33.656  29.133  26.067  1.00  0.00    -0.351 N 
ATOM      3  C   UNL A   1      32.396  28.594  26.114  1.00  0.00     0.278 C 
ATOM      4  O   UNL A   1      31.584  29.030  25.286  1.00  0.00    -0.268 OA
ATOM      5  H   UNL A   1      33.854  29.683  25.276  1.00  0.00     0.163 HD
BRANCH   3   6
ATOM      6  C   UNL A   1      31.959  27.473  27.109  1.00  0.00     0.275 C 
BRANCH   6   7
ATOM      7  N   UNL A   1      31.148  28.020  28.219  1.00  0.00    -0.347 N 
ATOM      8  H   UNL A   1      30.612  27.268  28.652  1.00  0.00     0.345 HD
ATOM      9  H   UNL A   1      30.510  28.728  27.857  1.00  0.00     0.345 HD
ATOM     10  H   UNL A   1      31.765  28.441  28.914  1.00  0.00     0.345 HD
ENDBRANCH   6   7
BRANCH   6  11
ATOM     11  C   UNL A   1      31.491  26.121  26.520  1.00  0.00     0.113 C 
BRANCH  11  12
ATOM     12  C   UNL A   1      32.446  25.295  25.695  1.00  0.00    -0.015 A 
ATOM     13  C   UNL A   1      33.427  24.418  26.126  1.00  0.00     0.099 A 
ATOM     14  C   UNL A   1      32.498  25.266  24.263  1.00  0.00     0.004 A 
ATOM     15  N   UNL A   1      33.933  23.716  25.042  1.00  0.00    -0.285 N 
ATOM     16  C   UNL A   1      33.427  24.289  23.876  1.00  0.00     0.056 A 
ATOM     17  C   UNL A   1      31.782  25.962  23.264  1.00  0.00     0.010 A 
ATOM     18  C   UNL A   1      33.612  23.964  22.518  1.00  0.00     0.027 A 
ATOM     19  C   UNL A   1      31.977  25.652  21.917  1.00  0.00     0.001 A 
ATOM     20  C   UNL A   1      32.873  24.658  21.553  1.00  0.00     0.002 A 
BRANCH  15  21
ATOM     21  C   UNL A   1      34.694  22.502  25.140  1.00  0.00     0.240 A 
ATOM     22  N   UNL A   1      36.012  22.581  25.219  1.00  0.00    -0.181 NA
ATOM     23  N   UNL A   1      34.011  21.350  25.038  1.00  0.00    -0.176 NA
ATOM     24  C   UNL A   1      36.600  21.392  25.204  1.00  0.00     0.228 A 
ATOM     25  C   UNL A   1      34.727  20.226  24.937  1.00  0.00     0.231 A 
ATOM     26  Cl  UNL A   1      38.293  21.398  25.447  1.00  0.00    -0.041 Cl
ATOM     27  N   UNL A   1      36.043  20.194  25.060  1.00  0.00    -0.182 NA
BRANCH  25  28
ATOM     28  N   UNL A   1      34.039  19.070  24.611  1.00  0.00    -0.336 N 
ATOM     29  C   UNL A   1      34.905  17.928  24.304  1.00  0.00     0.148 C 
ATOM     30  C   UNL A   1      32.947  18.649  25.490  1.00  0.00     0.148 C 
ATOM     31  C   UNL A   1      34.096  16.829  23.604  1.00  0.00     0.181 C 
ATOM     32  C   UNL A   1      32.157  17.542  24.757  1.00  0.00     0.181 C 
ATOM     33  O   UNL A   1      32.989  16.416  24.418  1.00  0.00    -0.378 OA
ENDBRANCH  25  28
ENDBRANCH  15  21
ENDBRANCH  11  12
ENDBRANCH   6  11
ENDBRANCH   3   6
ENDBRANCH   1   2
BRANCH   1  34
ATOM     34  C   UNL A   1      35.115  30.253  27.794  1.00  0.00     0.023 C 
BRANCH  34  35
ATOM     35  C   UNL A   1      34.068  31.364  27.927  1.00  0.00     0.023 C 
BRANCH  35  36
ATOM     36  C   UNL A   1      34.347  32.576  28.839  1.00  0.00     0.116 C 
BRANCH  36  37
ATOM     37  N   UNL A   1      34.279  32.374  30.280  1.00  0.00    -0.352 N 
ATOM     38  C   UNL A   1      35.259  32.362  31.254  1.00  0.00     0.251 C 
ATOM     39  H   UNL A   1      33.369  32.218  30.623  1.00  0.00     0.163 HD
ATOM     40  O   UNL A   1      34.996  32.946  32.310  1.00  0.00    -0.269 OA
BRANCH  38  41
ATOM     41  C   UNL A   1      36.503  31.533  31.208  1.00  0.00     0.039 A 
ATOM     42  C   UNL A   1      37.787  32.034  31.044  1.00  0.00     0.014 A 
ATOM     43  C   UNL A   1      36.334  30.127  31.189  1.00  0.00     0.014 A 
ATOM     44  C   UNL A   1      38.843  31.157  30.760  1.00  0.00     0.010 A 
ATOM     45  C   UNL A   1      37.397  29.249  30.929  1.00  0.00     0.010 A 
ATOM     46  C   UNL A   1      38.660  29.759  30.666  1.00  0.00    -0.014 A 
BRANCH  46  47
ATOM     47  C   UNL A   1      39.858  28.926  30.412  1.00  0.00     0.031 A 
ATOM     48  C   UNL A   1      40.672  28.665  31.637  1.00  0.00     0.074 A 
ATOM     49  C   UNL A   1      40.274  28.320  29.275  1.00  0.00     0.049 A 
ATOM     50  N   UNL A   1      41.844  29.134  31.920  1.00  0.00    -0.248 NA
ATOM     51  C   UNL A   1      40.047  27.902  32.726  1.00  0.00     0.031 C 
ATOM     52  C   UNL A   1      39.581  28.145  27.998  1.00  0.00     0.029 A 
ATOM     53  N   UNL A   1      41.463  27.659  29.061  1.00  0.00    -0.354 N 
ATOM     54  C   UNL A   1      42.183  28.604  33.161  1.00  0.00     0.074 A 
ATOM     55  C   UNL A   1      40.996  27.958  33.663  1.00  0.00     0.031 C 
ATOM     56  C   UNL A   1      40.268  27.269  27.224  1.00  0.00     0.029 A 
ATOM     57  C   UNL A   1      41.522  26.928  27.880  1.00  0.00     0.049 A 
ATOM     58  H   UNL A   1      42.214  27.702  29.695  1.00  0.00     0.167 HD
ATOM     59  C   UNL A   1      43.469  28.587  33.606  1.00  0.00     0.037 A 
ATOM     60  C   UNL A   1      42.514  26.090  27.477  1.00  0.00     0.037 A 
ATOM     61  C   UNL A   1      44.301  29.517  32.886  1.00  0.00     0.049 A 
ATOM     62  C   UNL A   1      43.748  26.445  28.215  1.00  0.00     0.074 A 
ATOM     63  C   UNL A   1      44.283  30.881  32.661  1.00  0.00     0.029 A 
ATOM     64  N   UNL A   1      45.203  29.019  31.978  1.00  0.00    -0.354 N 
ATOM     65  N   UNL A   1      44.458  27.510  27.985  1.00  0.00    -0.248 NA
ATOM     66  C   UNL A   1      44.007  25.782  29.482  1.00  0.00     0.031 C 
ATOM     67  C   UNL A   1      44.759  31.044  31.325  1.00  0.00     0.029 A 
ATOM     68  C   UNL A   1      45.069  29.774  30.843  1.00  0.00     0.049 A 
ATOM     69  H   UNL A   1      45.825  28.268  32.117  1.00  0.00     0.167 HD
ATOM     70  C   UNL A   1      44.900  27.907  29.236  1.00  0.00     0.074 A 
ATOM     71  C   UNL A   1      44.691  26.748  30.098  1.00  0.00     0.031 C 
ATOM     72  C   UNL A   1      45.133  29.222  29.514  1.00  0.00     0.037 A 
BRANCH  59  73
ATOM     73  C   UNL A   1      44.053  27.473  34.443  1.00  0.00     0.057 A 
ATOM     74  C   UNL A   1      44.244  26.158  33.976  1.00  0.00     0.134 A 
ATOM     75  C   UNL A   1      44.737  27.791  35.631  1.00  0.00     0.134 A 
ATOM     76  F   UNL A   1      43.711  25.719  32.829  1.00  0.00    -0.206 F 
ATOM     77  C   UNL A   1      45.088  25.244  34.612  1.00  0.00     0.040 A 
ATOM     78  C   UNL A   1      45.625  26.901  36.247  1.00  0.00     0.040 A 
ATOM     79  F   UNL A   1      44.638  29.012  36.178  1.00  0.00    -0.206 F 
ATOM     80  C   UNL A   1      45.813  25.626  35.729  1.00  0.00     0.006 A 
ENDBRANCH  59  73
BRANCH  60  81
ATOM     81  C   UNL A   1      42.464  24.865  26.643  1.00  0.00     0.057 A 
ATOM     82  C   UNL A   1      41.900  23.679  27.137  1.00  0.00     0.134 A 
ATOM     83  C   UNL A   1      43.231  24.737  25.471  1.00  0.00     0.134 A 
ATOM     84  F   UNL A   1      41.208  23.671  28.285  1.00  0.00    -0.206 F 
ATOM     85  C   UNL A   1      42.110  22.437  26.526  1.00  0.00     0.040 A 
ATOM     86  C   UNL A   1      43.454  23.499  24.852  1.00  0.00     0.040 A 
ATOM     87  F   UNL A   1      43.845  25.803  24.936  1.00  0.00    -0.206 F 
ATOM     88  C   UNL A   1      42.903  22.341  25.389  1.00  0.00     0.006 A 
ENDBRANCH  60  81
BRANCH  72  89
ATOM     89  C   UNL A   1      45.189  30.181  28.359  1.00  0.00     0.057 A 
ATOM     90  C   UNL A   1      46.439  30.587  27.878  1.00  0.00     0.134 A 
ATOM     91  C   UNL A   1      44.061  30.775  27.771  1.00  0.00     0.134 A 
ATOM     92  F   UNL A   1      47.564  30.107  28.430  1.00  0.00    -0.206 F 
ATOM     93  C   UNL A   1      46.565  31.512  26.839  1.00  0.00     0.040 A 
ATOM     94  C   UNL A   1      44.173  31.672  26.705  1.00  0.00     0.040 A 
ATOM     95  F   UNL A   1      42.826  30.533  28.233  1.00  0.00    -0.206 F 
ATOM     96  C   UNL A   1      45.429  32.045  26.236  1.00  0.00     0.006 A 
ENDBRANCH  72  89
ENDBRANCH  46  47
ENDBRANCH  38  41
ENDBRANCH  36  37
ENDBRANCH  35  36
ENDBRANCH  34  35
ENDBRANCH   1  34
TORSDOF 16
ENDMDL
MODEL 2
REMARK VINA RESULT:     -12.4      1.804      2.855
REMARK SMILES [NH3+][C@@H](Cc1cn(-c2nc(Cl)nc(N3CCOCC3)n2)c2ccccc12)C(=O)NCCCCNC(=O)c1ccc(-c2c3nc(c(-c4c(F)cccc4F)c4ccc([nH]4)c(-c4c(F)cccc4F)c4nc(c(-c5c(F)cccc5F)c5ccc2[nH]5)C=C4)C=C3)cc1
REMARK SMILES IDX 29 1 28 2 26 3 27 4 2 6 1 7 3 11 4 12 5 13 25 14 6 15 20 16
REMARK SMILES IDX 24 17 21 18 23 19 22 20 7 21 8 22 19 23 9 24 12 25 10 26
REMARK SMILES IDX 11 27 13 28 14 29 18 30 15 31 17 32 16 33 30 34 31 35 32 36
REMARK SMILES IDX 33 37 34 38 35 40 36 41 37 42 89 43 38 44 88 45 39 46 40 47
REMARK SMILES IDX 41 48 82 49 42 50 87 51 81 52 83 53 43 54 86 55 80 56 79 57
REMARK SMILES IDX 44 59 70 60 53 61 69 62 54 63 57 64 68 65 84 66 55 67 56 68
REMARK SMILES IDX 67 70 85 71 58 72 45 73 46 74 51 75 47 76 48 77 50 78 52 79
REMARK SMILES IDX 49 80 71 81 72 82 77 83 73 84 74 85 76 86 78 87 75 88 59 89
REMARK SMILES IDX 60 90 65 91 61 92 62 93 64 94 66 95 63 96
REMARK H PARENT 28 5 1 8 1 9 1 10 33 39 83 58 57 69
REMARK Flexibility Score: inf
ROOT
ATOM      1  C   UNL A   1      33.084  27.804  25.806  1.00  0.00     0.116 C 
ENDROOT
BRANCH   1   2
ATOM      2  N   UNL A   1      33.917  28.129  24.675  1.00  0.00    -0.351 N 
ATOM      3  C   UNL A   1      33.546  28.378  23.379  1.00  0.00     0.278 C 
ATOM      4  O   UNL A   1      34.423  28.847  22.640  1.00  0.00    -0.268 OA
ATOM      5  H   UNL A   1      34.882  28.177  24.859  1.00  0.00     0.163 HD
BRANCH   3   6
ATOM      6  C   UNL A   1      32.127  28.078  22.801  1.00  0.00     0.275 C 
BRANCH   6   7
ATOM      7  N   UNL A   1      31.570  29.254  22.096  1.00  0.00    -0.347 N 
ATOM      8  H   UNL A   1      31.639  30.076  22.696  1.00  0.00     0.345 HD
ATOM      9  H   UNL A   1      30.590  29.081  21.868  1.00  0.00     0.345 HD
ATOM     10  H   UNL A   1      32.096  29.416  21.237  1.00  0.00     0.345 HD
ENDBRANCH   6   7
BRANCH   6  11
ATOM     11  C   UNL A   1      31.889  26.703  22.133  1.00  0.00     0.113 C 
BRANCH  11  12
ATOM     12  C   UNL A   1      31.977  25.446  22.962  1.00  0.00    -0.015 A 
ATOM     13  C   UNL A   1      32.798  24.346  22.781  1.00  0.00     0.099 A 
ATOM     14  C   UNL A   1      31.202  25.167  24.135  1.00  0.00     0.004 A 
ATOM     15  N   UNL A   1      32.704  23.509  23.883  1.00  0.00    -0.285 N 
ATOM     16  C   UNL A   1      31.660  23.962  24.689  1.00  0.00     0.056 A 
ATOM     17  C   UNL A   1      30.179  25.879  24.799  1.00  0.00     0.010 A 
ATOM     18  C   UNL A   1      31.151  23.489  25.913  1.00  0.00     0.027 A 
ATOM     19  C   UNL A   1      29.661  25.402  26.005  1.00  0.00     0.001 A 
ATOM     20  C   UNL A   1      30.151  24.227  26.558  1.00  0.00     0.002 A 
BRANCH  15  21
ATOM     21  C   UNL A   1      33.649  22.476  24.205  1.00  0.00     0.240 A 
ATOM     22  N   UNL A   1      33.243  21.217  24.198  1.00  0.00    -0.181 NA
ATOM     23  N   UNL A   1      34.869  22.875  24.599  1.00  0.00    -0.176 NA
ATOM     24  C   UNL A   1      34.181  20.373  24.609  1.00  0.00     0.228 A 
ATOM     25  C   UNL A   1      35.689  21.935  25.081  1.00  0.00     0.231 A 
ATOM     26  Cl  UNL A   1      33.787  18.713  24.493  1.00  0.00    -0.041 Cl
ATOM     27  N   UNL A   1      35.399  20.646  25.065  1.00  0.00    -0.182 NA
BRANCH  25  28
ATOM     28  N   UNL A   1      36.854  22.371  25.689  1.00  0.00    -0.336 N 
ATOM     29  C   UNL A   1      38.049  21.619  25.291  1.00  0.00     0.148 C 
ATOM     30  C   UNL A   1      37.140  23.806  25.680  1.00  0.00     0.148 C 
ATOM     31  C   UNL A   1      39.197  21.905  26.267  1.00  0.00     0.181 C 
ATOM     32  C   UNL A   1      38.300  24.058  26.668  1.00  0.00     0.181 C 
ATOM     33  O   UNL A   1      39.481  23.311  26.319  1.00  0.00    -0.378 OA
ENDBRANCH  25  28
ENDBRANCH  15  21
ENDBRANCH  11  12
ENDBRANCH   6  11
ENDBRANCH   3   6
ENDBRANCH   1   2
BRANCH   1  34
ATOM     34  C   UNL A   1      33.413  28.499  27.119  1.00  0.00     0.023 C 
BRANCH  34  35
ATOM     35  C   UNL A   1      34.541  29.536  27.119  1.00  0.00     0.023 C 
BRANCH  35  36
ATOM     36  C   UNL A   1      34.217  31.022  27.377  1.00  0.00     0.116 C 
BRANCH  36  37
ATOM     37  N   UNL A   1      34.232  31.492  28.756  1.00  0.00    -0.352 N 
ATOM     38  C   UNL A   1      35.261  31.932  29.566  1.00  0.00     0.251 C 
ATOM     39  H   UNL A   1      33.348  31.498  29.189  1.00  0.00     0.163 HD
ATOM     40  O   UNL A   1      35.030  32.928  30.260  1.00  0.00    -0.269 OA
BRANCH  38  41
ATOM     41  C   UNL A   1      36.531  31.186  29.819  1.00  0.00     0.039 A 
ATOM     42  C   UNL A   1      37.806  31.683  29.582  1.00  0.00     0.014 A 
ATOM     43  C   UNL A   1      36.410  29.827  30.195  1.00  0.00     0.014 A 
ATOM     44  C   UNL A   1      38.906  30.814  29.612  1.00  0.00     0.010 A 
ATOM     45  C   UNL A   1      37.516  28.963  30.248  1.00  0.00     0.010 A 
ATOM     46  C   UNL A   1      38.775  29.439  29.913  1.00  0.00    -0.014 A 
BRANCH  46  47
ATOM     47  C   UNL A   1      40.013  28.628  29.965  1.00  0.00     0.031 A 
ATOM     48  C   UNL A   1      40.615  28.549  31.330  1.00  0.00     0.074 A 
ATOM     49  C   UNL A   1      40.624  27.905  28.998  1.00  0.00     0.049 A 
ATOM     50  N   UNL A   1      41.714  29.094  31.740  1.00  0.00    -0.248 NA
ATOM     51  C   UNL A   1      39.830  27.901  32.390  1.00  0.00     0.031 C 
ATOM     52  C   UNL A   1      40.157  27.550  27.657  1.00  0.00     0.029 A 
ATOM     53  N   UNL A   1      41.844  27.268  29.066  1.00  0.00    -0.354 N 
ATOM     54  C   UNL A   1      41.850  28.732  33.077  1.00  0.00     0.074 A 
ATOM     55  C   UNL A   1      40.607  28.107  33.454  1.00  0.00     0.031 C 
ATOM     56  C   UNL A   1      40.980  26.613  27.123  1.00  0.00     0.029 A 
ATOM     57  C   UNL A   1      42.112  26.402  28.013  1.00  0.00     0.049 A 
ATOM     58  H   UNL A   1      42.477  27.417  29.805  1.00  0.00     0.167 HD
ATOM     59  C   UNL A   1      43.043  28.818  33.725  1.00  0.00     0.037 A 
ATOM     60  C   UNL A   1      43.173  25.560  27.887  1.00  0.00     0.037 A 
ATOM     61  C   UNL A   1      43.968  29.685  33.040  1.00  0.00     0.049 A 
ATOM     62  C   UNL A   1      44.259  26.049  28.766  1.00  0.00     0.074 A 
ATOM     63  C   UNL A   1      43.963  31.010  32.645  1.00  0.00     0.029 A 
ATOM     64  N   UNL A   1      45.018  29.115  32.363  1.00  0.00    -0.354 N 
ATOM     65  N   UNL A   1      44.978  27.105  28.524  1.00  0.00    -0.248 NA
ATOM     66  C   UNL A   1      44.313  25.556  30.132  1.00  0.00     0.031 C 
ATOM     67  C   UNL A   1      44.654  31.027  31.395  1.00  0.00     0.029 A 
ATOM     68  C   UNL A   1      45.063  29.721  31.135  1.00  0.00     0.049 A 
ATOM     69  H   UNL A   1      45.620  28.411  32.695  1.00  0.00     0.167 HD
ATOM     70  C   UNL A   1      45.198  27.667  29.770  1.00  0.00     0.074 A 
ATOM     71  C   UNL A   1      44.867  26.614  30.726  1.00  0.00     0.031 C 
ATOM     72  C   UNL A   1      45.358  29.014  29.914  1.00  0.00     0.037 A 
BRANCH  59  73
ATOM     73  C   UNL A   1      43.498  27.838  34.781  1.00  0.00     0.057 A 
ATOM     74  C   UNL A   1      43.772  26.480  34.523  1.00  0.00     0.134 A 
ATOM     75  C   UNL A   1      43.985  28.324  36.008  1.00  0.00     0.134 A 
ATOM     76  F   UNL A   1      43.430  25.883  33.376  1.00  0.00    -0.206 F 
ATOM     77  C   UNL A   1      44.514  25.679  35.397  1.00  0.00     0.040 A 
ATOM     78  C   UNL A   1      44.772  27.545  36.865  1.00  0.00     0.040 A 
ATOM     79  F   UNL A   1      43.789  29.601  36.370  1.00  0.00    -0.206 F 
ATOM     80  C   UNL A   1      45.050  26.221  36.553  1.00  0.00     0.006 A 
ENDBRANCH  59  73
BRANCH  60  81
ATOM     81  C   UNL A   1      43.284  24.241  27.217  1.00  0.00     0.057 A 
ATOM     82  C   UNL A   1      43.498  24.152  25.833  1.00  0.00     0.134 A 
ATOM     83  C   UNL A   1      42.881  23.055  27.854  1.00  0.00     0.134 A 
ATOM     84  F   UNL A   1      43.818  25.236  25.114  1.00  0.00    -0.206 F 
ATOM     85  C   UNL A   1      43.297  22.965  25.119  1.00  0.00     0.040 A 
ATOM     86  C   UNL A   1      42.669  21.861  27.150  1.00  0.00     0.040 A 
ATOM     87  F   UNL A   1      42.613  23.039  29.168  1.00  0.00    -0.206 F 
ATOM     88  C   UNL A   1      42.864  21.818  25.774  1.00  0.00     0.006 A 
ENDBRANCH  60  81
BRANCH  72  89
ATOM     89  C   UNL A   1      45.590  29.828  28.673  1.00  0.00     0.057 A 
ATOM     90  C   UNL A   1      46.901  30.172  28.326  1.00  0.00     0.134 A 
ATOM     91  C   UNL A   1      44.564  30.346  27.866  1.00  0.00     0.134 A 
ATOM     92  F   UNL A   1      47.931  29.763  29.083  1.00  0.00    -0.206 F 
ATOM     93  C   UNL A   1      47.186  30.966  27.212  1.00  0.00     0.040 A 
ATOM     94  C   UNL A   1      44.838  31.109  26.727  1.00  0.00     0.040 A 
ATOM     95  F   UNL A   1      43.273  30.162  28.177  1.00  0.00    -0.206 F 
ATOM     96  C   UNL A   1      46.153  31.422  26.398  1.00  0.00     0.006 A 
ENDBRANCH  72  89
ENDBRANCH  46  47
ENDBRANCH  38  41
ENDBRANCH  36  37
ENDBRANCH  35  36
ENDBRANCH  34  35
ENDBRANCH   1  34
TORSDOF 16
ENDMDL
MODEL 3
REMARK VINA RESULT:     -12.2      2.127      6.106
REMARK SMILES [NH3+][C@@H](Cc1cn(-c2nc(Cl)nc(N3CCOCC3)n2)c2ccccc12)C(=O)NCCCCNC(=O)c1ccc(-c2c3nc(c(-c4c(F)cccc4F)c4ccc([nH]4)c(-c4c(F)cccc4F)c4nc(c(-c5c(F)cccc5F)c5ccc2[nH]5)C=C4)C=C3)cc1
REMARK SMILES IDX 29 1 28 2 26 3 27 4 2 6 1 7 3 11 4 12 5 13 25 14 6 15 20 16
REMARK SMILES IDX 24 17 21 18 23 19 22 20 7 21 8 22 19 23 9 24 12 25 10 26
REMARK SMILES IDX 11 27 13 28 14 29 18 30 15 31 17 32 16 33 30 34 31 35 32 36
REMARK SMILES IDX 33 37 34 38 35 40 36 41 37 42 89 43 38 44 88 45 39 46 40 47
REMARK SMILES IDX 41 48 82 49 42 50 87 51 81 52 83 53 43 54 86 55 80 56 79 57
REMARK SMILES IDX 44 59 70 60 53 61 69 62 54 63 57 64 68 65 84 66 55 67 56 68
REMARK SMILES IDX 67 70 85 71 58 72 45 73 46 74 51 75 47 76 48 77 50 78 52 79
REMARK SMILES IDX 49 80 71 81 72 82 77 83 73 84 74 85 76 86 78 87 75 88 59 89
REMARK SMILES IDX 60 90 65 91 61 92 62 93 64 94 66 95 63 96
REMARK H PARENT 28 5 1 8 1 9 1 10 33 39 83 58 57 69
REMARK Flexibility Score: inf
ROOT
ATOM      1  C   UNL A   1      32.658  29.701  24.936  1.00  0.00     0.116 C 
ENDROOT
BRANCH   1   2
ATOM      2  N   UNL A   1      33.551  29.253  23.897  1.00  0.00    -0.351 N 
ATOM      3  C   UNL A   1      33.265  28.511  22.780  1.00  0.00     0.278 C 
ATOM      4  O   UNL A   1      34.161  28.440  21.927  1.00  0.00    -0.268 OA
ATOM      5  H   UNL A   1      34.494  29.514  24.005  1.00  0.00     0.163 HD
BRANCH   3   6
ATOM      6  C   UNL A   1      31.920  27.752  22.553  1.00  0.00     0.275 C 
BRANCH   6   7
ATOM      7  N   UNL A   1      30.884  28.643  21.985  1.00  0.00    -0.347 N 
ATOM      8  H   UNL A   1      30.166  28.821  22.686  1.00  0.00     0.345 HD
ATOM      9  H   UNL A   1      30.461  28.195  21.171  1.00  0.00     0.345 HD
ATOM     10  H   UNL A   1      31.312  29.525  21.704  1.00  0.00     0.345 HD
ENDBRANCH   6   7
BRANCH   6  11
ATOM     11  C   UNL A   1      31.983  26.318  21.975  1.00  0.00     0.113 C 
BRANCH  11  12
ATOM     12  C   UNL A   1      32.063  25.139  22.912  1.00  0.00    -0.015 A 
ATOM     13  C   UNL A   1      32.866  24.014  22.823  1.00  0.00     0.099 A 
ATOM     14  C   UNL A   1      31.296  24.977  24.113  1.00  0.00     0.004 A 
ATOM     15  N   UNL A   1      32.772  23.281  23.997  1.00  0.00    -0.285 N 
ATOM     16  C   UNL A   1      31.744  23.820  24.768  1.00  0.00     0.056 A 
ATOM     17  C   UNL A   1      30.291  25.761  24.721  1.00  0.00     0.010 A 
ATOM     18  C   UNL A   1      31.241  23.466  26.035  1.00  0.00     0.027 A 
ATOM     19  C   UNL A   1      29.780  25.402  25.970  1.00  0.00     0.001 A 
ATOM     20  C   UNL A   1      30.260  24.274  26.621  1.00  0.00     0.002 A 
BRANCH  15  21
ATOM     21  C   UNL A   1      33.707  22.267  24.401  1.00  0.00     0.240 A 
ATOM     22  N   UNL A   1      34.981  22.595  24.539  1.00  0.00    -0.181 NA
ATOM     23  N   UNL A   1      33.232  21.016  24.509  1.00  0.00    -0.176 NA
ATOM     24  C   UNL A   1      35.752  21.552  24.816  1.00  0.00     0.228 A 
ATOM     25  C   UNL A   1      34.127  20.041  24.695  1.00  0.00     0.231 A 
ATOM     26  Cl  UNL A   1      37.390  21.909  25.153  1.00  0.00    -0.041 Cl
ATOM     27  N   UNL A   1      35.412  20.270  24.902  1.00  0.00    -0.182 NA
BRANCH  25  28
ATOM     28  N   UNL A   1      33.669  18.739  24.586  1.00  0.00    -0.336 N 
ATOM     29  C   UNL A   1      34.702  17.776  24.192  1.00  0.00     0.148 C 
ATOM     30  C   UNL A   1      32.871  18.196  25.687  1.00  0.00     0.148 C 
ATOM     31  C   UNL A   1      34.049  16.465  23.735  1.00  0.00     0.181 C 
ATOM     32  C   UNL A   1      32.234  16.877  25.196  1.00  0.00     0.181 C 
ATOM     33  O   UNL A   1      33.224  15.920  24.776  1.00  0.00    -0.378 OA
ENDBRANCH  25  28
ENDBRANCH  15  21
ENDBRANCH  11  12
ENDBRANCH   6  11
ENDBRANCH   3   6
ENDBRANCH   1   2
BRANCH   1  34
ATOM     34  C   UNL A   1      32.380  28.723  26.067  1.00  0.00     0.023 C 
BRANCH  34  35
ATOM     35  C   UNL A   1      33.577  28.160  26.841  1.00  0.00     0.023 C 
BRANCH  35  36
ATOM     36  C   UNL A   1      34.783  29.069  27.155  1.00  0.00     0.116 C 
BRANCH  36  37
ATOM     37  N   UNL A   1      35.127  29.283  28.555  1.00  0.00    -0.352 N 
ATOM     38  C   UNL A   1      36.276  29.759  29.157  1.00  0.00     0.251 C 
ATOM     39  H   UNL A   1      34.410  29.046  29.187  1.00  0.00     0.163 HD
ATOM     40  O   UNL A   1      36.122  30.555  30.089  1.00  0.00    -0.269 OA
BRANCH  38  41
ATOM     41  C   UNL A   1      37.653  29.232  28.910  1.00  0.00     0.039 A 
ATOM     42  C   UNL A   1      38.416  28.536  29.838  1.00  0.00     0.014 A 
ATOM     43  C   UNL A   1      38.268  29.598  27.689  1.00  0.00     0.014 A 
ATOM     44  C   UNL A   1      39.779  28.315  29.590  1.00  0.00     0.010 A 
ATOM     45  C   UNL A   1      39.626  29.355  27.431  1.00  0.00     0.010 A 
ATOM     46  C   UNL A   1      40.411  28.748  28.402  1.00  0.00    -0.014 A 
BRANCH  46  47
ATOM     47  C   UNL A   1      41.843  28.415  28.226  1.00  0.00     0.031 A 
ATOM     48  C   UNL A   1      42.070  27.118  27.521  1.00  0.00     0.074 A 
ATOM     49  C   UNL A   1      42.950  29.130  28.537  1.00  0.00     0.049 A 
ATOM     50  N   UNL A   1      42.532  26.018  28.022  1.00  0.00    -0.248 NA
ATOM     51  C   UNL A   1      41.599  26.999  26.135  1.00  0.00     0.031 C 
ATOM     52  C   UNL A   1      43.075  30.522  28.970  1.00  0.00     0.029 A 
ATOM     53  N   UNL A   1      44.263  28.721  28.468  1.00  0.00    -0.354 N 
ATOM     54  C   UNL A   1      42.562  25.100  26.978  1.00  0.00     0.074 A 
ATOM     55  C   UNL A   1      41.864  25.717  25.877  1.00  0.00     0.031 C 
ATOM     56  C   UNL A   1      44.379  30.894  28.932  1.00  0.00     0.029 A 
ATOM     57  C   UNL A   1      45.201  29.736  28.615  1.00  0.00     0.049 A 
ATOM     58  H   UNL A   1      44.517  27.780  28.326  1.00  0.00     0.167 HD
ATOM     59  C   UNL A   1      43.312  23.967  27.040  1.00  0.00     0.037 A 
ATOM     60  C   UNL A   1      46.550  29.640  28.469  1.00  0.00     0.037 A 
ATOM     61  C   UNL A   1      43.685  23.641  28.394  1.00  0.00     0.049 A 
ATOM     62  C   UNL A   1      46.933  28.219  28.632  1.00  0.00     0.074 A 
ATOM     63  C   UNL A   1      43.000  23.382  29.566  1.00  0.00     0.029 A 
ATOM     64  N   UNL A   1      44.986  23.849  28.781  1.00  0.00    -0.354 N 
ATOM     65  N   UNL A   1      46.941  27.589  29.769  1.00  0.00    -0.248 NA
ATOM     66  C   UNL A   1      46.969  27.376  27.449  1.00  0.00     0.031 C 
ATOM     67  C   UNL A   1      43.802  23.957  30.599  1.00  0.00     0.029 A 
ATOM     68  C   UNL A   1      44.935  24.491  29.989  1.00  0.00     0.049 A 
ATOM     69  H   UNL A   1      45.797  23.587  28.286  1.00  0.00     0.167 HD
ATOM     70  C   UNL A   1      46.521  26.307  29.456  1.00  0.00     0.074 A 
ATOM     71  C   UNL A   1      46.666  26.203  28.007  1.00  0.00     0.031 C 
ATOM     72  C   UNL A   1      45.837  25.550  30.363  1.00  0.00     0.037 A 
BRANCH  59  73
ATOM     73  C   UNL A   1      44.011  23.355  25.849  1.00  0.00     0.057 A 
ATOM     74  C   UNL A   1      45.006  24.014  25.100  1.00  0.00     0.134 A 
ATOM     75  C   UNL A   1      43.927  21.966  25.640  1.00  0.00     0.134 A 
ATOM     76  F   UNL A   1      45.253  25.323  25.230  1.00  0.00    -0.206 F 
ATOM     77  C   UNL A   1      45.880  23.339  24.244  1.00  0.00     0.040 A 
ATOM     78  C   UNL A   1      44.832  21.273  24.825  1.00  0.00     0.040 A 
ATOM     79  F   UNL A   1      43.021  21.224  26.294  1.00  0.00    -0.206 F 
ATOM     80  C   UNL A   1      45.821  21.960  24.134  1.00  0.00     0.006 A 
ENDBRANCH  59  73
BRANCH  60  81
ATOM     81  C   UNL A   1      47.544  30.639  28.005  1.00  0.00     0.057 A 
ATOM     82  C   UNL A   1      48.642  30.988  28.806  1.00  0.00     0.134 A 
ATOM     83  C   UNL A   1      47.281  31.491  26.919  1.00  0.00     0.134 A 
ATOM     84  F   UNL A   1      48.942  30.286  29.907  1.00  0.00    -0.206 F 
ATOM     85  C   UNL A   1      49.415  32.129  28.561  1.00  0.00     0.040 A 
ATOM     86  C   UNL A   1      48.043  32.640  26.666  1.00  0.00     0.040 A 
ATOM     87  F   UNL A   1      46.232  31.270  26.113  1.00  0.00    -0.206 F 
ATOM     88  C   UNL A   1      49.107  32.970  27.499  1.00  0.00     0.006 A 
ENDBRANCH  60  81
BRANCH  72  89
ATOM     89  C   UNL A   1      45.815  26.020  31.789  1.00  0.00     0.057 A 
ATOM     90  C   UNL A   1      44.781  26.866  32.205  1.00  0.00     0.134 A 
ATOM     91  C   UNL A   1      46.818  25.735  32.730  1.00  0.00     0.134 A 
ATOM     92  F   UNL A   1      43.817  27.230  31.345  1.00  0.00    -0.206 F 
ATOM     93  C   UNL A   1      44.723  27.378  33.504  1.00  0.00     0.040 A 
ATOM     94  C   UNL A   1      46.752  26.210  34.043  1.00  0.00     0.040 A 
ATOM     95  F   UNL A   1      47.904  25.024  32.396  1.00  0.00    -0.206 F 
ATOM     96  C   UNL A   1      45.702  27.036  34.433  1.00  0.00     0.006 A 
ENDBRANCH  72  89
ENDBRANCH  46  47
ENDBRANCH  38  41
ENDBRANCH  36  37
ENDBRANCH  35  36
ENDBRANCH  34  35
ENDBRANCH   1  34
TORSDOF 16
ENDMDL
