MODEL 1
REMARK VINA RESULT:     -11.4      0.000      0.000
REMARK SMILES C[C@@H]([NH2+]C[C@H]1CCC[C@@H]1C(=O)NCCCCNC(=O)c1ccc(-c2c3nc(c(-c4c(F)cccc4F)c4ccc([nH]4)c(-c4c(F)cccc4F)c4nc(c(-c5c(F)cccc5F)c5ccc2[nH]5)C=C4)C=C3)cc1)c1cc(F)ccc1O
REMARK SMILES IDX 13 1 12 2 10 3 11 4 9 6 5 7 6 8 7 9 8 10 4 11 3 12 2 15 1 16
REMARK SMILES IDX 74 17 75 18 80 19 76 20 79 21 77 22 78 23 81 24 14 26 15 27
REMARK SMILES IDX 16 28 17 29 18 30 19 32 20 33 21 34 73 35 22 36 72 37 23 38
REMARK SMILES IDX 24 39 25 40 66 41 26 42 71 43 65 44 67 45 27 46 70 47 64 48
REMARK SMILES IDX 63 49 28 51 54 52 37 53 53 54 38 55 41 56 52 57 68 58 39 59
REMARK SMILES IDX 40 60 51 62 69 63 42 64 29 65 30 66 35 67 31 68 32 69 34 70
REMARK SMILES IDX 36 71 33 72 55 73 56 74 61 75 57 76 58 77 60 78 62 79 59 80
REMARK SMILES IDX 43 81 44 82 49 83 45 84 46 85 48 86 50 87 47 88
REMARK H PARENT 12 5 3 13 3 14 81 25 17 31 67 50 41 61
REMARK Flexibility Score: inf
ROOT
ATOM      1  C   UNL A   1      36.263  21.637  25.707  1.00  0.00     0.116 C 
ENDROOT
BRANCH   1   2
ATOM      2  N   UNL A   1      35.114  20.751  25.727  1.00  0.00    -0.356 N 
ATOM      3  C   UNL A   1      33.787  21.063  25.662  1.00  0.00     0.223 C 
ATOM      4  O   UNL A   1      32.969  20.148  25.724  1.00  0.00    -0.275 OA
ATOM      5  H   UNL A   1      35.320  19.791  25.798  1.00  0.00     0.163 HD
BRANCH   3   6
ATOM      6  C   UNL A   1      33.400  22.528  25.507  1.00  0.00     0.087 C 
ATOM      7  C   UNL A   1      32.110  22.881  26.261  1.00  0.00     0.057 C 
ATOM      8  C   UNL A   1      31.033  22.520  25.219  1.00  0.00     0.010 C 
ATOM      9  C   UNL A   1      31.624  22.902  23.866  1.00  0.00     0.001 C 
ATOM     10  C   UNL A   1      33.138  22.878  24.040  1.00  0.00     0.014 C 
BRANCH   7  11
ATOM     11  C   UNL A   1      31.969  24.365  26.653  1.00  0.00     0.265 C 
BRANCH  11  12
ATOM     12  N   UNL A   1      30.658  25.024  26.659  1.00  0.00    -0.340 N 
ATOM     13  H   UNL A   1      30.010  24.382  26.203  1.00  0.00     0.346 HD
ATOM     14  H   UNL A   1      30.518  25.232  27.647  1.00  0.00     0.346 HD
BRANCH  12  15
ATOM     15  C   UNL A   1      30.463  26.340  26.021  1.00  0.00     0.214 C 
ATOM     16  C   UNL A   1      29.952  26.066  24.592  1.00  0.00     0.081 C 
BRANCH  15  17
ATOM     17  C   UNL A   1      31.661  27.297  26.019  1.00  0.00     0.054 A 
ATOM     18  C   UNL A   1      32.440  27.539  24.877  1.00  0.00     0.053 A 
ATOM     19  C   UNL A   1      32.092  27.933  27.198  1.00  0.00     0.124 A 
ATOM     20  C   UNL A   1      33.642  28.245  24.949  1.00  0.00     0.123 A 
ATOM     21  C   UNL A   1      33.269  28.686  27.265  1.00  0.00     0.050 A 
ATOM     22  F   UNL A   1      34.407  28.356  23.854  1.00  0.00    -0.207 F 
ATOM     23  C   UNL A   1      34.070  28.814  26.138  1.00  0.00     0.043 A 
BRANCH  19  24
ATOM     24  O   UNL A   1      31.361  27.847  28.347  1.00  0.00    -0.507 OA
ATOM     25  H   UNL A   1      30.463  28.113  28.353  1.00  0.00     0.293 HD
ENDBRANCH  19  24
ENDBRANCH  15  17
ENDBRANCH  12  15
ENDBRANCH  11  12
ENDBRANCH   7  11
ENDBRANCH   3   6
ENDBRANCH   1   2
BRANCH   1  26
ATOM     26  C   UNL A   1      37.278  21.226  24.644  1.00  0.00     0.023 C 
BRANCH  26  27
ATOM     27  C   UNL A   1      38.107  19.990  24.997  1.00  0.00     0.023 C 
BRANCH  27  28
ATOM     28  C   UNL A   1      39.236  20.231  25.994  1.00  0.00     0.116 C 
BRANCH  28  29
ATOM     29  N   UNL A   1      40.252  19.193  25.955  1.00  0.00    -0.352 N 
ATOM     30  C   UNL A   1      41.613  19.305  26.125  1.00  0.00     0.251 C 
ATOM     31  H   UNL A   1      39.921  18.282  25.785  1.00  0.00     0.163 HD
ATOM     32  O   UNL A   1      42.343  18.348  25.914  1.00  0.00    -0.269 OA
BRANCH  30  33
ATOM     33  C   UNL A   1      42.191  20.605  26.531  1.00  0.00     0.039 A 
ATOM     34  C   UNL A   1      42.647  21.477  25.540  1.00  0.00     0.014 A 
ATOM     35  C   UNL A   1      42.262  20.970  27.878  1.00  0.00     0.014 A 
ATOM     36  C   UNL A   1      43.111  22.745  25.898  1.00  0.00     0.010 A 
ATOM     37  C   UNL A   1      42.647  22.262  28.224  1.00  0.00     0.010 A 
ATOM     38  C   UNL A   1      43.079  23.163  27.238  1.00  0.00    -0.014 A 
BRANCH  38  39
ATOM     39  C   UNL A   1      43.491  24.535  27.627  1.00  0.00     0.031 A 
ATOM     40  C   UNL A   1      42.453  25.566  27.979  1.00  0.00     0.074 A 
ATOM     41  C   UNL A   1      44.795  24.874  27.604  1.00  0.00     0.049 A 
ATOM     42  N   UNL A   1      42.611  26.829  28.283  1.00  0.00    -0.248 NA
ATOM     43  C   UNL A   1      41.049  25.124  27.961  1.00  0.00     0.031 C 
ATOM     44  C   UNL A   1      45.896  23.982  27.237  1.00  0.00     0.029 A 
ATOM     45  N   UNL A   1      45.415  26.066  27.888  1.00  0.00    -0.354 N 
ATOM     46  C   UNL A   1      41.332  27.333  28.479  1.00  0.00     0.074 A 
ATOM     47  C   UNL A   1      40.406  26.257  28.201  1.00  0.00     0.031 C 
ATOM     48  C   UNL A   1      47.056  24.648  27.344  1.00  0.00     0.029 A 
ATOM     49  C   UNL A   1      46.781  26.024  27.744  1.00  0.00     0.049 A 
ATOM     50  H   UNL A   1      44.927  26.874  28.169  1.00  0.00     0.167 HD
ATOM     51  C   UNL A   1      40.960  28.574  28.879  1.00  0.00     0.037 A 
ATOM     52  C   UNL A   1      47.706  26.989  27.906  1.00  0.00     0.037 A 
ATOM     53  C   UNL A   1      41.884  29.639  29.169  1.00  0.00     0.049 A 
ATOM     54  C   UNL A   1      47.267  28.365  28.328  1.00  0.00     0.074 A 
ATOM     55  C   UNL A   1      41.610  30.913  29.632  1.00  0.00     0.029 A 
ATOM     56  N   UNL A   1      43.260  29.556  29.016  1.00  0.00    -0.354 N 
ATOM     57  N   UNL A   1      46.059  28.808  28.579  1.00  0.00    -0.248 NA
ATOM     58  C   UNL A   1      48.323  29.374  28.495  1.00  0.00     0.031 C 
ATOM     59  C   UNL A   1      42.815  31.619  29.709  1.00  0.00     0.029 A 
ATOM     60  C   UNL A   1      43.847  30.766  29.351  1.00  0.00     0.049 A 
ATOM     61  H   UNL A   1      43.748  28.756  28.715  1.00  0.00     0.167 HD
ATOM     62  C   UNL A   1      46.212  30.134  28.963  1.00  0.00     0.074 A 
ATOM     63  C   UNL A   1      47.632  30.419  28.926  1.00  0.00     0.031 C 
ATOM     64  C   UNL A   1      45.262  31.034  29.316  1.00  0.00     0.037 A 
BRANCH  51  65
ATOM     65  C   UNL A   1      39.489  28.843  29.021  1.00  0.00     0.057 A 
ATOM     66  C   UNL A   1      38.825  28.695  30.247  1.00  0.00     0.134 A 
ATOM     67  C   UNL A   1      38.732  29.282  27.928  1.00  0.00     0.134 A 
ATOM     68  F   UNL A   1      39.486  28.268  31.333  1.00  0.00    -0.206 F 
ATOM     69  C   UNL A   1      37.456  28.942  30.371  1.00  0.00     0.040 A 
ATOM     70  C   UNL A   1      37.370  29.562  28.047  1.00  0.00     0.040 A 
ATOM     71  F   UNL A   1      39.306  29.452  26.726  1.00  0.00    -0.206 F 
ATOM     72  C   UNL A   1      36.727  29.383  29.270  1.00  0.00     0.006 A 
ENDBRANCH  51  65
BRANCH  52  73
ATOM     73  C   UNL A   1      49.144  26.685  27.690  1.00  0.00     0.057 A 
ATOM     74  C   UNL A   1      49.953  26.234  28.740  1.00  0.00     0.134 A 
ATOM     75  C   UNL A   1      49.746  26.845  26.437  1.00  0.00     0.134 A 
ATOM     76  F   UNL A   1      49.439  26.080  29.969  1.00  0.00    -0.206 F 
ATOM     77  C   UNL A   1      51.312  25.975  28.558  1.00  0.00     0.040 A 
ATOM     78  C   UNL A   1      51.098  26.563  26.233  1.00  0.00     0.040 A 
ATOM     79  F   UNL A   1      49.026  27.265  25.387  1.00  0.00    -0.206 F 
ATOM     80  C   UNL A   1      51.887  26.134  27.299  1.00  0.00     0.006 A 
ENDBRANCH  52  73
BRANCH  64  81
ATOM     81  C   UNL A   1      45.728  32.401  29.733  1.00  0.00     0.057 A 
ATOM     82  C   UNL A   1      45.832  33.461  28.823  1.00  0.00     0.134 A 
ATOM     83  C   UNL A   1      46.037  32.668  31.073  1.00  0.00     0.134 A 
ATOM     84  F   UNL A   1      45.562  33.270  27.522  1.00  0.00    -0.206 F 
ATOM     85  C   UNL A   1      46.251  34.730  29.227  1.00  0.00     0.040 A 
ATOM     86  C   UNL A   1      46.427  33.940  31.494  1.00  0.00     0.040 A 
ATOM     87  F   UNL A   1      45.950  31.701  31.999  1.00  0.00    -0.206 F 
ATOM     88  C   UNL A   1      46.542  34.973  30.567  1.00  0.00     0.006 A 
ENDBRANCH  64  81
ENDBRANCH  38  39
ENDBRANCH  30  33
ENDBRANCH  28  29
ENDBRANCH  27  28
ENDBRANCH  26  27
ENDBRANCH   1  26
TORSDOF 16
ENDMDL
MODEL 2
REMARK VINA RESULT:     -11.3      5.436     10.134
REMARK SMILES C[C@@H]([NH2+]C[C@H]1CCC[C@@H]1C(=O)NCCCCNC(=O)c1ccc(-c2c3nc(c(-c4c(F)cccc4F)c4ccc([nH]4)c(-c4c(F)cccc4F)c4nc(c(-c5c(F)cccc5F)c5ccc2[nH]5)C=C4)C=C3)cc1)c1cc(F)ccc1O
REMARK SMILES IDX 13 1 12 2 10 3 11 4 9 6 5 7 6 8 7 9 8 10 4 11 3 12 2 15 1 16
REMARK SMILES IDX 74 17 75 18 80 19 76 20 79 21 77 22 78 23 81 24 14 26 15 27
REMARK SMILES IDX 16 28 17 29 18 30 19 32 20 33 21 34 73 35 22 36 72 37 23 38
REMARK SMILES IDX 24 39 25 40 66 41 26 42 71 43 65 44 67 45 27 46 70 47 64 48
REMARK SMILES IDX 63 49 28 51 54 52 37 53 53 54 38 55 41 56 52 57 68 58 39 59
REMARK SMILES IDX 40 60 51 62 69 63 42 64 29 65 30 66 35 67 31 68 32 69 34 70
REMARK SMILES IDX 36 71 33 72 55 73 56 74 61 75 57 76 58 77 60 78 62 79 59 80
REMARK SMILES IDX 43 81 44 82 49 83 45 84 46 85 48 86 50 87 47 88
REMARK H PARENT 12 5 3 13 3 14 81 25 17 31 67 50 41 61
REMARK Flexibility Score: inf
ROOT
ATOM      1  C   UNL A   1      31.778  29.871  25.323  1.00  0.00     0.116 C 
ENDROOT
BRANCH   1   2
ATOM      2  N   UNL A   1      33.071  29.703  24.686  1.00  0.00    -0.356 N 
ATOM      3  C   UNL A   1      33.606  28.588  24.110  1.00  0.00     0.223 C 
ATOM      4  O   UNL A   1      34.744  28.658  23.649  1.00  0.00    -0.275 OA
ATOM      5  H   UNL A   1      33.642  30.505  24.667  1.00  0.00     0.163 HD
BRANCH   3   6
ATOM      6  C   UNL A   1      32.758  27.323  24.067  1.00  0.00     0.087 C 
ATOM      7  C   UNL A   1      32.698  26.606  25.423  1.00  0.00     0.057 C 
ATOM      8  C   UNL A   1      33.960  25.722  25.363  1.00  0.00     0.010 C 
ATOM      9  C   UNL A   1      34.075  25.267  23.912  1.00  0.00     0.001 C 
ATOM     10  C   UNL A   1      33.333  26.306  23.079  1.00  0.00     0.014 C 
BRANCH   7  11
ATOM     11  C   UNL A   1      31.457  25.716  25.635  1.00  0.00     0.265 C 
BRANCH  11  12
ATOM     12  N   UNL A   1      30.103  26.271  25.526  1.00  0.00    -0.340 N 
ATOM     13  H   UNL A   1      29.567  25.880  26.301  1.00  0.00     0.346 HD
ATOM     14  H   UNL A   1      30.274  27.276  25.515  1.00  0.00     0.346 HD
BRANCH  12  15
ATOM     15  C   UNL A   1      29.292  26.068  24.311  1.00  0.00     0.214 C 
ATOM     16  C   UNL A   1      30.041  25.031  23.448  1.00  0.00     0.081 C 
BRANCH  15  17
ATOM     17  C   UNL A   1      28.924  27.317  23.501  1.00  0.00     0.054 A 
ATOM     18  C   UNL A   1      29.870  28.062  22.780  1.00  0.00     0.053 A 
ATOM     19  C   UNL A   1      27.613  27.829  23.501  1.00  0.00     0.124 A 
ATOM     20  C   UNL A   1      29.553  29.304  22.227  1.00  0.00     0.123 A 
ATOM     21  C   UNL A   1      27.278  29.049  22.903  1.00  0.00     0.050 A 
ATOM     22  F   UNL A   1      30.516  30.029  21.644  1.00  0.00    -0.207 F 
ATOM     23  C   UNL A   1      28.265  29.810  22.291  1.00  0.00     0.043 A 
BRANCH  19  24
ATOM     24  O   UNL A   1      26.592  27.141  24.089  1.00  0.00    -0.507 OA
ATOM     25  H   UNL A   1      26.767  26.565  24.806  1.00  0.00     0.293 HD
ENDBRANCH  19  24
ENDBRANCH  15  17
ENDBRANCH  12  15
ENDBRANCH  11  12
ENDBRANCH   7  11
ENDBRANCH   3   6
ENDBRANCH   1   2
BRANCH   1  26
ATOM     26  C   UNL A   1      31.910  30.437  26.734  1.00  0.00     0.023 C 
BRANCH  26  27
ATOM     27  C   UNL A   1      31.656  31.942  26.845  1.00  0.00     0.023 C 
BRANCH  27  28
ATOM     28  C   UNL A   1      32.868  32.773  27.251  1.00  0.00     0.116 C 
BRANCH  28  29
ATOM     29  N   UNL A   1      32.517  34.133  27.626  1.00  0.00    -0.352 N 
ATOM     30  C   UNL A   1      33.042  34.920  28.625  1.00  0.00     0.251 C 
ATOM     31  H   UNL A   1      31.805  34.551  27.089  1.00  0.00     0.163 HD
ATOM     32  O   UNL A   1      32.528  35.994  28.900  1.00  0.00    -0.269 OA
BRANCH  30  33
ATOM     33  C   UNL A   1      34.214  34.440  29.390  1.00  0.00     0.039 A 
ATOM     34  C   UNL A   1      34.005  33.824  30.625  1.00  0.00     0.014 A 
ATOM     35  C   UNL A   1      35.509  34.578  28.881  1.00  0.00     0.014 A 
ATOM     36  C   UNL A   1      35.089  33.282  31.318  1.00  0.00     0.010 A 
ATOM     37  C   UNL A   1      36.575  33.966  29.534  1.00  0.00     0.010 A 
ATOM     38  C   UNL A   1      36.378  33.315  30.761  1.00  0.00    -0.014 A 
BRANCH  38  39
ATOM     39  C   UNL A   1      37.529  32.673  31.445  1.00  0.00     0.031 A 
ATOM     40  C   UNL A   1      38.216  31.489  30.820  1.00  0.00     0.074 A 
ATOM     41  C   UNL A   1      37.918  33.114  32.657  1.00  0.00     0.049 A 
ATOM     42  N   UNL A   1      39.195  30.758  31.290  1.00  0.00    -0.248 NA
ATOM     43  C   UNL A   1      37.720  31.055  29.505  1.00  0.00     0.031 C 
ATOM     44  C   UNL A   1      37.306  34.223  33.392  1.00  0.00     0.029 A 
ATOM     45  N   UNL A   1      38.917  32.676  33.490  1.00  0.00    -0.354 N 
ATOM     46  C   UNL A   1      39.422  29.774  30.337  1.00  0.00     0.074 A 
ATOM     47  C   UNL A   1      38.440  29.964  29.292  1.00  0.00     0.031 C 
ATOM     48  C   UNL A   1      37.959  34.395  34.552  1.00  0.00     0.029 A 
ATOM     49  C   UNL A   1      39.006  33.385  34.665  1.00  0.00     0.049 A 
ATOM     50  H   UNL A   1      39.515  31.926  33.268  1.00  0.00     0.167 HD
ATOM     51  C   UNL A   1      40.377  28.812  30.321  1.00  0.00     0.037 A 
ATOM     52  C   UNL A   1      39.831  33.231  35.718  1.00  0.00     0.037 A 
ATOM     53  C   UNL A   1      41.362  28.634  31.355  1.00  0.00     0.049 A 
ATOM     54  C   UNL A   1      40.868  32.142  35.686  1.00  0.00     0.074 A 
ATOM     55  C   UNL A   1      42.404  27.726  31.405  1.00  0.00     0.029 A 
ATOM     56  N   UNL A   1      41.422  29.376  32.526  1.00  0.00    -0.354 N 
ATOM     57  N   UNL A   1      41.117  31.263  34.747  1.00  0.00    -0.248 NA
ATOM     58  C   UNL A   1      41.744  32.029  36.862  1.00  0.00     0.031 C 
ATOM     59  C   UNL A   1      43.062  27.881  32.629  1.00  0.00     0.029 A 
ATOM     60  C   UNL A   1      42.467  28.927  33.317  1.00  0.00     0.049 A 
ATOM     61  H   UNL A   1      40.812  30.112  32.760  1.00  0.00     0.167 HD
ATOM     62  C   UNL A   1      42.195  30.514  35.202  1.00  0.00     0.074 A 
ATOM     63  C   UNL A   1      42.562  31.052  36.495  1.00  0.00     0.031 C 
ATOM     64  C   UNL A   1      42.826  29.476  34.600  1.00  0.00     0.037 A 
BRANCH  51  65
ATOM     65  C   UNL A   1      40.397  27.877  29.145  1.00  0.00     0.057 A 
ATOM     66  C   UNL A   1      39.644  26.695  29.125  1.00  0.00     0.134 A 
ATOM     67  C   UNL A   1      41.157  28.175  28.007  1.00  0.00     0.134 A 
ATOM     68  F   UNL A   1      38.901  26.343  30.186  1.00  0.00    -0.206 F 
ATOM     69  C   UNL A   1      39.671  25.828  28.031  1.00  0.00     0.040 A 
ATOM     70  C   UNL A   1      41.169  27.332  26.895  1.00  0.00     0.040 A 
ATOM     71  F   UNL A   1      41.896  29.293  27.954  1.00  0.00    -0.206 F 
ATOM     72  C   UNL A   1      40.431  26.149  26.909  1.00  0.00     0.006 A 
ENDBRANCH  51  65
BRANCH  52  73
ATOM     73  C   UNL A   1      39.726  34.145  36.885  1.00  0.00     0.057 A 
ATOM     74  C   UNL A   1      40.360  35.394  36.884  1.00  0.00     0.134 A 
ATOM     75  C   UNL A   1      39.000  33.792  38.028  1.00  0.00     0.134 A 
ATOM     76  F   UNL A   1      41.087  35.780  35.826  1.00  0.00    -0.206 F 
ATOM     77  C   UNL A   1      40.296  36.248  37.986  1.00  0.00     0.040 A 
ATOM     78  C   UNL A   1      38.903  34.649  39.126  1.00  0.00     0.040 A 
ATOM     79  F   UNL A   1      38.362  32.615  38.090  1.00  0.00    -0.206 F 
ATOM     80  C   UNL A   1      39.560  35.878  39.110  1.00  0.00     0.006 A 
ENDBRANCH  52  73
BRANCH  64  81
ATOM     81  C   UNL A   1      44.005  28.878  35.314  1.00  0.00     0.057 A 
ATOM     82  C   UNL A   1      45.317  29.298  35.064  1.00  0.00     0.134 A 
ATOM     83  C   UNL A   1      43.817  27.895  36.295  1.00  0.00     0.134 A 
ATOM     84  F   UNL A   1      45.568  30.227  34.128  1.00  0.00    -0.206 F 
ATOM     85  C   UNL A   1      46.403  28.745  35.746  1.00  0.00     0.040 A 
ATOM     86  C   UNL A   1      44.892  27.357  37.006  1.00  0.00     0.040 A 
ATOM     87  F   UNL A   1      42.586  27.453  36.592  1.00  0.00    -0.206 F 
ATOM     88  C   UNL A   1      46.190  27.777  36.725  1.00  0.00     0.006 A 
ENDBRANCH  64  81
ENDBRANCH  38  39
ENDBRANCH  30  33
ENDBRANCH  28  29
ENDBRANCH  27  28
ENDBRANCH  26  27
ENDBRANCH   1  26
TORSDOF 16
ENDMDL
MODEL 3
REMARK VINA RESULT:     -11.3      1.676      2.691
REMARK SMILES C[C@@H]([NH2+]C[C@H]1CCC[C@@H]1C(=O)NCCCCNC(=O)c1ccc(-c2c3nc(c(-c4c(F)cccc4F)c4ccc([nH]4)c(-c4c(F)cccc4F)c4nc(c(-c5c(F)cccc5F)c5ccc2[nH]5)C=C4)C=C3)cc1)c1cc(F)ccc1O
REMARK SMILES IDX 13 1 12 2 10 3 11 4 9 6 5 7 6 8 7 9 8 10 4 11 3 12 2 15 1 16
REMARK SMILES IDX 74 17 75 18 80 19 76 20 79 21 77 22 78 23 81 24 14 26 15 27
REMARK SMILES IDX 16 28 17 29 18 30 19 32 20 33 21 34 73 35 22 36 72 37 23 38
REMARK SMILES IDX 24 39 25 40 66 41 26 42 71 43 65 44 67 45 27 46 70 47 64 48
REMARK SMILES IDX 63 49 28 51 54 52 37 53 53 54 38 55 41 56 52 57 68 58 39 59
REMARK SMILES IDX 40 60 51 62 69 63 42 64 29 65 30 66 35 67 31 68 32 69 34 70
REMARK SMILES IDX 36 71 33 72 55 73 56 74 61 75 57 76 58 77 60 78 62 79 59 80
REMARK SMILES IDX 43 81 44 82 49 83 45 84 46 85 48 86 50 87 47 88
REMARK H PARENT 12 5 3 13 3 14 81 25 17 31 67 50 41 61
REMARK Flexibility Score: inf
ROOT
ATOM      1  C   UNL A   1      36.726  22.103  25.631  1.00  0.00     0.116 C 
ENDROOT
BRANCH   1   2
ATOM      2  N   UNL A   1      35.567  22.439  26.438  1.00  0.00    -0.356 N 
ATOM      3  C   UNL A   1      34.416  23.071  26.068  1.00  0.00     0.223 C 
ATOM      4  O   UNL A   1      33.564  23.283  26.928  1.00  0.00    -0.275 OA
ATOM      5  H   UNL A   1      35.620  22.174  27.385  1.00  0.00     0.163 HD
BRANCH   3   6
ATOM      6  C   UNL A   1      34.252  23.468  24.606  1.00  0.00     0.087 C 
ATOM      7  C   UNL A   1      33.378  24.718  24.429  1.00  0.00     0.057 C 
ATOM      8  C   UNL A   1      31.965  24.105  24.388  1.00  0.00     0.010 C 
ATOM      9  C   UNL A   1      32.111  22.783  23.641  1.00  0.00     0.001 C 
ATOM     10  C   UNL A   1      33.565  22.359  23.807  1.00  0.00     0.014 C 
BRANCH   7  11
ATOM     11  C   UNL A   1      33.633  25.512  23.133  1.00  0.00     0.265 C 
BRANCH  11  12
ATOM     12  N   UNL A   1      32.522  26.113  22.385  1.00  0.00    -0.340 N 
ATOM     13  H   UNL A   1      32.707  25.931  21.398  1.00  0.00     0.346 HD
ATOM     14  H   UNL A   1      31.705  25.679  22.812  1.00  0.00     0.346 HD
BRANCH  12  15
ATOM     15  C   UNL A   1      32.220  27.553  22.497  1.00  0.00     0.214 C 
ATOM     16  C   UNL A   1      33.179  28.124  23.561  1.00  0.00     0.081 C 
BRANCH  15  17
ATOM     17  C   UNL A   1      30.764  27.938  22.783  1.00  0.00     0.054 A 
ATOM     18  C   UNL A   1      29.889  27.119  23.514  1.00  0.00     0.053 A 
ATOM     19  C   UNL A   1      30.201  29.116  22.256  1.00  0.00     0.124 A 
ATOM     20  C   UNL A   1      28.522  27.389  23.582  1.00  0.00     0.123 A 
ATOM     21  C   UNL A   1      28.839  29.418  22.366  1.00  0.00     0.050 A 
ATOM     22  F   UNL A   1      27.709  26.520  24.198  1.00  0.00    -0.207 F 
ATOM     23  C   UNL A   1      27.986  28.529  23.005  1.00  0.00     0.043 A 
BRANCH  19  24
ATOM     24  O   UNL A   1      30.976  30.033  21.608  1.00  0.00    -0.507 OA
ATOM     25  H   UNL A   1      31.432  29.794  20.826  1.00  0.00     0.293 HD
ENDBRANCH  19  24
ENDBRANCH  15  17
ENDBRANCH  12  15
ENDBRANCH  11  12
ENDBRANCH   7  11
ENDBRANCH   3   6
ENDBRANCH   1   2
BRANCH   1  26
ATOM     26  C   UNL A   1      36.631  20.690  25.063  1.00  0.00     0.023 C 
BRANCH  26  27
ATOM     27  C   UNL A   1      37.979  20.032  24.761  1.00  0.00     0.023 C 
BRANCH  27  28
ATOM     28  C   UNL A   1      39.078  20.312  25.781  1.00  0.00     0.116 C 
BRANCH  28  29
ATOM     29  N   UNL A   1      40.039  19.227  25.885  1.00  0.00    -0.352 N 
ATOM     30  C   UNL A   1      41.387  19.285  26.155  1.00  0.00     0.251 C 
ATOM     31  H   UNL A   1      39.674  18.323  25.745  1.00  0.00     0.163 HD
ATOM     32  O   UNL A   1      42.080  18.283  26.060  1.00  0.00    -0.269 OA
BRANCH  30  33
ATOM     33  C   UNL A   1      41.999  20.579  26.526  1.00  0.00     0.039 A 
ATOM     34  C   UNL A   1      42.410  21.445  25.510  1.00  0.00     0.014 A 
ATOM     35  C   UNL A   1      42.148  20.946  27.867  1.00  0.00     0.014 A 
ATOM     36  C   UNL A   1      42.905  22.709  25.839  1.00  0.00     0.010 A 
ATOM     37  C   UNL A   1      42.564  22.234  28.188  1.00  0.00     0.010 A 
ATOM     38  C   UNL A   1      42.950  23.129  27.178  1.00  0.00    -0.014 A 
BRANCH  38  39
ATOM     39  C   UNL A   1      43.397  24.498  27.541  1.00  0.00     0.031 A 
ATOM     40  C   UNL A   1      42.390  25.540  27.945  1.00  0.00     0.074 A 
ATOM     41  C   UNL A   1      44.702  24.823  27.448  1.00  0.00     0.049 A 
ATOM     42  N   UNL A   1      42.577  26.803  28.237  1.00  0.00    -0.248 NA
ATOM     43  C   UNL A   1      40.983  25.113  28.003  1.00  0.00     0.031 C 
ATOM     44  C   UNL A   1      45.772  23.918  27.025  1.00  0.00     0.029 A 
ATOM     45  N   UNL A   1      45.348  26.008  27.696  1.00  0.00    -0.354 N 
ATOM     46  C   UNL A   1      41.316  27.320  28.500  1.00  0.00     0.074 A 
ATOM     47  C   UNL A   1      40.366  26.253  28.274  1.00  0.00     0.031 C 
ATOM     48  C   UNL A   1      46.943  24.572  27.069  1.00  0.00     0.029 A 
ATOM     49  C   UNL A   1      46.704  25.952  27.479  1.00  0.00     0.049 A 
ATOM     50  H   UNL A   1      44.885  26.822  28.000  1.00  0.00     0.167 HD
ATOM     51  C   UNL A   1      40.980  28.565  28.915  1.00  0.00     0.037 A 
ATOM     52  C   UNL A   1      47.647  26.907  27.590  1.00  0.00     0.037 A 
ATOM     53  C   UNL A   1      41.928  29.621  29.154  1.00  0.00     0.049 A 
ATOM     54  C   UNL A   1      47.246  28.289  28.030  1.00  0.00     0.074 A 
ATOM     55  C   UNL A   1      41.693  30.899  29.628  1.00  0.00     0.029 A 
ATOM     56  N   UNL A   1      43.294  29.523  28.928  1.00  0.00    -0.354 N 
ATOM     57  N   UNL A   1      46.058  28.745  28.344  1.00  0.00    -0.248 NA
ATOM     58  C   UNL A   1      48.320  29.286  28.139  1.00  0.00     0.031 C 
ATOM     59  C   UNL A   1      42.908  31.593  29.638  1.00  0.00     0.029 A 
ATOM     60  C   UNL A   1      43.910  30.727  29.228  1.00  0.00     0.049 A 
ATOM     61  H   UNL A   1      43.756  28.718  28.604  1.00  0.00     0.167 HD
ATOM     62  C   UNL A   1      46.245  30.070  28.716  1.00  0.00     0.074 A 
ATOM     63  C   UNL A   1      47.663  30.340  28.603  1.00  0.00     0.031 C 
ATOM     64  C   UNL A   1      45.324  30.981  29.117  1.00  0.00     0.037 A 
BRANCH  51  65
ATOM     65  C   UNL A   1      39.521  28.851  29.136  1.00  0.00     0.057 A 
ATOM     66  C   UNL A   1      38.692  29.309  28.102  1.00  0.00     0.134 A 
ATOM     67  C   UNL A   1      38.931  28.639  30.388  1.00  0.00     0.134 A 
ATOM     68  F   UNL A   1      39.193  29.543  26.880  1.00  0.00    -0.206 F 
ATOM     69  C   UNL A   1      37.338  29.577  28.315  1.00  0.00     0.040 A 
ATOM     70  C   UNL A   1      37.573  28.874  30.605  1.00  0.00     0.040 A 
ATOM     71  F   UNL A   1      39.664  28.195  31.420  1.00  0.00    -0.206 F 
ATOM     72  C   UNL A   1      36.774  29.353  29.569  1.00  0.00     0.006 A 
ENDBRANCH  51  65
BRANCH  52  73
ATOM     73  C   UNL A   1      49.068  26.588  27.297  1.00  0.00     0.057 A 
ATOM     74  C   UNL A   1      49.610  26.805  26.024  1.00  0.00     0.134 A 
ATOM     75  C   UNL A   1      49.914  26.051  28.274  1.00  0.00     0.134 A 
ATOM     76  F   UNL A   1      48.845  27.299  25.041  1.00  0.00    -0.206 F 
ATOM     77  C   UNL A   1      50.935  26.480  25.727  1.00  0.00     0.040 A 
ATOM     78  C   UNL A   1      51.249  25.747  28.000  1.00  0.00     0.040 A 
ATOM     79  F   UNL A   1      49.460  25.826  29.516  1.00  0.00    -0.206 F 
ATOM     80  C   UNL A   1      51.760  25.954  26.720  1.00  0.00     0.006 A 
ENDBRANCH  52  73
BRANCH  64  81
ATOM     81  C   UNL A   1      45.825  32.344  29.505  1.00  0.00     0.057 A 
ATOM     82  C   UNL A   1      46.230  32.643  30.812  1.00  0.00     0.134 A 
ATOM     83  C   UNL A   1      45.942  33.357  28.545  1.00  0.00     0.134 A 
ATOM     84  F   UNL A   1      46.132  31.721  31.783  1.00  0.00    -0.206 F 
ATOM     85  C   UNL A   1      46.708  33.909  31.155  1.00  0.00     0.040 A 
ATOM     86  C   UNL A   1      46.448  34.617  28.869  1.00  0.00     0.040 A 
ATOM     87  F   UNL A   1      45.581  33.135  27.272  1.00  0.00    -0.206 F 
ATOM     88  C   UNL A   1      46.825  34.897  30.180  1.00  0.00     0.006 A 
ENDBRANCH  64  81
ENDBRANCH  38  39
ENDBRANCH  30  33
ENDBRANCH  28  29
ENDBRANCH  27  28
ENDBRANCH  26  27
ENDBRANCH   1  26
TORSDOF 16
ENDMDL
