MODEL 1
REMARK VINA RESULT:     -12.5      0.000      0.000
REMARK SMILES CCN(CC)c1ccc([C@@H]2c3[nH]c4ccccc4c3C[C@@H](C(=O)NCCCCNC(=O)c3ccc(-c4c5nc(c(-c6c(F)cccc6F)c6ccc([nH]6)c(-c6c(F)cccc6F)c6nc(c(-c7c(F)cccc7F)c7ccc4[nH]7)C=C6)C=C5)cc3)N2C(C)=O)cc1
REMARK SMILES IDX 26 1 25 2 24 3 22 4 23 5 21 7 10 8 11 9 86 10 12 11 19 12
REMARK SMILES IDX 13 13 18 15 20 16 14 17 17 18 15 19 16 20 9 21 6 22 7 23
REMARK SMILES IDX 91 24 8 25 90 26 3 27 2 28 1 29 4 30 5 31 87 32 88 33 89 34
REMARK SMILES IDX 27 35 28 36 29 37 30 38 31 40 32 41 33 42 85 43 34 44 84 45
REMARK SMILES IDX 35 46 36 47 37 48 78 49 38 50 83 51 77 52 79 53 39 54 82 55
REMARK SMILES IDX 76 56 75 57 40 59 66 60 49 61 65 62 50 63 53 64 64 65 80 66
REMARK SMILES IDX 51 67 52 68 63 70 81 71 54 72 41 73 42 74 47 75 43 76 44 77
REMARK SMILES IDX 46 78 48 79 45 80 67 81 68 82 73 83 69 84 70 85 72 86 74 87
REMARK SMILES IDX 71 88 55 89 56 90 61 91 57 92 58 93 60 94 62 95 59 96
REMARK H PARENT 24 6 12 14 29 39 79 58 53 69
REMARK Flexibility Score: inf
ROOT
ATOM      1  C   UNL A   1      31.446  27.124  26.657  1.00  0.00     0.023 C 
ENDROOT
BRANCH   1   2
ATOM      2  C   UNL A   1      32.493  26.059  26.305  1.00  0.00     0.116 C 
BRANCH   2   3
ATOM      3  N   UNL A   1      32.112  24.674  26.658  1.00  0.00    -0.354 N 
ATOM      4  C   UNL A   1      32.204  23.411  26.141  1.00  0.00     0.243 C 
ATOM      5  O   UNL A   1      31.804  22.523  26.912  1.00  0.00    -0.273 OA
ATOM      6  H   UNL A   1      31.654  24.656  27.530  1.00  0.00     0.163 HD
BRANCH   4   7
ATOM      7  C   UNL A   1      32.567  22.993  24.668  1.00  0.00     0.179 C 
ATOM      8  C   UNL A   1      34.841  22.363  25.341  1.00  0.00     0.163 C 
ATOM      9  C   UNL A   1      34.415  20.942  25.010  1.00  0.00     0.047 A 
ATOM     10  N   UNL A   1      34.044  23.118  24.376  1.00  0.00    -0.318 N 
ATOM     11  N   UNL A   1      35.115  19.781  25.179  1.00  0.00    -0.356 N 
ATOM     12  C   UNL A   1      33.164  20.594  24.497  1.00  0.00    -0.014 A 
ATOM     13  C   UNL A   1      34.459  18.755  24.534  1.00  0.00     0.046 A 
ATOM     14  H   UNL A   1      35.956  19.691  25.682  1.00  0.00     0.166 HD
ATOM     15  C   UNL A   1      33.213  19.233  24.132  1.00  0.00     0.003 A 
ATOM     16  C   UNL A   1      32.072  21.593  24.270  1.00  0.00     0.073 C 
ATOM     17  C   UNL A   1      34.882  17.452  24.273  1.00  0.00     0.026 A 
ATOM     18  C   UNL A   1      32.326  18.376  23.462  1.00  0.00     0.010 A 
ATOM     19  C   UNL A   1      34.008  16.632  23.556  1.00  0.00     0.002 A 
ATOM     20  C   UNL A   1      32.748  17.080  23.161  1.00  0.00     0.001 A 
BRANCH   8  21
ATOM     21  C   UNL A   1      36.291  22.733  25.554  1.00  0.00    -0.019 A 
ATOM     22  C   UNL A   1      38.931  23.327  26.486  1.00  0.00     0.037 A 
ATOM     23  C   UNL A   1      38.619  22.129  25.839  1.00  0.00     0.026 A 
ATOM     24  C   UNL A   1      37.916  24.290  26.492  1.00  0.00     0.026 A 
ATOM     25  C   UNL A   1      37.342  21.844  25.361  1.00  0.00     0.008 A 
ATOM     26  C   UNL A   1      36.618  24.005  26.043  1.00  0.00     0.008 A 
BRANCH  22  27
ATOM     27  N   UNL A   1      40.164  23.535  27.091  1.00  0.00    -0.372 N 
BRANCH  27  28
ATOM     28  C   UNL A   1      41.086  22.403  27.268  1.00  0.00     0.113 C 
ATOM     29  C   UNL A   1      42.062  22.603  28.418  1.00  0.00     0.027 C 
ENDBRANCH  27  28
BRANCH  27  30
ATOM     30  C   UNL A   1      40.726  24.886  27.242  1.00  0.00     0.113 C 
ATOM     31  C   UNL A   1      41.108  25.538  25.913  1.00  0.00     0.027 C 
ENDBRANCH  27  30
ENDBRANCH  22  27
ENDBRANCH   8  21
BRANCH  10  32
ATOM     32  C   UNL A   1      34.595  23.192  23.090  1.00  0.00     0.220 C 
ATOM     33  C   UNL A   1      33.704  23.272  21.878  1.00  0.00     0.114 C 
ATOM     34  O   UNL A   1      35.808  23.115  22.869  1.00  0.00    -0.275 OA
ENDBRANCH  10  32
ENDBRANCH   4   7
ENDBRANCH   2   3
ENDBRANCH   1   2
BRANCH   1  35
ATOM     35  C   UNL A   1      31.847  28.292  27.550  1.00  0.00     0.023 C 
BRANCH  35  36
ATOM     36  C   UNL A   1      32.973  29.186  27.041  1.00  0.00     0.116 C 
BRANCH  36  37
ATOM     37  N   UNL A   1      32.791  30.625  27.215  1.00  0.00    -0.352 N 
ATOM     38  C   UNL A   1      33.708  31.594  27.606  1.00  0.00     0.251 C 
ATOM     39  H   UNL A   1      31.883  30.959  27.027  1.00  0.00     0.163 HD
ATOM     40  O   UNL A   1      33.382  32.765  27.678  1.00  0.00    -0.269 OA
BRANCH  38  41
ATOM     41  C   UNL A   1      35.082  31.192  28.015  1.00  0.00     0.039 A 
ATOM     42  C   UNL A   1      36.081  32.168  28.096  1.00  0.00     0.014 A 
ATOM     43  C   UNL A   1      35.367  29.885  28.399  1.00  0.00     0.014 A 
ATOM     44  C   UNL A   1      37.307  31.862  28.700  1.00  0.00     0.010 A 
ATOM     45  C   UNL A   1      36.529  29.617  29.113  1.00  0.00     0.010 A 
ATOM     46  C   UNL A   1      37.511  30.605  29.289  1.00  0.00    -0.014 A 
BRANCH  46  47
ATOM     47  C   UNL A   1      38.718  30.292  30.107  1.00  0.00     0.031 A 
ATOM     48  C   UNL A   1      38.799  30.754  31.539  1.00  0.00     0.074 A 
ATOM     49  C   UNL A   1      39.790  29.702  29.537  1.00  0.00     0.049 A 
ATOM     50  N   UNL A   1      39.812  30.714  32.368  1.00  0.00    -0.248 NA
ATOM     51  C   UNL A   1      37.597  31.393  32.096  1.00  0.00     0.031 C 
ATOM     52  C   UNL A   1      39.883  29.273  28.139  1.00  0.00     0.029 A 
ATOM     53  N   UNL A   1      41.017  29.373  30.062  1.00  0.00    -0.354 N 
ATOM     54  C   UNL A   1      39.379  31.355  33.523  1.00  0.00     0.074 A 
ATOM     55  C   UNL A   1      38.040  31.833  33.264  1.00  0.00     0.031 C 
ATOM     56  C   UNL A   1      41.084  28.708  27.929  1.00  0.00     0.029 A 
ATOM     57  C   UNL A   1      41.863  28.772  29.160  1.00  0.00     0.049 A 
ATOM     58  H   UNL A   1      41.266  29.553  30.997  1.00  0.00     0.167 HD
ATOM     59  C   UNL A   1      40.022  31.503  34.706  1.00  0.00     0.037 A 
ATOM     60  C   UNL A   1      43.125  28.324  29.306  1.00  0.00     0.037 A 
ATOM     61  C   UNL A   1      41.330  30.976  34.985  1.00  0.00     0.049 A 
ATOM     62  C   UNL A   1      43.805  28.460  30.643  1.00  0.00     0.074 A 
ATOM     63  C   UNL A   1      42.032  30.996  36.178  1.00  0.00     0.029 A 
ATOM     64  N   UNL A   1      42.131  30.322  34.061  1.00  0.00    -0.354 N 
ATOM     65  N   UNL A   1      43.353  29.001  31.748  1.00  0.00    -0.248 NA
ATOM     66  C   UNL A   1      45.167  27.918  30.753  1.00  0.00     0.031 C 
ATOM     67  C   UNL A   1      43.272  30.385  35.965  1.00  0.00     0.029 A 
ATOM     68  C   UNL A   1      43.324  29.946  34.653  1.00  0.00     0.049 A 
ATOM     69  H   UNL A   1      41.886  30.150  33.123  1.00  0.00     0.167 HD
ATOM     70  C   UNL A   1      44.359  28.838  32.690  1.00  0.00     0.074 A 
ATOM     71  C   UNL A   1      45.441  28.137  32.031  1.00  0.00     0.031 C 
ATOM     72  C   UNL A   1      44.386  29.235  33.986  1.00  0.00     0.037 A 
BRANCH  59  73
ATOM     73  C   UNL A   1      39.303  32.251  35.793  1.00  0.00     0.057 A 
ATOM     74  C   UNL A   1      39.506  33.622  36.005  1.00  0.00     0.134 A 
ATOM     75  C   UNL A   1      38.390  31.598  36.629  1.00  0.00     0.134 A 
ATOM     76  F   UNL A   1      40.377  34.306  35.247  1.00  0.00    -0.206 F 
ATOM     77  C   UNL A   1      38.856  34.307  37.033  1.00  0.00     0.040 A 
ATOM     78  C   UNL A   1      37.710  32.280  37.640  1.00  0.00     0.040 A 
ATOM     79  F   UNL A   1      38.142  30.288  36.478  1.00  0.00    -0.206 F 
ATOM     80  C   UNL A   1      37.950  33.636  37.851  1.00  0.00     0.006 A 
ENDBRANCH  59  73
BRANCH  60  81
ATOM     81  C   UNL A   1      43.822  27.665  28.172  1.00  0.00     0.057 A 
ATOM     82  C   UNL A   1      44.364  28.421  27.124  1.00  0.00     0.134 A 
ATOM     83  C   UNL A   1      43.955  26.274  28.095  1.00  0.00     0.134 A 
ATOM     84  F   UNL A   1      44.252  29.758  27.130  1.00  0.00    -0.206 F 
ATOM     85  C   UNL A   1      44.993  27.818  26.033  1.00  0.00     0.040 A 
ATOM     86  C   UNL A   1      44.603  25.658  27.022  1.00  0.00     0.040 A 
ATOM     87  F   UNL A   1      43.464  25.492  29.069  1.00  0.00    -0.206 F 
ATOM     88  C   UNL A   1      45.117  26.431  25.983  1.00  0.00     0.006 A 
ENDBRANCH  60  81
BRANCH  72  89
ATOM     89  C   UNL A   1      45.604  28.886  34.788  1.00  0.00     0.057 A 
ATOM     90  C   UNL A   1      46.697  29.756  34.890  1.00  0.00     0.134 A 
ATOM     91  C   UNL A   1      45.662  27.685  35.507  1.00  0.00     0.134 A 
ATOM     92  F   UNL A   1      46.708  30.916  34.217  1.00  0.00    -0.206 F 
ATOM     93  C   UNL A   1      47.815  29.433  35.662  1.00  0.00     0.040 A 
ATOM     94  C   UNL A   1      46.763  27.363  36.302  1.00  0.00     0.040 A 
ATOM     95  F   UNL A   1      44.644  26.813  35.459  1.00  0.00    -0.206 F 
ATOM     96  C   UNL A   1      47.845  28.237  36.376  1.00  0.00     0.006 A 
ENDBRANCH  72  89
ENDBRANCH  46  47
ENDBRANCH  38  41
ENDBRANCH  36  37
ENDBRANCH  35  36
ENDBRANCH   1  35
TORSDOF 16
ENDMDL
MODEL 2
REMARK VINA RESULT:     -12.5      3.659      9.377
REMARK SMILES CCN(CC)c1ccc([C@@H]2c3[nH]c4ccccc4c3C[C@@H](C(=O)NCCCCNC(=O)c3ccc(-c4c5nc(c(-c6c(F)cccc6F)c6ccc([nH]6)c(-c6c(F)cccc6F)c6nc(c(-c7c(F)cccc7F)c7ccc4[nH]7)C=C6)C=C5)cc3)N2C(C)=O)cc1
REMARK SMILES IDX 26 1 25 2 24 3 22 4 23 5 21 7 10 8 11 9 86 10 12 11 19 12
REMARK SMILES IDX 13 13 18 15 20 16 14 17 17 18 15 19 16 20 9 21 6 22 7 23
REMARK SMILES IDX 91 24 8 25 90 26 3 27 2 28 1 29 4 30 5 31 87 32 88 33 89 34
REMARK SMILES IDX 27 35 28 36 29 37 30 38 31 40 32 41 33 42 85 43 34 44 84 45
REMARK SMILES IDX 35 46 36 47 37 48 78 49 38 50 83 51 77 52 79 53 39 54 82 55
REMARK SMILES IDX 76 56 75 57 40 59 66 60 49 61 65 62 50 63 53 64 64 65 80 66
REMARK SMILES IDX 51 67 52 68 63 70 81 71 54 72 41 73 42 74 47 75 43 76 44 77
REMARK SMILES IDX 46 78 48 79 45 80 67 81 68 82 73 83 69 84 70 85 72 86 74 87
REMARK SMILES IDX 71 88 55 89 56 90 61 91 57 92 58 93 60 94 62 95 59 96
REMARK H PARENT 24 6 12 14 29 39 79 58 53 69
REMARK Flexibility Score: inf
ROOT
ATOM      1  C   UNL A   1      35.352  23.142  23.509  1.00  0.00     0.023 C 
ENDROOT
BRANCH   1   2
ATOM      2  C   UNL A   1      34.668  24.395  24.073  1.00  0.00     0.116 C 
BRANCH   2   3
ATOM      3  N   UNL A   1      34.090  25.298  23.053  1.00  0.00    -0.354 N 
ATOM      4  C   UNL A   1      32.998  26.103  22.882  1.00  0.00     0.243 C 
ATOM      5  O   UNL A   1      33.025  26.771  21.836  1.00  0.00    -0.273 OA
ATOM      6  H   UNL A   1      34.668  25.329  22.256  1.00  0.00     0.163 HD
BRANCH   4   7
ATOM      7  C   UNL A   1      31.676  26.133  23.735  1.00  0.00     0.179 C 
ATOM      8  C   UNL A   1      32.419  28.142  24.932  1.00  0.00     0.163 C 
ATOM      9  C   UNL A   1      31.274  28.843  24.219  1.00  0.00     0.047 A 
ATOM     10  N   UNL A   1      31.866  26.797  25.079  1.00  0.00    -0.318 N 
ATOM     11  N   UNL A   1      30.943  30.168  24.235  1.00  0.00    -0.356 N 
ATOM     12  C   UNL A   1      30.371  28.206  23.365  1.00  0.00    -0.014 A 
ATOM     13  C   UNL A   1      29.707  30.337  23.651  1.00  0.00     0.046 A 
ATOM     14  H   UNL A   1      31.500  30.889  24.607  1.00  0.00     0.166 HD
ATOM     15  C   UNL A   1      29.346  29.126  23.063  1.00  0.00     0.003 A 
ATOM     16  C   UNL A   1      30.472  26.755  23.010  1.00  0.00     0.073 C 
ATOM     17  C   UNL A   1      28.887  31.465  23.610  1.00  0.00     0.026 A 
ATOM     18  C   UNL A   1      28.126  29.027  22.376  1.00  0.00     0.010 A 
ATOM     19  C   UNL A   1      27.653  31.329  22.971  1.00  0.00     0.002 A 
ATOM     20  C   UNL A   1      27.278  30.135  22.357  1.00  0.00     0.001 A 
BRANCH   8  21
ATOM     21  C   UNL A   1      33.142  28.777  26.098  1.00  0.00    -0.019 A 
ATOM     22  C   UNL A   1      34.822  30.213  27.917  1.00  0.00     0.037 A 
ATOM     23  C   UNL A   1      33.527  30.633  27.604  1.00  0.00     0.026 A 
ATOM     24  C   UNL A   1      35.181  28.953  27.424  1.00  0.00     0.026 A 
ATOM     25  C   UNL A   1      32.696  29.926  26.738  1.00  0.00     0.008 A 
ATOM     26  C   UNL A   1      34.366  28.246  26.528  1.00  0.00     0.008 A 
BRANCH  22  27
ATOM     27  N   UNL A   1      35.692  31.002  28.657  1.00  0.00    -0.372 N 
BRANCH  27  28
ATOM     28  C   UNL A   1      36.827  30.376  29.353  1.00  0.00     0.113 C 
ATOM     29  C   UNL A   1      36.462  29.843  30.730  1.00  0.00     0.027 C 
ENDBRANCH  27  28
BRANCH  27  30
ATOM     30  C   UNL A   1      35.732  32.463  28.491  1.00  0.00     0.113 C 
ATOM     31  C   UNL A   1      35.060  33.224  29.635  1.00  0.00     0.027 C 
ENDBRANCH  27  30
ENDBRANCH  22  27
ENDBRANCH   8  21
BRANCH  10  32
ATOM     32  C   UNL A   1      31.009  26.632  26.175  1.00  0.00     0.220 C 
ATOM     33  C   UNL A   1      29.904  25.608  26.136  1.00  0.00     0.114 C 
ATOM     34  O   UNL A   1      31.050  27.349  27.180  1.00  0.00    -0.275 OA
ENDBRANCH  10  32
ENDBRANCH   4   7
ENDBRANCH   2   3
ENDBRANCH   1   2
BRANCH   1  35
ATOM     35  C   UNL A   1      36.822  22.895  23.824  1.00  0.00     0.023 C 
BRANCH  35  36
ATOM     36  C   UNL A   1      37.183  22.699  25.293  1.00  0.00     0.116 C 
BRANCH  36  37
ATOM     37  N   UNL A   1      38.174  21.666  25.588  1.00  0.00    -0.352 N 
ATOM     38  C   UNL A   1      39.346  21.750  26.331  1.00  0.00     0.251 C 
ATOM     39  H   UNL A   1      37.985  20.781  25.202  1.00  0.00     0.163 HD
ATOM     40  O   UNL A   1      40.050  20.769  26.492  1.00  0.00    -0.269 OA
BRANCH  38  41
ATOM     41  C   UNL A   1      39.787  23.063  26.876  1.00  0.00     0.039 A 
ATOM     42  C   UNL A   1      40.755  23.091  27.886  1.00  0.00     0.014 A 
ATOM     43  C   UNL A   1      39.321  24.260  26.339  1.00  0.00     0.014 A 
ATOM     44  C   UNL A   1      41.354  24.305  28.245  1.00  0.00     0.010 A 
ATOM     45  C   UNL A   1      40.004  25.442  26.600  1.00  0.00     0.010 A 
ATOM     46  C   UNL A   1      41.042  25.481  27.545  1.00  0.00    -0.014 A 
BRANCH  46  47
ATOM     47  C   UNL A   1      41.785  26.757  27.755  1.00  0.00     0.031 A 
ATOM     48  C   UNL A   1      43.162  26.934  27.169  1.00  0.00     0.074 A 
ATOM     49  C   UNL A   1      41.281  27.709  28.569  1.00  0.00     0.049 A 
ATOM     50  N   UNL A   1      44.027  27.899  27.358  1.00  0.00    -0.248 NA
ATOM     51  C   UNL A   1      43.651  25.857  26.295  1.00  0.00     0.031 C 
ATOM     52  C   UNL A   1      39.996  27.639  29.269  1.00  0.00     0.029 A 
ATOM     53  N   UNL A   1      41.800  28.921  28.959  1.00  0.00    -0.354 N 
ATOM     54  C   UNL A   1      45.168  27.524  26.660  1.00  0.00     0.074 A 
ATOM     55  C   UNL A   1      44.911  26.215  26.102  1.00  0.00     0.031 C 
ATOM     56  C   UNL A   1      39.812  28.770  29.971  1.00  0.00     0.029 A 
ATOM     57  C   UNL A   1      40.981  29.627  29.809  1.00  0.00     0.049 A 
ATOM     58  H   UNL A   1      42.677  29.252  28.658  1.00  0.00     0.167 HD
ATOM     59  C   UNL A   1      46.316  28.217  26.469  1.00  0.00     0.037 A 
ATOM     60  C   UNL A   1      41.152  30.829  30.394  1.00  0.00     0.037 A 
ATOM     61  C   UNL A   1      46.551  29.543  26.973  1.00  0.00     0.049 A 
ATOM     62  C   UNL A   1      42.417  31.601  30.132  1.00  0.00     0.074 A 
ATOM     63  C   UNL A   1      47.644  30.365  26.761  1.00  0.00     0.029 A 
ATOM     64  N   UNL A   1      45.671  30.247  27.781  1.00  0.00    -0.354 N 
ATOM     65  N   UNL A   1      43.456  31.264  29.407  1.00  0.00    -0.248 NA
ATOM     66  C   UNL A   1      42.530  32.923  30.766  1.00  0.00     0.031 C 
ATOM     67  C   UNL A   1      47.440  31.553  27.471  1.00  0.00     0.029 A 
ATOM     68  C   UNL A   1      46.202  31.488  28.088  1.00  0.00     0.049 A 
ATOM     69  H   UNL A   1      44.798  29.913  28.091  1.00  0.00     0.167 HD
ATOM     70  C   UNL A   1      44.330  32.341  29.472  1.00  0.00     0.074 A 
ATOM     71  C   UNL A   1      43.694  33.348  30.297  1.00  0.00     0.031 C 
ATOM     72  C   UNL A   1      45.551  32.484  28.900  1.00  0.00     0.037 A 
BRANCH  59  73
ATOM     73  C   UNL A   1      47.396  27.555  25.661  1.00  0.00     0.057 A 
ATOM     74  C   UNL A   1      48.445  26.850  26.268  1.00  0.00     0.134 A 
ATOM     75  C   UNL A   1      47.382  27.612  24.263  1.00  0.00     0.134 A 
ATOM     76  F   UNL A   1      48.525  26.767  27.605  1.00  0.00    -0.206 F 
ATOM     77  C   UNL A   1      49.461  26.259  25.514  1.00  0.00     0.040 A 
ATOM     78  C   UNL A   1      48.375  26.998  23.496  1.00  0.00     0.040 A 
ATOM     79  F   UNL A   1      46.404  28.263  23.615  1.00  0.00    -0.206 F 
ATOM     80  C   UNL A   1      49.424  26.328  24.124  1.00  0.00     0.006 A 
ENDBRANCH  59  73
BRANCH  60  81
ATOM     81  C   UNL A   1      40.084  31.401  31.253  1.00  0.00     0.057 A 
ATOM     82  C   UNL A   1      39.215  32.385  30.761  1.00  0.00     0.134 A 
ATOM     83  C   UNL A   1      39.909  30.996  32.581  1.00  0.00     0.134 A 
ATOM     84  F   UNL A   1      39.345  32.829  29.502  1.00  0.00    -0.206 F 
ATOM     85  C   UNL A   1      38.228  32.959  31.563  1.00  0.00     0.040 A 
ATOM     86  C   UNL A   1      38.909  31.544  33.388  1.00  0.00     0.040 A 
ATOM     87  F   UNL A   1      40.702  30.054  33.112  1.00  0.00    -0.206 F 
ATOM     88  C   UNL A   1      38.070  32.534  32.881  1.00  0.00     0.006 A 
ENDBRANCH  60  81
BRANCH  72  89
ATOM     89  C   UNL A   1      46.262  33.787  29.112  1.00  0.00     0.057 A 
ATOM     90  C   UNL A   1      47.165  33.974  30.166  1.00  0.00     0.134 A 
ATOM     91  C   UNL A   1      46.077  34.851  28.221  1.00  0.00     0.134 A 
ATOM     92  F   UNL A   1      47.378  32.997  31.061  1.00  0.00    -0.206 F 
ATOM     93  C   UNL A   1      47.844  35.182  30.338  1.00  0.00     0.040 A 
ATOM     94  C   UNL A   1      46.769  36.055  28.367  1.00  0.00     0.040 A 
ATOM     95  F   UNL A   1      45.233  34.734  27.185  1.00  0.00    -0.206 F 
ATOM     96  C   UNL A   1      47.651  36.223  29.432  1.00  0.00     0.006 A 
ENDBRANCH  72  89
ENDBRANCH  46  47
ENDBRANCH  38  41
ENDBRANCH  36  37
ENDBRANCH  35  36
ENDBRANCH   1  35
TORSDOF 16
ENDMDL
MODEL 3
REMARK VINA RESULT:     -11.6      2.886      5.941
REMARK SMILES CCN(CC)c1ccc([C@@H]2c3[nH]c4ccccc4c3C[C@@H](C(=O)NCCCCNC(=O)c3ccc(-c4c5nc(c(-c6c(F)cccc6F)c6ccc([nH]6)c(-c6c(F)cccc6F)c6nc(c(-c7c(F)cccc7F)c7ccc4[nH]7)C=C6)C=C5)cc3)N2C(C)=O)cc1
REMARK SMILES IDX 26 1 25 2 24 3 22 4 23 5 21 7 10 8 11 9 86 10 12 11 19 12
REMARK SMILES IDX 13 13 18 15 20 16 14 17 17 18 15 19 16 20 9 21 6 22 7 23
REMARK SMILES IDX 91 24 8 25 90 26 3 27 2 28 1 29 4 30 5 31 87 32 88 33 89 34
REMARK SMILES IDX 27 35 28 36 29 37 30 38 31 40 32 41 33 42 85 43 34 44 84 45
REMARK SMILES IDX 35 46 36 47 37 48 78 49 38 50 83 51 77 52 79 53 39 54 82 55
REMARK SMILES IDX 76 56 75 57 40 59 66 60 49 61 65 62 50 63 53 64 64 65 80 66
REMARK SMILES IDX 51 67 52 68 63 70 81 71 54 72 41 73 42 74 47 75 43 76 44 77
REMARK SMILES IDX 46 78 48 79 45 80 67 81 68 82 73 83 69 84 70 85 72 86 74 87
REMARK SMILES IDX 71 88 55 89 56 90 61 91 57 92 58 93 60 94 62 95 59 96
REMARK H PARENT 24 6 12 14 29 39 79 58 53 69
REMARK Flexibility Score: inf
ROOT
ATOM      1  C   UNL A   1      34.408  32.365  29.024  1.00  0.00     0.023 C 
ENDROOT
BRANCH   1   2
ATOM      2  C   UNL A   1      34.871  31.254  28.072  1.00  0.00     0.116 C 
BRANCH   2   3
ATOM      3  N   UNL A   1      33.953  30.098  27.975  1.00  0.00    -0.354 N 
ATOM      4  C   UNL A   1      33.394  29.298  27.017  1.00  0.00     0.243 C 
ATOM      5  O   UNL A   1      32.739  28.348  27.477  1.00  0.00    -0.273 OA
ATOM      6  H   UNL A   1      33.655  29.821  28.871  1.00  0.00     0.163 HD
BRANCH   4   7
ATOM      7  C   UNL A   1      33.331  29.547  25.465  1.00  0.00     0.179 C 
ATOM      8  C   UNL A   1      32.513  27.267  25.069  1.00  0.00     0.163 C 
ATOM      9  C   UNL A   1      31.221  27.936  24.632  1.00  0.00     0.047 A 
ATOM     10  N   UNL A   1      33.492  28.274  24.666  1.00  0.00    -0.318 N 
ATOM     11  N   UNL A   1      30.039  27.354  24.270  1.00  0.00    -0.356 N 
ATOM     12  C   UNL A   1      31.030  29.319  24.573  1.00  0.00    -0.014 A 
ATOM     13  C   UNL A   1      29.210  28.307  23.721  1.00  0.00     0.046 A 
ATOM     14  H   UNL A   1      29.816  26.403  24.383  1.00  0.00     0.166 HD
ATOM     15  C   UNL A   1      29.794  29.554  23.936  1.00  0.00     0.003 A 
ATOM     16  C   UNL A   1      32.077  30.302  24.998  1.00  0.00     0.073 C 
ATOM     17  C   UNL A   1      27.998  28.154  23.048  1.00  0.00     0.026 A 
ATOM     18  C   UNL A   1      29.140  30.713  23.489  1.00  0.00     0.010 A 
ATOM     19  C   UNL A   1      27.391  29.313  22.561  1.00  0.00     0.002 A 
ATOM     20  C   UNL A   1      27.945  30.573  22.782  1.00  0.00     0.001 A 
BRANCH   8  21
ATOM     21  C   UNL A   1      32.793  25.808  24.787  1.00  0.00    -0.019 A 
ATOM     22  C   UNL A   1      33.232  22.980  24.792  1.00  0.00     0.037 A 
ATOM     23  C   UNL A   1      32.046  23.552  24.326  1.00  0.00     0.026 A 
ATOM     24  C   UNL A   1      34.259  23.884  25.090  1.00  0.00     0.026 A 
ATOM     25  C   UNL A   1      31.835  24.929  24.298  1.00  0.00     0.008 A 
ATOM     26  C   UNL A   1      34.050  25.270  25.096  1.00  0.00     0.008 A 
BRANCH  22  27
ATOM     27  N   UNL A   1      33.371  21.608  24.956  1.00  0.00    -0.372 N 
BRANCH  27  28
ATOM     28  C   UNL A   1      32.825  20.696  23.939  1.00  0.00     0.113 C 
ATOM     29  C   UNL A   1      33.053  19.229  24.270  1.00  0.00     0.027 C 
ENDBRANCH  27  28
BRANCH  27  30
ATOM     30  C   UNL A   1      34.335  21.044  25.913  1.00  0.00     0.113 C 
ATOM     31  C   UNL A   1      34.010  21.373  27.370  1.00  0.00     0.027 C 
ENDBRANCH  27  30
ENDBRANCH  22  27
ENDBRANCH   8  21
BRANCH  10  32
ATOM     32  C   UNL A   1      33.860  28.227  23.314  1.00  0.00     0.220 C 
ATOM     33  C   UNL A   1      33.176  27.275  22.368  1.00  0.00     0.114 C 
ATOM     34  O   UNL A   1      34.795  28.883  22.844  1.00  0.00    -0.275 OA
ENDBRANCH  10  32
ENDBRANCH   4   7
ENDBRANCH   2   3
ENDBRANCH   1   2
BRANCH   1  35
ATOM     35  C   UNL A   1      33.573  33.515  28.471  1.00  0.00     0.023 C 
BRANCH  35  36
ATOM     36  C   UNL A   1      33.910  34.911  28.984  1.00  0.00     0.116 C 
BRANCH  36  37
ATOM     37  N   UNL A   1      32.942  35.522  29.893  1.00  0.00    -0.352 N 
ATOM     38  C   UNL A   1      32.967  35.617  31.280  1.00  0.00     0.251 C 
ATOM     39  H   UNL A   1      32.155  35.925  29.459  1.00  0.00     0.163 HD
ATOM     40  O   UNL A   1      32.073  36.188  31.879  1.00  0.00    -0.269 OA
BRANCH  38  41
ATOM     41  C   UNL A   1      34.055  34.954  32.049  1.00  0.00     0.039 A 
ATOM     42  C   UNL A   1      33.856  33.655  32.530  1.00  0.00     0.014 A 
ATOM     43  C   UNL A   1      35.292  35.568  32.223  1.00  0.00     0.014 A 
ATOM     44  C   UNL A   1      34.938  32.929  33.045  1.00  0.00     0.010 A 
ATOM     45  C   UNL A   1      36.389  34.806  32.610  1.00  0.00     0.010 A 
ATOM     46  C   UNL A   1      36.232  33.470  33.012  1.00  0.00    -0.014 A 
BRANCH  46  47
ATOM     47  C   UNL A   1      37.440  32.672  33.368  1.00  0.00     0.031 A 
ATOM     48  C   UNL A   1      38.178  32.950  34.651  1.00  0.00     0.074 A 
ATOM     49  C   UNL A   1      37.947  31.780  32.489  1.00  0.00     0.049 A 
ATOM     50  N   UNL A   1      39.325  32.474  35.070  1.00  0.00    -0.248 NA
ATOM     51  C   UNL A   1      37.573  33.935  35.561  1.00  0.00     0.031 C 
ATOM     52  C   UNL A   1      37.383  31.465  31.174  1.00  0.00     0.029 A 
ATOM     53  N   UNL A   1      39.064  30.983  32.564  1.00  0.00    -0.354 N 
ATOM     54  C   UNL A   1      39.590  33.129  36.267  1.00  0.00     0.074 A 
ATOM     55  C   UNL A   1      38.524  34.083  36.471  1.00  0.00     0.031 C 
ATOM     56  C   UNL A   1      38.135  30.521  30.584  1.00  0.00     0.029 A 
ATOM     57  C   UNL A   1      39.257  30.192  31.456  1.00  0.00     0.049 A 
ATOM     58  H   UNL A   1      39.671  30.980  33.340  1.00  0.00     0.167 HD
ATOM     59  C   UNL A   1      40.609  32.933  37.137  1.00  0.00     0.037 A 
ATOM     60  C   UNL A   1      40.229  29.304  31.172  1.00  0.00     0.037 A 
ATOM     61  C   UNL A   1      41.638  31.943  36.965  1.00  0.00     0.049 A 
ATOM     62  C   UNL A   1      41.329  29.070  32.173  1.00  0.00     0.074 A 
ATOM     63  C   UNL A   1      42.664  31.606  37.830  1.00  0.00     0.029 A 
ATOM     64  N   UNL A   1      41.764  31.122  35.855  1.00  0.00    -0.354 N 
ATOM     65  N   UNL A   1      41.524  29.645  33.335  1.00  0.00    -0.248 NA
ATOM     66  C   UNL A   1      42.340  28.061  31.825  1.00  0.00     0.031 C 
ATOM     67  C   UNL A   1      43.432  30.604  37.227  1.00  0.00     0.029 A 
ATOM     68  C   UNL A   1      42.858  30.287  36.007  1.00  0.00     0.049 A 
ATOM     69  H   UNL A   1      41.164  31.130  35.074  1.00  0.00     0.167 HD
ATOM     70  C   UNL A   1      42.658  29.047  33.869  1.00  0.00     0.074 A 
ATOM     71  C   UNL A   1      43.100  28.056  32.910  1.00  0.00     0.031 C 
ATOM     72  C   UNL A   1      43.278  29.297  35.048  1.00  0.00     0.037 A 
BRANCH  59  73
ATOM     73  C   UNL A   1      40.644  33.798  38.365  1.00  0.00     0.057 A 
ATOM     74  C   UNL A   1      39.871  33.506  39.497  1.00  0.00     0.134 A 
ATOM     75  C   UNL A   1      41.469  34.928  38.421  1.00  0.00     0.134 A 
ATOM     76  F   UNL A   1      39.050  32.445  39.504  1.00  0.00    -0.206 F 
ATOM     77  C   UNL A   1      39.887  34.328  40.625  1.00  0.00     0.040 A 
ATOM     78  C   UNL A   1      41.518  35.740  39.556  1.00  0.00     0.040 A 
ATOM     79  F   UNL A   1      42.241  35.263  37.376  1.00  0.00    -0.206 F 
ATOM     80  C   UNL A   1      40.717  35.446  40.659  1.00  0.00     0.006 A 
ENDBRANCH  59  73
BRANCH  60  81
ATOM     81  C   UNL A   1      40.191  28.534  29.902  1.00  0.00     0.057 A 
ATOM     82  C   UNL A   1      40.902  28.968  28.776  1.00  0.00     0.134 A 
ATOM     83  C   UNL A   1      39.441  27.359  29.774  1.00  0.00     0.134 A 
ATOM     84  F   UNL A   1      41.624  30.097  28.829  1.00  0.00    -0.206 F 
ATOM     85  C   UNL A   1      40.852  28.276  27.565  1.00  0.00     0.040 A 
ATOM     86  C   UNL A   1      39.401  26.643  28.576  1.00  0.00     0.040 A 
ATOM     87  F   UNL A   1      38.743  26.884  30.817  1.00  0.00    -0.206 F 
ATOM     88  C   UNL A   1      40.103  27.105  27.465  1.00  0.00     0.006 A 
ENDBRANCH  60  81
BRANCH  72  89
ATOM     89  C   UNL A   1      44.476  28.461  35.387  1.00  0.00     0.057 A 
ATOM     90  C   UNL A   1      44.361  27.247  36.074  1.00  0.00     0.134 A 
ATOM     91  C   UNL A   1      45.757  28.855  34.976  1.00  0.00     0.134 A 
ATOM     92  F   UNL A   1      43.165  26.819  36.504  1.00  0.00    -0.206 F 
ATOM     93  C   UNL A   1      45.481  26.463  36.359  1.00  0.00     0.040 A 
ATOM     94  C   UNL A   1      46.880  28.068  35.233  1.00  0.00     0.040 A 
ATOM     95  F   UNL A   1      45.934  30.004  34.306  1.00  0.00    -0.206 F 
ATOM     96  C   UNL A   1      46.743  26.870  35.930  1.00  0.00     0.006 A 
ENDBRANCH  72  89
ENDBRANCH  46  47
ENDBRANCH  38  41
ENDBRANCH  36  37
ENDBRANCH  35  36
ENDBRANCH   1  35
TORSDOF 16
ENDMDL
