MODEL 1
REMARK VINA RESULT:     -11.8      0.000      0.000
REMARK SMILES Cc1ccc(N)c(SCCOc2ccccc2C(=O)NCCCCNC(=O)c2ccc(-c3c4nc(c(-c5c(F)cccc5F)c5ccc([nH]5)c(-c5c(F)cccc5F)c5nc(c(-c6c(F)cccc6F)c6ccc3[nH]6)C=C5)C=C4)cc2)c1
REMARK SMILES IDX 18 1 19 2 20 3 17 5 12 6 13 7 14 8 16 9 15 10 11 11 10 12
REMARK SMILES IDX 9 13 8 14 7 15 1 16 2 17 3 18 82 19 4 20 5 21 6 22 21 25
REMARK SMILES IDX 22 26 23 27 24 28 25 29 26 30 27 32 28 33 29 34 81 35 30 36
REMARK SMILES IDX 80 37 31 38 32 39 33 40 74 41 34 42 79 43 73 44 75 45 35 46
REMARK SMILES IDX 78 47 72 48 71 49 36 51 62 52 45 53 61 54 46 55 49 56 60 57
REMARK SMILES IDX 76 58 47 59 48 60 59 62 77 63 50 64 37 65 38 66 43 67 39 68
REMARK SMILES IDX 40 69 42 70 44 71 41 72 63 73 64 74 69 75 65 76 66 77 68 78
REMARK SMILES IDX 70 79 67 80 51 81 52 82 57 83 53 84 54 85 56 86 58 87 55 88
REMARK H PARENT 20 4 6 23 6 24 25 31 75 50 49 61
REMARK Flexibility Score: inf
ROOT
ATOM      1  C   UNL A   1      30.801  23.556  26.795  1.00  0.00     0.255 C 
ATOM      2  O   UNL A   1      29.706  23.270  27.320  1.00  0.00    -0.269 OA
ATOM      3  N   UNL A   1      30.871  24.885  26.631  1.00  0.00    -0.352 N 
ATOM      4  H   UNL A   1      30.004  25.341  26.714  1.00  0.00     0.163 HD
ENDROOT
BRANCH   1   5
ATOM      5  C   UNL A   1      31.905  22.610  26.476  1.00  0.00     0.081 A 
ATOM      6  C   UNL A   1      31.921  22.157  25.194  1.00  0.00     0.132 A 
ATOM      7  C   UNL A   1      32.610  20.982  24.871  1.00  0.00     0.047 A 
ATOM      8  C   UNL A   1      33.632  20.546  25.718  1.00  0.00     0.004 A 
ATOM      9  C   UNL A   1      33.159  22.448  27.046  1.00  0.00     0.018 A 
ATOM     10  C   UNL A   1      34.019  21.404  26.721  1.00  0.00     0.001 A 
BRANCH   6  11
ATOM     11  O   UNL A   1      31.671  23.145  24.255  1.00  0.00    -0.492 OA
BRANCH  11  12
ATOM     12  C   UNL A   1      32.720  23.131  23.198  1.00  0.00     0.241 C 
BRANCH  12  13
ATOM     13  C   UNL A   1      33.804  24.303  23.041  1.00  0.00     0.116 C 
BRANCH  13  14
ATOM     14  S   UNL A   1      33.735  26.354  23.017  1.00  0.00    -0.120 SA
BRANCH  14  15
ATOM     15  C   UNL A   1      32.106  27.263  22.904  1.00  0.00     0.031 A 
ATOM     16  C   UNL A   1      28.481  26.658  23.879  1.00  0.00     0.044 C 
ATOM     17  C   UNL A   1      29.684  27.412  23.354  1.00  0.00    -0.050 A 
ATOM     18  C   UNL A   1      29.813  28.762  23.666  1.00  0.00     0.005 A 
ATOM     19  C   UNL A   1      30.798  26.734  22.791  1.00  0.00     0.020 A 
ATOM     20  C   UNL A   1      31.035  29.398  23.446  1.00  0.00     0.027 A 
ATOM     21  C   UNL A   1      32.179  28.672  23.056  1.00  0.00     0.045 A 
BRANCH  21  22
ATOM     22  N   UNL A   1      33.406  29.342  23.029  1.00  0.00    -0.398 N 
ATOM     23  H   UNL A   1      34.168  28.994  23.548  1.00  0.00     0.156 HD
ATOM     24  H   UNL A   1      33.508  30.161  22.492  1.00  0.00     0.156 HD
ENDBRANCH  21  22
ENDBRANCH  14  15
ENDBRANCH  13  14
ENDBRANCH  12  13
ENDBRANCH  11  12
ENDBRANCH   6  11
ENDBRANCH   1   5
BRANCH   3  25
ATOM     25  C   UNL A   1      31.966  25.771  26.359  1.00  0.00     0.116 C 
BRANCH  25  26
ATOM     26  C   UNL A   1      31.466  27.209  26.486  1.00  0.00     0.023 C 
BRANCH  26  27
ATOM     27  C   UNL A   1      32.372  28.153  27.306  1.00  0.00     0.023 C 
BRANCH  27  28
ATOM     28  C   UNL A   1      33.548  28.756  26.542  1.00  0.00     0.116 C 
BRANCH  28  29
ATOM     29  N   UNL A   1      33.641  30.191  26.762  1.00  0.00    -0.352 N 
ATOM     30  C   UNL A   1      34.479  30.887  27.578  1.00  0.00     0.251 C 
ATOM     31  H   UNL A   1      33.006  30.738  26.247  1.00  0.00     0.163 HD
ATOM     32  O   UNL A   1      34.198  32.052  27.902  1.00  0.00    -0.269 OA
BRANCH  30  33
ATOM     33  C   UNL A   1      35.725  30.276  28.071  1.00  0.00     0.039 A 
ATOM     34  C   UNL A   1      35.731  29.647  29.317  1.00  0.00     0.014 A 
ATOM     35  C   UNL A   1      36.906  30.388  27.332  1.00  0.00     0.014 A 
ATOM     36  C   UNL A   1      36.919  29.112  29.813  1.00  0.00     0.010 A 
ATOM     37  C   UNL A   1      38.071  29.779  27.788  1.00  0.00     0.010 A 
ATOM     38  C   UNL A   1      38.096  29.165  29.049  1.00  0.00    -0.014 A 
BRANCH  38  39
ATOM     39  C   UNL A   1      39.378  28.643  29.585  1.00  0.00     0.031 A 
ATOM     40  C   UNL A   1      39.997  29.283  30.799  1.00  0.00     0.074 A 
ATOM     41  C   UNL A   1      39.995  27.619  28.967  1.00  0.00     0.049 A 
ATOM     42  N   UNL A   1      41.120  28.993  31.405  1.00  0.00    -0.248 NA
ATOM     43  C   UNL A   1      39.272  30.418  31.395  1.00  0.00     0.031 C 
ATOM     44  C   UNL A   1      39.517  26.948  27.757  1.00  0.00     0.029 A 
ATOM     45  N   UNL A   1      41.161  26.964  29.272  1.00  0.00    -0.354 N 
ATOM     46  C   UNL A   1      41.241  29.916  32.438  1.00  0.00     0.074 A 
ATOM     47  C   UNL A   1      40.113  30.814  32.339  1.00  0.00     0.031 C 
ATOM     48  C   UNL A   1      40.366  25.957  27.441  1.00  0.00     0.029 A 
ATOM     49  C   UNL A   1      41.464  25.946  28.403  1.00  0.00     0.049 A 
ATOM     50  H   UNL A   1      41.727  27.202  30.042  1.00  0.00     0.167 HD
ATOM     51  C   UNL A   1      42.188  29.990  33.402  1.00  0.00     0.037 A 
ATOM     52  C   UNL A   1      42.510  25.099  28.386  1.00  0.00     0.037 A 
ATOM     53  C   UNL A   1      43.294  29.076  33.514  1.00  0.00     0.049 A 
ATOM     54  C   UNL A   1      43.548  25.199  29.471  1.00  0.00     0.074 A 
ATOM     55  C   UNL A   1      44.282  29.031  34.481  1.00  0.00     0.029 A 
ATOM     56  N   UNL A   1      43.554  28.043  32.626  1.00  0.00    -0.354 N 
ATOM     57  N   UNL A   1      43.614  26.034  30.481  1.00  0.00    -0.248 NA
ATOM     58  C   UNL A   1      44.651  24.230  29.421  1.00  0.00     0.031 C 
ATOM     59  C   UNL A   1      45.168  27.999  34.153  1.00  0.00     0.029 A 
ATOM     60  C   UNL A   1      44.696  27.364  33.015  1.00  0.00     0.049 A 
ATOM     61  H   UNL A   1      43.008  27.824  31.837  1.00  0.00     0.167 HD
ATOM     62  C   UNL A   1      44.739  25.665  31.207  1.00  0.00     0.074 A 
ATOM     63  C   UNL A   1      45.317  24.525  30.528  1.00  0.00     0.031 C 
ATOM     64  C   UNL A   1      45.248  26.219  32.336  1.00  0.00     0.037 A 
BRANCH  51  65
ATOM     65  C   UNL A   1      42.065  31.093  34.414  1.00  0.00     0.057 A 
ATOM     66  C   UNL A   1      42.673  32.341  34.227  1.00  0.00     0.134 A 
ATOM     67  C   UNL A   1      41.304  30.916  35.578  1.00  0.00     0.134 A 
ATOM     68  F   UNL A   1      43.428  32.575  33.142  1.00  0.00    -0.206 F 
ATOM     69  C   UNL A   1      42.555  33.362  35.172  1.00  0.00     0.040 A 
ATOM     70  C   UNL A   1      41.153  31.940  36.515  1.00  0.00     0.040 A 
ATOM     71  F   UNL A   1      40.689  29.749  35.819  1.00  0.00    -0.206 F 
ATOM     72  C   UNL A   1      41.786  33.165  36.316  1.00  0.00     0.006 A 
ENDBRANCH  51  65
BRANCH  52  73
ATOM     73  C   UNL A   1      42.617  24.061  27.329  1.00  0.00     0.057 A 
ATOM     74  C   UNL A   1      42.143  22.760  27.540  1.00  0.00     0.134 A 
ATOM     75  C   UNL A   1      43.213  24.335  26.091  1.00  0.00     0.134 A 
ATOM     76  F   UNL A   1      41.577  22.430  28.710  1.00  0.00    -0.206 F 
ATOM     77  C   UNL A   1      42.287  21.763  26.575  1.00  0.00     0.040 A 
ATOM     78  C   UNL A   1      43.336  23.355  25.107  1.00  0.00     0.040 A 
ATOM     79  F   UNL A   1      43.676  25.564  25.821  1.00  0.00    -0.206 F 
ATOM     80  C   UNL A   1      42.882  22.061  25.351  1.00  0.00     0.006 A 
ENDBRANCH  52  73
BRANCH  64  81
ATOM     81  C   UNL A   1      46.456  25.561  32.938  1.00  0.00     0.057 A 
ATOM     82  C   UNL A   1      47.760  25.938  32.596  1.00  0.00     0.134 A 
ATOM     83  C   UNL A   1      46.305  24.554  33.902  1.00  0.00     0.134 A 
ATOM     84  F   UNL A   1      47.973  26.888  31.673  1.00  0.00    -0.206 F 
ATOM     85  C   UNL A   1      48.872  25.314  33.164  1.00  0.00     0.040 A 
ATOM     86  C   UNL A   1      47.409  23.945  34.501  1.00  0.00     0.040 A 
ATOM     87  F   UNL A   1      45.084  24.153  34.285  1.00  0.00    -0.206 F 
ATOM     88  C   UNL A   1      48.697  24.318  34.124  1.00  0.00     0.006 A 
ENDBRANCH  64  81
ENDBRANCH  38  39
ENDBRANCH  30  33
ENDBRANCH  28  29
ENDBRANCH  27  28
ENDBRANCH  26  27
ENDBRANCH  25  26
ENDBRANCH   3  25
TORSDOF 17
ENDMDL
MODEL 2
REMARK VINA RESULT:     -11.7      3.671      8.457
REMARK SMILES Cc1ccc(N)c(SCCOc2ccccc2C(=O)NCCCCNC(=O)c2ccc(-c3c4nc(c(-c5c(F)cccc5F)c5ccc([nH]5)c(-c5c(F)cccc5F)c5nc(c(-c6c(F)cccc6F)c6ccc3[nH]6)C=C5)C=C4)cc2)c1
REMARK SMILES IDX 18 1 19 2 20 3 17 5 12 6 13 7 14 8 16 9 15 10 11 11 10 12
REMARK SMILES IDX 9 13 8 14 7 15 1 16 2 17 3 18 82 19 4 20 5 21 6 22 21 25
REMARK SMILES IDX 22 26 23 27 24 28 25 29 26 30 27 32 28 33 29 34 81 35 30 36
REMARK SMILES IDX 80 37 31 38 32 39 33 40 74 41 34 42 79 43 73 44 75 45 35 46
REMARK SMILES IDX 78 47 72 48 71 49 36 51 62 52 45 53 61 54 46 55 49 56 60 57
REMARK SMILES IDX 76 58 47 59 48 60 59 62 77 63 50 64 37 65 38 66 43 67 39 68
REMARK SMILES IDX 40 69 42 70 44 71 41 72 63 73 64 74 69 75 65 76 66 77 68 78
REMARK SMILES IDX 70 79 67 80 51 81 52 82 57 83 53 84 54 85 56 86 58 87 55 88
REMARK H PARENT 20 4 6 23 6 24 25 31 75 50 49 61
REMARK Flexibility Score: inf
ROOT
ATOM      1  C   UNL A   1      33.597  26.515  22.739  1.00  0.00     0.255 C 
ATOM      2  O   UNL A   1      33.694  26.929  21.566  1.00  0.00    -0.269 OA
ATOM      3  N   UNL A   1      34.000  25.237  22.784  1.00  0.00    -0.352 N 
ATOM      4  H   UNL A   1      34.056  24.807  21.901  1.00  0.00     0.163 HD
ENDROOT
BRANCH   1   5
ATOM      5  C   UNL A   1      33.191  27.311  23.928  1.00  0.00     0.081 A 
ATOM      6  C   UNL A   1      31.849  27.399  24.130  1.00  0.00     0.132 A 
ATOM      7  C   UNL A   1      31.323  28.426  24.925  1.00  0.00     0.047 A 
ATOM      8  C   UNL A   1      32.154  29.049  25.859  1.00  0.00     0.004 A 
ATOM      9  C   UNL A   1      33.862  27.590  25.110  1.00  0.00     0.018 A 
ATOM     10  C   UNL A   1      33.391  28.485  26.066  1.00  0.00     0.001 A 
BRANCH   6  11
ATOM     11  O   UNL A   1      31.181  26.201  23.939  1.00  0.00    -0.492 OA
BRANCH  11  12
ATOM     12  C   UNL A   1      30.266  25.930  25.083  1.00  0.00     0.241 C 
BRANCH  12  13
ATOM     13  C   UNL A   1      30.432  24.651  26.037  1.00  0.00     0.116 C 
BRANCH  13  14
ATOM     14  S   UNL A   1      32.023  23.646  26.857  1.00  0.00    -0.120 SA
BRANCH  14  15
ATOM     15  C   UNL A   1      32.581  21.999  26.172  1.00  0.00     0.031 A 
ATOM     16  C   UNL A   1      32.259  20.060  22.918  1.00  0.00     0.044 C 
ATOM     17  C   UNL A   1      32.724  20.370  24.324  1.00  0.00    -0.050 A 
ATOM     18  C   UNL A   1      34.039  20.074  24.671  1.00  0.00     0.005 A 
ATOM     19  C   UNL A   1      31.956  21.183  25.199  1.00  0.00     0.020 A 
ATOM     20  C   UNL A   1      34.569  20.607  25.847  1.00  0.00     0.027 A 
ATOM     21  C   UNL A   1      33.854  21.553  26.609  1.00  0.00     0.045 A 
BRANCH  21  22
ATOM     22  N   UNL A   1      34.516  22.178  27.672  1.00  0.00    -0.398 N 
ATOM     23  H   UNL A   1      35.405  21.860  27.953  1.00  0.00     0.156 HD
ATOM     24  H   UNL A   1      34.092  22.933  28.139  1.00  0.00     0.156 HD
ENDBRANCH  21  22
ENDBRANCH  14  15
ENDBRANCH  13  14
ENDBRANCH  12  13
ENDBRANCH  11  12
ENDBRANCH   6  11
ENDBRANCH   1   5
BRANCH   3  25
ATOM     25  C   UNL A   1      34.368  24.375  23.870  1.00  0.00     0.116 C 
BRANCH  25  26
ATOM     26  C   UNL A   1      35.148  23.189  23.303  1.00  0.00     0.023 C 
BRANCH  26  27
ATOM     27  C   UNL A   1      36.633  23.117  23.717  1.00  0.00     0.023 C 
BRANCH  27  28
ATOM     28  C   UNL A   1      36.920  23.453  25.178  1.00  0.00     0.116 C 
BRANCH  28  29
ATOM     29  N   UNL A   1      37.846  22.499  25.768  1.00  0.00    -0.352 N 
ATOM     30  C   UNL A   1      39.051  22.719  26.362  1.00  0.00     0.251 C 
ATOM     31  H   UNL A   1      37.562  21.558  25.732  1.00  0.00     0.163 HD
ATOM     32  O   UNL A   1      39.854  21.781  26.496  1.00  0.00    -0.269 OA
BRANCH  30  33
ATOM     33  C   UNL A   1      39.408  24.058  26.861  1.00  0.00     0.039 A 
ATOM     34  C   UNL A   1      40.043  24.959  26.006  1.00  0.00     0.014 A 
ATOM     35  C   UNL A   1      39.179  24.397  28.198  1.00  0.00     0.014 A 
ATOM     36  C   UNL A   1      40.431  26.209  26.486  1.00  0.00     0.010 A 
ATOM     37  C   UNL A   1      39.488  25.674  28.653  1.00  0.00     0.010 A 
ATOM     38  C   UNL A   1      40.148  26.580  27.811  1.00  0.00    -0.014 A 
BRANCH  38  39
ATOM     39  C   UNL A   1      40.598  27.888  28.349  1.00  0.00     0.031 A 
ATOM     40  C   UNL A   1      42.069  28.170  28.498  1.00  0.00     0.074 A 
ATOM     41  C   UNL A   1      39.688  28.805  28.727  1.00  0.00     0.049 A 
ATOM     42  N   UNL A   1      42.664  29.236  28.969  1.00  0.00    -0.248 NA
ATOM     43  C   UNL A   1      42.996  27.101  28.088  1.00  0.00     0.031 C 
ATOM     44  C   UNL A   1      38.236  28.630  28.675  1.00  0.00     0.029 A 
ATOM     45  N   UNL A   1      39.853  30.069  29.235  1.00  0.00    -0.354 N 
ATOM     46  C   UNL A   1      44.025  28.959  28.927  1.00  0.00     0.074 A 
ATOM     47  C   UNL A   1      44.168  27.604  28.446  1.00  0.00     0.031 C 
ATOM     48  C   UNL A   1      37.642  29.756  29.102  1.00  0.00     0.029 A 
ATOM     49  C   UNL A   1      38.670  30.717  29.492  1.00  0.00     0.049 A 
ATOM     50  H   UNL A   1      40.735  30.473  29.399  1.00  0.00     0.167 HD
ATOM     51  C   UNL A   1      45.066  29.770  29.231  1.00  0.00     0.037 A 
ATOM     52  C   UNL A   1      38.442  31.949  29.985  1.00  0.00     0.037 A 
ATOM     53  C   UNL A   1      44.920  31.128  29.682  1.00  0.00     0.049 A 
ATOM     54  C   UNL A   1      39.616  32.833  30.312  1.00  0.00     0.074 A 
ATOM     55  C   UNL A   1      45.908  32.053  29.970  1.00  0.00     0.029 A 
ATOM     56  N   UNL A   1      43.704  31.757  29.909  1.00  0.00    -0.354 N 
ATOM     57  N   UNL A   1      40.899  32.582  30.203  1.00  0.00    -0.248 NA
ATOM     58  C   UNL A   1      39.309  34.177  30.817  1.00  0.00     0.031 C 
ATOM     59  C   UNL A   1      45.291  33.227  30.416  1.00  0.00     0.029 A 
ATOM     60  C   UNL A   1      43.918  33.052  30.348  1.00  0.00     0.049 A 
ATOM     61  H   UNL A   1      42.821  31.343  29.778  1.00  0.00     0.167 HD
ATOM     62  C   UNL A   1      41.548  33.748  30.587  1.00  0.00     0.074 A 
ATOM     63  C   UNL A   1      40.518  34.709  30.919  1.00  0.00     0.031 C 
ATOM     64  C   UNL A   1      42.879  34.001  30.657  1.00  0.00     0.037 A 
BRANCH  51  65
ATOM     65  C   UNL A   1      46.451  29.210  29.079  1.00  0.00     0.057 A 
ATOM     66  C   UNL A   1      47.115  28.577  30.139  1.00  0.00     0.134 A 
ATOM     67  C   UNL A   1      47.121  29.277  27.850  1.00  0.00     0.134 A 
ATOM     68  F   UNL A   1      46.538  28.490  31.348  1.00  0.00    -0.206 F 
ATOM     69  C   UNL A   1      48.403  28.060  29.991  1.00  0.00     0.040 A 
ATOM     70  C   UNL A   1      48.396  28.735  27.681  1.00  0.00     0.040 A 
ATOM     71  F   UNL A   1      46.543  29.863  26.790  1.00  0.00    -0.206 F 
ATOM     72  C   UNL A   1      49.044  28.131  28.757  1.00  0.00     0.006 A 
ENDBRANCH  51  65
BRANCH  52  73
ATOM     73  C   UNL A   1      37.051  32.436  30.171  1.00  0.00     0.057 A 
ATOM     74  C   UNL A   1      36.403  33.175  29.175  1.00  0.00     0.134 A 
ATOM     75  C   UNL A   1      36.344  32.195  31.356  1.00  0.00     0.134 A 
ATOM     76  F   UNL A   1      37.033  33.454  28.023  1.00  0.00    -0.206 F 
ATOM     77  C   UNL A   1      35.117  33.684  29.360  1.00  0.00     0.040 A 
ATOM     78  C   UNL A   1      35.047  32.672  31.542  1.00  0.00     0.040 A 
ATOM     79  F   UNL A   1      36.903  31.483  32.345  1.00  0.00    -0.206 F 
ATOM     80  C   UNL A   1      34.433  33.429  30.547  1.00  0.00     0.006 A 
ENDBRANCH  52  73
BRANCH  64  81
ATOM     81  C   UNL A   1      43.293  35.390  31.052  1.00  0.00     0.057 A 
ATOM     82  C   UNL A   1      43.453  35.768  32.390  1.00  0.00     0.134 A 
ATOM     83  C   UNL A   1      43.565  36.352  30.070  1.00  0.00     0.134 A 
ATOM     84  F   UNL A   1      43.198  34.898  33.379  1.00  0.00    -0.206 F 
ATOM     85  C   UNL A   1      43.835  37.065  32.740  1.00  0.00     0.040 A 
ATOM     86  C   UNL A   1      43.980  37.642  30.406  1.00  0.00     0.040 A 
ATOM     87  F   UNL A   1      43.443  36.052  28.769  1.00  0.00    -0.206 F 
ATOM     88  C   UNL A   1      44.106  38.004  31.745  1.00  0.00     0.006 A 
ENDBRANCH  64  81
ENDBRANCH  38  39
ENDBRANCH  30  33
ENDBRANCH  28  29
ENDBRANCH  27  28
ENDBRANCH  26  27
ENDBRANCH  25  26
ENDBRANCH   3  25
TORSDOF 17
ENDMDL
MODEL 3
REMARK VINA RESULT:     -11.6      2.314      4.247
REMARK SMILES Cc1ccc(N)c(SCCOc2ccccc2C(=O)NCCCCNC(=O)c2ccc(-c3c4nc(c(-c5c(F)cccc5F)c5ccc([nH]5)c(-c5c(F)cccc5F)c5nc(c(-c6c(F)cccc6F)c6ccc3[nH]6)C=C5)C=C4)cc2)c1
REMARK SMILES IDX 18 1 19 2 20 3 17 5 12 6 13 7 14 8 16 9 15 10 11 11 10 12
REMARK SMILES IDX 9 13 8 14 7 15 1 16 2 17 3 18 82 19 4 20 5 21 6 22 21 25
REMARK SMILES IDX 22 26 23 27 24 28 25 29 26 30 27 32 28 33 29 34 81 35 30 36
REMARK SMILES IDX 80 37 31 38 32 39 33 40 74 41 34 42 79 43 73 44 75 45 35 46
REMARK SMILES IDX 78 47 72 48 71 49 36 51 62 52 45 53 61 54 46 55 49 56 60 57
REMARK SMILES IDX 76 58 47 59 48 60 59 62 77 63 50 64 37 65 38 66 43 67 39 68
REMARK SMILES IDX 40 69 42 70 44 71 41 72 63 73 64 74 69 75 65 76 66 77 68 78
REMARK SMILES IDX 70 79 67 80 51 81 52 82 57 83 53 84 54 85 56 86 58 87 55 88
REMARK H PARENT 20 4 6 23 6 24 25 31 75 50 49 61
REMARK Flexibility Score: inf
ROOT
ATOM      1  C   UNL A   1      30.376  28.778  22.733  1.00  0.00     0.255 C 
ATOM      2  O   UNL A   1      29.939  29.237  21.658  1.00  0.00    -0.269 OA
ATOM      3  N   UNL A   1      30.772  29.795  23.511  1.00  0.00    -0.352 N 
ATOM      4  H   UNL A   1      30.877  30.647  23.029  1.00  0.00     0.163 HD
ENDROOT
BRANCH   1   5
ATOM      5  C   UNL A   1      30.383  27.350  23.148  1.00  0.00     0.081 A 
ATOM      6  C   UNL A   1      31.395  26.605  22.627  1.00  0.00     0.132 A 
ATOM      7  C   UNL A   1      31.291  25.209  22.584  1.00  0.00     0.047 A 
ATOM      8  C   UNL A   1      30.412  24.571  23.461  1.00  0.00     0.004 A 
ATOM      9  C   UNL A   1      29.877  26.727  24.280  1.00  0.00     0.018 A 
ATOM     10  C   UNL A   1      29.838  25.346  24.442  1.00  0.00     0.001 A 
BRANCH   6  11
ATOM     11  O   UNL A   1      32.620  27.252  22.639  1.00  0.00    -0.492 OA
BRANCH  11  12
ATOM     12  C   UNL A   1      33.725  26.264  22.785  1.00  0.00     0.241 C 
BRANCH  12  13
ATOM     13  C   UNL A   1      34.282  25.797  24.215  1.00  0.00     0.116 C 
BRANCH  13  14
ATOM     14  S   UNL A   1      33.574  24.613  25.735  1.00  0.00    -0.120 SA
BRANCH  14  15
ATOM     15  C   UNL A   1      33.508  22.754  25.560  1.00  0.00     0.031 A 
ATOM     16  C   UNL A   1      32.255  20.217  23.021  1.00  0.00     0.044 C 
ATOM     17  C   UNL A   1      32.938  20.728  24.271  1.00  0.00    -0.050 A 
ATOM     18  C   UNL A   1      34.120  20.120  24.682  1.00  0.00     0.005 A 
ATOM     19  C   UNL A   1      32.560  21.958  24.873  1.00  0.00     0.020 A 
ATOM     20  C   UNL A   1      34.910  20.748  25.646  1.00  0.00     0.027 A 
ATOM     21  C   UNL A   1      34.613  22.048  26.101  1.00  0.00     0.045 A 
BRANCH  21  22
ATOM     22  N   UNL A   1      35.544  22.684  26.929  1.00  0.00    -0.398 N 
ATOM     23  H   UNL A   1      36.079  23.435  26.583  1.00  0.00     0.156 HD
ATOM     24  H   UNL A   1      35.666  22.380  27.858  1.00  0.00     0.156 HD
ENDBRANCH  21  22
ENDBRANCH  14  15
ENDBRANCH  13  14
ENDBRANCH  12  13
ENDBRANCH  11  12
ENDBRANCH   6  11
ENDBRANCH   1   5
BRANCH   3  25
ATOM     25  C   UNL A   1      31.072  29.884  24.911  1.00  0.00     0.116 C 
BRANCH  25  26
ATOM     26  C   UNL A   1      32.521  29.448  25.124  1.00  0.00     0.023 C 
BRANCH  26  27
ATOM     27  C   UNL A   1      32.727  28.333  26.171  1.00  0.00     0.023 C 
BRANCH  27  28
ATOM     28  C   UNL A   1      33.812  28.605  27.209  1.00  0.00     0.116 C 
BRANCH  28  29
ATOM     29  N   UNL A   1      33.802  29.997  27.632  1.00  0.00    -0.352 N 
ATOM     30  C   UNL A   1      34.713  30.680  28.379  1.00  0.00     0.251 C 
ATOM     31  H   UNL A   1      33.024  30.522  27.336  1.00  0.00     0.163 HD
ATOM     32  O   UNL A   1      34.386  31.744  28.929  1.00  0.00    -0.269 OA
BRANCH  30  33
ATOM     33  C   UNL A   1      36.087  30.175  28.532  1.00  0.00     0.039 A 
ATOM     34  C   UNL A   1      36.497  29.668  29.766  1.00  0.00     0.014 A 
ATOM     35  C   UNL A   1      36.995  30.268  27.472  1.00  0.00     0.014 A 
ATOM     36  C   UNL A   1      37.812  29.237  29.932  1.00  0.00     0.010 A 
ATOM     37  C   UNL A   1      38.282  29.759  27.613  1.00  0.00     0.010 A 
ATOM     38  C   UNL A   1      38.712  29.270  28.855  1.00  0.00    -0.014 A 
BRANCH  38  39
ATOM     39  C   UNL A   1      40.128  28.859  29.032  1.00  0.00     0.031 A 
ATOM     40  C   UNL A   1      41.110  29.810  29.661  1.00  0.00     0.074 A 
ATOM     41  C   UNL A   1      40.532  27.649  28.602  1.00  0.00     0.049 A 
ATOM     42  N   UNL A   1      42.391  29.653  29.879  1.00  0.00    -0.248 NA
ATOM     43  C   UNL A   1      40.591  31.125  30.073  1.00  0.00     0.031 C 
ATOM     44  C   UNL A   1      39.684  26.659  27.936  1.00  0.00     0.029 A 
ATOM     45  N   UNL A   1      41.763  27.046  28.661  1.00  0.00    -0.354 N 
ATOM     46  C   UNL A   1      42.828  30.848  30.437  1.00  0.00     0.074 A 
ATOM     47  C   UNL A   1      41.695  31.743  30.465  1.00  0.00     0.031 C 
ATOM     48  C   UNL A   1      40.413  25.561  27.676  1.00  0.00     0.029 A 
ATOM     49  C   UNL A   1      41.784  25.783  28.124  1.00  0.00     0.049 A 
ATOM     50  H   UNL A   1      42.557  27.479  29.052  1.00  0.00     0.167 HD
ATOM     51  C   UNL A   1      44.056  31.161  30.914  1.00  0.00     0.037 A 
ATOM     52  C   UNL A   1      42.797  24.904  28.008  1.00  0.00     0.037 A 
ATOM     53  C   UNL A   1      45.175  30.257  30.911  1.00  0.00     0.049 A 
ATOM     54  C   UNL A   1      44.151  25.275  28.549  1.00  0.00     0.074 A 
ATOM     55  C   UNL A   1      46.448  30.456  31.413  1.00  0.00     0.029 A 
ATOM     56  N   UNL A   1      45.150  28.976  30.377  1.00  0.00    -0.354 N 
ATOM     57  N   UNL A   1      44.535  26.384  29.135  1.00  0.00    -0.248 NA
ATOM     58  C   UNL A   1      45.211  24.266  28.423  1.00  0.00     0.031 C 
ATOM     59  C   UNL A   1      47.208  29.313  31.143  1.00  0.00     0.029 A 
ATOM     60  C   UNL A   1      46.391  28.380  30.526  1.00  0.00     0.049 A 
ATOM     61  H   UNL A   1      44.367  28.554  29.956  1.00  0.00     0.167 HD
ATOM     62  C   UNL A   1      45.865  26.190  29.484  1.00  0.00     0.074 A 
ATOM     63  C   UNL A   1      46.217  24.854  29.054  1.00  0.00     0.031 C 
ATOM     64  C   UNL A   1      46.719  27.041  30.107  1.00  0.00     0.037 A 
BRANCH  51  65
ATOM     65  C   UNL A   1      44.250  32.538  31.483  1.00  0.00     0.057 A 
ATOM     66  C   UNL A   1      44.034  32.816  32.840  1.00  0.00     0.134 A 
ATOM     67  C   UNL A   1      44.685  33.594  30.672  1.00  0.00     0.134 A 
ATOM     68  F   UNL A   1      43.602  31.855  33.671  1.00  0.00    -0.206 F 
ATOM     69  C   UNL A   1      44.215  34.098  33.362  1.00  0.00     0.040 A 
ATOM     70  C   UNL A   1      44.900  34.873  31.189  1.00  0.00     0.040 A 
ATOM     71  F   UNL A   1      44.918  33.399  29.365  1.00  0.00    -0.206 F 
ATOM     72  C   UNL A   1      44.657  35.129  32.537  1.00  0.00     0.006 A 
ENDBRANCH  51  65
BRANCH  52  73
ATOM     73  C   UNL A   1      42.568  23.576  27.384  1.00  0.00     0.057 A 
ATOM     74  C   UNL A   1      42.718  23.387  26.005  1.00  0.00     0.134 A 
ATOM     75  C   UNL A   1      42.171  22.468  28.145  1.00  0.00     0.134 A 
ATOM     76  F   UNL A   1      43.080  24.413  25.219  1.00  0.00    -0.206 F 
ATOM     77  C   UNL A   1      42.453  22.158  25.400  1.00  0.00     0.040 A 
ATOM     78  C   UNL A   1      41.932  21.226  27.557  1.00  0.00     0.040 A 
ATOM     79  F   UNL A   1      42.020  22.578  29.472  1.00  0.00    -0.206 F 
ATOM     80  C   UNL A   1      42.061  21.071  26.179  1.00  0.00     0.006 A 
ENDBRANCH  52  73
BRANCH  64  81
ATOM     81  C   UNL A   1      48.097  26.529  30.411  1.00  0.00     0.057 A 
ATOM     82  C   UNL A   1      48.396  25.853  31.601  1.00  0.00     0.134 A 
ATOM     83  C   UNL A   1      49.132  26.690  29.481  1.00  0.00     0.134 A 
ATOM     84  F   UNL A   1      47.453  25.675  32.538  1.00  0.00    -0.206 F 
ATOM     85  C   UNL A   1      49.684  25.387  31.869  1.00  0.00     0.040 A 
ATOM     86  C   UNL A   1      50.416  26.200  29.723  1.00  0.00     0.040 A 
ATOM     87  F   UNL A   1      48.911  27.318  28.316  1.00  0.00    -0.206 F 
ATOM     88  C   UNL A   1      50.697  25.554  30.926  1.00  0.00     0.006 A 
ENDBRANCH  64  81
ENDBRANCH  38  39
ENDBRANCH  30  33
ENDBRANCH  28  29
ENDBRANCH  27  28
ENDBRANCH  26  27
ENDBRANCH  25  26
ENDBRANCH   3  25
TORSDOF 17
ENDMDL
