MODEL 1
REMARK VINA RESULT:     -13.2      0.000      0.000
REMARK SMILES N#Cc1ccccc1C[C@@H](NC(=O)OCC1c2ccccc2-c2ccccc21)C(=O)NCCCCNC(=O)c1ccc(-c2c3nc(c(-c4c(F)cccc4F)c4ccc([nH]4)c(-c4c(F)cccc4F)c4nc(c(-c5c(F)cccc5F)c5ccc2[nH]5)C=C4)C=C3)cc1
REMARK SMILES IDX 32 1 31 2 29 3 30 4 10 6 9 7 8 8 3 9 4 10 5 11 7 12 6 13
REMARK SMILES IDX 2 14 1 15 11 16 12 17 13 19 14 20 15 21 16 22 17 23 28 24
REMARK SMILES IDX 18 25 22 26 23 27 27 28 19 29 21 30 24 31 26 32 20 33 25 34
REMARK SMILES IDX 33 35 34 36 35 37 36 38 37 39 38 41 39 42 40 43 92 44 41 45
REMARK SMILES IDX 91 46 42 47 43 48 44 49 85 50 45 51 90 52 84 53 86 54 46 55
REMARK SMILES IDX 89 56 83 57 82 58 47 60 73 61 56 62 72 63 57 64 60 65 71 66
REMARK SMILES IDX 87 67 58 68 59 69 70 71 88 72 61 73 48 74 49 75 54 76 50 77
REMARK SMILES IDX 51 78 53 79 55 80 52 81 74 82 75 83 80 84 76 85 77 86 79 87
REMARK SMILES IDX 81 88 78 89 62 90 63 91 68 92 64 93 65 94 67 95 69 96 66 97
REMARK H PARENT 31 5 11 18 36 40 86 59 60 70
REMARK Flexibility Score: inf
ROOT
ATOM      1  C   UNL A   1      32.097  29.461  27.104  1.00  0.00     0.116 C 
ENDROOT
BRANCH   1   2
ATOM      2  N   UNL A   1      33.069  28.473  26.659  1.00  0.00    -0.354 N 
ATOM      3  C   UNL A   1      32.862  27.240  26.099  1.00  0.00     0.243 C 
ATOM      4  O   UNL A   1      33.841  26.597  25.717  1.00  0.00    -0.273 OA
ATOM      5  H   UNL A   1      34.012  28.729  26.777  1.00  0.00     0.163 HD
BRANCH   3   6
ATOM      6  C   UNL A   1      31.433  26.660  26.010  1.00  0.00     0.179 C 
BRANCH   6   7
ATOM      7  C   UNL A   1      31.113  26.419  24.502  1.00  0.00     0.072 C 
BRANCH   7   8
ATOM      8  C   UNL A   1      30.264  27.450  23.779  1.00  0.00    -0.028 A 
ATOM      9  C   UNL A   1      30.838  28.496  23.029  1.00  0.00     0.055 A 
ATOM     10  C   UNL A   1      30.017  29.432  22.382  1.00  0.00     0.020 A 
ATOM     11  C   UNL A   1      28.629  29.328  22.456  1.00  0.00     0.001 A 
ATOM     12  C   UNL A   1      28.863  27.310  23.749  1.00  0.00     0.005 A 
ATOM     13  C   UNL A   1      28.053  28.257  23.126  1.00  0.00     0.000 A 
BRANCH   9  14
ATOM     14  C   UNL A   1      32.260  28.599  22.832  1.00  0.00     0.099 C 
ATOM     15  N   UNL A   1      33.410  28.669  22.709  1.00  0.00    -0.192 NA
ENDBRANCH   9  14
ENDBRANCH   7   8
ENDBRANCH   6   7
BRANCH   6  16
ATOM     16  N   UNL A   1      31.189  25.501  26.876  1.00  0.00    -0.309 N 
ATOM     17  C   UNL A   1      30.962  24.211  26.511  1.00  0.00     0.407 C 
ATOM     18  H   UNL A   1      31.190  25.681  27.843  1.00  0.00     0.167 HD
ATOM     19  O   UNL A   1      30.132  23.535  27.102  1.00  0.00    -0.225 OA
BRANCH  17  20
ATOM     20  O   UNL A   1      31.763  23.794  25.501  1.00  0.00    -0.449 OA
BRANCH  20  21
ATOM     21  C   UNL A   1      32.909  23.004  25.871  1.00  0.00     0.248 C 
BRANCH  21  22
ATOM     22  C   UNL A   1      33.691  22.520  24.637  1.00  0.00     0.088 C 
ATOM     23  C   UNL A   1      35.197  22.652  24.837  1.00  0.00    -0.029 A 
ATOM     24  C   UNL A   1      33.541  21.010  24.481  1.00  0.00    -0.029 A 
ATOM     25  C   UNL A   1      35.956  23.810  24.919  1.00  0.00     0.005 A 
ATOM     26  C   UNL A   1      35.776  21.381  25.013  1.00  0.00    -0.014 A 
ATOM     27  C   UNL A   1      34.779  20.373  24.730  1.00  0.00    -0.014 A 
ATOM     28  C   UNL A   1      32.408  20.281  24.148  1.00  0.00     0.005 A 
ATOM     29  C   UNL A   1      37.276  23.701  25.349  1.00  0.00     0.000 A 
ATOM     30  C   UNL A   1      37.096  21.270  25.417  1.00  0.00     0.009 A 
ATOM     31  C   UNL A   1      34.895  18.998  24.625  1.00  0.00     0.009 A 
ATOM     32  C   UNL A   1      32.528  18.893  24.046  1.00  0.00     0.000 A 
ATOM     33  C   UNL A   1      37.836  22.442  25.617  1.00  0.00     0.001 A 
ATOM     34  C   UNL A   1      33.760  18.258  24.276  1.00  0.00     0.001 A 
ENDBRANCH  21  22
ENDBRANCH  20  21
ENDBRANCH  17  20
ENDBRANCH   6  16
ENDBRANCH   3   6
ENDBRANCH   1   2
BRANCH   1  35
ATOM     35  C   UNL A   1      31.784  30.467  26.011  1.00  0.00     0.023 C 
BRANCH  35  36
ATOM     36  C   UNL A   1      31.450  31.847  26.562  1.00  0.00     0.023 C 
BRANCH  36  37
ATOM     37  C   UNL A   1      32.613  32.533  27.269  1.00  0.00     0.116 C 
BRANCH  37  38
ATOM     38  N   UNL A   1      32.347  33.937  27.552  1.00  0.00    -0.352 N 
ATOM     39  C   UNL A   1      32.957  34.748  28.476  1.00  0.00     0.251 C 
ATOM     40  H   UNL A   1      31.638  34.356  27.013  1.00  0.00     0.163 HD
ATOM     41  O   UNL A   1      32.498  35.851  28.749  1.00  0.00    -0.269 OA
BRANCH  39  42
ATOM     42  C   UNL A   1      34.167  34.251  29.159  1.00  0.00     0.039 A 
ATOM     43  C   UNL A   1      34.028  33.514  30.334  1.00  0.00     0.014 A 
ATOM     44  C   UNL A   1      35.426  34.458  28.589  1.00  0.00     0.014 A 
ATOM     45  C   UNL A   1      35.155  32.925  30.905  1.00  0.00     0.010 A 
ATOM     46  C   UNL A   1      36.529  33.789  29.103  1.00  0.00     0.010 A 
ATOM     47  C   UNL A   1      36.406  33.021  30.271  1.00  0.00    -0.014 A 
BRANCH  47  48
ATOM     48  C   UNL A   1      37.599  32.326  30.818  1.00  0.00     0.031 A 
ATOM     49  C   UNL A   1      38.269  32.845  32.060  1.00  0.00     0.074 A 
ATOM     50  C   UNL A   1      38.105  31.258  30.170  1.00  0.00     0.049 A 
ATOM     51  N   UNL A   1      39.342  32.403  32.664  1.00  0.00    -0.248 NA
ATOM     52  C   UNL A   1      37.671  34.033  32.690  1.00  0.00     0.031 C 
ATOM     53  C   UNL A   1      37.571  30.685  28.933  1.00  0.00     0.029 A 
ATOM     54  N   UNL A   1      39.186  30.464  30.462  1.00  0.00    -0.354 N 
ATOM     55  C   UNL A   1      39.548  33.258  33.740  1.00  0.00     0.074 A 
ATOM     56  C   UNL A   1      38.532  34.285  33.665  1.00  0.00     0.031 C 
ATOM     57  C   UNL A   1      38.303  29.613  28.592  1.00  0.00     0.029 A 
ATOM     58  C   UNL A   1      39.387  29.451  29.555  1.00  0.00     0.049 A 
ATOM     59  H   UNL A   1      39.762  30.607  31.248  1.00  0.00     0.167 HD
ATOM     60  C   UNL A   1      40.480  33.179  34.718  1.00  0.00     0.037 A 
ATOM     61  C   UNL A   1      40.345  28.506  29.501  1.00  0.00     0.037 A 
ATOM     62  C   UNL A   1      41.484  32.150  34.793  1.00  0.00     0.049 A 
ATOM     63  C   UNL A   1      41.397  28.469  30.577  1.00  0.00     0.074 A 
ATOM     64  C   UNL A   1      42.448  31.957  35.767  1.00  0.00     0.029 A 
ATOM     65  N   UNL A   1      41.663  31.148  33.850  1.00  0.00    -0.354 N 
ATOM     66  N   UNL A   1      41.536  29.241  31.627  1.00  0.00    -0.248 NA
ATOM     67  C   UNL A   1      42.423  27.423  30.461  1.00  0.00     0.031 C 
ATOM     68  C   UNL A   1      43.250  30.880  35.380  1.00  0.00     0.029 A 
ATOM     69  C   UNL A   1      42.742  30.354  34.204  1.00  0.00     0.049 A 
ATOM     70  H   UNL A   1      41.105  31.021  33.049  1.00  0.00     0.167 HD
ATOM     71  C   UNL A   1      42.642  28.753  32.314  1.00  0.00     0.074 A 
ATOM     72  C   UNL A   1      43.124  27.609  31.570  1.00  0.00     0.031 C 
ATOM     73  C   UNL A   1      43.208  29.212  33.458  1.00  0.00     0.037 A 
BRANCH  60  74
ATOM     74  C   UNL A   1      40.459  34.237  35.785  1.00  0.00     0.057 A 
ATOM     75  C   UNL A   1      41.107  35.470  35.620  1.00  0.00     0.134 A 
ATOM     76  C   UNL A   1      39.753  34.036  36.978  1.00  0.00     0.134 A 
ATOM     77  F   UNL A   1      41.812  35.725  34.506  1.00  0.00    -0.206 F 
ATOM     78  C   UNL A   1      41.079  36.449  36.614  1.00  0.00     0.040 A 
ATOM     79  C   UNL A   1      39.689  35.022  37.964  1.00  0.00     0.040 A 
ATOM     80  F   UNL A   1      39.105  32.883  37.200  1.00  0.00    -0.206 F 
ATOM     81  C   UNL A   1      40.361  36.230  37.787  1.00  0.00     0.006 A 
ENDBRANCH  60  74
BRANCH  61  82
ATOM     82  C   UNL A   1      40.353  27.511  28.397  1.00  0.00     0.057 A 
ATOM     83  C   UNL A   1      39.652  26.303  28.505  1.00  0.00     0.134 A 
ATOM     84  C   UNL A   1      41.082  27.727  27.221  1.00  0.00     0.134 A 
ATOM     85  F   UNL A   1      38.949  26.027  29.614  1.00  0.00    -0.206 F 
ATOM     86  C   UNL A   1      39.700  25.336  27.499  1.00  0.00     0.040 A 
ATOM     87  C   UNL A   1      41.111  26.783  26.193  1.00  0.00     0.040 A 
ATOM     88  F   UNL A   1      41.769  28.867  27.050  1.00  0.00    -0.206 F 
ATOM     89  C   UNL A   1      40.429  25.578  26.337  1.00  0.00     0.006 A 
ENDBRANCH  61  82
BRANCH  73  90
ATOM     90  C   UNL A   1      44.383  28.451  34.002  1.00  0.00     0.057 A 
ATOM     91  C   UNL A   1      44.228  27.345  34.848  1.00  0.00     0.134 A 
ATOM     92  C   UNL A   1      45.689  28.809  33.643  1.00  0.00     0.134 A 
ATOM     93  F   UNL A   1      43.006  26.953  35.240  1.00  0.00    -0.206 F 
ATOM     94  C   UNL A   1      45.329  26.642  35.340  1.00  0.00     0.040 A 
ATOM     95  C   UNL A   1      46.796  28.093  34.100  1.00  0.00     0.040 A 
ATOM     96  F   UNL A   1      45.911  29.851  32.827  1.00  0.00    -0.206 F 
ATOM     97  C   UNL A   1      46.618  27.011  34.958  1.00  0.00     0.006 A 
ENDBRANCH  73  90
ENDBRANCH  47  48
ENDBRANCH  39  42
ENDBRANCH  37  38
ENDBRANCH  36  37
ENDBRANCH  35  36
ENDBRANCH   1  35
TORSDOF 18
ENDMDL
MODEL 2
REMARK VINA RESULT:     -12.7      1.706      6.344
REMARK SMILES N#Cc1ccccc1C[C@@H](NC(=O)OCC1c2ccccc2-c2ccccc21)C(=O)NCCCCNC(=O)c1ccc(-c2c3nc(c(-c4c(F)cccc4F)c4ccc([nH]4)c(-c4c(F)cccc4F)c4nc(c(-c5c(F)cccc5F)c5ccc2[nH]5)C=C4)C=C3)cc1
REMARK SMILES IDX 32 1 31 2 29 3 30 4 10 6 9 7 8 8 3 9 4 10 5 11 7 12 6 13
REMARK SMILES IDX 2 14 1 15 11 16 12 17 13 19 14 20 15 21 16 22 17 23 28 24
REMARK SMILES IDX 18 25 22 26 23 27 27 28 19 29 21 30 24 31 26 32 20 33 25 34
REMARK SMILES IDX 33 35 34 36 35 37 36 38 37 39 38 41 39 42 40 43 92 44 41 45
REMARK SMILES IDX 91 46 42 47 43 48 44 49 85 50 45 51 90 52 84 53 86 54 46 55
REMARK SMILES IDX 89 56 83 57 82 58 47 60 73 61 56 62 72 63 57 64 60 65 71 66
REMARK SMILES IDX 87 67 58 68 59 69 70 71 88 72 61 73 48 74 49 75 54 76 50 77
REMARK SMILES IDX 51 78 53 79 55 80 52 81 74 82 75 83 80 84 76 85 77 86 79 87
REMARK SMILES IDX 81 88 78 89 62 90 63 91 68 92 64 93 65 94 67 95 69 96 66 97
REMARK H PARENT 31 5 11 18 36 40 86 59 60 70
REMARK Flexibility Score: inf
ROOT
ATOM      1  C   UNL A   1      33.011  28.430  25.869  1.00  0.00     0.116 C 
ENDROOT
BRANCH   1   2
ATOM      2  N   UNL A   1      33.570  28.925  24.619  1.00  0.00    -0.354 N 
ATOM      3  C   UNL A   1      33.088  28.807  23.342  1.00  0.00     0.243 C 
ATOM      4  O   UNL A   1      33.688  29.381  22.432  1.00  0.00    -0.273 OA
ATOM      5  H   UNL A   1      34.420  29.416  24.704  1.00  0.00     0.163 HD
BRANCH   3   6
ATOM      6  C   UNL A   1      31.852  27.923  23.061  1.00  0.00     0.179 C 
BRANCH   6   7
ATOM      7  C   UNL A   1      30.649  28.872  22.764  1.00  0.00     0.072 C 
BRANCH   7   8
ATOM      8  C   UNL A   1      29.256  28.396  23.134  1.00  0.00    -0.028 A 
ATOM      9  C   UNL A   1      28.103  29.141  22.812  1.00  0.00     0.055 A 
ATOM     10  C   UNL A   1      26.834  28.669  23.179  1.00  0.00     0.020 A 
ATOM     11  C   UNL A   1      26.695  27.452  23.844  1.00  0.00     0.001 A 
ATOM     12  C   UNL A   1      29.078  27.125  23.711  1.00  0.00     0.005 A 
ATOM     13  C   UNL A   1      27.816  26.672  24.095  1.00  0.00     0.000 A 
BRANCH   9  14
ATOM     14  C   UNL A   1      28.172  30.355  22.041  1.00  0.00     0.099 C 
ATOM     15  N   UNL A   1      28.260  31.340  21.438  1.00  0.00    -0.192 NA
ENDBRANCH   9  14
ENDBRANCH   7   8
ENDBRANCH   6   7
BRANCH   6  16
ATOM     16  N   UNL A   1      32.065  26.879  22.053  1.00  0.00    -0.309 N 
ATOM     17  C   UNL A   1      32.979  25.873  22.064  1.00  0.00     0.407 C 
ATOM     18  H   UNL A   1      31.470  26.912  21.270  1.00  0.00     0.167 HD
ATOM     19  O   UNL A   1      33.557  25.548  21.037  1.00  0.00    -0.225 OA
BRANCH  17  20
ATOM     20  O   UNL A   1      33.114  25.289  23.279  1.00  0.00    -0.449 OA
BRANCH  20  21
ATOM     21  C   UNL A   1      34.369  25.492  23.956  1.00  0.00     0.248 C 
BRANCH  21  22
ATOM     22  C   UNL A   1      34.418  24.747  25.302  1.00  0.00     0.088 C 
ATOM     23  C   UNL A   1      33.053  24.189  25.688  1.00  0.00    -0.029 A 
ATOM     24  C   UNL A   1      35.236  23.466  25.161  1.00  0.00    -0.029 A 
ATOM     25  C   UNL A   1      31.914  24.885  26.065  1.00  0.00     0.005 A 
ATOM     26  C   UNL A   1      33.042  22.788  25.545  1.00  0.00    -0.014 A 
ATOM     27  C   UNL A   1      34.393  22.338  25.288  1.00  0.00    -0.014 A 
ATOM     28  C   UNL A   1      36.599  23.327  24.943  1.00  0.00     0.005 A 
ATOM     29  C   UNL A   1      30.711  24.188  26.137  1.00  0.00     0.000 A 
ATOM     30  C   UNL A   1      31.850  22.090  25.639  1.00  0.00     0.009 A 
ATOM     31  C   UNL A   1      34.916  21.059  25.219  1.00  0.00     0.009 A 
ATOM     32  C   UNL A   1      37.123  22.035  24.870  1.00  0.00     0.000 A 
ATOM     33  C   UNL A   1      30.676  22.804  25.903  1.00  0.00     0.001 A 
ATOM     34  C   UNL A   1      36.292  20.911  25.012  1.00  0.00     0.001 A 
ENDBRANCH  21  22
ENDBRANCH  20  21
ENDBRANCH  17  20
ENDBRANCH   6  16
ENDBRANCH   3   6
ENDBRANCH   1   2
BRANCH   1  35
ATOM     35  C   UNL A   1      31.772  29.207  26.271  1.00  0.00     0.023 C 
BRANCH  35  36
ATOM     36  C   UNL A   1      31.940  30.711  26.094  1.00  0.00     0.023 C 
BRANCH  36  37
ATOM     37  C   UNL A   1      32.717  31.388  27.218  1.00  0.00     0.116 C 
BRANCH  37  38
ATOM     38  N   UNL A   1      32.361  32.790  27.379  1.00  0.00    -0.352 N 
ATOM     39  C   UNL A   1      33.012  33.754  28.109  1.00  0.00     0.251 C 
ATOM     40  H   UNL A   1      31.549  33.084  26.906  1.00  0.00     0.163 HD
ATOM     41  O   UNL A   1      32.493  34.844  28.322  1.00  0.00    -0.269 OA
BRANCH  39  42
ATOM     42  C   UNL A   1      34.344  33.439  28.659  1.00  0.00     0.039 A 
ATOM     43  C   UNL A   1      34.435  32.808  29.899  1.00  0.00     0.014 A 
ATOM     44  C   UNL A   1      35.492  33.709  27.908  1.00  0.00     0.014 A 
ATOM     45  C   UNL A   1      35.681  32.384  30.357  1.00  0.00     0.010 A 
ATOM     46  C   UNL A   1      36.715  33.198  28.320  1.00  0.00     0.010 A 
ATOM     47  C   UNL A   1      36.824  32.536  29.553  1.00  0.00    -0.014 A 
BRANCH  47  48
ATOM     48  C   UNL A   1      38.143  32.011  29.988  1.00  0.00     0.031 A 
ATOM     49  C   UNL A   1      38.635  30.688  29.470  1.00  0.00     0.074 A 
ATOM     50  C   UNL A   1      38.874  32.702  30.884  1.00  0.00     0.049 A 
ATOM     51  N   UNL A   1      39.734  30.044  29.763  1.00  0.00    -0.248 NA
ATOM     52  C   UNL A   1      37.762  29.983  28.517  1.00  0.00     0.031 C 
ATOM     53  C   UNL A   1      38.487  33.977  31.493  1.00  0.00     0.029 A 
ATOM     54  N   UNL A   1      40.098  32.428  31.441  1.00  0.00    -0.354 N 
ATOM     55  C   UNL A   1      39.685  28.861  29.036  1.00  0.00     0.074 A 
ATOM     56  C   UNL A   1      38.416  28.843  28.344  1.00  0.00     0.031 C 
ATOM     57  C   UNL A   1      39.468  34.390  32.311  1.00  0.00     0.029 A 
ATOM     58  C   UNL A   1      40.530  33.389  32.324  1.00  0.00     0.049 A 
ATOM     59  H   UNL A   1      40.618  31.620  31.228  1.00  0.00     0.167 HD
ATOM     60  C   UNL A   1      40.623  27.891  28.932  1.00  0.00     0.037 A 
ATOM     61  C   UNL A   1      41.650  33.450  33.069  1.00  0.00     0.037 A 
ATOM     62  C   UNL A   1      41.888  27.917  29.618  1.00  0.00     0.049 A 
ATOM     63  C   UNL A   1      42.656  32.335  32.969  1.00  0.00     0.074 A 
ATOM     64  C   UNL A   1      42.925  27.004  29.545  1.00  0.00     0.029 A 
ATOM     65  N   UNL A   1      42.284  28.902  30.512  1.00  0.00    -0.354 N 
ATOM     66  N   UNL A   1      42.628  31.258  32.223  1.00  0.00    -0.248 NA
ATOM     67  C   UNL A   1      43.855  32.449  33.812  1.00  0.00     0.031 C 
ATOM     68  C   UNL A   1      43.920  27.400  30.444  1.00  0.00     0.029 A 
ATOM     69  C   UNL A   1      43.537  28.600  31.022  1.00  0.00     0.049 A 
ATOM     70  H   UNL A   1      41.754  29.697  30.747  1.00  0.00     0.167 HD
ATOM     71  C   UNL A   1      43.816  30.585  32.480  1.00  0.00     0.074 A 
ATOM     72  C   UNL A   1      44.550  31.385  33.437  1.00  0.00     0.031 C 
ATOM     73  C   UNL A   1      44.260  29.409  31.970  1.00  0.00     0.037 A 
BRANCH  60  74
ATOM     74  C   UNL A   1      40.313  26.717  28.046  1.00  0.00     0.057 A 
ATOM     75  C   UNL A   1      40.853  26.596  26.759  1.00  0.00     0.134 A 
ATOM     76  C   UNL A   1      39.491  25.678  28.500  1.00  0.00     0.134 A 
ATOM     77  F   UNL A   1      41.640  27.562  26.257  1.00  0.00    -0.206 F 
ATOM     78  C   UNL A   1      40.564  25.501  25.944  1.00  0.00     0.040 A 
ATOM     79  C   UNL A   1      39.222  24.561  27.707  1.00  0.00     0.040 A 
ATOM     80  F   UNL A   1      38.944  25.725  29.723  1.00  0.00    -0.206 F 
ATOM     81  C   UNL A   1      39.753  24.475  26.421  1.00  0.00     0.006 A 
ENDBRANCH  60  74
BRANCH  61  82
ATOM     82  C   UNL A   1      41.889  34.608  33.970  1.00  0.00     0.057 A 
ATOM     83  C   UNL A   1      41.500  34.573  35.314  1.00  0.00     0.134 A 
ATOM     84  C   UNL A   1      42.487  35.786  33.505  1.00  0.00     0.134 A 
ATOM     85  F   UNL A   1      40.907  33.481  35.818  1.00  0.00    -0.206 F 
ATOM     86  C   UNL A   1      41.668  35.676  36.154  1.00  0.00     0.040 A 
ATOM     87  C   UNL A   1      42.691  36.884  34.342  1.00  0.00     0.040 A 
ATOM     88  F   UNL A   1      42.891  35.883  32.229  1.00  0.00    -0.206 F 
ATOM     89  C   UNL A   1      42.269  36.835  35.668  1.00  0.00     0.006 A 
ENDBRANCH  61  82
BRANCH  73  90
ATOM     90  C   UNL A   1      45.621  28.939  32.400  1.00  0.00     0.057 A 
ATOM     91  C   UNL A   1      46.790  29.328  31.733  1.00  0.00     0.134 A 
ATOM     92  C   UNL A   1      45.765  28.112  33.522  1.00  0.00     0.134 A 
ATOM     93  F   UNL A   1      46.725  30.109  30.644  1.00  0.00    -0.206 F 
ATOM     94  C   UNL A   1      48.048  28.888  32.148  1.00  0.00     0.040 A 
ATOM     95  C   UNL A   1      47.019  27.696  33.969  1.00  0.00     0.040 A 
ATOM     96  F   UNL A   1      44.689  27.710  34.216  1.00  0.00    -0.206 F 
ATOM     97  C   UNL A   1      48.165  28.076  33.275  1.00  0.00     0.006 A 
ENDBRANCH  73  90
ENDBRANCH  47  48
ENDBRANCH  39  42
ENDBRANCH  37  38
ENDBRANCH  36  37
ENDBRANCH  35  36
ENDBRANCH   1  35
TORSDOF 18
ENDMDL
MODEL 3
REMARK VINA RESULT:     -12.3      4.721      9.388
REMARK SMILES N#Cc1ccccc1C[C@@H](NC(=O)OCC1c2ccccc2-c2ccccc21)C(=O)NCCCCNC(=O)c1ccc(-c2c3nc(c(-c4c(F)cccc4F)c4ccc([nH]4)c(-c4c(F)cccc4F)c4nc(c(-c5c(F)cccc5F)c5ccc2[nH]5)C=C4)C=C3)cc1
REMARK SMILES IDX 32 1 31 2 29 3 30 4 10 6 9 7 8 8 3 9 4 10 5 11 7 12 6 13
REMARK SMILES IDX 2 14 1 15 11 16 12 17 13 19 14 20 15 21 16 22 17 23 28 24
REMARK SMILES IDX 18 25 22 26 23 27 27 28 19 29 21 30 24 31 26 32 20 33 25 34
REMARK SMILES IDX 33 35 34 36 35 37 36 38 37 39 38 41 39 42 40 43 92 44 41 45
REMARK SMILES IDX 91 46 42 47 43 48 44 49 85 50 45 51 90 52 84 53 86 54 46 55
REMARK SMILES IDX 89 56 83 57 82 58 47 60 73 61 56 62 72 63 57 64 60 65 71 66
REMARK SMILES IDX 87 67 58 68 59 69 70 71 88 72 61 73 48 74 49 75 54 76 50 77
REMARK SMILES IDX 51 78 53 79 55 80 52 81 74 82 75 83 80 84 76 85 77 86 79 87
REMARK SMILES IDX 81 88 78 89 62 90 63 91 68 92 64 93 65 94 67 95 69 96 66 97
REMARK H PARENT 31 5 11 18 36 40 86 59 60 70
REMARK Flexibility Score: inf
ROOT
ATOM      1  C   UNL A   1      37.436  21.959  24.694  1.00  0.00     0.116 C 
ENDROOT
BRANCH   1   2
ATOM      2  N   UNL A   1      36.511  22.296  23.622  1.00  0.00    -0.354 N 
ATOM      3  C   UNL A   1      35.612  23.326  23.540  1.00  0.00     0.243 C 
ATOM      4  O   UNL A   1      34.980  23.472  22.492  1.00  0.00    -0.273 OA
ATOM      5  H   UNL A   1      36.535  21.695  22.842  1.00  0.00     0.163 HD
BRANCH   3   6
ATOM      6  C   UNL A   1      35.366  24.239  24.762  1.00  0.00     0.179 C 
BRANCH   6   7
ATOM      7  C   UNL A   1      33.949  24.872  24.602  1.00  0.00     0.072 C 
BRANCH   7   8
ATOM      8  C   UNL A   1      33.828  26.384  24.686  1.00  0.00    -0.028 A 
ATOM      9  C   UNL A   1      33.631  27.180  23.540  1.00  0.00     0.055 A 
ATOM     10  C   UNL A   1      33.533  28.575  23.661  1.00  0.00     0.020 A 
ATOM     11  C   UNL A   1      33.607  29.186  24.912  1.00  0.00     0.001 A 
ATOM     12  C   UNL A   1      33.794  27.017  25.942  1.00  0.00     0.005 A 
ATOM     13  C   UNL A   1      33.720  28.405  26.054  1.00  0.00     0.000 A 
BRANCH   9  14
ATOM     14  C   UNL A   1      33.448  26.604  22.234  1.00  0.00     0.099 C 
ATOM     15  N   UNL A   1      33.292  26.107  21.200  1.00  0.00    -0.192 NA
ENDBRANCH   9  14
ENDBRANCH   7   8
ENDBRANCH   6   7
BRANCH   6  16
ATOM     16  N   UNL A   1      35.603  23.599  26.060  1.00  0.00    -0.309 N 
ATOM     17  C   UNL A   1      34.792  22.742  26.736  1.00  0.00     0.407 C 
ATOM     18  H   UNL A   1      36.456  23.819  26.497  1.00  0.00     0.167 HD
ATOM     19  O   UNL A   1      34.677  22.822  27.950  1.00  0.00    -0.225 OA
BRANCH  17  20
ATOM     20  O   UNL A   1      34.209  21.818  25.936  1.00  0.00    -0.449 OA
BRANCH  20  21
ATOM     21  C   UNL A   1      33.649  20.661  26.587  1.00  0.00     0.248 C 
BRANCH  21  22
ATOM     22  C   UNL A   1      32.402  20.139  25.851  1.00  0.00     0.088 C 
ATOM     23  C   UNL A   1      31.926  21.117  24.783  1.00  0.00    -0.029 A 
ATOM     24  C   UNL A   1      32.766  18.923  25.002  1.00  0.00    -0.029 A 
ATOM     25  C   UNL A   1      31.354  22.369  24.957  1.00  0.00     0.005 A 
ATOM     26  C   UNL A   1      32.212  20.614  23.500  1.00  0.00    -0.014 A 
ATOM     27  C   UNL A   1      32.663  19.245  23.630  1.00  0.00    -0.014 A 
ATOM     28  C   UNL A   1      33.148  17.657  25.421  1.00  0.00     0.005 A 
ATOM     29  C   UNL A   1      31.222  23.192  23.841  1.00  0.00     0.000 A 
ATOM     30  C   UNL A   1      32.058  21.422  22.387  1.00  0.00     0.009 A 
ATOM     31  C   UNL A   1      32.923  18.289  22.663  1.00  0.00     0.009 A 
ATOM     32  C   UNL A   1      33.413  16.696  24.443  1.00  0.00     0.000 A 
ATOM     33  C   UNL A   1      31.592  22.729  22.568  1.00  0.00     0.001 A 
ATOM     34  C   UNL A   1      33.296  17.006  23.078  1.00  0.00     0.001 A 
ENDBRANCH  21  22
ENDBRANCH  20  21
ENDBRANCH  17  20
ENDBRANCH   6  16
ENDBRANCH   3   6
ENDBRANCH   1   2
BRANCH   1  35
ATOM     35  C   UNL A   1      37.233  20.536  25.179  1.00  0.00     0.023 C 
BRANCH  35  36
ATOM     36  C   UNL A   1      38.466  19.665  24.975  1.00  0.00     0.023 C 
BRANCH  36  37
ATOM     37  C   UNL A   1      39.581  19.919  25.982  1.00  0.00     0.116 C 
BRANCH  37  38
ATOM     38  N   UNL A   1      40.601  18.879  25.962  1.00  0.00    -0.352 N 
ATOM     39  C   UNL A   1      41.962  19.022  26.068  1.00  0.00     0.251 C 
ATOM     40  H   UNL A   1      40.272  17.957  25.857  1.00  0.00     0.163 HD
ATOM     41  O   UNL A   1      42.716  18.085  25.833  1.00  0.00    -0.269 OA
BRANCH  39  42
ATOM     42  C   UNL A   1      42.504  20.342  26.444  1.00  0.00     0.039 A 
ATOM     43  C   UNL A   1      43.078  21.146  25.461  1.00  0.00     0.014 A 
ATOM     44  C   UNL A   1      42.374  20.802  27.758  1.00  0.00     0.014 A 
ATOM     45  C   UNL A   1      43.463  22.446  25.783  1.00  0.00     0.010 A 
ATOM     46  C   UNL A   1      42.665  22.128  28.051  1.00  0.00     0.010 A 
ATOM     47  C   UNL A   1      43.220  22.961  27.068  1.00  0.00    -0.014 A 
BRANCH  47  48
ATOM     48  C   UNL A   1      43.542  24.372  27.403  1.00  0.00     0.031 A 
ATOM     49  C   UNL A   1      44.970  24.843  27.384  1.00  0.00     0.074 A 
ATOM     50  C   UNL A   1      42.556  25.213  27.769  1.00  0.00     0.049 A 
ATOM     51  N   UNL A   1      45.455  26.019  27.685  1.00  0.00    -0.248 NA
ATOM     52  C   UNL A   1      45.990  23.853  27.001  1.00  0.00     0.031 C 
ATOM     53  C   UNL A   1      41.137  24.865  27.868  1.00  0.00     0.029 A 
ATOM     54  N   UNL A   1      42.597  26.537  28.129  1.00  0.00    -0.354 N 
ATOM     55  C   UNL A   1      46.832  25.911  27.532  1.00  0.00     0.074 A 
ATOM     56  C   UNL A   1      47.111  24.536  27.180  1.00  0.00     0.031 C 
ATOM     57  C   UNL A   1      40.440  25.955  28.228  1.00  0.00     0.029 A 
ATOM     58  C   UNL A   1      41.365  27.065  28.435  1.00  0.00     0.049 A 
ATOM     59  H   UNL A   1      43.431  27.059  28.165  1.00  0.00     0.167 HD
ATOM     60  C   UNL A   1      47.775  26.875  27.646  1.00  0.00     0.037 A 
ATOM     61  C   UNL A   1      41.022  28.300  28.846  1.00  0.00     0.037 A 
ATOM     62  C   UNL A   1      47.491  28.244  27.989  1.00  0.00     0.049 A 
ATOM     63  C   UNL A   1      42.097  29.341  29.008  1.00  0.00     0.074 A 
ATOM     64  C   UNL A   1      48.371  29.306  28.088  1.00  0.00     0.029 A 
ATOM     65  N   UNL A   1      46.232  28.737  28.302  1.00  0.00    -0.354 N 
ATOM     66  N   UNL A   1      43.386  29.243  28.791  1.00  0.00    -0.248 NA
ATOM     67  C   UNL A   1      41.666  30.669  29.469  1.00  0.00     0.031 C 
ATOM     68  C   UNL A   1      47.657  30.426  28.524  1.00  0.00     0.029 A 
ATOM     69  C   UNL A   1      46.319  30.081  28.626  1.00  0.00     0.049 A 
ATOM     70  H   UNL A   1      45.401  28.209  28.294  1.00  0.00     0.167 HD
ATOM     71  C   UNL A   1      43.914  30.501  29.055  1.00  0.00     0.074 A 
ATOM     72  C   UNL A   1      42.803  31.349  29.430  1.00  0.00     0.031 C 
ATOM     73  C   UNL A   1      45.203  30.917  28.992  1.00  0.00     0.037 A 
BRANCH  60  74
ATOM     74  C   UNL A   1      49.204  26.480  27.401  1.00  0.00     0.057 A 
ATOM     75  C   UNL A   1      50.049  26.068  28.441  1.00  0.00     0.134 A 
ATOM     76  C   UNL A   1      49.733  26.480  26.104  1.00  0.00     0.134 A 
ATOM     77  F   UNL A   1      49.610  26.055  29.710  1.00  0.00    -0.206 F 
ATOM     78  C   UNL A   1      51.374  25.699  28.205  1.00  0.00     0.040 A 
ATOM     79  C   UNL A   1      51.046  26.080  25.851  1.00  0.00     0.040 A 
ATOM     80  F   UNL A   1      48.980  26.857  25.061  1.00  0.00    -0.206 F 
ATOM     81  C   UNL A   1      51.873  25.696  26.905  1.00  0.00     0.006 A 
ENDBRANCH  60  74
BRANCH  61  82
ATOM     82  C   UNL A   1      39.600  28.630  29.124  1.00  0.00     0.057 A 
ATOM     83  C   UNL A   1      38.775  29.177  28.134  1.00  0.00     0.134 A 
ATOM     84  C   UNL A   1      39.037  28.431  30.391  1.00  0.00     0.134 A 
ATOM     85  F   UNL A   1      39.258  29.408  26.904  1.00  0.00    -0.206 F 
ATOM     86  C   UNL A   1      37.454  29.544  28.400  1.00  0.00     0.040 A 
ATOM     87  C   UNL A   1      37.708  28.762  30.662  1.00  0.00     0.040 A 
ATOM     88  F   UNL A   1      39.769  27.902  31.383  1.00  0.00    -0.206 F 
ATOM     89  C   UNL A   1      36.917  29.332  29.668  1.00  0.00     0.006 A 
ENDBRANCH  61  82
BRANCH  73  90
ATOM     90  C   UNL A   1      45.478  32.363  29.291  1.00  0.00     0.057 A 
ATOM     91  C   UNL A   1      45.416  33.355  28.303  1.00  0.00     0.134 A 
ATOM     92  C   UNL A   1      45.775  32.774  30.597  1.00  0.00     0.134 A 
ATOM     93  F   UNL A   1      45.149  33.030  27.029  1.00  0.00    -0.206 F 
ATOM     94  C   UNL A   1      45.668  34.696  28.597  1.00  0.00     0.040 A 
ATOM     95  C   UNL A   1      45.993  34.116  30.911  1.00  0.00     0.040 A 
ATOM     96  F   UNL A   1      45.840  31.880  31.596  1.00  0.00    -0.206 F 
ATOM     97  C   UNL A   1      45.949  35.080  29.908  1.00  0.00     0.006 A 
ENDBRANCH  73  90
ENDBRANCH  47  48
ENDBRANCH  39  42
ENDBRANCH  37  38
ENDBRANCH  36  37
ENDBRANCH  35  36
ENDBRANCH   1  35
TORSDOF 18
ENDMDL
