MODEL 1
REMARK VINA RESULT:     -11.7      0.000      0.000
REMARK SMILES CC(=O)Nc1nc(C[N@@H+]2CCO[C@@H](CC(=O)NCCCCNC(=O)c3ccc(-c4c5nc(c(-c6c(F)cccc6F)c6ccc([nH]6)c(-c6c(F)cccc6F)c6nc(c(-c7c(F)cccc7F)c7ccc4[nH]7)C=C6)C=C5)cc3)C2)cs1
REMARK SMILES IDX 18 1 17 2 15 3 16 4 14 6 13 7 9 8 10 9 79 10 11 12 12 13
REMARK SMILES IDX 8 14 7 15 5 16 6 17 81 18 80 19 4 20 1 21 2 22 3 23 19 25
REMARK SMILES IDX 20 26 21 27 22 28 23 29 24 31 25 32 26 33 78 34 27 35 77 36
REMARK SMILES IDX 28 37 29 38 30 39 71 40 31 41 76 42 70 43 72 44 32 45 75 46
REMARK SMILES IDX 69 47 68 48 33 50 59 51 42 52 58 53 43 54 46 55 57 56 73 57
REMARK SMILES IDX 44 58 45 59 56 61 74 62 47 63 34 64 35 65 40 66 36 67 37 68
REMARK SMILES IDX 39 69 41 70 38 71 60 72 61 73 66 74 62 75 63 76 65 77 67 78
REMARK SMILES IDX 64 79 48 80 49 81 54 82 50 83 51 84 53 85 55 86 52 87
REMARK H PARENT 17 5 9 11 4 24 22 30 72 49 46 60
REMARK Flexibility Score: inf
ROOT
ATOM      1  C   UNL A   1      33.649  28.308  24.753  1.00  0.00     0.116 C 
ENDROOT
BRANCH   1   2
ATOM      2  N   UNL A   1      33.784  27.824  23.388  1.00  0.00    -0.356 N 
ATOM      3  C   UNL A   1      33.256  26.720  22.783  1.00  0.00     0.222 C 
ATOM      4  O   UNL A   1      33.611  26.462  21.632  1.00  0.00    -0.275 OA
ATOM      5  H   UNL A   1      34.346  28.385  22.805  1.00  0.00     0.163 HD
BRANCH   3   6
ATOM      6  C   UNL A   1      32.263  25.837  23.504  1.00  0.00     0.138 C 
BRANCH   6   7
ATOM      7  C   UNL A   1      32.905  24.811  24.446  1.00  0.00     0.182 C 
ATOM      8  N   UNL A   1      33.196  22.265  24.581  1.00  0.00    -0.326 N 
ATOM      9  C   UNL A   1      34.624  22.481  24.478  1.00  0.00     0.291 C 
ATOM     10  C   UNL A   1      32.369  23.387  24.185  1.00  0.00     0.295 C 
ATOM     11  H   UNL A   1      33.087  21.603  23.812  1.00  0.00     0.348 HD
ATOM     12  C   UNL A   1      35.022  23.880  24.961  1.00  0.00     0.222 C 
ATOM     13  O   UNL A   1      34.328  24.886  24.217  1.00  0.00    -0.366 OA
BRANCH   8  14
ATOM     14  C   UNL A   1      32.644  21.234  25.440  1.00  0.00     0.320 C 
BRANCH  14  15
ATOM     15  C   UNL A   1      32.538  19.903  24.755  1.00  0.00     0.108 A 
ATOM     16  C   UNL A   1      32.448  17.699  24.732  1.00  0.00     0.189 A 
ATOM     17  N   UNL A   1      32.489  18.741  25.522  1.00  0.00    -0.219 NA
ATOM     18  S   UNL A   1      32.476  18.006  23.056  1.00  0.00    -0.105 S 
ATOM     19  C   UNL A   1      32.409  19.681  23.394  1.00  0.00     0.098 A 
BRANCH  16  20
ATOM     20  N   UNL A   1      32.375  16.376  25.044  1.00  0.00    -0.302 N 
ATOM     21  C   UNL A   1      34.830  16.074  25.261  1.00  0.00     0.114 C 
ATOM     22  C   UNL A   1      33.427  15.531  25.203  1.00  0.00     0.223 C 
ATOM     23  O   UNL A   1      33.208  14.328  25.365  1.00  0.00    -0.275 OA
ATOM     24  H   UNL A   1      31.475  15.996  25.165  1.00  0.00     0.172 HD
ENDBRANCH  16  20
ENDBRANCH  14  15
ENDBRANCH   8  14
ENDBRANCH   6   7
ENDBRANCH   3   6
ENDBRANCH   1   2
BRANCH   1  25
ATOM     25  C   UNL A   1      32.691  29.502  24.822  1.00  0.00     0.023 C 
BRANCH  25  26
ATOM     26  C   UNL A   1      32.110  29.783  26.198  1.00  0.00     0.023 C 
BRANCH  26  27
ATOM     27  C   UNL A   1      32.929  30.754  27.029  1.00  0.00     0.116 C 
BRANCH  27  28
ATOM     28  N   UNL A   1      32.364  32.098  27.071  1.00  0.00    -0.352 N 
ATOM     29  C   UNL A   1      32.838  33.217  27.717  1.00  0.00     0.251 C 
ATOM     30  H   UNL A   1      31.527  32.222  26.567  1.00  0.00     0.163 HD
ATOM     31  O   UNL A   1      32.187  34.251  27.744  1.00  0.00    -0.269 OA
BRANCH  29  32
ATOM     32  C   UNL A   1      34.132  33.128  28.423  1.00  0.00     0.039 A 
ATOM     33  C   UNL A   1      34.165  32.591  29.711  1.00  0.00     0.014 A 
ATOM     34  C   UNL A   1      35.313  33.468  27.760  1.00  0.00     0.014 A 
ATOM     35  C   UNL A   1      35.397  32.290  30.292  1.00  0.00     0.010 A 
ATOM     36  C   UNL A   1      36.529  33.077  28.297  1.00  0.00     0.010 A 
ATOM     37  C   UNL A   1      36.583  32.470  29.562  1.00  0.00    -0.014 A 
BRANCH  37  38
ATOM     38  C   UNL A   1      37.895  32.011  30.079  1.00  0.00     0.031 A 
ATOM     39  C   UNL A   1      38.516  30.760  29.528  1.00  0.00     0.074 A 
ATOM     40  C   UNL A   1      38.467  32.658  31.113  1.00  0.00     0.049 A 
ATOM     41  N   UNL A   1      39.580  30.118  29.934  1.00  0.00    -0.248 NA
ATOM     42  C   UNL A   1      37.826  30.125  28.392  1.00  0.00     0.031 C 
ATOM     43  C   UNL A   1      37.929  33.849  31.775  1.00  0.00     0.029 A 
ATOM     44  N   UNL A   1      39.622  32.390  31.804  1.00  0.00    -0.354 N 
ATOM     45  C   UNL A   1      39.672  28.995  29.124  1.00  0.00     0.074 A 
ATOM     46  C   UNL A   1      38.528  29.014  28.238  1.00  0.00     0.031 C 
ATOM     47  C   UNL A   1      38.763  34.221  32.760  1.00  0.00     0.029 A 
ATOM     48  C   UNL A   1      39.869  33.272  32.828  1.00  0.00     0.049 A 
ATOM     49  H   UNL A   1      40.218  31.637  31.587  1.00  0.00     0.167 HD
ATOM     50  C   UNL A   1      40.636  28.047  29.102  1.00  0.00     0.037 A 
ATOM     51  C   UNL A   1      40.869  33.304  33.730  1.00  0.00     0.037 A 
ATOM     52  C   UNL A   1      41.794  28.056  29.955  1.00  0.00     0.049 A 
ATOM     53  C   UNL A   1      41.927  32.238  33.686  1.00  0.00     0.074 A 
ATOM     54  C   UNL A   1      42.876  27.196  29.949  1.00  0.00     0.029 A 
ATOM     55  N   UNL A   1      42.017  28.976  30.969  1.00  0.00    -0.354 N 
ATOM     56  N   UNL A   1      42.043  31.224  32.864  1.00  0.00    -0.248 NA
ATOM     57  C   UNL A   1      42.990  32.318  34.698  1.00  0.00     0.031 C 
ATOM     58  C   UNL A   1      43.738  27.571  30.985  1.00  0.00     0.029 A 
ATOM     59  C   UNL A   1      43.206  28.686  31.614  1.00  0.00     0.049 A 
ATOM     60  H   UNL A   1      41.417  29.723  31.196  1.00  0.00     0.167 HD
ATOM     61  C   UNL A   1      43.195  30.552  33.251  1.00  0.00     0.074 A 
ATOM     62  C   UNL A   1      43.753  31.284  34.368  1.00  0.00     0.031 C 
ATOM     63  C   UNL A   1      43.740  29.426  32.729  1.00  0.00     0.037 A 
BRANCH  50  64
ATOM     64  C   UNL A   1      40.484  26.929  28.114  1.00  0.00     0.057 A 
ATOM     65  C   UNL A   1      41.145  26.943  26.879  1.00  0.00     0.134 A 
ATOM     66  C   UNL A   1      39.686  25.818  28.410  1.00  0.00     0.134 A 
ATOM     67  F   UNL A   1      41.911  27.987  26.530  1.00  0.00    -0.206 F 
ATOM     68  C   UNL A   1      40.997  25.902  25.961  1.00  0.00     0.040 A 
ATOM     69  C   UNL A   1      39.550  24.759  27.510  1.00  0.00     0.040 A 
ATOM     70  F   UNL A   1      39.028  25.742  29.576  1.00  0.00    -0.206 F 
ATOM     71  C   UNL A   1      40.202  24.803  26.279  1.00  0.00     0.006 A 
ENDBRANCH  50  64
BRANCH  51  72
ATOM     72  C   UNL A   1      40.921  34.385  34.746  1.00  0.00     0.057 A 
ATOM     73  C   UNL A   1      41.616  35.573  34.494  1.00  0.00     0.134 A 
ATOM     74  C   UNL A   1      40.283  34.259  35.986  1.00  0.00     0.134 A 
ATOM     75  F   UNL A   1      42.262  35.742  33.332  1.00  0.00    -0.206 F 
ATOM     76  C   UNL A   1      41.688  36.593  35.444  1.00  0.00     0.040 A 
ATOM     77  C   UNL A   1      40.330  35.280  36.937  1.00  0.00     0.040 A 
ATOM     78  F   UNL A   1      39.597  33.147  36.284  1.00  0.00    -0.206 F 
ATOM     79  C   UNL A   1      41.039  36.448  36.669  1.00  0.00     0.006 A 
ENDBRANCH  51  72
BRANCH  63  80
ATOM     80  C   UNL A   1      45.002  28.923  33.360  1.00  0.00     0.057 A 
ATOM     81  C   UNL A   1      44.977  27.970  34.385  1.00  0.00     0.134 A 
ATOM     82  C   UNL A   1      46.253  29.356  32.904  1.00  0.00     0.134 A 
ATOM     83  F   UNL A   1      43.808  27.527  34.873  1.00  0.00    -0.206 F 
ATOM     84  C   UNL A   1      46.155  27.473  34.945  1.00  0.00     0.040 A 
ATOM     85  C   UNL A   1      47.438  28.851  33.442  1.00  0.00     0.040 A 
ATOM     86  F   UNL A   1      46.342  30.262  31.919  1.00  0.00    -0.206 F 
ATOM     87  C   UNL A   1      47.389  27.909  34.466  1.00  0.00     0.006 A 
ENDBRANCH  63  80
ENDBRANCH  37  38
ENDBRANCH  29  32
ENDBRANCH  27  28
ENDBRANCH  26  27
ENDBRANCH  25  26
ENDBRANCH   1  25
TORSDOF 15
ENDMDL
MODEL 2
REMARK VINA RESULT:     -11.7      3.017      7.455
REMARK SMILES CC(=O)Nc1nc(C[N@@H+]2CCO[C@@H](CC(=O)NCCCCNC(=O)c3ccc(-c4c5nc(c(-c6c(F)cccc6F)c6ccc([nH]6)c(-c6c(F)cccc6F)c6nc(c(-c7c(F)cccc7F)c7ccc4[nH]7)C=C6)C=C5)cc3)C2)cs1
REMARK SMILES IDX 18 1 17 2 15 3 16 4 14 6 13 7 9 8 10 9 79 10 11 12 12 13
REMARK SMILES IDX 8 14 7 15 5 16 6 17 81 18 80 19 4 20 1 21 2 22 3 23 19 25
REMARK SMILES IDX 20 26 21 27 22 28 23 29 24 31 25 32 26 33 78 34 27 35 77 36
REMARK SMILES IDX 28 37 29 38 30 39 71 40 31 41 76 42 70 43 72 44 32 45 75 46
REMARK SMILES IDX 69 47 68 48 33 50 59 51 42 52 58 53 43 54 46 55 57 56 73 57
REMARK SMILES IDX 44 58 45 59 56 61 74 62 47 63 34 64 35 65 40 66 36 67 37 68
REMARK SMILES IDX 39 69 41 70 38 71 60 72 61 73 66 74 62 75 63 76 65 77 67 78
REMARK SMILES IDX 64 79 48 80 49 81 54 82 50 83 51 84 53 85 55 86 52 87
REMARK H PARENT 17 5 9 11 4 24 22 30 72 49 46 60
REMARK Flexibility Score: inf
ROOT
ATOM      1  C   UNL A   1      31.327  29.569  25.035  1.00  0.00     0.116 C 
ENDROOT
BRANCH   1   2
ATOM      2  N   UNL A   1      30.742  29.903  23.746  1.00  0.00    -0.356 N 
ATOM      3  C   UNL A   1      30.329  29.096  22.725  1.00  0.00     0.222 C 
ATOM      4  O   UNL A   1      29.965  29.627  21.675  1.00  0.00    -0.275 OA
ATOM      5  H   UNL A   1      30.624  30.867  23.583  1.00  0.00     0.163 HD
BRANCH   3   6
ATOM      6  C   UNL A   1      30.316  27.592  22.879  1.00  0.00     0.138 C 
BRANCH   6   7
ATOM      7  C   UNL A   1      31.677  26.927  22.646  1.00  0.00     0.182 C 
ATOM      8  N   UNL A   1      32.953  24.855  23.463  1.00  0.00    -0.326 N 
ATOM      9  C   UNL A   1      32.922  24.369  22.099  1.00  0.00     0.291 C 
ATOM     10  C   UNL A   1      32.015  25.917  23.765  1.00  0.00     0.295 C 
ATOM     11  H   UNL A   1      32.548  24.039  23.924  1.00  0.00     0.348 HD
ATOM     12  C   UNL A   1      32.779  25.516  21.093  1.00  0.00     0.222 C 
ATOM     13  O   UNL A   1      31.596  26.276  21.360  1.00  0.00    -0.366 OA
BRANCH   8  14
ATOM     14  C   UNL A   1      34.113  24.658  24.313  1.00  0.00     0.320 C 
BRANCH  14  15
ATOM     15  C   UNL A   1      33.984  23.456  25.201  1.00  0.00     0.108 A 
ATOM     16  C   UNL A   1      33.121  21.507  25.767  1.00  0.00     0.189 A 
ATOM     17  N   UNL A   1      33.119  22.426  24.836  1.00  0.00    -0.219 NA
ATOM     18  S   UNL A   1      34.116  21.787  27.121  1.00  0.00    -0.105 S 
ATOM     19  C   UNL A   1      34.702  23.201  26.358  1.00  0.00     0.098 A 
BRANCH  16  20
ATOM     20  N   UNL A   1      32.445  20.326  25.821  1.00  0.00    -0.302 N 
ATOM     21  C   UNL A   1      34.192  19.027  24.627  1.00  0.00     0.114 C 
ATOM     22  C   UNL A   1      32.820  19.160  25.233  1.00  0.00     0.223 C 
ATOM     23  O   UNL A   1      32.047  18.199  25.263  1.00  0.00    -0.275 OA
ATOM     24  H   UNL A   1      31.605  20.316  26.334  1.00  0.00     0.172 HD
ENDBRANCH  16  20
ENDBRANCH  14  15
ENDBRANCH   8  14
ENDBRANCH   6   7
ENDBRANCH   3   6
ENDBRANCH   1   2
BRANCH   1  25
ATOM     25  C   UNL A   1      32.853  29.700  24.998  1.00  0.00     0.023 C 
BRANCH  25  26
ATOM     26  C   UNL A   1      33.609  28.643  25.786  1.00  0.00     0.023 C 
BRANCH  26  27
ATOM     27  C   UNL A   1      33.488  28.789  27.291  1.00  0.00     0.116 C 
BRANCH  27  28
ATOM     28  N   UNL A   1      33.607  30.168  27.751  1.00  0.00    -0.352 N 
ATOM     29  C   UNL A   1      34.692  30.805  28.310  1.00  0.00     0.251 C 
ATOM     30  H   UNL A   1      32.798  30.720  27.648  1.00  0.00     0.163 HD
ATOM     31  O   UNL A   1      34.598  31.943  28.745  1.00  0.00    -0.269 OA
BRANCH  29  32
ATOM     32  C   UNL A   1      35.964  30.064  28.419  1.00  0.00     0.039 A 
ATOM     33  C   UNL A   1      36.866  30.108  27.354  1.00  0.00     0.014 A 
ATOM     34  C   UNL A   1      36.302  29.430  29.616  1.00  0.00     0.014 A 
ATOM     35  C   UNL A   1      38.157  29.611  27.534  1.00  0.00     0.010 A 
ATOM     36  C   UNL A   1      37.613  29.028  29.824  1.00  0.00     0.010 A 
ATOM     37  C   UNL A   1      38.557  29.128  28.790  1.00  0.00    -0.014 A 
BRANCH  37  38
ATOM     38  C   UNL A   1      39.963  28.744  29.068  1.00  0.00     0.031 A 
ATOM     39  C   UNL A   1      40.898  29.741  29.689  1.00  0.00     0.074 A 
ATOM     40  C   UNL A   1      40.418  27.543  28.661  1.00  0.00     0.049 A 
ATOM     41  N   UNL A   1      42.188  29.652  29.885  1.00  0.00    -0.248 NA
ATOM     42  C   UNL A   1      40.312  31.024  30.110  1.00  0.00     0.031 C 
ATOM     43  C   UNL A   1      39.621  26.513  27.990  1.00  0.00     0.029 A 
ATOM     44  N   UNL A   1      41.673  26.992  28.735  1.00  0.00    -0.354 N 
ATOM     45  C   UNL A   1      42.569  30.872  30.427  1.00  0.00     0.074 A 
ATOM     46  C   UNL A   1      41.386  31.702  30.480  1.00  0.00     0.031 C 
ATOM     47  C   UNL A   1      40.400  25.449  27.734  1.00  0.00     0.029 A 
ATOM     48  C   UNL A   1      41.758  25.737  28.182  1.00  0.00     0.049 A 
ATOM     49  H   UNL A   1      42.440  27.453  29.145  1.00  0.00     0.167 HD
ATOM     50  C   UNL A   1      43.790  31.255  30.866  1.00  0.00     0.037 A 
ATOM     51  C   UNL A   1      42.816  24.917  28.040  1.00  0.00     0.037 A 
ATOM     52  C   UNL A   1      44.953  30.410  30.850  1.00  0.00     0.049 A 
ATOM     53  C   UNL A   1      44.162  25.367  28.534  1.00  0.00     0.074 A 
ATOM     54  C   UNL A   1      46.213  30.669  31.358  1.00  0.00     0.029 A 
ATOM     55  N   UNL A   1      44.995  29.139  30.298  1.00  0.00    -0.354 N 
ATOM     56  N   UNL A   1      44.493  26.494  29.115  1.00  0.00    -0.248 NA
ATOM     57  C   UNL A   1      45.283  24.434  28.347  1.00  0.00     0.031 C 
ATOM     58  C   UNL A   1      47.030  29.569  31.077  1.00  0.00     0.029 A 
ATOM     59  C   UNL A   1      46.269  28.612  30.425  1.00  0.00     0.049 A 
ATOM     60  H   UNL A   1      44.233  28.680  29.876  1.00  0.00     0.167 HD
ATOM     61  C   UNL A   1      45.854  26.403  29.373  1.00  0.00     0.074 A 
ATOM     62  C   UNL A   1      46.284  25.103  28.903  1.00  0.00     0.031 C 
ATOM     63  C   UNL A   1      46.675  27.316  29.945  1.00  0.00     0.037 A 
BRANCH  50  64
ATOM     64  C   UNL A   1      43.922  32.646  31.410  1.00  0.00     0.057 A 
ATOM     65  C   UNL A   1      43.722  32.928  32.768  1.00  0.00     0.134 A 
ATOM     66  C   UNL A   1      44.274  33.711  30.572  1.00  0.00     0.134 A 
ATOM     67  F   UNL A   1      43.366  31.953  33.619  1.00  0.00    -0.206 F 
ATOM     68  C   UNL A   1      43.842  34.224  33.269  1.00  0.00     0.040 A 
ATOM     69  C   UNL A   1      44.422  35.008  31.067  1.00  0.00     0.040 A 
ATOM     70  F   UNL A   1      44.482  33.508  29.263  1.00  0.00    -0.206 F 
ATOM     71  C   UNL A   1      44.199  35.268  32.418  1.00  0.00     0.006 A 
ENDBRANCH  50  64
BRANCH  51  72
ATOM     72  C   UNL A   1      42.645  23.584  27.410  1.00  0.00     0.057 A 
ATOM     73  C   UNL A   1      42.296  22.466  28.178  1.00  0.00     0.134 A 
ATOM     74  C   UNL A   1      42.826  23.392  26.035  1.00  0.00     0.134 A 
ATOM     75  F   UNL A   1      42.129  22.586  29.503  1.00  0.00    -0.206 F 
ATOM     76  C   UNL A   1      42.147  21.203  27.604  1.00  0.00     0.040 A 
ATOM     77  C   UNL A   1      42.659  22.138  25.445  1.00  0.00     0.040 A 
ATOM     78  F   UNL A   1      43.156  24.424  25.246  1.00  0.00    -0.206 F 
ATOM     79  C   UNL A   1      42.324  21.039  26.232  1.00  0.00     0.006 A 
ENDBRANCH  51  72
BRANCH  63  80
ATOM     80  C   UNL A   1      48.117  26.939  30.095  1.00  0.00     0.057 A 
ATOM     81  C   UNL A   1      49.079  27.340  29.161  1.00  0.00     0.134 A 
ATOM     82  C   UNL A   1      48.555  26.212  31.209  1.00  0.00     0.134 A 
ATOM     83  F   UNL A   1      48.718  28.027  28.066  1.00  0.00    -0.206 F 
ATOM     84  C   UNL A   1      50.428  27.020  29.323  1.00  0.00     0.040 A 
ATOM     85  C   UNL A   1      49.904  25.904  31.392  1.00  0.00     0.040 A 
ATOM     86  F   UNL A   1      47.682  25.805  32.143  1.00  0.00    -0.206 F 
ATOM     87  C   UNL A   1      50.843  26.307  30.446  1.00  0.00     0.006 A 
ENDBRANCH  63  80
ENDBRANCH  37  38
ENDBRANCH  29  32
ENDBRANCH  27  28
ENDBRANCH  26  27
ENDBRANCH  25  26
ENDBRANCH   1  25
TORSDOF 15
ENDMDL
MODEL 3
REMARK VINA RESULT:     -11.5      4.646      9.993
REMARK SMILES CC(=O)Nc1nc(C[N@@H+]2CCO[C@@H](CC(=O)NCCCCNC(=O)c3ccc(-c4c5nc(c(-c6c(F)cccc6F)c6ccc([nH]6)c(-c6c(F)cccc6F)c6nc(c(-c7c(F)cccc7F)c7ccc4[nH]7)C=C6)C=C5)cc3)C2)cs1
REMARK SMILES IDX 18 1 17 2 15 3 16 4 14 6 13 7 9 8 10 9 79 10 11 12 12 13
REMARK SMILES IDX 8 14 7 15 5 16 6 17 81 18 80 19 4 20 1 21 2 22 3 23 19 25
REMARK SMILES IDX 20 26 21 27 22 28 23 29 24 31 25 32 26 33 78 34 27 35 77 36
REMARK SMILES IDX 28 37 29 38 30 39 71 40 31 41 76 42 70 43 72 44 32 45 75 46
REMARK SMILES IDX 69 47 68 48 33 50 59 51 42 52 58 53 43 54 46 55 57 56 73 57
REMARK SMILES IDX 44 58 45 59 56 61 74 62 47 63 34 64 35 65 40 66 36 67 37 68
REMARK SMILES IDX 39 69 41 70 38 71 60 72 61 73 66 74 62 75 63 76 65 77 67 78
REMARK SMILES IDX 64 79 48 80 49 81 54 82 50 83 51 84 53 85 55 86 52 87
REMARK H PARENT 17 5 9 11 4 24 22 30 72 49 46 60
REMARK Flexibility Score: inf
ROOT
ATOM      1  C   UNL A   1      35.589  20.847  25.261  1.00  0.00     0.116 C 
ENDROOT
BRANCH   1   2
ATOM      2  N   UNL A   1      34.480  19.939  25.014  1.00  0.00    -0.356 N 
ATOM      3  C   UNL A   1      33.134  20.129  25.139  1.00  0.00     0.222 C 
ATOM      4  O   UNL A   1      32.391  19.160  24.975  1.00  0.00    -0.275 OA
ATOM      5  H   UNL A   1      34.742  19.041  24.705  1.00  0.00     0.163 HD
BRANCH   3   6
ATOM      6  C   UNL A   1      32.569  21.492  25.469  1.00  0.00     0.138 C 
BRANCH   6   7
ATOM      7  C   UNL A   1      32.145  22.308  24.242  1.00  0.00     0.182 C 
ATOM      8  N   UNL A   1      31.612  24.753  23.667  1.00  0.00    -0.326 N 
ATOM      9  C   UNL A   1      32.750  24.730  22.771  1.00  0.00     0.291 C 
ATOM     10  C   UNL A   1      31.571  23.684  24.645  1.00  0.00     0.295 C 
ATOM     11  H   UNL A   1      31.869  25.572  24.218  1.00  0.00     0.348 HD
ATOM     12  C   UNL A   1      33.074  23.307  22.304  1.00  0.00     0.222 C 
ATOM     13  O   UNL A   1      33.326  22.453  23.425  1.00  0.00    -0.366 OA
BRANCH   8  14
ATOM     14  C   UNL A   1      30.393  25.463  23.326  1.00  0.00     0.320 C 
BRANCH  14  15
ATOM     15  C   UNL A   1      30.537  26.951  23.445  1.00  0.00     0.108 A 
ATOM     16  C   UNL A   1      30.366  29.015  22.685  1.00  0.00     0.189 A 
ATOM     17  N   UNL A   1      30.105  27.766  22.400  1.00  0.00    -0.219 NA
ATOM     18  S   UNL A   1      31.135  29.317  24.175  1.00  0.00    -0.105 S 
ATOM     19  C   UNL A   1      31.004  27.653  24.544  1.00  0.00     0.098 A 
BRANCH  16  20
ATOM     20  N   UNL A   1      30.105  30.141  21.967  1.00  0.00    -0.302 N 
ATOM     21  C   UNL A   1      27.756  30.348  22.745  1.00  0.00     0.114 C 
ATOM     22  C   UNL A   1      28.900  30.761  21.859  1.00  0.00     0.223 C 
ATOM     23  O   UNL A   1      28.782  31.706  21.074  1.00  0.00    -0.275 OA
ATOM     24  H   UNL A   1      30.859  30.545  21.480  1.00  0.00     0.172 HD
ENDBRANCH  16  20
ENDBRANCH  14  15
ENDBRANCH   8  14
ENDBRANCH   6   7
ENDBRANCH   3   6
ENDBRANCH   1   2
BRANCH   1  25
ATOM     25  C   UNL A   1      36.933  20.155  25.012  1.00  0.00     0.023 C 
BRANCH  25  26
ATOM     26  C   UNL A   1      38.136  21.083  24.965  1.00  0.00     0.023 C 
BRANCH  26  27
ATOM     27  C   UNL A   1      39.125  20.871  26.096  1.00  0.00     0.116 C 
BRANCH  27  28
ATOM     28  N   UNL A   1      39.923  19.659  25.947  1.00  0.00    -0.352 N 
ATOM     29  C   UNL A   1      41.284  19.497  26.071  1.00  0.00     0.251 C 
ATOM     30  H   UNL A   1      39.417  18.843  25.727  1.00  0.00     0.163 HD
ATOM     31  O   UNL A   1      41.817  18.428  25.808  1.00  0.00    -0.269 OA
BRANCH  29  32
ATOM     32  C   UNL A   1      42.098  20.658  26.481  1.00  0.00     0.039 A 
ATOM     33  C   UNL A   1      42.671  21.465  25.496  1.00  0.00     0.014 A 
ATOM     34  C   UNL A   1      42.189  21.004  27.831  1.00  0.00     0.014 A 
ATOM     35  C   UNL A   1      43.242  22.684  25.862  1.00  0.00     0.010 A 
ATOM     36  C   UNL A   1      42.666  22.259  28.179  1.00  0.00     0.010 A 
ATOM     37  C   UNL A   1      43.183  23.118  27.196  1.00  0.00    -0.014 A 
BRANCH  37  38
ATOM     38  C   UNL A   1      43.630  24.474  27.597  1.00  0.00     0.031 A 
ATOM     39  C   UNL A   1      42.612  25.512  27.970  1.00  0.00     0.074 A 
ATOM     40  C   UNL A   1      44.935  24.796  27.519  1.00  0.00     0.049 A 
ATOM     41  N   UNL A   1      42.782  26.786  28.215  1.00  0.00    -0.248 NA
ATOM     42  C   UNL A   1      41.209  25.069  28.039  1.00  0.00     0.031 C 
ATOM     43  C   UNL A   1      46.012  23.892  27.109  1.00  0.00     0.029 A 
ATOM     44  N   UNL A   1      45.578  25.985  27.761  1.00  0.00    -0.354 N 
ATOM     45  C   UNL A   1      41.512  27.297  28.441  1.00  0.00     0.074 A 
ATOM     46  C   UNL A   1      40.575  26.211  28.252  1.00  0.00     0.031 C 
ATOM     47  C   UNL A   1      47.182  24.551  27.150  1.00  0.00     0.029 A 
ATOM     48  C   UNL A   1      46.934  25.933  27.546  1.00  0.00     0.049 A 
ATOM     49  H   UNL A   1      45.110  26.798  28.061  1.00  0.00     0.167 HD
ATOM     50  C   UNL A   1      41.159  28.553  28.799  1.00  0.00     0.037 A 
ATOM     51  C   UNL A   1      47.869  26.896  27.642  1.00  0.00     0.037 A 
ATOM     52  C   UNL A   1      42.098  29.618  29.027  1.00  0.00     0.049 A 
ATOM     53  C   UNL A   1      47.452  28.284  28.040  1.00  0.00     0.074 A 
ATOM     54  C   UNL A   1      41.852  30.900  29.484  1.00  0.00     0.029 A 
ATOM     55  N   UNL A   1      43.465  29.522  28.814  1.00  0.00    -0.354 N 
ATOM     56  N   UNL A   1      46.255  28.735  28.325  1.00  0.00    -0.248 NA
ATOM     57  C   UNL A   1      48.513  29.297  28.123  1.00  0.00     0.031 C 
ATOM     58  C   UNL A   1      43.066  31.594  29.511  1.00  0.00     0.029 A 
ATOM     59  C   UNL A   1      44.072  30.732  29.103  1.00  0.00     0.049 A 
ATOM     60  H   UNL A   1      43.933  28.714  28.503  1.00  0.00     0.167 HD
ATOM     61  C   UNL A   1      46.420  30.079  28.633  1.00  0.00     0.074 A 
ATOM     62  C   UNL A   1      47.835  30.366  28.518  1.00  0.00     0.031 C 
ATOM     63  C   UNL A   1      45.483  30.996  28.976  1.00  0.00     0.037 A 
BRANCH  50  64
ATOM     64  C   UNL A   1      39.698  28.835  28.977  1.00  0.00     0.057 A 
ATOM     65  C   UNL A   1      39.061  28.669  30.214  1.00  0.00     0.134 A 
ATOM     66  C   UNL A   1      38.923  29.300  27.907  1.00  0.00     0.134 A 
ATOM     67  F   UNL A   1      39.744  28.211  31.274  1.00  0.00    -0.206 F 
ATOM     68  C   UNL A   1      37.699  28.929  30.375  1.00  0.00     0.040 A 
ATOM     69  C   UNL A   1      37.566  29.588  28.061  1.00  0.00     0.040 A 
ATOM     70  F   UNL A   1      39.472  29.482  26.697  1.00  0.00    -0.206 F 
ATOM     71  C   UNL A   1      36.949  29.396  29.297  1.00  0.00     0.006 A 
ENDBRANCH  50  64
BRANCH  51  72
ATOM     72  C   UNL A   1      49.293  26.581  27.365  1.00  0.00     0.057 A 
ATOM     73  C   UNL A   1      49.822  26.725  26.077  1.00  0.00     0.134 A 
ATOM     74  C   UNL A   1      50.155  26.131  28.371  1.00  0.00     0.134 A 
ATOM     75  F   UNL A   1      49.039  27.135  25.069  1.00  0.00    -0.206 F 
ATOM     76  C   UNL A   1      51.154  26.419  25.796  1.00  0.00     0.040 A 
ATOM     77  C   UNL A   1      51.495  25.841  28.108  1.00  0.00     0.040 A 
ATOM     78  F   UNL A   1      49.709  25.978  29.626  1.00  0.00    -0.206 F 
ATOM     79  C   UNL A   1      51.996  25.980  26.816  1.00  0.00     0.006 A 
ENDBRANCH  51  72
BRANCH  63  80
ATOM     80  C   UNL A   1      45.958  32.389  29.253  1.00  0.00     0.057 A 
ATOM     81  C   UNL A   1      46.326  32.793  30.542  1.00  0.00     0.134 A 
ATOM     82  C   UNL A   1      46.097  33.318  28.215  1.00  0.00     0.134 A 
ATOM     83  F   UNL A   1      46.202  31.951  31.579  1.00  0.00    -0.206 F 
ATOM     84  C   UNL A   1      46.806  34.080  30.791  1.00  0.00     0.040 A 
ATOM     85  C   UNL A   1      46.595  34.601  28.448  1.00  0.00     0.040 A 
ATOM     86  F   UNL A   1      45.767  32.989  26.957  1.00  0.00    -0.206 F 
ATOM     87  C   UNL A   1      46.948  34.984  29.740  1.00  0.00     0.006 A 
ENDBRANCH  63  80
ENDBRANCH  37  38
ENDBRANCH  29  32
ENDBRANCH  27  28
ENDBRANCH  26  27
ENDBRANCH  25  26
ENDBRANCH   1  25
TORSDOF 15
ENDMDL
