MODEL 1
REMARK VINA RESULT:     -12.0      0.000      0.000
REMARK SMILES C[C@@H]1[C@@H](C(=O)NCCCCNC(=O)c2ccc(-c3c4nc(c(-c5c(F)cccc5F)c5ccc([nH]5)c(-c5c(F)cccc5F)c5nc(c(-c6c(F)cccc6F)c6ccc3[nH]6)C=C5)C=C4)cc2)CCN1C(=O)N1CCC[C@H]2CCC[C@@H]21
REMARK SMILES IDX 8 1 7 2 6 3 4 4 5 5 3 7 1 8 2 9 70 10 68 11 69 12 71 13
REMARK SMILES IDX 72 14 73 15 74 16 81 17 75 18 77 19 80 20 76 21 78 22 79 23
REMARK SMILES IDX 9 24 10 25 11 26 12 27 13 29 14 30 15 31 67 32 16 33 66 34
REMARK SMILES IDX 17 35 18 36 19 37 60 38 20 39 65 40 59 41 61 42 21 43 64 44
REMARK SMILES IDX 58 45 57 46 22 48 48 49 31 50 47 51 32 52 35 53 46 54 62 55
REMARK SMILES IDX 33 56 34 57 45 59 63 60 36 61 23 62 24 63 29 64 25 65 26 66
REMARK SMILES IDX 28 67 30 68 27 69 49 70 50 71 55 72 51 73 52 74 54 75 56 76
REMARK SMILES IDX 53 77 37 78 38 79 43 80 39 81 40 82 42 83 44 84 41 85
REMARK H PARENT 6 6 11 28 61 47 35 58
REMARK Flexibility Score: inf
ROOT
ATOM      1  C   UNL A   1      36.562  20.495  25.001  1.00  0.00     0.023 C 
ENDROOT
BRANCH   1   2
ATOM      2  C   UNL A   1      36.736  21.957  25.394  1.00  0.00     0.116 C 
BRANCH   2   3
ATOM      3  N   UNL A   1      35.805  22.409  26.409  1.00  0.00    -0.356 N 
ATOM      4  C   UNL A   1      34.591  23.022  26.245  1.00  0.00     0.225 C 
ATOM      5  O   UNL A   1      33.935  23.273  27.254  1.00  0.00    -0.275 OA
ATOM      6  H   UNL A   1      36.082  22.253  27.341  1.00  0.00     0.163 HD
BRANCH   4   7
ATOM      7  C   UNL A   1      34.171  23.454  24.845  1.00  0.00     0.102 C 
ATOM      8  C   UNL A   1      33.826  25.538  23.533  1.00  0.00     0.032 C 
ATOM      9  C   UNL A   1      33.429  24.813  24.826  1.00  0.00     0.096 C 
ATOM     10  N   UNL A   1      31.998  24.447  24.875  1.00  0.00    -0.321 N 
ATOM     11  C   UNL A   1      33.164  22.522  24.163  1.00  0.00     0.037 C 
ATOM     12  C   UNL A   1      31.821  23.028  24.645  1.00  0.00     0.122 C 
BRANCH  10  13
ATOM     13  C   UNL A   1      30.964  25.096  25.536  1.00  0.00     0.320 C 
ATOM     14  O   UNL A   1      30.429  24.609  26.532  1.00  0.00    -0.248 OA
BRANCH  13  15
ATOM     15  N   UNL A   1      30.659  26.359  25.105  1.00  0.00    -0.321 N 
ATOM     16  C   UNL A   1      29.584  26.612  24.157  1.00  0.00     0.121 C 
ATOM     17  C   UNL A   1      31.028  27.538  25.865  1.00  0.00     0.090 C 
ATOM     18  C   UNL A   1      30.006  27.675  23.137  1.00  0.00     0.022 C 
ATOM     19  C   UNL A   1      31.622  28.532  24.865  1.00  0.00     0.012 C 
ATOM     20  C   UNL A   1      32.123  27.462  26.923  1.00  0.00     0.025 C 
ATOM     21  C   UNL A   1      30.583  28.931  23.817  1.00  0.00     0.007 C 
ATOM     22  C   UNL A   1      32.169  29.634  25.756  1.00  0.00     0.006 C 
ATOM     23  C   UNL A   1      32.660  28.897  27.010  1.00  0.00     0.002 C 
ENDBRANCH  13  15
ENDBRANCH  10  13
ENDBRANCH   4   7
ENDBRANCH   2   3
ENDBRANCH   1   2
BRANCH   1  24
ATOM     24  C   UNL A   1      37.850  19.682  24.899  1.00  0.00     0.023 C 
BRANCH  24  25
ATOM     25  C   UNL A   1      39.013  20.178  25.751  1.00  0.00     0.116 C 
BRANCH  25  26
ATOM     26  N   UNL A   1      40.117  19.233  25.819  1.00  0.00    -0.352 N 
ATOM     27  C   UNL A   1      41.442  19.445  26.126  1.00  0.00     0.251 C 
ATOM     28  H   UNL A   1      39.881  18.300  25.615  1.00  0.00     0.163 HD
ATOM     29  O   UNL A   1      42.253  18.538  25.995  1.00  0.00    -0.269 OA
BRANCH  27  30
ATOM     30  C   UNL A   1      41.894  20.779  26.582  1.00  0.00     0.039 A 
ATOM     31  C   UNL A   1      42.302  21.716  25.630  1.00  0.00     0.014 A 
ATOM     32  C   UNL A   1      41.908  21.108  27.939  1.00  0.00     0.014 A 
ATOM     33  C   UNL A   1      42.648  23.008  26.034  1.00  0.00     0.010 A 
ATOM     34  C   UNL A   1      42.162  22.420  28.330  1.00  0.00     0.010 A 
ATOM     35  C   UNL A   1      42.541  23.384  27.383  1.00  0.00    -0.014 A 
BRANCH  35  36
ATOM     36  C   UNL A   1      42.833  24.771  27.828  1.00  0.00     0.031 A 
ATOM     37  C   UNL A   1      44.253  25.194  28.095  1.00  0.00     0.074 A 
ATOM     38  C   UNL A   1      41.821  25.632  28.058  1.00  0.00     0.049 A 
ATOM     39  N   UNL A   1      44.705  26.330  28.562  1.00  0.00    -0.248 NA
ATOM     40  C   UNL A   1      45.300  24.195  27.831  1.00  0.00     0.031 C 
ATOM     41  C   UNL A   1      40.398  25.334  27.883  1.00  0.00     0.029 A 
ATOM     42  N   UNL A   1      41.836  26.931  28.500  1.00  0.00    -0.354 N 
ATOM     43  C   UNL A   1      46.082  26.176  28.661  1.00  0.00     0.074 A 
ATOM     44  C   UNL A   1      46.384  24.819  28.268  1.00  0.00     0.031 C 
ATOM     45  C   UNL A   1      39.680  26.426  28.186  1.00  0.00     0.029 A 
ATOM     46  C   UNL A   1      40.584  27.487  28.618  1.00  0.00     0.049 A 
ATOM     47  H   UNL A   1      42.663  27.419  28.712  1.00  0.00     0.167 HD
ATOM     48  C   UNL A   1      47.015  27.090  29.021  1.00  0.00     0.037 A 
ATOM     49  C   UNL A   1      40.208  28.712  29.036  1.00  0.00     0.037 A 
ATOM     50  C   UNL A   1      46.714  28.448  29.393  1.00  0.00     0.049 A 
ATOM     51  C   UNL A   1      41.261  29.704  29.447  1.00  0.00     0.074 A 
ATOM     52  C   UNL A   1      47.592  29.464  29.726  1.00  0.00     0.029 A 
ATOM     53  N   UNL A   1      45.436  28.976  29.486  1.00  0.00    -0.354 N 
ATOM     54  N   UNL A   1      42.565  29.565  29.474  1.00  0.00    -0.248 NA
ATOM     55  C   UNL A   1      40.790  31.028  29.876  1.00  0.00     0.031 C 
ATOM     56  C   UNL A   1      46.842  30.594  30.069  1.00  0.00     0.029 A 
ATOM     57  C   UNL A   1      45.500  30.299  29.892  1.00  0.00     0.049 A 
ATOM     58  H   UNL A   1      44.605  28.484  29.293  1.00  0.00     0.167 HD
ATOM     59  C   UNL A   1      43.070  30.792  29.886  1.00  0.00     0.074 A 
ATOM     60  C   UNL A   1      41.933  31.665  30.088  1.00  0.00     0.031 C 
ATOM     61  C   UNL A   1      44.361  31.163  30.077  1.00  0.00     0.037 A 
BRANCH  48  62
ATOM     62  C   UNL A   1      48.451  26.645  29.028  1.00  0.00     0.057 A 
ATOM     63  C   UNL A   1      49.297  26.858  27.931  1.00  0.00     0.134 A 
ATOM     64  C   UNL A   1      48.999  26.014  30.151  1.00  0.00     0.134 A 
ATOM     65  F   UNL A   1      48.833  27.447  26.818  1.00  0.00    -0.206 F 
ATOM     66  C   UNL A   1      50.626  26.429  27.937  1.00  0.00     0.040 A 
ATOM     67  C   UNL A   1      50.335  25.609  30.181  1.00  0.00     0.040 A 
ATOM     68  F   UNL A   1      48.249  25.784  31.239  1.00  0.00    -0.206 F 
ATOM     69  C   UNL A   1      51.150  25.807  29.068  1.00  0.00     0.006 A 
ENDBRANCH  48  62
BRANCH  49  70
ATOM     70  C   UNL A   1      38.769  29.081  29.061  1.00  0.00     0.057 A 
ATOM     71  C   UNL A   1      38.128  29.562  27.912  1.00  0.00     0.134 A 
ATOM     72  C   UNL A   1      38.004  28.975  30.227  1.00  0.00     0.134 A 
ATOM     73  F   UNL A   1      38.812  29.703  26.767  1.00  0.00    -0.206 F 
ATOM     74  C   UNL A   1      36.786  29.945  27.928  1.00  0.00     0.040 A 
ATOM     75  C   UNL A   1      36.653  29.328  30.251  1.00  0.00     0.040 A 
ATOM     76  F   UNL A   1      38.555  28.514  31.359  1.00  0.00    -0.206 F 
ATOM     77  C   UNL A   1      36.043  29.823  29.100  1.00  0.00     0.006 A 
ENDBRANCH  49  70
BRANCH  61  78
ATOM     78  C   UNL A   1      44.618  32.588  30.472  1.00  0.00     0.057 A 
ATOM     79  C   UNL A   1      44.773  33.609  29.525  1.00  0.00     0.134 A 
ATOM     80  C   UNL A   1      44.673  32.949  31.824  1.00  0.00     0.134 A 
ATOM     81  F   UNL A   1      44.744  33.330  28.213  1.00  0.00    -0.206 F 
ATOM     82  C   UNL A   1      45.001  34.932  29.909  1.00  0.00     0.040 A 
ATOM     83  C   UNL A   1      44.869  34.272  32.221  1.00  0.00     0.040 A 
ATOM     84  F   UNL A   1      44.522  32.023  32.783  1.00  0.00    -0.206 F 
ATOM     85  C   UNL A   1      45.042  35.268  31.261  1.00  0.00     0.006 A 
ENDBRANCH  61  78
ENDBRANCH  35  36
ENDBRANCH  27  30
ENDBRANCH  25  26
ENDBRANCH  24  25
ENDBRANCH   1  24
TORSDOF 13
ENDMDL
MODEL 2
REMARK VINA RESULT:     -11.9      0.223      1.604
REMARK SMILES C[C@@H]1[C@@H](C(=O)NCCCCNC(=O)c2ccc(-c3c4nc(c(-c5c(F)cccc5F)c5ccc([nH]5)c(-c5c(F)cccc5F)c5nc(c(-c6c(F)cccc6F)c6ccc3[nH]6)C=C5)C=C4)cc2)CCN1C(=O)N1CCC[C@H]2CCC[C@@H]21
REMARK SMILES IDX 8 1 7 2 6 3 4 4 5 5 3 7 1 8 2 9 70 10 68 11 69 12 71 13
REMARK SMILES IDX 72 14 73 15 74 16 81 17 75 18 77 19 80 20 76 21 78 22 79 23
REMARK SMILES IDX 9 24 10 25 11 26 12 27 13 29 14 30 15 31 67 32 16 33 66 34
REMARK SMILES IDX 17 35 18 36 19 37 60 38 20 39 65 40 59 41 61 42 21 43 64 44
REMARK SMILES IDX 58 45 57 46 22 48 48 49 31 50 47 51 32 52 35 53 46 54 62 55
REMARK SMILES IDX 33 56 34 57 45 59 63 60 36 61 23 62 24 63 29 64 25 65 26 66
REMARK SMILES IDX 28 67 30 68 27 69 49 70 50 71 55 72 51 73 52 74 54 75 56 76
REMARK SMILES IDX 53 77 37 78 38 79 43 80 39 81 40 82 42 83 44 84 41 85
REMARK H PARENT 6 6 11 28 61 47 35 58
REMARK Flexibility Score: inf
ROOT
ATOM      1  C   UNL A   1      36.757  20.572  24.857  1.00  0.00     0.023 C 
ENDROOT
BRANCH   1   2
ATOM      2  C   UNL A   1      36.945  21.943  25.494  1.00  0.00     0.116 C 
BRANCH   2   3
ATOM      3  N   UNL A   1      35.966  22.256  26.517  1.00  0.00    -0.356 N 
ATOM      4  C   UNL A   1      34.725  22.817  26.371  1.00  0.00     0.225 C 
ATOM      5  O   UNL A   1      34.032  22.945  27.379  1.00  0.00    -0.275 OA
ATOM      6  H   UNL A   1      36.229  22.035  27.440  1.00  0.00     0.163 HD
BRANCH   4   7
ATOM      7  C   UNL A   1      34.315  23.344  25.001  1.00  0.00     0.102 C 
ATOM      8  C   UNL A   1      33.961  25.515  23.840  1.00  0.00     0.032 C 
ATOM      9  C   UNL A   1      33.558  24.693  25.073  1.00  0.00     0.096 C 
ATOM     10  N   UNL A   1      32.130  24.309  25.077  1.00  0.00    -0.321 N 
ATOM     11  C   UNL A   1      33.326  22.453  24.242  1.00  0.00     0.037 C 
ATOM     12  C   UNL A   1      31.973  22.909  24.743  1.00  0.00     0.122 C 
BRANCH  10  13
ATOM     13  C   UNL A   1      31.082  24.897  25.772  1.00  0.00     0.320 C 
ATOM     14  O   UNL A   1      30.655  24.418  26.823  1.00  0.00    -0.248 OA
BRANCH  13  15
ATOM     15  N   UNL A   1      30.635  26.102  25.301  1.00  0.00    -0.321 N 
ATOM     16  C   UNL A   1      29.506  26.203  24.389  1.00  0.00     0.121 C 
ATOM     17  C   UNL A   1      30.911  27.345  25.995  1.00  0.00     0.090 C 
ATOM     18  C   UNL A   1      29.780  27.254  23.308  1.00  0.00     0.022 C 
ATOM     19  C   UNL A   1      31.364  28.346  24.930  1.00  0.00     0.012 C 
ATOM     20  C   UNL A   1      32.047  27.428  27.008  1.00  0.00     0.025 C 
ATOM     21  C   UNL A   1      30.252  28.591  23.910  1.00  0.00     0.007 C 
ATOM     22  C   UNL A   1      31.829  29.537  25.750  1.00  0.00     0.006 C 
ATOM     23  C   UNL A   1      32.439  28.912  27.012  1.00  0.00     0.002 C 
ENDBRANCH  13  15
ENDBRANCH  10  13
ENDBRANCH   4   7
ENDBRANCH   2   3
ENDBRANCH   1   2
BRANCH   1  24
ATOM     24  C   UNL A   1      37.937  19.613  24.994  1.00  0.00     0.023 C 
BRANCH  24  25
ATOM     25  C   UNL A   1      39.127  20.141  25.786  1.00  0.00     0.116 C 
BRANCH  25  26
ATOM     26  N   UNL A   1      40.224  19.190  25.874  1.00  0.00    -0.352 N 
ATOM     27  C   UNL A   1      41.548  19.395  26.191  1.00  0.00     0.251 C 
ATOM     28  H   UNL A   1      39.983  18.256  25.677  1.00  0.00     0.163 HD
ATOM     29  O   UNL A   1      42.354  18.481  26.077  1.00  0.00    -0.269 OA
BRANCH  27  30
ATOM     30  C   UNL A   1      42.004  20.731  26.638  1.00  0.00     0.039 A 
ATOM     31  C   UNL A   1      42.392  21.669  25.678  1.00  0.00     0.014 A 
ATOM     32  C   UNL A   1      42.043  21.061  27.994  1.00  0.00     0.014 A 
ATOM     33  C   UNL A   1      42.743  22.962  26.075  1.00  0.00     0.010 A 
ATOM     34  C   UNL A   1      42.300  22.373  28.380  1.00  0.00     0.010 A 
ATOM     35  C   UNL A   1      42.659  23.338  27.425  1.00  0.00    -0.014 A 
BRANCH  35  36
ATOM     36  C   UNL A   1      42.956  24.726  27.864  1.00  0.00     0.031 A 
ATOM     37  C   UNL A   1      44.378  25.148  28.120  1.00  0.00     0.074 A 
ATOM     38  C   UNL A   1      41.947  25.588  28.099  1.00  0.00     0.049 A 
ATOM     39  N   UNL A   1      44.834  26.285  28.581  1.00  0.00    -0.248 NA
ATOM     40  C   UNL A   1      45.422  24.148  27.852  1.00  0.00     0.031 C 
ATOM     41  C   UNL A   1      40.522  25.292  27.934  1.00  0.00     0.029 A 
ATOM     42  N   UNL A   1      41.966  26.889  28.537  1.00  0.00    -0.354 N 
ATOM     43  C   UNL A   1      46.212  26.130  28.672  1.00  0.00     0.074 A 
ATOM     44  C   UNL A   1      46.510  24.771  28.280  1.00  0.00     0.031 C 
ATOM     45  C   UNL A   1      39.807  26.386  28.240  1.00  0.00     0.029 A 
ATOM     46  C   UNL A   1      40.715  27.447  28.662  1.00  0.00     0.049 A 
ATOM     47  H   UNL A   1      42.796  27.376  28.741  1.00  0.00     0.167 HD
ATOM     48  C   UNL A   1      47.149  27.044  29.022  1.00  0.00     0.037 A 
ATOM     49  C   UNL A   1      40.344  28.673  29.078  1.00  0.00     0.037 A 
ATOM     50  C   UNL A   1      46.852  28.403  29.392  1.00  0.00     0.049 A 
ATOM     51  C   UNL A   1      41.401  29.666  29.479  1.00  0.00     0.074 A 
ATOM     52  C   UNL A   1      47.734  29.420  29.716  1.00  0.00     0.029 A 
ATOM     53  N   UNL A   1      45.575  28.933  29.493  1.00  0.00    -0.354 N 
ATOM     54  N   UNL A   1      42.704  29.525  29.498  1.00  0.00    -0.248 NA
ATOM     55  C   UNL A   1      40.934  30.992  29.908  1.00  0.00     0.031 C 
ATOM     56  C   UNL A   1      46.987  30.551  30.061  1.00  0.00     0.029 A 
ATOM     57  C   UNL A   1      45.643  30.257  29.894  1.00  0.00     0.049 A 
ATOM     58  H   UNL A   1      44.742  28.441  29.306  1.00  0.00     0.167 HD
ATOM     59  C   UNL A   1      43.214  30.753  29.903  1.00  0.00     0.074 A 
ATOM     60  C   UNL A   1      42.079  31.628  30.111  1.00  0.00     0.031 C 
ATOM     61  C   UNL A   1      44.506  31.123  30.083  1.00  0.00     0.037 A 
BRANCH  48  62
ATOM     62  C   UNL A   1      48.584  26.598  29.020  1.00  0.00     0.057 A 
ATOM     63  C   UNL A   1      49.198  26.070  30.165  1.00  0.00     0.134 A 
ATOM     64  C   UNL A   1      49.357  26.678  27.855  1.00  0.00     0.134 A 
ATOM     65  F   UNL A   1      48.519  25.976  31.318  1.00  0.00    -0.206 F 
ATOM     66  C   UNL A   1      50.536  25.672  30.161  1.00  0.00     0.040 A 
ATOM     67  C   UNL A   1      50.686  26.252  27.830  1.00  0.00     0.040 A 
ATOM     68  F   UNL A   1      48.833  27.166  26.721  1.00  0.00    -0.206 F 
ATOM     69  C   UNL A   1      51.282  25.756  28.988  1.00  0.00     0.006 A 
ENDBRANCH  48  62
BRANCH  49  70
ATOM     70  C   UNL A   1      38.905  29.044  29.112  1.00  0.00     0.057 A 
ATOM     71  C   UNL A   1      38.154  28.908  30.286  1.00  0.00     0.134 A 
ATOM     72  C   UNL A   1      38.244  29.527  27.978  1.00  0.00     0.134 A 
ATOM     73  F   UNL A   1      38.726  28.433  31.402  1.00  0.00    -0.206 F 
ATOM     74  C   UNL A   1      36.793  29.219  30.325  1.00  0.00     0.040 A 
ATOM     75  C   UNL A   1      36.891  29.868  28.009  1.00  0.00     0.040 A 
ATOM     76  F   UNL A   1      38.908  29.688  26.824  1.00  0.00    -0.206 F 
ATOM     77  C   UNL A   1      36.159  29.706  29.184  1.00  0.00     0.006 A 
ENDBRANCH  49  70
BRANCH  61  78
ATOM     78  C   UNL A   1      44.768  32.549  30.472  1.00  0.00     0.057 A 
ATOM     79  C   UNL A   1      44.893  32.947  31.810  1.00  0.00     0.134 A 
ATOM     80  C   UNL A   1      44.935  33.532  29.488  1.00  0.00     0.134 A 
ATOM     81  F   UNL A   1      44.732  32.058  32.802  1.00  0.00    -0.206 F 
ATOM     82  C   UNL A   1      45.147  34.276  32.154  1.00  0.00     0.040 A 
ATOM     83  C   UNL A   1      45.221  34.857  29.819  1.00  0.00     0.040 A 
ATOM     84  F   UNL A   1      44.839  33.218  28.188  1.00  0.00    -0.206 F 
ATOM     85  C   UNL A   1      45.320  35.234  31.157  1.00  0.00     0.006 A 
ENDBRANCH  61  78
ENDBRANCH  35  36
ENDBRANCH  27  30
ENDBRANCH  25  26
ENDBRANCH  24  25
ENDBRANCH   1  24
TORSDOF 13
ENDMDL
MODEL 3
REMARK VINA RESULT:     -11.9      4.282      9.489
REMARK SMILES C[C@@H]1[C@@H](C(=O)NCCCCNC(=O)c2ccc(-c3c4nc(c(-c5c(F)cccc5F)c5ccc([nH]5)c(-c5c(F)cccc5F)c5nc(c(-c6c(F)cccc6F)c6ccc3[nH]6)C=C5)C=C4)cc2)CCN1C(=O)N1CCC[C@H]2CCC[C@@H]21
REMARK SMILES IDX 8 1 7 2 6 3 4 4 5 5 3 7 1 8 2 9 70 10 68 11 69 12 71 13
REMARK SMILES IDX 72 14 73 15 74 16 81 17 75 18 77 19 80 20 76 21 78 22 79 23
REMARK SMILES IDX 9 24 10 25 11 26 12 27 13 29 14 30 15 31 67 32 16 33 66 34
REMARK SMILES IDX 17 35 18 36 19 37 60 38 20 39 65 40 59 41 61 42 21 43 64 44
REMARK SMILES IDX 58 45 57 46 22 48 48 49 31 50 47 51 32 52 35 53 46 54 62 55
REMARK SMILES IDX 33 56 34 57 45 59 63 60 36 61 23 62 24 63 29 64 25 65 26 66
REMARK SMILES IDX 28 67 30 68 27 69 49 70 50 71 55 72 51 73 52 74 54 75 56 76
REMARK SMILES IDX 53 77 37 78 38 79 43 80 39 81 40 82 42 83 44 84 41 85
REMARK H PARENT 6 6 11 28 61 47 35 58
REMARK Flexibility Score: inf
ROOT
ATOM      1  C   UNL A   1      31.416  30.828  25.917  1.00  0.00     0.023 C 
ENDROOT
BRANCH   1   2
ATOM      2  C   UNL A   1      32.709  30.114  26.293  1.00  0.00     0.116 C 
BRANCH   2   3
ATOM      3  N   UNL A   1      33.478  29.650  25.154  1.00  0.00    -0.356 N 
ATOM      4  C   UNL A   1      33.415  28.440  24.515  1.00  0.00     0.225 C 
ATOM      5  O   UNL A   1      34.127  28.277  23.526  1.00  0.00    -0.275 OA
ATOM      6  H   UNL A   1      34.132  30.290  24.793  1.00  0.00     0.163 HD
BRANCH   4   7
ATOM      7  C   UNL A   1      32.554  27.336  25.118  1.00  0.00     0.102 C 
ATOM      8  C   UNL A   1      32.821  25.139  26.253  1.00  0.00     0.032 C 
ATOM      9  C   UNL A   1      33.195  25.932  24.993  1.00  0.00     0.096 C 
ATOM     10  N   UNL A   1      32.608  25.373  23.757  1.00  0.00    -0.321 N 
ATOM     11  C   UNL A   1      31.196  27.139  24.437  1.00  0.00     0.037 C 
ATOM     12  C   UNL A   1      31.498  26.185  23.302  1.00  0.00     0.122 C 
BRANCH  10  13
ATOM     13  C   UNL A   1      33.214  24.570  22.800  1.00  0.00     0.320 C 
ATOM     14  O   UNL A   1      33.653  25.038  21.749  1.00  0.00    -0.248 OA
BRANCH  13  15
ATOM     15  N   UNL A   1      33.416  23.260  23.140  1.00  0.00    -0.321 N 
ATOM     16  C   UNL A   1      32.485  22.210  22.752  1.00  0.00     0.121 C 
ATOM     17  C   UNL A   1      34.730  22.749  23.477  1.00  0.00     0.090 C 
ATOM     18  C   UNL A   1      32.285  21.216  23.900  1.00  0.00     0.022 C 
ATOM     19  C   UNL A   1      34.557  21.901  24.740  1.00  0.00     0.012 C 
ATOM     20  C   UNL A   1      35.846  23.702  23.890  1.00  0.00     0.025 C 
ATOM     21  C   UNL A   1      33.626  20.718  24.472  1.00  0.00     0.007 C 
ATOM     22  C   UNL A   1      35.986  21.583  25.142  1.00  0.00     0.006 C 
ATOM     23  C   UNL A   1      36.777  22.840  24.753  1.00  0.00     0.002 C 
ENDBRANCH  13  15
ENDBRANCH  10  13
ENDBRANCH   4   7
ENDBRANCH   2   3
ENDBRANCH   1   2
BRANCH   1  24
ATOM     24  C   UNL A   1      31.241  32.227  26.502  1.00  0.00     0.023 C 
BRANCH  24  25
ATOM     25  C   UNL A   1      32.460  32.801  27.215  1.00  0.00     0.116 C 
BRANCH  25  26
ATOM     26  N   UNL A   1      32.284  34.186  27.626  1.00  0.00    -0.352 N 
ATOM     27  C   UNL A   1      32.972  34.923  28.563  1.00  0.00     0.251 C 
ATOM     28  H   UNL A   1      31.562  34.670  27.163  1.00  0.00     0.163 HD
ATOM     29  O   UNL A   1      32.582  36.043  28.868  1.00  0.00    -0.269 OA
BRANCH  27  30
ATOM     30  C   UNL A   1      34.164  34.350  29.228  1.00  0.00     0.039 A 
ATOM     31  C   UNL A   1      33.994  33.618  30.406  1.00  0.00     0.014 A 
ATOM     32  C   UNL A   1      35.441  34.524  28.691  1.00  0.00     0.014 A 
ATOM     33  C   UNL A   1      35.095  32.997  31.000  1.00  0.00     0.010 A 
ATOM     34  C   UNL A   1      36.519  33.828  29.229  1.00  0.00     0.010 A 
ATOM     35  C   UNL A   1      36.361  33.061  30.394  1.00  0.00    -0.014 A 
BRANCH  35  36
ATOM     36  C   UNL A   1      37.533  32.349  30.966  1.00  0.00     0.031 A 
ATOM     37  C   UNL A   1      38.186  32.860  32.222  1.00  0.00     0.074 A 
ATOM     38  C   UNL A   1      38.053  31.285  30.323  1.00  0.00     0.049 A 
ATOM     39  N   UNL A   1      39.260  32.426  32.832  1.00  0.00    -0.248 NA
ATOM     40  C   UNL A   1      37.567  34.032  32.859  1.00  0.00     0.031 C 
ATOM     41  C   UNL A   1      37.544  30.716  29.073  1.00  0.00     0.029 A 
ATOM     42  N   UNL A   1      39.135  30.496  30.628  1.00  0.00    -0.354 N 
ATOM     43  C   UNL A   1      39.453  33.281  33.910  1.00  0.00     0.074 A 
ATOM     44  C   UNL A   1      38.423  34.293  33.835  1.00  0.00     0.031 C 
ATOM     45  C   UNL A   1      38.294  29.656  28.734  1.00  0.00     0.029 A 
ATOM     46  C   UNL A   1      39.362  29.493  29.715  1.00  0.00     0.049 A 
ATOM     47  H   UNL A   1      39.695  30.636  31.425  1.00  0.00     0.167 HD
ATOM     48  C   UNL A   1      40.384  33.214  34.891  1.00  0.00     0.037 A 
ATOM     49  C   UNL A   1      40.327  28.554  29.672  1.00  0.00     0.037 A 
ATOM     50  C   UNL A   1      41.396  32.194  34.976  1.00  0.00     0.049 A 
ATOM     51  C   UNL A   1      41.361  28.510  30.763  1.00  0.00     0.074 A 
ATOM     52  C   UNL A   1      42.354  32.010  35.958  1.00  0.00     0.029 A 
ATOM     53  N   UNL A   1      41.583  31.188  34.041  1.00  0.00    -0.354 N 
ATOM     54  N   UNL A   1      41.491  29.286  31.812  1.00  0.00    -0.248 NA
ATOM     55  C   UNL A   1      42.377  27.453  30.669  1.00  0.00     0.031 C 
ATOM     56  C   UNL A   1      43.153  30.923  35.590  1.00  0.00     0.029 A 
ATOM     57  C   UNL A   1      42.655  30.392  34.411  1.00  0.00     0.049 A 
ATOM     58  H   UNL A   1      41.035  31.058  33.233  1.00  0.00     0.167 HD
ATOM     59  C   UNL A   1      42.578  28.789  32.521  1.00  0.00     0.074 A 
ATOM     60  C   UNL A   1      43.065  27.640  31.787  1.00  0.00     0.031 C 
ATOM     61  C   UNL A   1      43.121  29.242  33.678  1.00  0.00     0.037 A 
BRANCH  48  62
ATOM     62  C   UNL A   1      40.347  34.278  35.952  1.00  0.00     0.057 A 
ATOM     63  C   UNL A   1      41.067  35.475  35.827  1.00  0.00     0.134 A 
ATOM     64  C   UNL A   1      39.568  34.114  37.104  1.00  0.00     0.134 A 
ATOM     65  F   UNL A   1      41.843  35.692  34.754  1.00  0.00    -0.206 F 
ATOM     66  C   UNL A   1      41.041  36.453  36.823  1.00  0.00     0.040 A 
ATOM     67  C   UNL A   1      39.508  35.099  38.092  1.00  0.00     0.040 A 
ATOM     68  F   UNL A   1      38.848  32.997  37.287  1.00  0.00    -0.206 F 
ATOM     69  C   UNL A   1      40.254  36.269  37.957  1.00  0.00     0.006 A 
ENDBRANCH  48  62
BRANCH  49  70
ATOM     70  C   UNL A   1      40.347  27.559  28.569  1.00  0.00     0.057 A 
ATOM     71  C   UNL A   1      39.624  26.363  28.663  1.00  0.00     0.134 A 
ATOM     72  C   UNL A   1      41.093  27.768  27.404  1.00  0.00     0.134 A 
ATOM     73  F   UNL A   1      38.903  26.096  29.763  1.00  0.00    -0.206 F 
ATOM     74  C   UNL A   1      39.660  25.403  27.651  1.00  0.00     0.040 A 
ATOM     75  C   UNL A   1      41.117  26.829  26.371  1.00  0.00     0.040 A 
ATOM     76  F   UNL A   1      41.802  28.896  27.246  1.00  0.00    -0.206 F 
ATOM     77  C   UNL A   1      40.405  25.637  26.498  1.00  0.00     0.006 A 
ENDBRANCH  49  70
BRANCH  61  78
ATOM     78  C   UNL A   1      44.268  28.462  34.253  1.00  0.00     0.057 A 
ATOM     79  C   UNL A   1      45.603  28.795  33.990  1.00  0.00     0.134 A 
ATOM     80  C   UNL A   1      44.030  27.384  35.115  1.00  0.00     0.134 A 
ATOM     81  F   UNL A   1      45.901  29.809  33.163  1.00  0.00    -0.206 F 
ATOM     82  C   UNL A   1      46.659  28.066  34.542  1.00  0.00     0.040 A 
ATOM     83  C   UNL A   1      45.076  26.668  35.697  1.00  0.00     0.040 A 
ATOM     84  F   UNL A   1      42.775  27.018  35.418  1.00  0.00    -0.206 F 
ATOM     85  C   UNL A   1      46.397  27.004  35.405  1.00  0.00     0.006 A 
ENDBRANCH  61  78
ENDBRANCH  35  36
ENDBRANCH  27  30
ENDBRANCH  25  26
ENDBRANCH  24  25
ENDBRANCH   1  24
TORSDOF 13
ENDMDL
