MODEL 1
REMARK VINA RESULT:     -11.8      0.000      0.000
REMARK SMILES CC(C)(C)Nc1ncnc(N2CCC(C(=O)NCCCCNC(=O)c3ccc(-c4c5nc(c(-c6c(F)cccc6F)c6ccc([nH]6)c(-c6c(F)cccc6F)c6nc(c(-c7c(F)cccc7F)c7ccc4[nH]7)C=C6)C=C5)cc3)CC2)c1N
REMARK SMILES IDX 19 1 18 2 17 3 15 4 16 5 14 7 11 8 12 9 80 10 13 11 79 12
REMARK SMILES IDX 10 13 6 14 7 15 81 16 8 17 9 18 5 19 2 21 1 22 3 23 4 24
REMARK SMILES IDX 82 25 20 28 21 29 22 30 23 31 24 33 25 34 26 35 78 36 27 37
REMARK SMILES IDX 77 38 28 39 29 40 30 41 71 42 31 43 76 44 70 45 72 46 32 47
REMARK SMILES IDX 75 48 69 49 68 50 33 52 59 53 42 54 58 55 43 56 46 57 57 58
REMARK SMILES IDX 73 59 44 60 45 61 56 63 74 64 47 65 34 66 35 67 40 68 36 69
REMARK SMILES IDX 37 70 39 71 41 72 38 73 60 74 61 75 66 76 62 77 63 78 65 79
REMARK SMILES IDX 67 80 64 81 48 82 49 83 54 84 50 85 51 86 53 87 55 88 52 89
REMARK H PARENT 17 6 5 20 82 26 82 27 22 32 72 51 46 62
REMARK Flexibility Score: inf
ROOT
ATOM      1  C   UNL A   1      36.494  20.377  25.017  1.00  0.00     0.023 C 
ENDROOT
BRANCH   1   2
ATOM      2  C   UNL A   1      36.380  21.882  25.243  1.00  0.00     0.116 C 
BRANCH   2   3
ATOM      3  N   UNL A   1      35.536  22.196  26.389  1.00  0.00    -0.356 N 
ATOM      4  C   UNL A   1      34.385  22.924  26.464  1.00  0.00     0.223 C 
ATOM      5  O   UNL A   1      33.854  23.058  27.568  1.00  0.00    -0.275 OA
ATOM      6  H   UNL A   1      35.846  21.822  27.246  1.00  0.00     0.163 HD
BRANCH   4   7
ATOM      7  C   UNL A   1      33.754  23.530  25.219  1.00  0.00     0.082 C 
ATOM      8  N   UNL A   1      32.564  25.950  24.379  1.00  0.00    -0.355 N 
ATOM      9  C   UNL A   1      31.654  24.828  24.512  1.00  0.00     0.119 C 
ATOM     10  C   UNL A   1      33.877  25.683  23.829  1.00  0.00     0.119 C 
ATOM     11  C   UNL A   1      32.254  23.786  25.439  1.00  0.00     0.035 C 
ATOM     12  C   UNL A   1      34.612  24.711  24.736  1.00  0.00     0.035 C 
BRANCH   8  13
ATOM     13  C   UNL A   1      32.033  27.223  24.486  1.00  0.00     0.157 A 
ATOM     14  C   UNL A   1      30.922  29.167  23.667  1.00  0.00     0.155 A 
ATOM     15  N   UNL A   1      31.051  29.766  24.861  1.00  0.00    -0.217 NA
ATOM     16  C   UNL A   1      31.447  27.894  23.400  1.00  0.00     0.118 A 
ATOM     17  C   UNL A   1      31.639  29.041  25.819  1.00  0.00     0.226 A 
ATOM     18  N   UNL A   1      32.101  27.788  25.708  1.00  0.00    -0.217 NA
BRANCH  14  19
ATOM     19  N   UNL A   1      30.220  29.914  22.729  1.00  0.00    -0.364 N 
ATOM     20  H   UNL A   1      30.744  30.411  22.060  1.00  0.00     0.162 HD
BRANCH  19  21
ATOM     21  C   UNL A   1      28.747  30.018  22.657  1.00  0.00     0.030 C 
ATOM     22  C   UNL A   1      27.971  28.753  23.057  1.00  0.00     0.034 C 
ATOM     23  C   UNL A   1      28.373  30.442  21.227  1.00  0.00     0.034 C 
ATOM     24  C   UNL A   1      28.305  31.145  23.616  1.00  0.00     0.034 C 
ENDBRANCH  19  21
ENDBRANCH  14  19
BRANCH  16  25
ATOM     25  N   UNL A   1      31.447  27.372  22.098  1.00  0.00    -0.393 N 
ATOM     26  H   UNL A   1      31.785  27.915  21.350  1.00  0.00     0.156 HD
ATOM     27  H   UNL A   1      31.107  26.462  21.932  1.00  0.00     0.156 HD
ENDBRANCH  16  25
ENDBRANCH   8  13
ENDBRANCH   4   7
ENDBRANCH   2   3
ENDBRANCH   1   2
BRANCH   1  28
ATOM     28  C   UNL A   1      37.905  19.893  24.687  1.00  0.00     0.023 C 
BRANCH  28  29
ATOM     29  C   UNL A   1      38.956  20.224  25.738  1.00  0.00     0.116 C 
BRANCH  29  30
ATOM     30  N   UNL A   1      40.053  19.268  25.761  1.00  0.00    -0.352 N 
ATOM     31  C   UNL A   1      41.374  19.477  26.078  1.00  0.00     0.251 C 
ATOM     32  H   UNL A   1      39.816  18.345  25.516  1.00  0.00     0.163 HD
ATOM     33  O   UNL A   1      42.204  18.595  25.910  1.00  0.00    -0.269 OA
BRANCH  31  34
ATOM     34  C   UNL A   1      41.788  20.796  26.597  1.00  0.00     0.039 A 
ATOM     35  C   UNL A   1      42.198  21.778  25.693  1.00  0.00     0.014 A 
ATOM     36  C   UNL A   1      41.745  21.064  27.969  1.00  0.00     0.014 A 
ATOM     37  C   UNL A   1      42.504  23.057  26.162  1.00  0.00     0.010 A 
ATOM     38  C   UNL A   1      41.978  22.357  28.423  1.00  0.00     0.010 A 
ATOM     39  C   UNL A   1      42.366  23.362  27.526  1.00  0.00    -0.014 A 
BRANCH  39  40
ATOM     40  C   UNL A   1      42.649  24.723  28.040  1.00  0.00     0.031 A 
ATOM     41  C   UNL A   1      44.049  25.094  28.437  1.00  0.00     0.074 A 
ATOM     42  C   UNL A   1      41.641  25.601  28.202  1.00  0.00     0.049 A 
ATOM     43  N   UNL A   1      44.489  26.201  28.977  1.00  0.00    -0.248 NA
ATOM     44  C   UNL A   1      45.089  24.074  28.222  1.00  0.00     0.031 C 
ATOM     45  C   UNL A   1      40.235  25.345  27.887  1.00  0.00     0.029 A 
ATOM     46  N   UNL A   1      41.646  26.887  28.682  1.00  0.00    -0.354 N 
ATOM     47  C   UNL A   1      45.850  26.007  29.176  1.00  0.00     0.074 A 
ATOM     48  C   UNL A   1      46.154  24.658  28.751  1.00  0.00     0.031 C 
ATOM     49  C   UNL A   1      39.517  26.447  28.158  1.00  0.00     0.029 A 
ATOM     50  C   UNL A   1      40.404  27.473  28.699  1.00  0.00     0.049 A 
ATOM     51  H   UNL A   1      42.462  27.346  28.985  1.00  0.00     0.167 HD
ATOM     52  C   UNL A   1      46.767  26.883  29.646  1.00  0.00     0.037 A 
ATOM     53  C   UNL A   1      40.024  28.698  29.109  1.00  0.00     0.037 A 
ATOM     54  C   UNL A   1      46.466  28.233  30.040  1.00  0.00     0.049 A 
ATOM     55  C   UNL A   1      41.059  29.649  29.641  1.00  0.00     0.074 A 
ATOM     56  C   UNL A   1      47.336  29.216  30.476  1.00  0.00     0.029 A 
ATOM     57  N   UNL A   1      45.195  28.789  30.044  1.00  0.00    -0.354 N 
ATOM     58  N   UNL A   1      42.351  29.471  29.778  1.00  0.00    -0.248 NA
ATOM     59  C   UNL A   1      40.585  30.970  30.077  1.00  0.00     0.031 C 
ATOM     60  C   UNL A   1      46.586  30.356  30.784  1.00  0.00     0.029 A 
ATOM     61  C   UNL A   1      45.255  30.096  30.496  1.00  0.00     0.049 A 
ATOM     62  H   UNL A   1      44.374  28.324  29.767  1.00  0.00     0.167 HD
ATOM     63  C   UNL A   1      42.847  30.659  30.297  1.00  0.00     0.074 A 
ATOM     64  C   UNL A   1      41.719  31.558  30.436  1.00  0.00     0.031 C 
ATOM     65  C   UNL A   1      44.122  30.975  30.631  1.00  0.00     0.037 A 
BRANCH  52  66
ATOM     66  C   UNL A   1      48.187  26.410  29.747  1.00  0.00     0.057 A 
ATOM     67  C   UNL A   1      49.102  26.604  28.704  1.00  0.00     0.134 A 
ATOM     68  C   UNL A   1      48.656  25.794  30.914  1.00  0.00     0.134 A 
ATOM     69  F   UNL A   1      48.713  27.176  27.555  1.00  0.00    -0.206 F 
ATOM     70  C   UNL A   1      50.429  26.182  28.810  1.00  0.00     0.040 A 
ATOM     71  C   UNL A   1      49.986  25.392  31.041  1.00  0.00     0.040 A 
ATOM     72  F   UNL A   1      47.832  25.582  31.950  1.00  0.00    -0.206 F 
ATOM     73  C   UNL A   1      50.876  25.581  29.985  1.00  0.00     0.006 A 
ENDBRANCH  52  66
BRANCH  53  74
ATOM     74  C   UNL A   1      38.600  29.100  29.004  1.00  0.00     0.057 A 
ATOM     75  C   UNL A   1      37.745  29.011  30.109  1.00  0.00     0.134 A 
ATOM     76  C   UNL A   1      38.063  29.601  27.812  1.00  0.00     0.134 A 
ATOM     77  F   UNL A   1      38.196  28.522  31.273  1.00  0.00    -0.206 F 
ATOM     78  C   UNL A   1      36.406  29.400  30.031  1.00  0.00     0.040 A 
ATOM     79  C   UNL A   1      36.732  30.013  27.726  1.00  0.00     0.040 A 
ATOM     80  F   UNL A   1      38.832  29.717  26.719  1.00  0.00    -0.206 F 
ATOM     81  C   UNL A   1      35.899  29.909  28.838  1.00  0.00     0.006 A 
ENDBRANCH  53  74
BRANCH  65  82
ATOM     82  C   UNL A   1      44.373  32.352  31.173  1.00  0.00     0.057 A 
ATOM     83  C   UNL A   1      44.370  32.611  32.548  1.00  0.00     0.134 A 
ATOM     84  C   UNL A   1      44.688  33.412  30.313  1.00  0.00     0.134 A 
ATOM     85  F   UNL A   1      44.065  31.640  33.423  1.00  0.00    -0.206 F 
ATOM     86  C   UNL A   1      44.661  33.880  33.051  1.00  0.00     0.040 A 
ATOM     87  C   UNL A   1      45.005  34.679  30.805  1.00  0.00     0.040 A 
ATOM     88  F   UNL A   1      44.718  33.227  28.985  1.00  0.00    -0.206 F 
ATOM     89  C   UNL A   1      44.989  34.915  32.178  1.00  0.00     0.006 A 
ENDBRANCH  65  82
ENDBRANCH  39  40
ENDBRANCH  31  34
ENDBRANCH  29  30
ENDBRANCH  28  29
ENDBRANCH   1  28
TORSDOF 15
ENDMDL
MODEL 2
REMARK VINA RESULT:     -11.7      1.191      6.344
REMARK SMILES CC(C)(C)Nc1ncnc(N2CCC(C(=O)NCCCCNC(=O)c3ccc(-c4c5nc(c(-c6c(F)cccc6F)c6ccc([nH]6)c(-c6c(F)cccc6F)c6nc(c(-c7c(F)cccc7F)c7ccc4[nH]7)C=C6)C=C5)cc3)CC2)c1N
REMARK SMILES IDX 19 1 18 2 17 3 15 4 16 5 14 7 11 8 12 9 80 10 13 11 79 12
REMARK SMILES IDX 10 13 6 14 7 15 81 16 8 17 9 18 5 19 2 21 1 22 3 23 4 24
REMARK SMILES IDX 82 25 20 28 21 29 22 30 23 31 24 33 25 34 26 35 78 36 27 37
REMARK SMILES IDX 77 38 28 39 29 40 30 41 71 42 31 43 76 44 70 45 72 46 32 47
REMARK SMILES IDX 75 48 69 49 68 50 33 52 59 53 42 54 58 55 43 56 46 57 57 58
REMARK SMILES IDX 73 59 44 60 45 61 56 63 74 64 47 65 34 66 35 67 40 68 36 69
REMARK SMILES IDX 37 70 39 71 41 72 38 73 60 74 61 75 66 76 62 77 63 78 65 79
REMARK SMILES IDX 67 80 64 81 48 82 49 83 54 84 50 85 51 86 53 87 55 88 52 89
REMARK H PARENT 17 6 5 20 82 26 82 27 22 32 72 51 46 62
REMARK Flexibility Score: inf
ROOT
ATOM      1  C   UNL A   1      36.838  21.027  24.704  1.00  0.00     0.023 C 
ENDROOT
BRANCH   1   2
ATOM      2  C   UNL A   1      35.375  20.696  24.987  1.00  0.00     0.116 C 
BRANCH   2   3
ATOM      3  N   UNL A   1      34.879  21.393  26.166  1.00  0.00    -0.356 N 
ATOM      4  C   UNL A   1      34.085  22.497  26.269  1.00  0.00     0.223 C 
ATOM      5  O   UNL A   1      33.808  22.910  27.397  1.00  0.00    -0.275 OA
ATOM      6  H   UNL A   1      35.162  21.006  27.025  1.00  0.00     0.163 HD
BRANCH   4   7
ATOM      7  C   UNL A   1      33.529  23.186  25.031  1.00  0.00     0.082 C 
ATOM      8  N   UNL A   1      32.499  25.700  24.255  1.00  0.00    -0.355 N 
ATOM      9  C   UNL A   1      31.527  24.626  24.314  1.00  0.00     0.119 C 
ATOM     10  C   UNL A   1      33.813  25.382  23.736  1.00  0.00     0.119 C 
ATOM     11  C   UNL A   1      32.038  23.516  25.215  1.00  0.00     0.035 C 
ATOM     12  C   UNL A   1      34.465  24.336  24.624  1.00  0.00     0.035 C 
BRANCH   8  13
ATOM     13  C   UNL A   1      32.035  26.995  24.398  1.00  0.00     0.157 A 
ATOM     14  C   UNL A   1      31.027  29.016  23.635  1.00  0.00     0.155 A 
ATOM     15  N   UNL A   1      31.186  29.574  24.845  1.00  0.00    -0.217 NA
ATOM     16  C   UNL A   1      31.486  27.726  23.331  1.00  0.00     0.118 A 
ATOM     17  C   UNL A   1      31.734  28.793  25.782  1.00  0.00     0.226 A 
ATOM     18  N   UNL A   1      32.130  27.521  25.635  1.00  0.00    -0.217 NA
BRANCH  14  19
ATOM     19  N   UNL A   1      30.365  29.824  22.717  1.00  0.00    -0.364 N 
ATOM     20  H   UNL A   1      30.908  30.256  22.019  1.00  0.00     0.162 HD
BRANCH  19  21
ATOM     21  C   UNL A   1      28.910  30.082  22.710  1.00  0.00     0.030 C 
ATOM     22  C   UNL A   1      28.432  31.218  23.627  1.00  0.00     0.034 C 
ATOM     23  C   UNL A   1      28.195  28.769  23.071  1.00  0.00     0.034 C 
ATOM     24  C   UNL A   1      28.504  30.460  21.268  1.00  0.00     0.034 C 
ENDBRANCH  19  21
ENDBRANCH  14  19
BRANCH  16  25
ATOM     25  N   UNL A   1      31.460  27.241  22.015  1.00  0.00    -0.393 N 
ATOM     26  H   UNL A   1      31.099  27.802  21.291  1.00  0.00     0.156 HD
ATOM     27  H   UNL A   1      31.802  26.339  21.816  1.00  0.00     0.156 HD
ENDBRANCH  16  25
ENDBRANCH   8  13
ENDBRANCH   4   7
ENDBRANCH   2   3
ENDBRANCH   1   2
BRANCH   1  28
ATOM     28  C   UNL A   1      37.809  19.880  24.977  1.00  0.00     0.023 C 
BRANCH  28  29
ATOM     29  C   UNL A   1      39.051  20.269  25.766  1.00  0.00     0.116 C 
BRANCH  29  30
ATOM     30  N   UNL A   1      40.032  19.196  25.840  1.00  0.00    -0.352 N 
ATOM     31  C   UNL A   1      41.379  19.275  26.104  1.00  0.00     0.251 C 
ATOM     32  H   UNL A   1      39.684  18.291  25.679  1.00  0.00     0.163 HD
ATOM     33  O   UNL A   1      42.097  18.293  25.989  1.00  0.00    -0.269 OA
BRANCH  31  34
ATOM     34  C   UNL A   1      41.958  20.574  26.502  1.00  0.00     0.039 A 
ATOM     35  C   UNL A   1      42.387  21.454  25.506  1.00  0.00     0.014 A 
ATOM     36  C   UNL A   1      42.050  20.927  27.852  1.00  0.00     0.014 A 
ATOM     37  C   UNL A   1      42.851  22.721  25.864  1.00  0.00     0.010 A 
ATOM     38  C   UNL A   1      42.443  22.214  28.200  1.00  0.00     0.010 A 
ATOM     39  C   UNL A   1      42.853  23.120  27.210  1.00  0.00    -0.014 A 
BRANCH  39  40
ATOM     40  C   UNL A   1      43.305  24.473  27.609  1.00  0.00     0.031 A 
ATOM     41  C   UNL A   1      42.294  25.512  28.002  1.00  0.00     0.074 A 
ATOM     42  C   UNL A   1      44.614  24.783  27.563  1.00  0.00     0.049 A 
ATOM     43  N   UNL A   1      42.478  26.770  28.309  1.00  0.00    -0.248 NA
ATOM     44  C   UNL A   1      40.885  25.085  28.029  1.00  0.00     0.031 C 
ATOM     45  C   UNL A   1      45.687  23.872  27.163  1.00  0.00     0.029 A 
ATOM     46  N   UNL A   1      45.265  25.957  27.848  1.00  0.00    -0.354 N 
ATOM     47  C   UNL A   1      41.212  27.286  28.553  1.00  0.00     0.074 A 
ATOM     48  C   UNL A   1      40.263  26.222  28.305  1.00  0.00     0.031 C 
ATOM     49  C   UNL A   1      46.864  24.512  27.252  1.00  0.00     0.029 A 
ATOM     50  C   UNL A   1      46.626  25.888  27.679  1.00  0.00     0.049 A 
ATOM     51  H   UNL A   1      44.799  26.772  28.145  1.00  0.00     0.167 HD
ATOM     52  C   UNL A   1      40.873  28.527  28.970  1.00  0.00     0.037 A 
ATOM     53  C   UNL A   1      47.574  26.829  27.847  1.00  0.00     0.037 A 
ATOM     54  C   UNL A   1      41.821  29.574  29.243  1.00  0.00     0.049 A 
ATOM     55  C   UNL A   1      47.171  28.206  28.298  1.00  0.00     0.074 A 
ATOM     56  C   UNL A   1      41.580  30.848  29.725  1.00  0.00     0.029 A 
ATOM     57  N   UNL A   1      43.191  29.465  29.059  1.00  0.00    -0.354 N 
ATOM     58  N   UNL A   1      45.975  28.667  28.574  1.00  0.00    -0.248 NA
ATOM     59  C   UNL A   1      48.249  29.193  28.460  1.00  0.00     0.031 C 
ATOM     60  C   UNL A   1      42.802  31.525  29.793  1.00  0.00     0.029 A 
ATOM     61  C   UNL A   1      43.807  30.658  29.397  1.00  0.00     0.049 A 
ATOM     62  H   UNL A   1      43.656  28.660  28.736  1.00  0.00     0.167 HD
ATOM     63  C   UNL A   1      46.156  29.989  28.959  1.00  0.00     0.074 A 
ATOM     64  C   UNL A   1      47.579  30.252  28.897  1.00  0.00     0.031 C 
ATOM     65  C   UNL A   1      45.225  30.903  29.326  1.00  0.00     0.037 A 
BRANCH  52  66
ATOM     66  C   UNL A   1      39.415  28.816  29.170  1.00  0.00     0.057 A 
ATOM     67  C   UNL A   1      38.791  28.629  30.411  1.00  0.00     0.134 A 
ATOM     68  C   UNL A   1      38.635  29.325  28.123  1.00  0.00     0.134 A 
ATOM     69  F   UNL A   1      39.479  28.132  31.449  1.00  0.00    -0.206 F 
ATOM     70  C   UNL A   1      37.438  28.920  30.599  1.00  0.00     0.040 A 
ATOM     71  C   UNL A   1      37.289  29.643  28.307  1.00  0.00     0.040 A 
ATOM     72  F   UNL A   1      39.171  29.530  26.912  1.00  0.00    -0.206 F 
ATOM     73  C   UNL A   1      36.685  29.436  29.546  1.00  0.00     0.006 A 
ENDBRANCH  52  66
BRANCH  53  74
ATOM     74  C   UNL A   1      48.999  26.489  27.614  1.00  0.00     0.057 A 
ATOM     75  C   UNL A   1      49.568  26.614  26.341  1.00  0.00     0.134 A 
ATOM     76  C   UNL A   1      49.831  26.053  28.652  1.00  0.00     0.134 A 
ATOM     77  F   UNL A   1      48.817  27.009  25.302  1.00  0.00    -0.206 F 
ATOM     78  C   UNL A   1      50.911  26.312  26.107  1.00  0.00     0.040 A 
ATOM     79  C   UNL A   1      51.181  25.769  28.437  1.00  0.00     0.040 A 
ATOM     80  F   UNL A   1      49.347  25.919  29.896  1.00  0.00    -0.206 F 
ATOM     81  C   UNL A   1      51.723  25.895  27.159  1.00  0.00     0.006 A 
ENDBRANCH  53  74
BRANCH  65  82
ATOM     82  C   UNL A   1      45.712  32.272  29.700  1.00  0.00     0.057 A 
ATOM     83  C   UNL A   1      45.781  33.308  28.761  1.00  0.00     0.134 A 
ATOM     84  C   UNL A   1      46.047  32.574  31.026  1.00  0.00     0.134 A 
ATOM     85  F   UNL A   1      45.484  33.079  27.473  1.00  0.00    -0.206 F 
ATOM     86  C   UNL A   1      46.179  34.595  29.125  1.00  0.00     0.040 A 
ATOM     87  C   UNL A   1      46.422  33.864  31.407  1.00  0.00     0.040 A 
ATOM     88  F   UNL A   1      45.990  31.629  31.977  1.00  0.00    -0.206 F 
ATOM     89  C   UNL A   1      46.492  34.877  30.454  1.00  0.00     0.006 A 
ENDBRANCH  65  82
ENDBRANCH  39  40
ENDBRANCH  31  34
ENDBRANCH  29  30
ENDBRANCH  28  29
ENDBRANCH   1  28
TORSDOF 15
ENDMDL
MODEL 3
REMARK VINA RESULT:     -11.7      3.418      9.214
REMARK SMILES CC(C)(C)Nc1ncnc(N2CCC(C(=O)NCCCCNC(=O)c3ccc(-c4c5nc(c(-c6c(F)cccc6F)c6ccc([nH]6)c(-c6c(F)cccc6F)c6nc(c(-c7c(F)cccc7F)c7ccc4[nH]7)C=C6)C=C5)cc3)CC2)c1N
REMARK SMILES IDX 19 1 18 2 17 3 15 4 16 5 14 7 11 8 12 9 80 10 13 11 79 12
REMARK SMILES IDX 10 13 6 14 7 15 81 16 8 17 9 18 5 19 2 21 1 22 3 23 4 24
REMARK SMILES IDX 82 25 20 28 21 29 22 30 23 31 24 33 25 34 26 35 78 36 27 37
REMARK SMILES IDX 77 38 28 39 29 40 30 41 71 42 31 43 76 44 70 45 72 46 32 47
REMARK SMILES IDX 75 48 69 49 68 50 33 52 59 53 42 54 58 55 43 56 46 57 57 58
REMARK SMILES IDX 73 59 44 60 45 61 56 63 74 64 47 65 34 66 35 67 40 68 36 69
REMARK SMILES IDX 37 70 39 71 41 72 38 73 60 74 61 75 66 76 62 77 63 78 65 79
REMARK SMILES IDX 67 80 64 81 48 82 49 83 54 84 50 85 51 86 53 87 55 88 52 89
REMARK H PARENT 17 6 5 20 82 26 82 27 22 32 72 51 46 62
REMARK Flexibility Score: inf
ROOT
ATOM      1  C   UNL A   1      31.599  30.399  25.730  1.00  0.00     0.023 C 
ENDROOT
BRANCH   1   2
ATOM      2  C   UNL A   1      32.964  29.755  25.952  1.00  0.00     0.116 C 
BRANCH   2   3
ATOM      3  N   UNL A   1      33.613  29.411  24.694  1.00  0.00    -0.356 N 
ATOM      4  C   UNL A   1      33.639  28.233  24.008  1.00  0.00     0.223 C 
ATOM      5  O   UNL A   1      34.277  28.189  22.953  1.00  0.00    -0.275 OA
ATOM      6  H   UNL A   1      34.111  30.148  24.270  1.00  0.00     0.163 HD
BRANCH   4   7
ATOM      7  C   UNL A   1      32.881  27.013  24.508  1.00  0.00     0.082 C 
ATOM      8  N   UNL A   1      33.315  24.261  24.977  1.00  0.00    -0.355 N 
ATOM      9  C   UNL A   1      32.443  24.567  23.860  1.00  0.00     0.119 C 
ATOM     10  C   UNL A   1      33.188  25.079  26.166  1.00  0.00     0.119 C 
ATOM     11  C   UNL A   1      32.698  25.984  23.380  1.00  0.00     0.035 C 
ATOM     12  C   UNL A   1      33.515  26.521  25.820  1.00  0.00     0.035 C 
BRANCH   8  13
ATOM     13  C   UNL A   1      33.976  23.046  24.962  1.00  0.00     0.157 A 
ATOM     14  C   UNL A   1      34.189  20.706  25.367  1.00  0.00     0.155 A 
ATOM     15  N   UNL A   1      35.440  20.717  24.881  1.00  0.00    -0.217 NA
ATOM     16  C   UNL A   1      33.413  21.869  25.482  1.00  0.00     0.118 A 
ATOM     17  C   UNL A   1      35.881  21.895  24.428  1.00  0.00     0.226 A 
ATOM     18  N   UNL A   1      35.204  23.051  24.405  1.00  0.00    -0.217 NA
BRANCH  14  19
ATOM     19  N   UNL A   1      33.732  19.447  25.735  1.00  0.00    -0.364 N 
ATOM     20  H   UNL A   1      33.607  19.273  26.697  1.00  0.00     0.162 HD
BRANCH  19  21
ATOM     21  C   UNL A   1      33.419  18.349  24.797  1.00  0.00     0.030 C 
ATOM     22  C   UNL A   1      34.632  17.627  24.190  1.00  0.00     0.034 C 
ATOM     23  C   UNL A   1      32.527  18.922  23.681  1.00  0.00     0.034 C 
ATOM     24  C   UNL A   1      32.595  17.291  25.563  1.00  0.00     0.034 C 
ENDBRANCH  19  21
ENDBRANCH  14  19
BRANCH  16  25
ATOM     25  N   UNL A   1      32.180  21.851  26.151  1.00  0.00    -0.393 N 
ATOM     26  H   UNL A   1      31.382  22.238  25.723  1.00  0.00     0.156 HD
ATOM     27  H   UNL A   1      32.113  21.452  27.049  1.00  0.00     0.156 HD
ENDBRANCH  16  25
ENDBRANCH   8  13
ENDBRANCH   4   7
ENDBRANCH   2   3
ENDBRANCH   1   2
BRANCH   1  28
ATOM     28  C   UNL A   1      31.356  31.663  26.552  1.00  0.00     0.023 C 
BRANCH  28  29
ATOM     29  C   UNL A   1      32.617  32.348  27.058  1.00  0.00     0.116 C 
BRANCH  29  30
ATOM     30  N   UNL A   1      32.373  33.700  27.538  1.00  0.00    -0.352 N 
ATOM     31  C   UNL A   1      33.099  34.441  28.440  1.00  0.00     0.251 C 
ATOM     32  H   UNL A   1      31.578  34.145  27.166  1.00  0.00     0.163 HD
ATOM     33  O   UNL A   1      32.680  35.514  28.849  1.00  0.00    -0.269 OA
BRANCH  31  34
ATOM     34  C   UNL A   1      34.385  33.910  28.936  1.00  0.00     0.039 A 
ATOM     35  C   UNL A   1      34.394  33.155  30.110  1.00  0.00     0.014 A 
ATOM     36  C   UNL A   1      35.567  34.137  28.226  1.00  0.00     0.014 A 
ATOM     37  C   UNL A   1      35.586  32.570  30.541  1.00  0.00     0.010 A 
ATOM     38  C   UNL A   1      36.736  33.493  28.616  1.00  0.00     0.010 A 
ATOM     39  C   UNL A   1      36.757  32.710  29.779  1.00  0.00    -0.014 A 
BRANCH  39  40
ATOM     40  C   UNL A   1      38.025  32.067  30.197  1.00  0.00     0.031 A 
ATOM     41  C   UNL A   1      38.915  32.750  31.195  1.00  0.00     0.074 A 
ATOM     42  C   UNL A   1      38.401  30.901  29.638  1.00  0.00     0.049 A 
ATOM     43  N   UNL A   1      40.095  32.392  31.633  1.00  0.00    -0.248 NA
ATOM     44  C   UNL A   1      38.424  34.019  31.759  1.00  0.00     0.031 C 
ATOM     45  C   UNL A   1      37.641  30.159  28.631  1.00  0.00     0.029 A 
ATOM     46  N   UNL A   1      39.526  30.139  29.832  1.00  0.00    -0.354 N 
ATOM     47  C   UNL A   1      40.490  33.394  32.509  1.00  0.00     0.074 A 
ATOM     48  C   UNL A   1      39.452  34.401  32.501  1.00  0.00     0.031 C 
ATOM     49  C   UNL A   1      38.307  29.037  28.315  1.00  0.00     0.029 A 
ATOM     50  C   UNL A   1      39.557  28.998  29.068  1.00  0.00     0.049 A 
ATOM     51  H   UNL A   1      40.242  30.386  30.461  1.00  0.00     0.167 HD
ATOM     52  C   UNL A   1      41.606  33.456  33.272  1.00  0.00     0.037 A 
ATOM     53  C   UNL A   1      40.492  28.033  28.982  1.00  0.00     0.037 A 
ATOM     54  C   UNL A   1      42.622  32.438  33.299  1.00  0.00     0.049 A 
ATOM     55  C   UNL A   1      41.730  28.130  29.829  1.00  0.00     0.074 A 
ATOM     56  C   UNL A   1      43.762  32.382  34.080  1.00  0.00     0.029 A 
ATOM     57  N   UNL A   1      42.619  31.298  32.509  1.00  0.00    -0.354 N 
ATOM     58  N   UNL A   1      42.069  29.058  30.692  1.00  0.00    -0.248 NA
ATOM     59  C   UNL A   1      42.716  27.049  29.690  1.00  0.00     0.031 C 
ATOM     60  C   UNL A   1      44.471  31.227  33.733  1.00  0.00     0.029 A 
ATOM     61  C   UNL A   1      43.749  30.542  32.768  1.00  0.00     0.049 A 
ATOM     62  H   UNL A   1      41.918  31.062  31.860  1.00  0.00     0.167 HD
ATOM     63  C   UNL A   1      43.296  28.665  31.211  1.00  0.00     0.074 A 
ATOM     64  C   UNL A   1      43.634  27.407  30.579  1.00  0.00     0.031 C 
ATOM     65  C   UNL A   1      44.072  29.294  32.127  1.00  0.00     0.037 A 
BRANCH  52  66
ATOM     66  C   UNL A   1      41.778  34.659  34.150  1.00  0.00     0.057 A 
ATOM     67  C   UNL A   1      41.395  34.647  35.498  1.00  0.00     0.134 A 
ATOM     68  C   UNL A   1      42.371  35.828  33.656  1.00  0.00     0.134 A 
ATOM     69  F   UNL A   1      40.809  33.563  36.029  1.00  0.00    -0.206 F 
ATOM     70  C   UNL A   1      41.577  35.762  36.318  1.00  0.00     0.040 A 
ATOM     71  C   UNL A   1      42.581  36.939  34.474  1.00  0.00     0.040 A 
ATOM     72  F   UNL A   1      42.763  35.904  32.376  1.00  0.00    -0.206 F 
ATOM     73  C   UNL A   1      42.179  36.910  35.807  1.00  0.00     0.006 A 
ENDBRANCH  52  66
BRANCH  53  74
ATOM     74  C   UNL A   1      40.274  26.876  28.079  1.00  0.00     0.057 A 
ATOM     75  C   UNL A   1      39.499  25.783  28.485  1.00  0.00     0.134 A 
ATOM     76  C   UNL A   1      40.813  26.840  26.787  1.00  0.00     0.134 A 
ATOM     77  F   UNL A   1      38.972  25.751  29.717  1.00  0.00    -0.206 F 
ATOM     78  C   UNL A   1      39.272  24.694  27.642  1.00  0.00     0.040 A 
ATOM     79  C   UNL A   1      40.577  25.767  25.926  1.00  0.00     0.040 A 
ATOM     80  F   UNL A   1      41.560  27.859  26.337  1.00  0.00    -0.206 F 
ATOM     81  C   UNL A   1      39.807  24.688  26.355  1.00  0.00     0.006 A 
ENDBRANCH  53  74
BRANCH  65  82
ATOM     82  C   UNL A   1      45.362  28.630  32.511  1.00  0.00     0.057 A 
ATOM     83  C   UNL A   1      46.566  28.941  31.870  1.00  0.00     0.134 A 
ATOM     84  C   UNL A   1      45.410  27.723  33.578  1.00  0.00     0.134 A 
ATOM     85  F   UNL A   1      46.585  29.794  30.834  1.00  0.00    -0.206 F 
ATOM     86  C   UNL A   1      47.773  28.365  32.268  1.00  0.00     0.040 A 
ATOM     87  C   UNL A   1      46.614  27.159  34.001  1.00  0.00     0.040 A 
ATOM     88  F   UNL A   1      44.292  27.391  34.241  1.00  0.00    -0.206 F 
ATOM     89  C   UNL A   1      47.800  27.478  33.343  1.00  0.00     0.006 A 
ENDBRANCH  65  82
ENDBRANCH  39  40
ENDBRANCH  31  34
ENDBRANCH  29  30
ENDBRANCH  28  29
ENDBRANCH   1  28
TORSDOF 15
ENDMDL
