MODEL 1
REMARK VINA RESULT:     -12.1      0.000      0.000
REMARK SMILES CC1=C(C(=O)NCCCCNC(=O)c2ccc(-c3c4nc(c(-c5c(F)cccc5F)c5ccc([nH]5)c(-c5c(F)cccc5F)c5nc(c(-c6c(F)cccc6F)c6ccc3[nH]6)C=C5)C=C4)cc2)N2C(=O)[C@@H](NC(=O)c3ccn(C)n3)[C@H]2SC1
REMARK SMILES IDX 8 1 7 2 6 3 4 4 5 5 3 7 1 8 2 9 83 10 68 11 82 12 69 13
REMARK SMILES IDX 81 14 70 15 71 16 72 17 73 18 74 20 75 21 76 22 80 23 77 24
REMARK SMILES IDX 78 25 79 26 9 27 10 28 11 29 12 30 13 32 14 33 15 34 67 35
REMARK SMILES IDX 16 36 66 37 17 38 18 39 19 40 60 41 20 42 65 43 59 44 61 45
REMARK SMILES IDX 21 46 64 47 58 48 57 49 22 51 48 52 31 53 47 54 32 55 35 56
REMARK SMILES IDX 46 57 62 58 33 59 34 60 45 62 63 63 36 64 23 65 24 66 29 67
REMARK SMILES IDX 25 68 26 69 28 70 30 71 27 72 49 73 50 74 55 75 51 76 52 77
REMARK SMILES IDX 54 78 56 79 53 80 37 81 38 82 43 83 39 84 40 85 42 86 44 87
REMARK SMILES IDX 41 88
REMARK H PARENT 6 6 72 19 11 31 61 50 35 61
REMARK Flexibility Score: inf
ROOT
ATOM      1  C   UNL A   1      36.463  20.392  25.003  1.00  0.00     0.023 C 
ENDROOT
BRANCH   1   2
ATOM      2  C   UNL A   1      36.463  21.716  25.752  1.00  0.00     0.116 C 
BRANCH   2   3
ATOM      3  N   UNL A   1      35.392  21.924  26.703  1.00  0.00    -0.351 N 
ATOM      4  C   UNL A   1      34.047  22.047  26.469  1.00  0.00     0.268 C 
ATOM      5  O   UNL A   1      33.271  21.992  27.423  1.00  0.00    -0.268 OA
ATOM      6  H   UNL A   1      35.667  21.985  27.647  1.00  0.00     0.163 HD
BRANCH   4   7
ATOM      7  C   UNL A   1      33.514  22.295  25.074  1.00  0.00     0.110 C 
ATOM      8  C   UNL A   1      32.188  20.153  24.816  1.00  0.00     0.043 C 
ATOM      9  C   UNL A   1      32.816  21.422  24.304  1.00  0.00    -0.034 C 
ATOM     10  C   UNL A   1      32.526  21.644  22.817  1.00  0.00     0.104 C 
ATOM     11  N   UNL A   1      33.599  23.579  24.629  1.00  0.00    -0.290 N 
ATOM     12  S   UNL A   1      33.051  23.255  22.136  1.00  0.00    -0.129 SA
ATOM     13  C   UNL A   1      34.250  24.730  24.877  1.00  0.00     0.253 C 
ATOM     14  C   UNL A   1      32.649  24.105  23.675  1.00  0.00     0.181 C 
ATOM     15  O   UNL A   1      35.220  25.017  25.542  1.00  0.00    -0.272 OA
ATOM     16  C   UNL A   1      33.230  25.497  23.985  1.00  0.00     0.206 C 
BRANCH  16  17
ATOM     17  N   UNL A   1      33.715  26.318  22.855  1.00  0.00    -0.336 N 
ATOM     18  C   UNL A   1      33.575  27.688  22.710  1.00  0.00     0.272 C 
ATOM     19  H   UNL A   1      34.185  25.841  22.132  1.00  0.00     0.164 HD
ATOM     20  O   UNL A   1      33.853  28.204  21.629  1.00  0.00    -0.267 OA
BRANCH  18  21
ATOM     21  C   UNL A   1      33.080  28.455  23.866  1.00  0.00     0.150 A 
ATOM     22  C   UNL A   1      31.760  28.947  24.082  1.00  0.00     0.056 A 
ATOM     23  N   UNL A   1      33.890  28.826  24.876  1.00  0.00    -0.168 NA
ATOM     24  C   UNL A   1      31.821  29.670  25.248  1.00  0.00     0.109 A 
ATOM     25  N   UNL A   1      33.096  29.525  25.706  1.00  0.00    -0.275 N 
ATOM     26  C   UNL A   1      33.624  30.066  26.937  1.00  0.00     0.173 C 
ENDBRANCH  18  21
ENDBRANCH  16  17
ENDBRANCH   4   7
ENDBRANCH   2   3
ENDBRANCH   1   2
BRANCH   1  27
ATOM     27  C   UNL A   1      37.827  19.795  24.666  1.00  0.00     0.023 C 
BRANCH  27  28
ATOM     28  C   UNL A   1      38.980  20.157  25.598  1.00  0.00     0.116 C 
BRANCH  28  29
ATOM     29  N   UNL A   1      39.974  19.103  25.751  1.00  0.00    -0.352 N 
ATOM     30  C   UNL A   1      41.308  19.177  26.088  1.00  0.00     0.251 C 
ATOM     31  H   UNL A   1      39.639  18.191  25.588  1.00  0.00     0.163 HD
ATOM     32  O   UNL A   1      42.002  18.164  26.072  1.00  0.00    -0.269 OA
BRANCH  30  33
ATOM     33  C   UNL A   1      41.919  20.480  26.429  1.00  0.00     0.039 A 
ATOM     34  C   UNL A   1      42.348  21.317  25.395  1.00  0.00     0.014 A 
ATOM     35  C   UNL A   1      42.043  20.891  27.756  1.00  0.00     0.014 A 
ATOM     36  C   UNL A   1      42.800  22.607  25.691  1.00  0.00     0.010 A 
ATOM     37  C   UNL A   1      42.393  22.207  28.041  1.00  0.00     0.010 A 
ATOM     38  C   UNL A   1      42.773  23.084  27.013  1.00  0.00    -0.014 A 
BRANCH  38  39
ATOM     39  C   UNL A   1      43.127  24.492  27.337  1.00  0.00     0.031 A 
ATOM     40  C   UNL A   1      44.565  24.938  27.303  1.00  0.00     0.074 A 
ATOM     41  C   UNL A   1      42.166  25.352  27.729  1.00  0.00     0.049 A 
ATOM     42  N   UNL A   1      45.077  26.100  27.619  1.00  0.00    -0.248 NA
ATOM     43  C   UNL A   1      45.561  23.939  26.886  1.00  0.00     0.031 C 
ATOM     44  C   UNL A   1      40.743  25.034  27.856  1.00  0.00     0.029 A 
ATOM     45  N   UNL A   1      42.243  26.671  28.105  1.00  0.00    -0.354 N 
ATOM     46  C   UNL A   1      46.449  25.967  27.450  1.00  0.00     0.074 A 
ATOM     47  C   UNL A   1      46.697  24.595  27.067  1.00  0.00     0.031 C 
ATOM     48  C   UNL A   1      40.078  26.133  28.248  1.00  0.00     0.029 A 
ATOM     49  C   UNL A   1      41.030  27.220  28.448  1.00  0.00     0.049 A 
ATOM     50  H   UNL A   1      43.088  27.177  28.126  1.00  0.00     0.167 HD
ATOM     51  C   UNL A   1      47.415  26.908  27.573  1.00  0.00     0.037 A 
ATOM     52  C   UNL A   1      40.719  28.456  28.886  1.00  0.00     0.037 A 
ATOM     53  C   UNL A   1      47.167  28.278  27.937  1.00  0.00     0.049 A 
ATOM     54  C   UNL A   1      41.816  29.476  29.042  1.00  0.00     0.074 A 
ATOM     55  C   UNL A   1      48.072  29.320  28.034  1.00  0.00     0.029 A 
ATOM     56  N   UNL A   1      45.924  28.795  28.270  1.00  0.00    -0.354 N 
ATOM     57  N   UNL A   1      43.100  29.356  28.804  1.00  0.00    -0.248 NA
ATOM     58  C   UNL A   1      41.420  30.807  29.525  1.00  0.00     0.031 C 
ATOM     59  C   UNL A   1      47.388  30.453  28.485  1.00  0.00     0.029 A 
ATOM     60  C   UNL A   1      46.045  30.134  28.603  1.00  0.00     0.049 A 
ATOM     61  H   UNL A   1      45.082  28.286  28.270  1.00  0.00     0.167 HD
ATOM     62  C   UNL A   1      43.657  30.599  29.075  1.00  0.00     0.074 A 
ATOM     63  C   UNL A   1      42.569  31.465  29.479  1.00  0.00     0.031 C 
ATOM     64  C   UNL A   1      44.952  30.990  28.994  1.00  0.00     0.037 A 
BRANCH  51  65
ATOM     65  C   UNL A   1      48.834  26.487  27.309  1.00  0.00     0.057 A 
ATOM     66  C   UNL A   1      49.659  25.983  28.323  1.00  0.00     0.134 A 
ATOM     67  C   UNL A   1      49.368  26.549  26.015  1.00  0.00     0.134 A 
ATOM     68  F   UNL A   1      49.214  25.906  29.587  1.00  0.00    -0.206 F 
ATOM     69  C   UNL A   1      50.972  25.584  28.067  1.00  0.00     0.040 A 
ATOM     70  C   UNL A   1      50.669  26.123  25.741  1.00  0.00     0.040 A 
ATOM     71  F   UNL A   1      48.633  27.015  24.994  1.00  0.00    -0.206 F 
ATOM     72  C   UNL A   1      51.477  25.645  26.771  1.00  0.00     0.006 A 
ENDBRANCH  51  65
BRANCH  52  73
ATOM     73  C   UNL A   1      39.310  28.811  29.199  1.00  0.00     0.057 A 
ATOM     74  C   UNL A   1      38.480  29.400  28.237  1.00  0.00     0.134 A 
ATOM     75  C   UNL A   1      38.765  28.597  30.471  1.00  0.00     0.134 A 
ATOM     76  F   UNL A   1      38.947  29.650  27.004  1.00  0.00    -0.206 F 
ATOM     77  C   UNL A   1      37.173  29.790  28.536  1.00  0.00     0.040 A 
ATOM     78  C   UNL A   1      37.451  28.953  30.775  1.00  0.00     0.040 A 
ATOM     79  F   UNL A   1      39.503  28.029  31.437  1.00  0.00    -0.206 F 
ATOM     80  C   UNL A   1      36.654  29.563  29.808  1.00  0.00     0.006 A 
ENDBRANCH  52  73
BRANCH  64  81
ATOM     81  C   UNL A   1      45.265  32.426  29.305  1.00  0.00     0.057 A 
ATOM     82  C   UNL A   1      45.665  32.841  30.581  1.00  0.00     0.134 A 
ATOM     83  C   UNL A   1      45.209  33.398  28.298  1.00  0.00     0.134 A 
ATOM     84  F   UNL A   1      45.728  31.963  31.594  1.00  0.00    -0.206 F 
ATOM     85  C   UNL A   1      45.974  34.175  30.850  1.00  0.00     0.040 A 
ATOM     86  C   UNL A   1      45.548  34.729  28.547  1.00  0.00     0.040 A 
ATOM     87  F   UNL A   1      44.844  33.068  27.050  1.00  0.00    -0.206 F 
ATOM     88  C   UNL A   1      45.926  35.122  29.828  1.00  0.00     0.006 A 
ENDBRANCH  64  81
ENDBRANCH  38  39
ENDBRANCH  30  33
ENDBRANCH  28  29
ENDBRANCH  27  28
ENDBRANCH   1  27
TORSDOF 13
ENDMDL
MODEL 2
REMARK VINA RESULT:     -12.1      4.602     10.122
REMARK SMILES CC1=C(C(=O)NCCCCNC(=O)c2ccc(-c3c4nc(c(-c5c(F)cccc5F)c5ccc([nH]5)c(-c5c(F)cccc5F)c5nc(c(-c6c(F)cccc6F)c6ccc3[nH]6)C=C5)C=C4)cc2)N2C(=O)[C@@H](NC(=O)c3ccn(C)n3)[C@H]2SC1
REMARK SMILES IDX 8 1 7 2 6 3 4 4 5 5 3 7 1 8 2 9 83 10 68 11 82 12 69 13
REMARK SMILES IDX 81 14 70 15 71 16 72 17 73 18 74 20 75 21 76 22 80 23 77 24
REMARK SMILES IDX 78 25 79 26 9 27 10 28 11 29 12 30 13 32 14 33 15 34 67 35
REMARK SMILES IDX 16 36 66 37 17 38 18 39 19 40 60 41 20 42 65 43 59 44 61 45
REMARK SMILES IDX 21 46 64 47 58 48 57 49 22 51 48 52 31 53 47 54 32 55 35 56
REMARK SMILES IDX 46 57 62 58 33 59 34 60 45 62 63 63 36 64 23 65 24 66 29 67
REMARK SMILES IDX 25 68 26 69 28 70 30 71 27 72 49 73 50 74 55 75 51 76 52 77
REMARK SMILES IDX 54 78 56 79 53 80 37 81 38 82 43 83 39 84 40 85 42 86 44 87
REMARK SMILES IDX 41 88
REMARK H PARENT 6 6 72 19 11 31 61 50 35 61
REMARK Flexibility Score: inf
ROOT
ATOM      1  C   UNL A   1      31.450  30.831  25.790  1.00  0.00     0.023 C 
ENDROOT
BRANCH   1   2
ATOM      2  C   UNL A   1      32.713  29.985  25.841  1.00  0.00     0.116 C 
BRANCH   2   3
ATOM      3  N   UNL A   1      33.278  29.585  24.569  1.00  0.00    -0.351 N 
ATOM      4  C   UNL A   1      32.823  28.640  23.686  1.00  0.00     0.268 C 
ATOM      5  O   UNL A   1      33.310  28.600  22.556  1.00  0.00    -0.268 OA
ATOM      6  H   UNL A   1      34.101  30.056  24.302  1.00  0.00     0.163 HD
BRANCH   4   7
ATOM      7  C   UNL A   1      31.777  27.625  24.095  1.00  0.00     0.110 C 
ATOM      8  C   UNL A   1      29.973  28.294  22.448  1.00  0.00     0.043 C 
ATOM      9  C   UNL A   1      30.496  27.556  23.651  1.00  0.00    -0.034 C 
ATOM     10  C   UNL A   1      29.423  26.668  24.287  1.00  0.00     0.104 C 
ATOM     11  N   UNL A   1      32.226  26.585  24.849  1.00  0.00    -0.290 N 
ATOM     12  S   UNL A   1      29.995  25.559  25.621  1.00  0.00    -0.129 SA
ATOM     13  C   UNL A   1      33.264  26.230  25.630  1.00  0.00     0.253 C 
ATOM     14  C   UNL A   1      31.580  25.292  24.802  1.00  0.00     0.181 C 
ATOM     15  O   UNL A   1      34.180  26.841  26.132  1.00  0.00    -0.272 OA
ATOM     16  C   UNL A   1      32.792  24.747  25.580  1.00  0.00     0.206 C 
BRANCH  16  17
ATOM     17  N   UNL A   1      32.539  24.015  26.840  1.00  0.00    -0.336 N 
ATOM     18  C   UNL A   1      33.092  22.802  27.214  1.00  0.00     0.272 C 
ATOM     19  H   UNL A   1      31.914  24.433  27.476  1.00  0.00     0.164 HD
ATOM     20  O   UNL A   1      32.640  22.220  28.199  1.00  0.00    -0.267 OA
BRANCH  18  21
ATOM     21  C   UNL A   1      34.191  22.264  26.395  1.00  0.00     0.150 A 
ATOM     22  C   UNL A   1      34.130  21.199  25.449  1.00  0.00     0.056 A 
ATOM     23  N   UNL A   1      35.452  22.729  26.496  1.00  0.00    -0.168 NA
ATOM     24  C   UNL A   1      35.420  21.014  25.017  1.00  0.00     0.109 A 
ATOM     25  N   UNL A   1      36.158  21.980  25.632  1.00  0.00    -0.275 N 
ATOM     26  C   UNL A   1      37.570  22.218  25.446  1.00  0.00     0.173 C 
ENDBRANCH  18  21
ENDBRANCH  16  17
ENDBRANCH   4   7
ENDBRANCH   2   3
ENDBRANCH   1   2
BRANCH   1  27
ATOM     27  C   UNL A   1      31.331  31.947  26.825  1.00  0.00     0.023 C 
BRANCH  27  28
ATOM     28  C   UNL A   1      32.622  32.665  27.208  1.00  0.00     0.116 C 
BRANCH  28  29
ATOM     29  N   UNL A   1      32.434  34.055  27.605  1.00  0.00    -0.352 N 
ATOM     30  C   UNL A   1      33.111  34.816  28.532  1.00  0.00     0.251 C 
ATOM     31  H   UNL A   1      31.707  34.524  27.135  1.00  0.00     0.163 HD
ATOM     32  O   UNL A   1      32.730  35.955  28.786  1.00  0.00    -0.269 OA
BRANCH  30  33
ATOM     33  C   UNL A   1      34.271  34.252  29.255  1.00  0.00     0.039 A 
ATOM     34  C   UNL A   1      34.046  33.475  30.395  1.00  0.00     0.014 A 
ATOM     35  C   UNL A   1      35.573  34.459  28.799  1.00  0.00     0.014 A 
ATOM     36  C   UNL A   1      35.118  32.822  31.011  1.00  0.00     0.010 A 
ATOM     37  C   UNL A   1      36.622  33.728  29.348  1.00  0.00     0.010 A 
ATOM     38  C   UNL A   1      36.408  32.896  30.458  1.00  0.00    -0.014 A 
BRANCH  38  39
ATOM     39  C   UNL A   1      37.539  32.109  31.019  1.00  0.00     0.031 A 
ATOM     40  C   UNL A   1      38.054  32.403  32.403  1.00  0.00     0.074 A 
ATOM     41  C   UNL A   1      38.149  31.176  30.260  1.00  0.00     0.049 A 
ATOM     42  N   UNL A   1      39.070  31.874  33.036  1.00  0.00    -0.248 NA
ATOM     43  C   UNL A   1      37.352  33.448  33.165  1.00  0.00     0.031 C 
ATOM     44  C   UNL A   1      37.783  30.830  28.885  1.00  0.00     0.029 A 
ATOM     45  N   UNL A   1      39.214  30.354  30.534  1.00  0.00    -0.354 N 
ATOM     46  C   UNL A   1      39.134  32.529  34.260  1.00  0.00     0.074 A 
ATOM     47  C   UNL A   1      38.098  33.536  34.255  1.00  0.00     0.031 C 
ATOM     48  C   UNL A   1      38.588  29.847  28.448  1.00  0.00     0.029 A 
ATOM     49  C   UNL A   1      39.557  29.527  29.490  1.00  0.00     0.049 A 
ATOM     50  H   UNL A   1      39.688  30.356  31.397  1.00  0.00     0.167 HD
ATOM     51  C   UNL A   1      39.961  32.293  35.306  1.00  0.00     0.037 A 
ATOM     52  C   UNL A   1      40.548  28.619  29.380  1.00  0.00     0.037 A 
ATOM     53  C   UNL A   1      40.982  31.278  35.317  1.00  0.00     0.049 A 
ATOM     54  C   UNL A   1      41.472  28.397  30.548  1.00  0.00     0.074 A 
ATOM     55  C   UNL A   1      41.833  30.925  36.349  1.00  0.00     0.029 A 
ATOM     56  N   UNL A   1      41.292  30.458  34.244  1.00  0.00    -0.354 N 
ATOM     57  N   UNL A   1      41.471  28.971  31.727  1.00  0.00    -0.248 NA
ATOM     58  C   UNL A   1      42.536  27.397  30.371  1.00  0.00     0.031 C 
ATOM     59  C   UNL A   1      42.700  29.934  35.880  1.00  0.00     0.029 A 
ATOM     60  C   UNL A   1      42.344  29.621  34.579  1.00  0.00     0.049 A 
ATOM     61  H   UNL A   1      40.834  30.468  33.372  1.00  0.00     0.167 HD
ATOM     62  C   UNL A   1      42.506  28.380  32.440  1.00  0.00     0.074 A 
ATOM     63  C   UNL A   1      43.103  27.390  31.568  1.00  0.00     0.031 C 
ATOM     64  C   UNL A   1      42.923  28.632  33.705  1.00  0.00     0.037 A 
BRANCH  51  65
ATOM     65  C   UNL A   1      39.795  33.149  36.530  1.00  0.00     0.057 A 
ATOM     66  C   UNL A   1      40.551  34.313  36.729  1.00  0.00     0.134 A 
ATOM     67  C   UNL A   1      38.838  32.829  37.502  1.00  0.00     0.134 A 
ATOM     68  F   UNL A   1      41.492  34.672  35.843  1.00  0.00    -0.206 F 
ATOM     69  C   UNL A   1      40.384  35.109  37.864  1.00  0.00     0.040 A 
ATOM     70  C   UNL A   1      38.639  33.634  38.624  1.00  0.00     0.040 A 
ATOM     71  F   UNL A   1      38.074  31.734  37.373  1.00  0.00    -0.206 F 
ATOM     72  C   UNL A   1      39.418  34.775  38.811  1.00  0.00     0.006 A 
ENDBRANCH  51  65
BRANCH  52  73
ATOM     73  C   UNL A   1      40.717  27.840  28.125  1.00  0.00     0.057 A 
ATOM     74  C   UNL A   1      40.123  26.581  27.969  1.00  0.00     0.134 A 
ATOM     75  C   UNL A   1      41.496  28.318  27.065  1.00  0.00     0.134 A 
ATOM     76  F   UNL A   1      39.380  26.058  28.956  1.00  0.00    -0.206 F 
ATOM     77  C   UNL A   1      40.321  25.815  26.819  1.00  0.00     0.040 A 
ATOM     78  C   UNL A   1      41.677  27.576  25.897  1.00  0.00     0.040 A 
ATOM     79  F   UNL A   1      42.086  29.519  27.146  1.00  0.00    -0.206 F 
ATOM     80  C   UNL A   1      41.098  26.315  25.776  1.00  0.00     0.006 A 
ENDBRANCH  52  73
BRANCH  64  81
ATOM     81  C   UNL A   1      44.051  27.798  34.242  1.00  0.00     0.057 A 
ATOM     82  C   UNL A   1      45.384  28.227  34.193  1.00  0.00     0.134 A 
ATOM     83  C   UNL A   1      43.792  26.567  34.860  1.00  0.00     0.134 A 
ATOM     84  F   UNL A   1      45.703  29.390  33.605  1.00  0.00    -0.206 F 
ATOM     85  C   UNL A   1      46.419  27.452  34.718  1.00  0.00     0.040 A 
ATOM     86  C   UNL A   1      44.815  25.799  35.418  1.00  0.00     0.040 A 
ATOM     87  F   UNL A   1      42.538  26.101  34.952  1.00  0.00    -0.206 F 
ATOM     88  C   UNL A   1      46.134  26.238  35.342  1.00  0.00     0.006 A 
ENDBRANCH  64  81
ENDBRANCH  38  39
ENDBRANCH  30  33
ENDBRANCH  28  29
ENDBRANCH  27  28
ENDBRANCH   1  27
TORSDOF 13
ENDMDL
MODEL 3
REMARK VINA RESULT:     -11.9      4.542      9.190
REMARK SMILES CC1=C(C(=O)NCCCCNC(=O)c2ccc(-c3c4nc(c(-c5c(F)cccc5F)c5ccc([nH]5)c(-c5c(F)cccc5F)c5nc(c(-c6c(F)cccc6F)c6ccc3[nH]6)C=C5)C=C4)cc2)N2C(=O)[C@@H](NC(=O)c3ccn(C)n3)[C@H]2SC1
REMARK SMILES IDX 8 1 7 2 6 3 4 4 5 5 3 7 1 8 2 9 83 10 68 11 82 12 69 13
REMARK SMILES IDX 81 14 70 15 71 16 72 17 73 18 74 20 75 21 76 22 80 23 77 24
REMARK SMILES IDX 78 25 79 26 9 27 10 28 11 29 12 30 13 32 14 33 15 34 67 35
REMARK SMILES IDX 16 36 66 37 17 38 18 39 19 40 60 41 20 42 65 43 59 44 61 45
REMARK SMILES IDX 21 46 64 47 58 48 57 49 22 51 48 52 31 53 47 54 32 55 35 56
REMARK SMILES IDX 46 57 62 58 33 59 34 60 45 62 63 63 36 64 23 65 24 66 29 67
REMARK SMILES IDX 25 68 26 69 28 70 30 71 27 72 49 73 50 74 55 75 51 76 52 77
REMARK SMILES IDX 54 78 56 79 53 80 37 81 38 82 43 83 39 84 40 85 42 86 44 87
REMARK SMILES IDX 41 88
REMARK H PARENT 6 6 72 19 11 31 61 50 35 61
REMARK Flexibility Score: inf
ROOT
ATOM      1  C   UNL A   1      31.077  31.022  25.742  1.00  0.00     0.023 C 
ENDROOT
BRANCH   1   2
ATOM      2  C   UNL A   1      32.275  30.098  25.904  1.00  0.00     0.116 C 
BRANCH   2   3
ATOM      3  N   UNL A   1      32.972  29.719  24.693  1.00  0.00    -0.351 N 
ATOM      4  C   UNL A   1      32.660  28.729  23.797  1.00  0.00     0.268 C 
ATOM      5  O   UNL A   1      33.242  28.706  22.713  1.00  0.00    -0.268 OA
ATOM      6  H   UNL A   1      33.779  30.243  24.485  1.00  0.00     0.163 HD
BRANCH   4   7
ATOM      7  C   UNL A   1      31.657  27.648  24.140  1.00  0.00     0.110 C 
ATOM      8  C   UNL A   1      29.905  28.231  22.407  1.00  0.00     0.043 C 
ATOM      9  C   UNL A   1      30.407  27.509  23.629  1.00  0.00    -0.034 C 
ATOM     10  C   UNL A   1      29.358  26.550  24.199  1.00  0.00     0.104 C 
ATOM     11  N   UNL A   1      32.128  26.626  24.906  1.00  0.00    -0.290 N 
ATOM     12  S   UNL A   1      29.926  25.459  25.549  1.00  0.00    -0.129 SA
ATOM     13  C   UNL A   1      33.144  26.324  25.736  1.00  0.00     0.253 C 
ATOM     14  C   UNL A   1      31.564  25.298  24.812  1.00  0.00     0.181 C 
ATOM     15  O   UNL A   1      33.994  26.981  26.292  1.00  0.00    -0.272 OA
ATOM     16  C   UNL A   1      32.765  24.816  25.647  1.00  0.00     0.206 C 
BRANCH  16  17
ATOM     17  N   UNL A   1      32.492  24.054  26.884  1.00  0.00    -0.336 N 
ATOM     18  C   UNL A   1      33.007  22.813  27.219  1.00  0.00     0.272 C 
ATOM     19  H   UNL A   1      31.882  24.471  27.535  1.00  0.00     0.164 HD
ATOM     20  O   UNL A   1      32.539  22.215  28.187  1.00  0.00    -0.267 OA
BRANCH  18  21
ATOM     21  C   UNL A   1      34.087  22.266  26.380  1.00  0.00     0.150 A 
ATOM     22  C   UNL A   1      34.028  21.133  25.517  1.00  0.00     0.056 A 
ATOM     23  N   UNL A   1      35.327  22.794  26.378  1.00  0.00    -0.168 NA
ATOM     24  C   UNL A   1      35.302  20.975  25.028  1.00  0.00     0.109 A 
ATOM     25  N   UNL A   1      36.023  22.016  25.531  1.00  0.00    -0.275 N 
ATOM     26  C   UNL A   1      37.410  22.302  25.251  1.00  0.00     0.173 C 
ENDBRANCH  18  21
ENDBRANCH  16  17
ENDBRANCH   4   7
ENDBRANCH   2   3
ENDBRANCH   1   2
BRANCH   1  27
ATOM     27  C   UNL A   1      31.124  32.344  26.502  1.00  0.00     0.023 C 
BRANCH  27  28
ATOM     28  C   UNL A   1      32.508  32.870  26.876  1.00  0.00     0.116 C 
BRANCH  28  29
ATOM     29  N   UNL A   1      32.486  34.118  27.627  1.00  0.00    -0.352 N 
ATOM     30  C   UNL A   1      33.314  34.568  28.632  1.00  0.00     0.251 C 
ATOM     31  H   UNL A   1      31.766  34.740  27.375  1.00  0.00     0.163 HD
ATOM     32  O   UNL A   1      33.065  35.625  29.204  1.00  0.00    -0.269 OA
BRANCH  30  33
ATOM     33  C   UNL A   1      34.479  33.761  29.055  1.00  0.00     0.039 A 
ATOM     34  C   UNL A   1      35.765  34.233  28.782  1.00  0.00     0.014 A 
ATOM     35  C   UNL A   1      34.308  32.560  29.745  1.00  0.00     0.014 A 
ATOM     36  C   UNL A   1      36.875  33.554  29.293  1.00  0.00     0.010 A 
ATOM     37  C   UNL A   1      35.405  31.944  30.340  1.00  0.00     0.010 A 
ATOM     38  C   UNL A   1      36.703  32.435  30.125  1.00  0.00    -0.014 A 
BRANCH  38  39
ATOM     39  C   UNL A   1      37.860  31.773  30.785  1.00  0.00     0.031 A 
ATOM     40  C   UNL A   1      38.626  30.694  30.067  1.00  0.00     0.074 A 
ATOM     41  C   UNL A   1      38.180  32.091  32.056  1.00  0.00     0.049 A 
ATOM     42  N   UNL A   1      39.616  29.955  30.499  1.00  0.00    -0.248 NA
ATOM     43  C   UNL A   1      38.207  30.386  28.690  1.00  0.00     0.031 C 
ATOM     44  C   UNL A   1      37.487  33.080  32.883  1.00  0.00     0.029 A 
ATOM     45  N   UNL A   1      39.167  31.606  32.879  1.00  0.00    -0.354 N 
ATOM     46  C   UNL A   1      39.927  29.092  29.456  1.00  0.00     0.074 A 
ATOM     47  C   UNL A   1      38.980  29.353  28.395  1.00  0.00     0.031 C 
ATOM     48  C   UNL A   1      38.088  33.152  34.082  1.00  0.00     0.029 A 
ATOM     49  C   UNL A   1      39.177  32.182  34.128  1.00  0.00     0.049 A 
ATOM     50  H   UNL A   1      39.809  30.913  32.601  1.00  0.00     0.167 HD
ATOM     51  C   UNL A   1      40.928  28.184  29.376  1.00  0.00     0.037 A 
ATOM     52  C   UNL A   1      39.967  31.947  35.195  1.00  0.00     0.037 A 
ATOM     53  C   UNL A   1      41.882  27.937  30.425  1.00  0.00     0.049 A 
ATOM     54  C   UNL A   1      41.054  30.912  35.089  1.00  0.00     0.074 A 
ATOM     55  C   UNL A   1      42.966  27.077  30.418  1.00  0.00     0.029 A 
ATOM     56  N   UNL A   1      41.861  28.545  31.671  1.00  0.00    -0.354 N 
ATOM     57  N   UNL A   1      41.384  30.158  34.069  1.00  0.00    -0.248 NA
ATOM     58  C   UNL A   1      41.884  30.696  36.284  1.00  0.00     0.031 C 
ATOM     59  C   UNL A   1      43.565  27.119  31.681  1.00  0.00     0.029 A 
ATOM     60  C   UNL A   1      42.895  28.055  32.452  1.00  0.00     0.049 A 
ATOM     61  H   UNL A   1      41.208  29.223  31.959  1.00  0.00     0.167 HD
ATOM     62  C   UNL A   1      42.476  29.406  34.486  1.00  0.00     0.074 A 
ATOM     63  C   UNL A   1      42.763  29.807  35.847  1.00  0.00     0.031 C 
ATOM     64  C   UNL A   1      43.178  28.470  33.803  1.00  0.00     0.037 A 
BRANCH  51  65
ATOM     65  C   UNL A   1      41.046  27.390  28.105  1.00  0.00     0.057 A 
ATOM     66  C   UNL A   1      41.840  27.821  27.033  1.00  0.00     0.134 A 
ATOM     67  C   UNL A   1      40.391  26.159  27.967  1.00  0.00     0.134 A 
ATOM     68  F   UNL A   1      42.486  28.995  27.094  1.00  0.00    -0.206 F 
ATOM     69  C   UNL A   1      41.953  27.072  25.860  1.00  0.00     0.040 A 
ATOM     70  C   UNL A   1      40.522  25.386  26.813  1.00  0.00     0.040 A 
ATOM     71  F   UNL A   1      39.621  25.682  28.957  1.00  0.00    -0.206 F 
ATOM     72  C   UNL A   1      41.300  25.846  25.751  1.00  0.00     0.006 A 
ENDBRANCH  51  65
BRANCH  52  73
ATOM     73  C   UNL A   1      39.772  32.711  36.456  1.00  0.00     0.057 A 
ATOM     74  C   UNL A   1      40.582  33.810  36.769  1.00  0.00     0.134 A 
ATOM     75  C   UNL A   1      38.795  32.347  37.390  1.00  0.00     0.134 A 
ATOM     76  F   UNL A   1      41.550  34.198  35.925  1.00  0.00    -0.206 F 
ATOM     77  C   UNL A   1      40.447  34.500  37.976  1.00  0.00     0.040 A 
ATOM     78  C   UNL A   1      38.629  33.046  38.586  1.00  0.00     0.040 A 
ATOM     79  F   UNL A   1      37.981  31.310  37.149  1.00  0.00    -0.206 F 
ATOM     80  C   UNL A   1      39.465  34.120  38.887  1.00  0.00     0.006 A 
ENDBRANCH  52  73
BRANCH  64  81
ATOM     81  C   UNL A   1      44.355  27.843  34.496  1.00  0.00     0.057 A 
ATOM     82  C   UNL A   1      45.631  28.420  34.467  1.00  0.00     0.134 A 
ATOM     83  C   UNL A   1      44.194  26.668  35.242  1.00  0.00     0.134 A 
ATOM     84  F   UNL A   1      45.856  29.538  33.761  1.00  0.00    -0.206 F 
ATOM     85  C   UNL A   1      46.709  27.837  35.135  1.00  0.00     0.040 A 
ATOM     86  C   UNL A   1      45.257  26.095  35.942  1.00  0.00     0.040 A 
ATOM     87  F   UNL A   1      42.996  26.069  35.323  1.00  0.00    -0.206 F 
ATOM     88  C   UNL A   1      46.521  26.676  35.884  1.00  0.00     0.006 A 
ENDBRANCH  64  81
ENDBRANCH  38  39
ENDBRANCH  30  33
ENDBRANCH  28  29
ENDBRANCH  27  28
ENDBRANCH   1  27
TORSDOF 13
ENDMDL
