MODEL 1
REMARK VINA RESULT:     -12.4      0.000      0.000
REMARK SMILES Cc1cc(=O)c(Oc2ccc(C(=O)NCCCCNC(=O)c3ccc(-c4c5nc(c(-c6c(F)cccc6F)c6ccc([nH]6)c(-c6c(F)cccc6F)c6nc(c(-c7c(F)cccc7F)c7ccc4[nH]7)C=C6)C=C5)cc3)cc2)c(-c2ccc(S(C)(=O)=O)cc2)o1
REMARK SMILES IDX 15 1 14 2 12 3 13 4 11 6 8 7 9 8 77 9 10 10 76 11 7 12 6 13
REMARK SMILES IDX 1 14 2 15 3 16 89 17 4 18 78 19 5 20 79 21 80 22 88 23 81 24
REMARK SMILES IDX 87 25 82 26 83 27 84 28 85 29 86 30 16 31 17 32 18 33 19 34
REMARK SMILES IDX 20 35 21 37 22 38 23 39 75 40 24 41 74 42 25 43 26 44 27 45
REMARK SMILES IDX 68 46 28 47 73 48 67 49 69 50 29 51 72 52 66 53 65 54 30 56
REMARK SMILES IDX 56 57 39 58 55 59 40 60 43 61 54 62 70 63 41 64 42 65 53 67
REMARK SMILES IDX 71 68 44 69 31 70 32 71 37 72 33 73 34 74 36 75 38 76 35 77
REMARK SMILES IDX 57 78 58 79 63 80 59 81 60 82 62 83 64 84 61 85 45 86 46 87
REMARK SMILES IDX 51 88 47 89 48 90 50 91 52 92 49 93
REMARK H PARENT 14 5 19 36 69 55 43 66
REMARK Flexibility Score: inf
ROOT
ATOM      1  C   UNL A   1      34.073  31.713  28.308  1.00  0.00     0.116 C 
ENDROOT
BRANCH   1   2
ATOM      2  N   UNL A   1      33.075  31.845  27.263  1.00  0.00    -0.352 N 
ATOM      3  C   UNL A   1      32.258  30.898  26.679  1.00  0.00     0.251 C 
ATOM      4  O   UNL A   1      31.362  31.268  25.924  1.00  0.00    -0.269 OA
ATOM      5  H   UNL A   1      32.964  32.758  26.914  1.00  0.00     0.163 HD
BRANCH   3   6
ATOM      6  C   UNL A   1      32.521  29.441  26.831  1.00  0.00     0.040 A 
ATOM      7  C   UNL A   1      32.554  26.689  26.468  1.00  0.00     0.127 A 
ATOM      8  C   UNL A   1      31.525  27.260  27.206  1.00  0.00     0.048 A 
ATOM      9  C   UNL A   1      33.683  27.442  26.152  1.00  0.00     0.048 A 
ATOM     10  C   UNL A   1      31.485  28.649  27.350  1.00  0.00     0.017 A 
ATOM     11  C   UNL A   1      33.683  28.817  26.379  1.00  0.00     0.017 A 
BRANCH   7  12
ATOM     12  O   UNL A   1      32.554  25.380  26.090  1.00  0.00    -0.449 OA
BRANCH  12  13
ATOM     13  C   UNL A   1      32.683  24.958  24.771  1.00  0.00     0.217 A 
ATOM     14  C   UNL A   1      33.287  23.129  20.899  1.00  0.00     0.088 C 
ATOM     15  C   UNL A   1      33.192  23.709  22.273  1.00  0.00     0.105 A 
ATOM     16  C   UNL A   1      33.912  23.265  23.305  1.00  0.00     0.098 A 
ATOM     17  O   UNL A   1      32.305  24.754  22.387  1.00  0.00    -0.457 OA
ATOM     18  C   UNL A   1      33.719  23.884  24.623  1.00  0.00     0.228 A 
ATOM     19  C   UNL A   1      32.076  25.359  23.620  1.00  0.00     0.180 A 
ATOM     20  O   UNL A   1      34.411  23.507  25.565  1.00  0.00    -0.285 OA
BRANCH  19  21
ATOM     21  C   UNL A   1      31.084  26.437  23.444  1.00  0.00     0.021 A 
ATOM     22  C   UNL A   1      31.515  27.716  23.047  1.00  0.00     0.013 A 
ATOM     23  C   UNL A   1      29.724  26.227  23.709  1.00  0.00     0.013 A 
ATOM     24  C   UNL A   1      30.593  28.746  22.838  1.00  0.00     0.021 A 
ATOM     25  C   UNL A   1      28.799  27.260  23.518  1.00  0.00     0.021 A 
ATOM     26  C   UNL A   1      29.237  28.510  23.070  1.00  0.00     0.067 A 
BRANCH  26  27
ATOM     27  S   UNL A   1      28.059  29.794  22.706  1.00  0.00     0.175 S 
ATOM     28  C   UNL A   1      28.787  31.239  23.426  1.00  0.00     0.163 C 
ATOM     29  O   UNL A   1      28.047  29.974  21.270  1.00  0.00    -0.224 OA
ATOM     30  O   UNL A   1      26.840  29.505  23.444  1.00  0.00    -0.224 OA
ENDBRANCH  26  27
ENDBRANCH  19  21
ENDBRANCH  12  13
ENDBRANCH   7  12
ENDBRANCH   3   6
ENDBRANCH   1   2
BRANCH   1  31
ATOM     31  C   UNL A   1      34.396  32.971  29.106  1.00  0.00     0.023 C 
BRANCH  31  32
ATOM     32  C   UNL A   1      33.702  34.256  28.684  1.00  0.00     0.023 C 
BRANCH  32  33
ATOM     33  C   UNL A   1      33.880  35.443  29.616  1.00  0.00     0.116 C 
BRANCH  33  34
ATOM     34  N   UNL A   1      32.741  35.692  30.494  1.00  0.00    -0.352 N 
ATOM     35  C   UNL A   1      32.613  35.480  31.851  1.00  0.00     0.251 C 
ATOM     36  H   UNL A   1      31.946  36.068  30.052  1.00  0.00     0.163 HD
ATOM     37  O   UNL A   1      31.547  35.693  32.418  1.00  0.00    -0.269 OA
BRANCH  35  38
ATOM     38  C   UNL A   1      33.758  34.927  32.606  1.00  0.00     0.039 A 
ATOM     39  C   UNL A   1      34.947  35.648  32.710  1.00  0.00     0.014 A 
ATOM     40  C   UNL A   1      33.676  33.626  33.108  1.00  0.00     0.014 A 
ATOM     41  C   UNL A   1      36.113  34.983  33.066  1.00  0.00     0.010 A 
ATOM     42  C   UNL A   1      34.831  32.998  33.580  1.00  0.00     0.010 A 
ATOM     43  C   UNL A   1      36.075  33.643  33.481  1.00  0.00    -0.014 A 
BRANCH  43  44
ATOM     44  C   UNL A   1      37.346  32.916  33.747  1.00  0.00     0.031 A 
ATOM     45  C   UNL A   1      38.110  33.147  35.028  1.00  0.00     0.074 A 
ATOM     46  C   UNL A   1      37.787  31.999  32.864  1.00  0.00     0.049 A 
ATOM     47  N   UNL A   1      39.256  32.641  35.412  1.00  0.00    -0.248 NA
ATOM     48  C   UNL A   1      37.511  34.073  36.003  1.00  0.00     0.031 C 
ATOM     49  C   UNL A   1      37.122  31.649  31.607  1.00  0.00     0.029 A 
ATOM     50  N   UNL A   1      38.889  31.184  32.894  1.00  0.00    -0.354 N 
ATOM     51  C   UNL A   1      39.526  33.205  36.655  1.00  0.00     0.074 A 
ATOM     52  C   UNL A   1      38.441  34.116  36.946  1.00  0.00     0.031 C 
ATOM     53  C   UNL A   1      37.806  30.664  31.007  1.00  0.00     0.029 A 
ATOM     54  C   UNL A   1      39.000  30.372  31.793  1.00  0.00     0.049 A 
ATOM     55  H   UNL A   1      39.538  31.181  33.635  1.00  0.00     0.167 HD
ATOM     56  C   UNL A   1      40.577  32.977  37.483  1.00  0.00     0.037 A 
ATOM     57  C   UNL A   1      39.971  29.513  31.434  1.00  0.00     0.037 A 
ATOM     58  C   UNL A   1      41.647  32.054  37.198  1.00  0.00     0.049 A 
ATOM     59  C   UNL A   1      41.166  29.343  32.328  1.00  0.00     0.074 A 
ATOM     60  C   UNL A   1      42.747  31.742  37.978  1.00  0.00     0.029 A 
ATOM     61  N   UNL A   1      41.750  31.298  36.041  1.00  0.00    -0.354 N 
ATOM     62  N   UNL A   1      41.410  29.886  33.496  1.00  0.00    -0.248 NA
ATOM     63  C   UNL A   1      42.226  28.448  31.847  1.00  0.00     0.031 C 
ATOM     64  C   UNL A   1      43.547  30.841  37.266  1.00  0.00     0.029 A 
ATOM     65  C   UNL A   1      42.912  30.542  36.071  1.00  0.00     0.049 A 
ATOM     66  H   UNL A   1      41.096  31.297  35.305  1.00  0.00     0.167 HD
ATOM     67  C   UNL A   1      42.637  29.377  33.901  1.00  0.00     0.074 A 
ATOM     68  C   UNL A   1      43.078  28.471  32.861  1.00  0.00     0.031 C 
ATOM     69  C   UNL A   1      43.337  29.639  35.032  1.00  0.00     0.037 A 
BRANCH  56  70
ATOM     70  C   UNL A   1      40.638  33.764  38.763  1.00  0.00     0.057 A 
ATOM     71  C   UNL A   1      41.431  34.917  38.851  1.00  0.00     0.134 A 
ATOM     72  C   UNL A   1      39.940  33.375  39.914  1.00  0.00     0.134 A 
ATOM     73  F   UNL A   1      42.136  35.342  37.792  1.00  0.00    -0.206 F 
ATOM     74  C   UNL A   1      41.526  35.653  40.034  1.00  0.00     0.040 A 
ATOM     75  C   UNL A   1      40.002  34.121  41.094  1.00  0.00     0.040 A 
ATOM     76  F   UNL A   1      39.154  32.289  39.898  1.00  0.00    -0.206 F 
ATOM     77  C   UNL A   1      40.801  35.261  41.157  1.00  0.00     0.006 A 
ENDBRANCH  56  70
BRANCH  57  78
ATOM     78  C   UNL A   1      39.874  28.776  30.148  1.00  0.00     0.057 A 
ATOM     79  C   UNL A   1      40.438  29.287  28.972  1.00  0.00     0.134 A 
ATOM     80  C   UNL A   1      39.238  27.533  30.072  1.00  0.00     0.134 A 
ATOM     81  F   UNL A   1      41.057  30.476  28.977  1.00  0.00    -0.206 F 
ATOM     82  C   UNL A   1      40.365  28.592  27.765  1.00  0.00     0.040 A 
ATOM     83  C   UNL A   1      39.186  26.812  28.878  1.00  0.00     0.040 A 
ATOM     84  F   UNL A   1      38.696  26.983  31.169  1.00  0.00    -0.206 F 
ATOM     85  C   UNL A   1      39.747  27.344  27.719  1.00  0.00     0.006 A 
ENDBRANCH  57  78
BRANCH  69  86
ATOM     86  C   UNL A   1      44.628  28.898  35.224  1.00  0.00     0.057 A 
ATOM     87  C   UNL A   1      45.835  29.440  34.759  1.00  0.00     0.134 A 
ATOM     88  C   UNL A   1      44.682  27.643  35.843  1.00  0.00     0.134 A 
ATOM     89  F   UNL A   1      45.855  30.635  34.150  1.00  0.00    -0.206 F 
ATOM     90  C   UNL A   1      47.045  28.760  34.902  1.00  0.00     0.040 A 
ATOM     91  C   UNL A   1      45.890  26.967  36.019  1.00  0.00     0.040 A 
ATOM     92  F   UNL A   1      43.566  27.075  36.325  1.00  0.00    -0.206 F 
ATOM     93  C   UNL A   1      47.075  27.523  35.541  1.00  0.00     0.006 A 
ENDBRANCH  69  86
ENDBRANCH  43  44
ENDBRANCH  35  38
ENDBRANCH  33  34
ENDBRANCH  32  33
ENDBRANCH  31  32
ENDBRANCH   1  31
TORSDOF 15
ENDMDL
MODEL 2
REMARK VINA RESULT:     -12.2      0.279      5.952
REMARK SMILES Cc1cc(=O)c(Oc2ccc(C(=O)NCCCCNC(=O)c3ccc(-c4c5nc(c(-c6c(F)cccc6F)c6ccc([nH]6)c(-c6c(F)cccc6F)c6nc(c(-c7c(F)cccc7F)c7ccc4[nH]7)C=C6)C=C5)cc3)cc2)c(-c2ccc(S(C)(=O)=O)cc2)o1
REMARK SMILES IDX 15 1 14 2 12 3 13 4 11 6 8 7 9 8 77 9 10 10 76 11 7 12 6 13
REMARK SMILES IDX 1 14 2 15 3 16 89 17 4 18 78 19 5 20 79 21 80 22 88 23 81 24
REMARK SMILES IDX 87 25 82 26 83 27 84 28 85 29 86 30 16 31 17 32 18 33 19 34
REMARK SMILES IDX 20 35 21 37 22 38 23 39 75 40 24 41 74 42 25 43 26 44 27 45
REMARK SMILES IDX 68 46 28 47 73 48 67 49 69 50 29 51 72 52 66 53 65 54 30 56
REMARK SMILES IDX 56 57 39 58 55 59 40 60 43 61 54 62 70 63 41 64 42 65 53 67
REMARK SMILES IDX 71 68 44 69 31 70 32 71 37 72 33 73 34 74 36 75 38 76 35 77
REMARK SMILES IDX 57 78 58 79 63 80 59 81 60 82 62 83 64 84 61 85 45 86 46 87
REMARK SMILES IDX 51 88 47 89 48 90 50 91 52 92 49 93
REMARK H PARENT 14 5 19 36 69 55 43 66
REMARK Flexibility Score: inf
ROOT
ATOM      1  C   UNL A   1      34.130  31.551  28.294  1.00  0.00     0.116 C 
ENDROOT
BRANCH   1   2
ATOM      2  N   UNL A   1      33.127  31.719  27.258  1.00  0.00    -0.352 N 
ATOM      3  C   UNL A   1      32.282  30.798  26.670  1.00  0.00     0.251 C 
ATOM      4  O   UNL A   1      31.390  31.197  25.926  1.00  0.00    -0.269 OA
ATOM      5  H   UNL A   1      33.034  32.638  26.920  1.00  0.00     0.163 HD
BRANCH   3   6
ATOM      6  C   UNL A   1      32.512  29.333  26.805  1.00  0.00     0.040 A 
ATOM      7  C   UNL A   1      32.518  26.589  26.384  1.00  0.00     0.127 A 
ATOM      8  C   UNL A   1      31.460  27.164  27.077  1.00  0.00     0.048 A 
ATOM      9  C   UNL A   1      33.675  27.328  26.146  1.00  0.00     0.048 A 
ATOM     10  C   UNL A   1      31.436  28.550  27.249  1.00  0.00     0.017 A 
ATOM     11  C   UNL A   1      33.687  28.698  26.403  1.00  0.00     0.017 A 
BRANCH   7  12
ATOM     12  O   UNL A   1      32.517  25.289  25.977  1.00  0.00    -0.449 OA
BRANCH  12  13
ATOM     13  C   UNL A   1      32.640  24.895  24.649  1.00  0.00     0.217 A 
ATOM     14  C   UNL A   1      33.221  23.147  20.736  1.00  0.00     0.088 C 
ATOM     15  C   UNL A   1      33.133  23.696  22.123  1.00  0.00     0.105 A 
ATOM     16  C   UNL A   1      33.846  23.219  23.145  1.00  0.00     0.098 A 
ATOM     17  O   UNL A   1      32.261  24.752  22.260  1.00  0.00    -0.457 OA
ATOM     18  C   UNL A   1      33.661  23.810  24.477  1.00  0.00     0.228 A 
ATOM     19  C   UNL A   1      32.040  25.331  23.508  1.00  0.00     0.180 A 
ATOM     20  O   UNL A   1      34.347  23.401  25.410  1.00  0.00    -0.285 OA
BRANCH  19  21
ATOM     21  C   UNL A   1      31.064  26.428  23.356  1.00  0.00     0.021 A 
ATOM     22  C   UNL A   1      31.509  27.701  22.956  1.00  0.00     0.013 A 
ATOM     23  C   UNL A   1      29.706  26.240  23.647  1.00  0.00     0.013 A 
ATOM     24  C   UNL A   1      30.602  28.748  22.769  1.00  0.00     0.021 A 
ATOM     25  C   UNL A   1      28.796  27.290  23.478  1.00  0.00     0.021 A 
ATOM     26  C   UNL A   1      29.247  28.534  23.027  1.00  0.00     0.067 A 
BRANCH  26  27
ATOM     27  S   UNL A   1      28.085  29.841  22.693  1.00  0.00     0.175 S 
ATOM     28  C   UNL A   1      28.847  31.267  23.415  1.00  0.00     0.163 C 
ATOM     29  O   UNL A   1      28.055  30.034  21.258  1.00  0.00    -0.224 OA
ATOM     30  O   UNL A   1      26.872  29.565  23.445  1.00  0.00    -0.224 OA
ENDBRANCH  26  27
ENDBRANCH  19  21
ENDBRANCH  12  13
ENDBRANCH   7  12
ENDBRANCH   3   6
ENDBRANCH   1   2
BRANCH   1  31
ATOM     31  C   UNL A   1      34.510  32.799  29.081  1.00  0.00     0.023 C 
BRANCH  31  32
ATOM     32  C   UNL A   1      33.907  34.118  28.626  1.00  0.00     0.023 C 
BRANCH  32  33
ATOM     33  C   UNL A   1      34.039  35.279  29.598  1.00  0.00     0.116 C 
BRANCH  33  34
ATOM     34  N   UNL A   1      32.871  35.486  30.448  1.00  0.00    -0.352 N 
ATOM     35  C   UNL A   1      32.728  35.298  31.806  1.00  0.00     0.251 C 
ATOM     36  H   UNL A   1      32.066  35.808  29.982  1.00  0.00     0.163 HD
ATOM     37  O   UNL A   1      31.640  35.466  32.348  1.00  0.00    -0.269 OA
BRANCH  35  38
ATOM     38  C   UNL A   1      33.885  34.826  32.596  1.00  0.00     0.039 A 
ATOM     39  C   UNL A   1      35.071  35.559  32.616  1.00  0.00     0.014 A 
ATOM     40  C   UNL A   1      33.818  33.578  33.221  1.00  0.00     0.014 A 
ATOM     41  C   UNL A   1      36.245  34.937  33.019  1.00  0.00     0.010 A 
ATOM     42  C   UNL A   1      34.983  33.003  33.735  1.00  0.00     0.010 A 
ATOM     43  C   UNL A   1      36.221  33.642  33.560  1.00  0.00    -0.014 A 
BRANCH  43  44
ATOM     44  C   UNL A   1      37.500  32.950  33.876  1.00  0.00     0.031 A 
ATOM     45  C   UNL A   1      38.090  31.948  32.915  1.00  0.00     0.074 A 
ATOM     46  C   UNL A   1      38.166  33.265  35.003  1.00  0.00     0.049 A 
ATOM     47  N   UNL A   1      39.168  31.214  33.040  1.00  0.00    -0.248 NA
ATOM     48  C   UNL A   1      37.372  31.738  31.647  1.00  0.00     0.031 C 
ATOM     49  C   UNL A   1      37.728  34.246  35.999  1.00  0.00     0.029 A 
ATOM     50  N   UNL A   1      39.361  32.805  35.495  1.00  0.00    -0.354 N 
ATOM     51  C   UNL A   1      39.242  30.441  31.886  1.00  0.00     0.074 A 
ATOM     52  C   UNL A   1      38.083  30.770  31.086  1.00  0.00     0.031 C 
ATOM     53  C   UNL A   1      38.659  34.344  36.959  1.00  0.00     0.029 A 
ATOM     54  C   UNL A   1      39.716  33.375  36.693  1.00  0.00     0.049 A 
ATOM     55  H   UNL A   1      39.911  32.131  35.034  1.00  0.00     0.167 HD
ATOM     56  C   UNL A   1      40.194  29.545  31.521  1.00  0.00     0.037 A 
ATOM     57  C   UNL A   1      40.757  33.123  37.507  1.00  0.00     0.037 A 
ATOM     58  C   UNL A   1      41.357  29.232  32.311  1.00  0.00     0.049 A 
ATOM     59  C   UNL A   1      41.750  32.065  37.120  1.00  0.00     0.074 A 
ATOM     60  C   UNL A   1      42.386  28.352  32.022  1.00  0.00     0.029 A 
ATOM     61  N   UNL A   1      41.645  29.789  33.548  1.00  0.00    -0.354 N 
ATOM     62  N   UNL A   1      41.804  31.339  36.030  1.00  0.00    -0.248 NA
ATOM     63  C   UNL A   1      42.822  31.784  38.084  1.00  0.00     0.031 C 
ATOM     64  C   UNL A   1      43.264  28.332  33.111  1.00  0.00     0.029 A 
ATOM     65  C   UNL A   1      42.819  29.248  34.050  1.00  0.00     0.049 A 
ATOM     66  H   UNL A   1      41.097  30.468  34.004  1.00  0.00     0.167 HD
ATOM     67  C   UNL A   1      42.929  30.537  36.164  1.00  0.00     0.074 A 
ATOM     68  C   UNL A   1      43.536  30.877  37.434  1.00  0.00     0.031 C 
ATOM     69  C   UNL A   1      43.416  29.600  35.313  1.00  0.00     0.037 A 
BRANCH  56  70
ATOM     70  C   UNL A   1      39.999  28.813  30.221  1.00  0.00     0.057 A 
ATOM     71  C   UNL A   1      39.279  27.610  30.185  1.00  0.00     0.134 A 
ATOM     72  C   UNL A   1      40.539  29.276  29.014  1.00  0.00     0.134 A 
ATOM     73  F   UNL A   1      38.743  27.102  31.304  1.00  0.00    -0.206 F 
ATOM     74  C   UNL A   1      39.104  26.897  28.997  1.00  0.00     0.040 A 
ATOM     75  C   UNL A   1      40.344  28.587  27.815  1.00  0.00     0.040 A 
ATOM     76  F   UNL A   1      41.230  30.424  28.974  1.00  0.00    -0.206 F 
ATOM     77  C   UNL A   1      39.628  27.391  27.804  1.00  0.00     0.006 A 
ENDBRANCH  56  70
BRANCH  57  78
ATOM     78  C   UNL A   1      40.892  33.857  38.790  1.00  0.00     0.057 A 
ATOM     79  C   UNL A   1      40.178  33.468  39.931  1.00  0.00     0.134 A 
ATOM     80  C   UNL A   1      41.756  34.950  38.912  1.00  0.00     0.134 A 
ATOM     81  F   UNL A   1      39.329  32.431  39.880  1.00  0.00    -0.206 F 
ATOM     82  C   UNL A   1      40.313  34.143  41.144  1.00  0.00     0.040 A 
ATOM     83  C   UNL A   1      41.926  35.615  40.128  1.00  0.00     0.040 A 
ATOM     84  F   UNL A   1      42.481  35.359  37.860  1.00  0.00    -0.206 F 
ATOM     85  C   UNL A   1      41.199  35.214  41.247  1.00  0.00     0.006 A 
ENDBRANCH  57  78
BRANCH  69  86
ATOM     86  C   UNL A   1      44.691  28.914  35.708  1.00  0.00     0.057 A 
ATOM     87  C   UNL A   1      45.931  29.439  35.318  1.00  0.00     0.134 A 
ATOM     88  C   UNL A   1      44.698  27.726  36.451  1.00  0.00     0.134 A 
ATOM     89  F   UNL A   1      45.996  30.570  34.600  1.00  0.00    -0.206 F 
ATOM     90  C   UNL A   1      47.129  28.807  35.652  1.00  0.00     0.040 A 
ATOM     91  C   UNL A   1      45.892  27.101  36.815  1.00  0.00     0.040 A 
ATOM     92  F   UNL A   1      43.547  27.178  36.869  1.00  0.00    -0.206 F 
ATOM     93  C   UNL A   1      47.112  27.638  36.409  1.00  0.00     0.006 A 
ENDBRANCH  69  86
ENDBRANCH  43  44
ENDBRANCH  35  38
ENDBRANCH  33  34
ENDBRANCH  32  33
ENDBRANCH  31  32
ENDBRANCH   1  31
TORSDOF 15
ENDMDL
MODEL 3
REMARK VINA RESULT:     -12.2      3.106      5.366
REMARK SMILES Cc1cc(=O)c(Oc2ccc(C(=O)NCCCCNC(=O)c3ccc(-c4c5nc(c(-c6c(F)cccc6F)c6ccc([nH]6)c(-c6c(F)cccc6F)c6nc(c(-c7c(F)cccc7F)c7ccc4[nH]7)C=C6)C=C5)cc3)cc2)c(-c2ccc(S(C)(=O)=O)cc2)o1
REMARK SMILES IDX 15 1 14 2 12 3 13 4 11 6 8 7 9 8 77 9 10 10 76 11 7 12 6 13
REMARK SMILES IDX 1 14 2 15 3 16 89 17 4 18 78 19 5 20 79 21 80 22 88 23 81 24
REMARK SMILES IDX 87 25 82 26 83 27 84 28 85 29 86 30 16 31 17 32 18 33 19 34
REMARK SMILES IDX 20 35 21 37 22 38 23 39 75 40 24 41 74 42 25 43 26 44 27 45
REMARK SMILES IDX 68 46 28 47 73 48 67 49 69 50 29 51 72 52 66 53 65 54 30 56
REMARK SMILES IDX 56 57 39 58 55 59 40 60 43 61 54 62 70 63 41 64 42 65 53 67
REMARK SMILES IDX 71 68 44 69 31 70 32 71 37 72 33 73 34 74 36 75 38 76 35 77
REMARK SMILES IDX 57 78 58 79 63 80 59 81 60 82 62 83 64 84 61 85 45 86 46 87
REMARK SMILES IDX 51 88 47 89 48 90 50 91 52 92 49 93
REMARK H PARENT 14 5 19 36 69 55 43 66
REMARK Flexibility Score: inf
ROOT
ATOM      1  C   UNL A   1      33.263  28.591  26.554  1.00  0.00     0.116 C 
ENDROOT
BRANCH   1   2
ATOM      2  N   UNL A   1      33.753  29.069  25.275  1.00  0.00    -0.352 N 
ATOM      3  C   UNL A   1      33.844  28.430  24.054  1.00  0.00     0.251 C 
ATOM      4  O   UNL A   1      34.138  29.087  23.058  1.00  0.00    -0.269 OA
ATOM      5  H   UNL A   1      34.073  30.000  25.278  1.00  0.00     0.163 HD
BRANCH   3   6
ATOM      6  C   UNL A   1      33.733  26.950  23.939  1.00  0.00     0.040 A 
ATOM      7  C   UNL A   1      34.220  24.282  23.349  1.00  0.00     0.127 A 
ATOM      8  C   UNL A   1      33.570  25.073  22.411  1.00  0.00     0.048 A 
ATOM      9  C   UNL A   1      34.378  24.741  24.655  1.00  0.00     0.048 A 
ATOM     10  C   UNL A   1      33.366  26.426  22.691  1.00  0.00     0.017 A 
ATOM     11  C   UNL A   1      34.088  26.070  24.961  1.00  0.00     0.017 A 
BRANCH   7  12
ATOM     12  O   UNL A   1      34.658  23.021  23.078  1.00  0.00    -0.449 OA
BRANCH  12  13
ATOM     13  C   UNL A   1      34.273  21.897  23.801  1.00  0.00     0.217 A 
ATOM     14  C   UNL A   1      32.631  18.349  25.652  1.00  0.00     0.088 C 
ATOM     15  C   UNL A   1      33.076  19.617  24.996  1.00  0.00     0.105 A 
ATOM     16  C   UNL A   1      32.268  20.382  24.260  1.00  0.00     0.098 A 
ATOM     17  O   UNL A   1      34.393  19.941  25.226  1.00  0.00    -0.457 OA
ATOM     18  C   UNL A   1      32.814  21.592  23.633  1.00  0.00     0.228 A 
ATOM     19  C   UNL A   1      34.958  21.069  24.637  1.00  0.00     0.180 A 
ATOM     20  O   UNL A   1      32.062  22.321  22.990  1.00  0.00    -0.285 OA
BRANCH  19  21
ATOM     21  C   UNL A   1      36.371  21.166  25.054  1.00  0.00     0.021 A 
ATOM     22  C   UNL A   1      36.847  22.366  25.613  1.00  0.00     0.013 A 
ATOM     23  C   UNL A   1      37.262  20.102  24.862  1.00  0.00     0.013 A 
ATOM     24  C   UNL A   1      38.171  22.473  26.050  1.00  0.00     0.021 A 
ATOM     25  C   UNL A   1      38.593  20.210  25.281  1.00  0.00     0.021 A 
ATOM     26  C   UNL A   1      39.036  21.390  25.886  1.00  0.00     0.067 A 
BRANCH  26  27
ATOM     27  S   UNL A   1      40.691  21.497  26.533  1.00  0.00     0.175 S 
ATOM     28  C   UNL A   1      41.350  19.877  26.256  1.00  0.00     0.163 C 
ATOM     29  O   UNL A   1      41.423  22.422  25.694  1.00  0.00    -0.224 OA
ATOM     30  O   UNL A   1      40.598  21.691  27.971  1.00  0.00    -0.224 OA
ENDBRANCH  26  27
ENDBRANCH  19  21
ENDBRANCH  12  13
ENDBRANCH   7  12
ENDBRANCH   3   6
ENDBRANCH   1   2
BRANCH   1  31
ATOM     31  C   UNL A   1      32.182  29.429  27.226  1.00  0.00     0.023 C 
BRANCH  31  32
ATOM     32  C   UNL A   1      32.065  30.883  26.798  1.00  0.00     0.023 C 
BRANCH  32  33
ATOM     33  C   UNL A   1      33.134  31.821  27.336  1.00  0.00     0.116 C 
BRANCH  33  34
ATOM     34  N   UNL A   1      32.681  33.194  27.536  1.00  0.00    -0.352 N 
ATOM     35  C   UNL A   1      33.184  34.173  28.366  1.00  0.00     0.251 C 
ATOM     36  H   UNL A   1      31.901  33.460  26.999  1.00  0.00     0.163 HD
ATOM     37  O   UNL A   1      32.629  35.264  28.452  1.00  0.00    -0.269 OA
BRANCH  35  38
ATOM     38  C   UNL A   1      34.362  33.872  29.207  1.00  0.00     0.039 A 
ATOM     39  C   UNL A   1      35.642  34.220  28.777  1.00  0.00     0.014 A 
ATOM     40  C   UNL A   1      34.190  33.129  30.377  1.00  0.00     0.014 A 
ATOM     41  C   UNL A   1      36.742  33.604  29.359  1.00  0.00     0.010 A 
ATOM     42  C   UNL A   1      35.309  32.609  31.032  1.00  0.00     0.010 A 
ATOM     43  C   UNL A   1      36.589  32.771  30.477  1.00  0.00    -0.014 A 
BRANCH  43  44
ATOM     44  C   UNL A   1      37.763  32.031  31.013  1.00  0.00     0.031 A 
ATOM     45  C   UNL A   1      38.314  32.350  32.381  1.00  0.00     0.074 A 
ATOM     46  C   UNL A   1      38.302  31.026  30.295  1.00  0.00     0.049 A 
ATOM     47  N   UNL A   1      39.356  31.844  32.995  1.00  0.00    -0.248 NA
ATOM     48  C   UNL A   1      37.605  33.377  33.162  1.00  0.00     0.031 C 
ATOM     49  C   UNL A   1      37.841  30.587  28.977  1.00  0.00     0.029 A 
ATOM     50  N   UNL A   1      39.346  30.183  30.579  1.00  0.00    -0.354 N 
ATOM     51  C   UNL A   1      39.441  32.506  34.215  1.00  0.00     0.074 A 
ATOM     52  C   UNL A   1      38.366  33.474  34.243  1.00  0.00     0.031 C 
ATOM     53  C   UNL A   1      38.569  29.532  28.585  1.00  0.00     0.029 A 
ATOM     54  C   UNL A   1      39.601  29.273  29.582  1.00  0.00     0.049 A 
ATOM     55  H   UNL A   1      39.862  30.225  31.416  1.00  0.00     0.167 HD
ATOM     56  C   UNL A   1      40.328  32.320  35.225  1.00  0.00     0.037 A 
ATOM     57  C   UNL A   1      40.578  28.356  29.465  1.00  0.00     0.037 A 
ATOM     58  C   UNL A   1      41.387  31.343  35.202  1.00  0.00     0.049 A 
ATOM     59  C   UNL A   1      41.598  28.228  30.559  1.00  0.00     0.074 A 
ATOM     60  C   UNL A   1      42.327  31.066  36.180  1.00  0.00     0.029 A 
ATOM     61  N   UNL A   1      41.647  30.484  34.145  1.00  0.00    -0.354 N 
ATOM     62  N   UNL A   1      41.670  28.864  31.703  1.00  0.00    -0.248 NA
ATOM     63  C   UNL A   1      42.681  27.261  30.340  1.00  0.00     0.031 C 
ATOM     64  C   UNL A   1      43.191  30.081  35.690  1.00  0.00     0.029 A 
ATOM     65  C   UNL A   1      42.751  29.698  34.434  1.00  0.00     0.049 A 
ATOM     66  H   UNL A   1      41.125  30.439  33.311  1.00  0.00     0.167 HD
ATOM     67  C   UNL A   1      42.787  28.355  32.351  1.00  0.00     0.074 A 
ATOM     68  C   UNL A   1      43.353  27.347  31.478  1.00  0.00     0.031 C 
ATOM     69  C   UNL A   1      43.301  28.693  33.559  1.00  0.00     0.037 A 
BRANCH  56  70
ATOM     70  C   UNL A   1      40.211  33.215  36.428  1.00  0.00     0.057 A 
ATOM     71  C   UNL A   1      40.994  34.374  36.529  1.00  0.00     0.134 A 
ATOM     72  C   UNL A   1      39.352  32.924  37.496  1.00  0.00     0.134 A 
ATOM     73  F   UNL A   1      41.847  34.709  35.550  1.00  0.00    -0.206 F 
ATOM     74  C   UNL A   1      40.924  35.209  37.646  1.00  0.00     0.040 A 
ATOM     75  C   UNL A   1      39.252  33.769  38.604  1.00  0.00     0.040 A 
ATOM     76  F   UNL A   1      38.568  31.837  37.461  1.00  0.00    -0.206 F 
ATOM     77  C   UNL A   1      40.043  34.913  38.683  1.00  0.00     0.006 A 
ENDBRANCH  56  70
BRANCH  57  78
ATOM     78  C   UNL A   1      40.662  27.512  28.246  1.00  0.00     0.057 A 
ATOM     79  C   UNL A   1      39.991  26.285  28.162  1.00  0.00     0.134 A 
ATOM     80  C   UNL A   1      41.395  27.924  27.128  1.00  0.00     0.134 A 
ATOM     81  F   UNL A   1      39.275  25.830  29.201  1.00  0.00    -0.206 F 
ATOM     82  C   UNL A   1      40.052  25.496  27.014  1.00  0.00     0.040 A 
ATOM     83  C   UNL A   1      41.439  27.160  25.961  1.00  0.00     0.040 A 
ATOM     84  F   UNL A   1      42.043  29.098  27.141  1.00  0.00    -0.206 F 
ATOM     85  C   UNL A   1      40.769  25.939  25.904  1.00  0.00     0.006 A 
ENDBRANCH  57  78
BRANCH  69  86
ATOM     86  C   UNL A   1      44.507  27.932  34.026  1.00  0.00     0.057 A 
ATOM     87  C   UNL A   1      45.797  28.406  33.751  1.00  0.00     0.134 A 
ATOM     88  C   UNL A   1      44.399  26.723  34.726  1.00  0.00     0.134 A 
ATOM     89  F   UNL A   1      45.973  29.553  33.079  1.00  0.00    -0.206 F 
ATOM     90  C   UNL A   1      46.934  27.703  34.153  1.00  0.00     0.040 A 
ATOM     91  C   UNL A   1      45.530  26.027  35.159  1.00  0.00     0.040 A 
ATOM     92  F   UNL A   1      43.194  26.222  35.035  1.00  0.00    -0.206 F 
ATOM     93  C   UNL A   1      46.802  26.515  34.866  1.00  0.00     0.006 A 
ENDBRANCH  69  86
ENDBRANCH  43  44
ENDBRANCH  35  38
ENDBRANCH  33  34
ENDBRANCH  32  33
ENDBRANCH  31  32
ENDBRANCH   1  31
TORSDOF 15
ENDMDL
