MODEL 1
REMARK VINA RESULT:     -12.5      0.000      0.000
REMARK SMILES O=C(CCS(=O)(=O)N1CCN(C(=O)[C@@H]2CCCO2)CC1)NCCCCNC(=O)c1ccc(-c2c3nc(c(-c4c(F)cccc4F)c4ccc([nH]4)c(-c4c(F)cccc4F)c4nc(c(-c5c(F)cccc5F)c5ccc2[nH]5)C=C4)C=C3)cc1
REMARK SMILES IDX 22 1 21 2 1 3 2 4 3 6 4 7 5 8 6 9 7 10 8 11 9 12 20 13 10 14
REMARK SMILES IDX 19 15 11 16 12 17 13 18 14 19 15 20 18 21 16 22 17 23 23 24
REMARK SMILES IDX 24 25 25 26 26 27 27 28 28 30 29 31 30 32 82 33 31 34 81 35
REMARK SMILES IDX 32 36 33 37 34 38 75 39 35 40 80 41 74 42 76 43 36 44 79 45
REMARK SMILES IDX 73 46 72 47 37 49 63 50 46 51 62 52 47 53 50 54 61 55 77 56
REMARK SMILES IDX 48 57 49 58 60 60 78 61 51 62 38 63 39 64 44 65 40 66 41 67
REMARK SMILES IDX 43 68 45 69 42 70 64 71 65 72 70 73 66 74 67 75 69 76 71 77
REMARK SMILES IDX 68 78 52 79 53 80 58 81 54 82 55 83 57 84 59 85 56 86
REMARK H PARENT 21 5 26 29 76 48 50 59
REMARK Flexibility Score: inf
ROOT
ATOM      1  C   UNL A   1      36.760  22.279  24.587  1.00  0.00     0.116 C 
ENDROOT
BRANCH   1   2
ATOM      2  N   UNL A   1      35.474  23.722  24.162  1.00  0.00    -0.356 N 
ATOM      3  O   UNL A   1      33.973  24.333  22.417  1.00  0.00    -0.275 OA
ATOM      4  C   UNL A   1      34.500  24.506  23.505  1.00  0.00     0.221 C 
ATOM      5  H   UNL A   1      35.603  24.280  24.962  1.00  0.00     0.163 HD
BRANCH   4   6
ATOM      6  C   UNL A   1      34.156  25.764  24.336  1.00  0.00     0.117 C 
BRANCH   6   7
ATOM      7  C   UNL A   1      33.418  25.506  25.647  1.00  0.00     0.164 C 
BRANCH   7   8
ATOM      8  S   UNL A   1      31.654  25.933  25.695  1.00  0.00     0.214 S 
ATOM      9  O   UNL A   1      31.316  26.406  27.014  1.00  0.00    -0.212 OA
ATOM     10  O   UNL A   1      31.358  26.692  24.499  1.00  0.00    -0.212 OA
BRANCH   8  11
ATOM     11  N   UNL A   1      30.837  24.361  25.498  1.00  0.00    -0.198 NA
ATOM     12  C   UNL A   1      30.786  23.862  23.600  1.00  0.00     0.123 C 
ATOM     13  C   UNL A   1      31.518  23.044  26.798  1.00  0.00     0.123 C 
ATOM     14  C   UNL A   1      31.435  22.086  23.082  1.00  0.00     0.136 C 
ATOM     15  C   UNL A   1      32.269  21.385  26.124  1.00  0.00     0.136 C 
ATOM     16  N   UNL A   1      32.060  20.912  24.358  1.00  0.00    -0.338 N 
ATOM     17  C   UNL A   1      32.524  19.693  23.869  1.00  0.00     0.251 C 
ATOM     18  O   UNL A   1      32.306  19.371  22.694  1.00  0.00    -0.272 OA
BRANCH  17  19
ATOM     19  C   UNL A   1      33.196  18.677  24.839  1.00  0.00     0.207 C 
ATOM     20  C   UNL A   1      34.282  17.862  24.150  1.00  0.00     0.044 C 
ATOM     21  O   UNL A   1      32.357  17.756  25.531  1.00  0.00    -0.368 OA
ATOM     22  C   UNL A   1      34.274  16.519  24.833  1.00  0.00     0.032 C 
ATOM     23  C   UNL A   1      32.999  16.487  25.638  1.00  0.00     0.161 C 
ENDBRANCH  17  19
ENDBRANCH   8  11
ENDBRANCH   7   8
ENDBRANCH   6   7
ENDBRANCH   4   6
ENDBRANCH   1   2
BRANCH   1  24
ATOM     24  C   UNL A   1      36.615  20.729  25.014  1.00  0.00     0.023 C 
BRANCH  24  25
ATOM     25  C   UNL A   1      37.822  19.789  24.901  1.00  0.00     0.023 C 
BRANCH  25  26
ATOM     26  C   UNL A   1      39.025  20.203  25.732  1.00  0.00     0.116 C 
BRANCH  26  27
ATOM     27  N   UNL A   1      40.073  19.202  25.751  1.00  0.00    -0.352 N 
ATOM     28  C   UNL A   1      41.393  19.394  26.095  1.00  0.00     0.251 C 
ATOM     29  H   UNL A   1      39.814  18.288  25.492  1.00  0.00     0.163 HD
ATOM     30  O   UNL A   1      42.222  18.504  25.942  1.00  0.00    -0.269 OA
BRANCH  28  31
ATOM     31  C   UNL A   1      41.803  20.719  26.611  1.00  0.00     0.039 A 
ATOM     32  C   UNL A   1      42.215  21.701  25.707  1.00  0.00     0.014 A 
ATOM     33  C   UNL A   1      41.717  21.007  27.977  1.00  0.00     0.014 A 
ATOM     34  C   UNL A   1      42.493  22.989  26.170  1.00  0.00     0.010 A 
ATOM     35  C   UNL A   1      41.914  22.308  28.424  1.00  0.00     0.010 A 
ATOM     36  C   UNL A   1      42.321  23.308  27.528  1.00  0.00    -0.014 A 
BRANCH  36  37
ATOM     37  C   UNL A   1      42.614  24.670  28.037  1.00  0.00     0.031 A 
ATOM     38  C   UNL A   1      44.028  25.043  28.389  1.00  0.00     0.074 A 
ATOM     39  C   UNL A   1      41.614  25.552  28.227  1.00  0.00     0.049 A 
ATOM     40  N   UNL A   1      44.491  26.166  28.877  1.00  0.00    -0.248 NA
ATOM     41  C   UNL A   1      45.054  24.006  28.193  1.00  0.00     0.031 C 
ATOM     42  C   UNL A   1      40.195  25.292  27.979  1.00  0.00     0.029 A 
ATOM     43  N   UNL A   1      41.641  26.847  28.678  1.00  0.00    -0.354 N 
ATOM     44  C   UNL A   1      45.853  25.964  29.058  1.00  0.00     0.074 A 
ATOM     45  C   UNL A   1      46.133  24.595  28.687  1.00  0.00     0.031 C 
ATOM     46  C   UNL A   1      39.490  26.402  28.259  1.00  0.00     0.029 A 
ATOM     47  C   UNL A   1      40.404  27.441  28.726  1.00  0.00     0.049 A 
ATOM     48  H   UNL A   1      42.470  27.307  28.945  1.00  0.00     0.167 HD
ATOM     49  C   UNL A   1      46.794  26.846  29.469  1.00  0.00     0.037 A 
ATOM     50  C   UNL A   1      40.050  28.686  29.097  1.00  0.00     0.037 A 
ATOM     51  C   UNL A   1      46.522  28.217  29.806  1.00  0.00     0.049 A 
ATOM     52  C   UNL A   1      41.115  29.657  29.525  1.00  0.00     0.074 A 
ATOM     53  C   UNL A   1      47.412  29.208  30.175  1.00  0.00     0.029 A 
ATOM     54  N   UNL A   1      45.259  28.789  29.808  1.00  0.00    -0.354 N 
ATOM     55  N   UNL A   1      42.409  29.473  29.623  1.00  0.00    -0.248 NA
ATOM     56  C   UNL A   1      40.672  31.013  29.882  1.00  0.00     0.031 C 
ATOM     57  C   UNL A   1      46.685  30.376  30.429  1.00  0.00     0.029 A 
ATOM     58  C   UNL A   1      45.345  30.119  30.183  1.00  0.00     0.049 A 
ATOM     59  H   UNL A   1      44.425  28.320  29.577  1.00  0.00     0.167 HD
ATOM     60  C   UNL A   1      42.938  30.692  30.029  1.00  0.00     0.074 A 
ATOM     61  C   UNL A   1      41.824  31.612  30.145  1.00  0.00     0.031 C 
ATOM     62  C   UNL A   1      44.227  31.020  30.283  1.00  0.00     0.037 A 
BRANCH  49  63
ATOM     63  C   UNL A   1      48.206  26.351  29.557  1.00  0.00     0.057 A 
ATOM     64  C   UNL A   1      48.710  25.774  30.731  1.00  0.00     0.134 A 
ATOM     65  C   UNL A   1      49.067  26.439  28.458  1.00  0.00     0.134 A 
ATOM     66  F   UNL A   1      47.940  25.677  31.825  1.00  0.00    -0.206 F 
ATOM     67  C   UNL A   1      50.030  25.328  30.817  1.00  0.00     0.040 A 
ATOM     68  C   UNL A   1      50.382  25.973  28.524  1.00  0.00     0.040 A 
ATOM     69  F   UNL A   1      48.647  26.978  27.304  1.00  0.00    -0.206 F 
ATOM     70  C   UNL A   1      50.868  25.422  29.707  1.00  0.00     0.006 A 
ENDBRANCH  49  63
BRANCH  50  71
ATOM     71  C   UNL A   1      38.626  29.100  29.045  1.00  0.00     0.057 A 
ATOM     72  C   UNL A   1      38.066  29.609  27.867  1.00  0.00     0.134 A 
ATOM     73  C   UNL A   1      37.794  29.003  30.166  1.00  0.00     0.134 A 
ATOM     74  F   UNL A   1      38.818  29.741  26.765  1.00  0.00    -0.206 F 
ATOM     75  C   UNL A   1      36.734  30.026  27.811  1.00  0.00     0.040 A 
ATOM     76  C   UNL A   1      36.455  29.398  30.119  1.00  0.00     0.040 A 
ATOM     77  F   UNL A   1      38.269  28.516  31.322  1.00  0.00    -0.206 F 
ATOM     78  C   UNL A   1      35.924  29.916  28.939  1.00  0.00     0.006 A 
ENDBRANCH  50  71
BRANCH  62  79
ATOM     79  C   UNL A   1      44.507  32.436  30.686  1.00  0.00     0.057 A 
ATOM     80  C   UNL A   1      44.680  33.450  29.738  1.00  0.00     0.134 A 
ATOM     81  C   UNL A   1      44.557  32.794  32.040  1.00  0.00     0.134 A 
ATOM     82  F   UNL A   1      44.656  33.166  28.426  1.00  0.00    -0.206 F 
ATOM     83  C   UNL A   1      44.911  34.772  30.120  1.00  0.00     0.040 A 
ATOM     84  C   UNL A   1      44.764  34.116  32.434  1.00  0.00     0.040 A 
ATOM     85  F   UNL A   1      44.389  31.870  32.996  1.00  0.00    -0.206 F 
ATOM     86  C   UNL A   1      44.946  35.109  31.474  1.00  0.00     0.006 A 
ENDBRANCH  62  79
ENDBRANCH  36  37
ENDBRANCH  28  31
ENDBRANCH  26  27
ENDBRANCH  25  26
ENDBRANCH  24  25
ENDBRANCH   1  24
TORSDOF 15
ENDMDL
MODEL 2
REMARK VINA RESULT:     -12.2      4.789      9.683
REMARK SMILES O=C(CCS(=O)(=O)N1CCN(C(=O)[C@@H]2CCCO2)CC1)NCCCCNC(=O)c1ccc(-c2c3nc(c(-c4c(F)cccc4F)c4ccc([nH]4)c(-c4c(F)cccc4F)c4nc(c(-c5c(F)cccc5F)c5ccc2[nH]5)C=C4)C=C3)cc1
REMARK SMILES IDX 22 1 21 2 1 3 2 4 3 6 4 7 5 8 6 9 7 10 8 11 9 12 20 13 10 14
REMARK SMILES IDX 19 15 11 16 12 17 13 18 14 19 15 20 18 21 16 22 17 23 23 24
REMARK SMILES IDX 24 25 25 26 26 27 27 28 28 30 29 31 30 32 82 33 31 34 81 35
REMARK SMILES IDX 32 36 33 37 34 38 75 39 35 40 80 41 74 42 76 43 36 44 79 45
REMARK SMILES IDX 73 46 72 47 37 49 63 50 46 51 62 52 47 53 50 54 61 55 77 56
REMARK SMILES IDX 48 57 49 58 60 60 78 61 51 62 38 63 39 64 44 65 40 66 41 67
REMARK SMILES IDX 43 68 45 69 42 70 64 71 65 72 70 73 66 74 67 75 69 76 71 77
REMARK SMILES IDX 68 78 52 79 53 80 58 81 54 82 55 83 57 84 59 85 56 86
REMARK H PARENT 21 5 26 29 76 48 50 59
REMARK Flexibility Score: inf
ROOT
ATOM      1  C   UNL A   1      32.013  29.401  27.033  1.00  0.00     0.116 C 
ENDROOT
BRANCH   1   2
ATOM      2  N   UNL A   1      32.279  27.474  26.665  1.00  0.00    -0.356 N 
ATOM      3  O   UNL A   1      31.058  25.434  26.803  1.00  0.00    -0.275 OA
ATOM      4  C   UNL A   1      32.055  26.087  26.534  1.00  0.00     0.221 C 
ATOM      5  H   UNL A   1      33.217  27.505  26.368  1.00  0.00     0.163 HD
BRANCH   4   6
ATOM      6  C   UNL A   1      33.327  25.372  26.018  1.00  0.00     0.117 C 
BRANCH   6   7
ATOM      7  C   UNL A   1      33.125  23.938  25.534  1.00  0.00     0.164 C 
BRANCH   7   8
ATOM      8  S   UNL A   1      33.804  23.519  23.903  1.00  0.00     0.214 S 
ATOM      9  O   UNL A   1      35.002  24.287  23.675  1.00  0.00    -0.212 OA
ATOM     10  O   UNL A   1      33.770  22.077  23.775  1.00  0.00    -0.212 OA
BRANCH   8  11
ATOM     11  N   UNL A   1      32.580  24.144  22.767  1.00  0.00    -0.198 NA
ATOM     12  C   UNL A   1      30.781  23.905  23.516  1.00  0.00     0.123 C 
ATOM     13  C   UNL A   1      33.088  25.925  22.093  1.00  0.00     0.123 C 
ATOM     14  C   UNL A   1      29.581  25.454  23.580  1.00  0.00     0.136 C 
ATOM     15  C   UNL A   1      31.854  27.400  22.361  1.00  0.00     0.136 C 
ATOM     16  N   UNL A   1      30.133  27.089  22.931  1.00  0.00    -0.338 N 
ATOM     17  C   UNL A   1      29.208  28.123  23.059  1.00  0.00     0.251 C 
ATOM     18  O   UNL A   1      28.038  27.874  23.376  1.00  0.00    -0.272 OA
BRANCH  17  19
ATOM     19  C   UNL A   1      29.614  29.574  22.667  1.00  0.00     0.207 C 
ATOM     20  C   UNL A   1      29.073  30.603  23.650  1.00  0.00     0.044 C 
ATOM     21  O   UNL A   1      29.281  30.033  21.359  1.00  0.00    -0.368 OA
ATOM     22  C   UNL A   1      28.822  31.847  22.838  1.00  0.00     0.032 C 
ATOM     23  C   UNL A   1      28.901  31.405  21.397  1.00  0.00     0.161 C 
ENDBRANCH  17  19
ENDBRANCH   8  11
ENDBRANCH   7   8
ENDBRANCH   6   7
ENDBRANCH   4   6
ENDBRANCH   1   2
BRANCH   1  24
ATOM     24  C   UNL A   1      31.860  30.715  26.108  1.00  0.00     0.023 C 
BRANCH  24  25
ATOM     25  C   UNL A   1      31.470  32.056  26.745  1.00  0.00     0.023 C 
BRANCH  25  26
ATOM     26  C   UNL A   1      32.623  32.815  27.375  1.00  0.00     0.116 C 
BRANCH  26  27
ATOM     27  N   UNL A   1      32.313  34.208  27.633  1.00  0.00    -0.352 N 
ATOM     28  C   UNL A   1      32.926  35.036  28.547  1.00  0.00     0.251 C 
ATOM     29  H   UNL A   1      31.587  34.604  27.098  1.00  0.00     0.163 HD
ATOM     30  O   UNL A   1      32.489  36.157  28.777  1.00  0.00    -0.269 OA
BRANCH  28  31
ATOM     31  C   UNL A   1      34.103  34.525  29.285  1.00  0.00     0.039 A 
ATOM     32  C   UNL A   1      33.915  33.930  30.534  1.00  0.00     0.014 A 
ATOM     33  C   UNL A   1      35.378  34.577  28.712  1.00  0.00     0.014 A 
ATOM     34  C   UNL A   1      34.999  33.341  31.186  1.00  0.00     0.010 A 
ATOM     35  C   UNL A   1      36.439  33.920  29.324  1.00  0.00     0.010 A 
ATOM     36  C   UNL A   1      36.265  33.311  30.575  1.00  0.00    -0.014 A 
BRANCH  36  37
ATOM     37  C   UNL A   1      37.429  32.692  31.255  1.00  0.00     0.031 A 
ATOM     38  C   UNL A   1      38.109  31.505  30.629  1.00  0.00     0.074 A 
ATOM     39  C   UNL A   1      37.845  33.159  32.447  1.00  0.00     0.049 A 
ATOM     40  N   UNL A   1      39.120  30.801  31.073  1.00  0.00    -0.248 NA
ATOM     41  C   UNL A   1      37.564  31.030  29.347  1.00  0.00     0.031 C 
ATOM     42  C   UNL A   1      37.233  34.265  33.185  1.00  0.00     0.029 A 
ATOM     43  N   UNL A   1      38.881  32.756  33.251  1.00  0.00    -0.354 N 
ATOM     44  C   UNL A   1      39.318  29.796  30.135  1.00  0.00     0.074 A 
ATOM     45  C   UNL A   1      38.289  29.943  29.129  1.00  0.00     0.031 C 
ATOM     46  C   UNL A   1      37.920  34.467  34.322  1.00  0.00     0.029 A 
ATOM     47  C   UNL A   1      39.005  33.493  34.402  1.00  0.00     0.049 A 
ATOM     48  H   UNL A   1      39.479  32.008  33.024  1.00  0.00     0.167 HD
ATOM     49  C   UNL A   1      40.288  28.852  30.096  1.00  0.00     0.037 A 
ATOM     50  C   UNL A   1      39.899  33.397  35.405  1.00  0.00     0.037 A 
ATOM     51  C   UNL A   1      41.331  28.726  31.077  1.00  0.00     0.049 A 
ATOM     52  C   UNL A   1      40.983  32.358  35.328  1.00  0.00     0.074 A 
ATOM     53  C   UNL A   1      42.395  27.843  31.097  1.00  0.00     0.029 A 
ATOM     54  N   UNL A   1      41.441  29.515  32.211  1.00  0.00    -0.354 N 
ATOM     55  N   UNL A   1      41.201  31.460  34.398  1.00  0.00    -0.248 NA
ATOM     56  C   UNL A   1      41.952  32.327  36.433  1.00  0.00     0.031 C 
ATOM     57  C   UNL A   1      43.135  28.078  32.260  1.00  0.00     0.029 A 
ATOM     58  C   UNL A   1      42.551  29.132  32.945  1.00  0.00     0.049 A 
ATOM     59  H   UNL A   1      40.823  30.240  32.458  1.00  0.00     0.167 HD
ATOM     60  C   UNL A   1      42.343  30.774  34.792  1.00  0.00     0.074 A 
ATOM     61  C   UNL A   1      42.779  31.369  36.038  1.00  0.00     0.031 C 
ATOM     62  C   UNL A   1      42.973  29.744  34.178  1.00  0.00     0.037 A 
BRANCH  49  63
ATOM     63  C   UNL A   1      40.267  27.896  28.942  1.00  0.00     0.057 A 
ATOM     64  C   UNL A   1      39.539  26.699  28.992  1.00  0.00     0.134 A 
ATOM     65  C   UNL A   1      40.970  28.176  27.764  1.00  0.00     0.134 A 
ATOM     66  F   UNL A   1      38.858  26.364  30.099  1.00  0.00    -0.206 F 
ATOM     67  C   UNL A   1      39.533  25.802  27.923  1.00  0.00     0.040 A 
ATOM     68  C   UNL A   1      40.951  27.298  26.679  1.00  0.00     0.040 A 
ATOM     69  F   UNL A   1      41.684  29.305  27.649  1.00  0.00    -0.206 F 
ATOM     70  C   UNL A   1      40.237  26.105  26.759  1.00  0.00     0.006 A 
ENDBRANCH  49  63
BRANCH  50  71
ATOM     71  C   UNL A   1      39.832  34.336  36.552  1.00  0.00     0.057 A 
ATOM     72  C   UNL A   1      40.441  35.595  36.490  1.00  0.00     0.134 A 
ATOM     73  C   UNL A   1      39.166  33.999  37.736  1.00  0.00     0.134 A 
ATOM     74  F   UNL A   1      41.107  35.968  35.387  1.00  0.00    -0.206 F 
ATOM     75  C   UNL A   1      40.407  36.478  37.571  1.00  0.00     0.040 A 
ATOM     76  C   UNL A   1      39.108  34.880  38.818  1.00  0.00     0.040 A 
ATOM     77  F   UNL A   1      38.556  32.810  37.855  1.00  0.00    -0.206 F 
ATOM     78  C   UNL A   1      39.735  36.122  38.738  1.00  0.00     0.006 A 
ENDBRANCH  50  71
BRANCH  62  79
ATOM     79  C   UNL A   1      44.213  29.213  34.830  1.00  0.00     0.057 A 
ATOM     80  C   UNL A   1      44.167  28.165  35.756  1.00  0.00     0.134 A 
ATOM     81  C   UNL A   1      45.471  29.727  34.490  1.00  0.00     0.134 A 
ATOM     82  F   UNL A   1      42.990  27.639  36.130  1.00  0.00    -0.206 F 
ATOM     83  C   UNL A   1      45.329  27.655  36.337  1.00  0.00     0.040 A 
ATOM     84  C   UNL A   1      46.642  29.210  35.048  1.00  0.00     0.040 A 
ATOM     85  F   UNL A   1      45.583  30.726  33.603  1.00  0.00    -0.206 F 
ATOM     86  C   UNL A   1      46.573  28.174  35.977  1.00  0.00     0.006 A 
ENDBRANCH  62  79
ENDBRANCH  36  37
ENDBRANCH  28  31
ENDBRANCH  26  27
ENDBRANCH  25  26
ENDBRANCH  24  25
ENDBRANCH   1  24
TORSDOF 15
ENDMDL
MODEL 3
REMARK VINA RESULT:     -12.1      3.149      5.521
REMARK SMILES O=C(CCS(=O)(=O)N1CCN(C(=O)[C@@H]2CCCO2)CC1)NCCCCNC(=O)c1ccc(-c2c3nc(c(-c4c(F)cccc4F)c4ccc([nH]4)c(-c4c(F)cccc4F)c4nc(c(-c5c(F)cccc5F)c5ccc2[nH]5)C=C4)C=C3)cc1
REMARK SMILES IDX 22 1 21 2 1 3 2 4 3 6 4 7 5 8 6 9 7 10 8 11 9 12 20 13 10 14
REMARK SMILES IDX 19 15 11 16 12 17 13 18 14 19 15 20 18 21 16 22 17 23 23 24
REMARK SMILES IDX 24 25 25 26 26 27 27 28 28 30 29 31 30 32 82 33 31 34 81 35
REMARK SMILES IDX 32 36 33 37 34 38 75 39 35 40 80 41 74 42 76 43 36 44 79 45
REMARK SMILES IDX 73 46 72 47 37 49 63 50 46 51 62 52 47 53 50 54 61 55 77 56
REMARK SMILES IDX 48 57 49 58 60 60 78 61 51 62 38 63 39 64 44 65 40 66 41 67
REMARK SMILES IDX 43 68 45 69 42 70 64 71 65 72 70 73 66 74 67 75 69 76 71 77
REMARK SMILES IDX 68 78 52 79 53 80 58 81 54 82 55 83 57 84 59 85 56 86
REMARK H PARENT 21 5 26 29 76 48 50 59
REMARK Flexibility Score: inf
ROOT
ATOM      1  C   UNL A   1      40.154  21.862  26.544  1.00  0.00     0.116 C 
ENDROOT
BRANCH   1   2
ATOM      2  N   UNL A   1      38.494  22.044  25.480  1.00  0.00    -0.356 N 
ATOM      3  O   UNL A   1      36.592  20.741  24.885  1.00  0.00    -0.275 OA
ATOM      4  C   UNL A   1      37.253  21.768  24.868  1.00  0.00     0.221 C 
ATOM      5  H   UNL A   1      38.627  22.961  25.148  1.00  0.00     0.163 HD
BRANCH   4   6
ATOM      6  C   UNL A   1      36.768  22.981  24.039  1.00  0.00     0.117 C 
BRANCH   6   7
ATOM      7  C   UNL A   1      35.512  23.675  24.561  1.00  0.00     0.164 C 
BRANCH   7   8
ATOM      8  S   UNL A   1      34.047  23.639  23.489  1.00  0.00     0.214 S 
ATOM      9  O   UNL A   1      34.288  24.461  22.329  1.00  0.00    -0.212 OA
ATOM     10  O   UNL A   1      33.616  22.261  23.388  1.00  0.00    -0.212 OA
BRANCH   8  11
ATOM     11  N   UNL A   1      32.803  24.477  24.452  1.00  0.00    -0.198 NA
ATOM     12  C   UNL A   1      33.582  26.044  25.342  1.00  0.00     0.123 C 
ATOM     13  C   UNL A   1      31.147  24.715  23.410  1.00  0.00     0.123 C 
ATOM     14  C   UNL A   1      32.690  27.777  25.135  1.00  0.00     0.136 C 
ATOM     15  C   UNL A   1      30.460  26.516  23.166  1.00  0.00     0.136 C 
ATOM     16  N   UNL A   1      31.144  27.918  24.140  1.00  0.00    -0.338 N 
ATOM     17  C   UNL A   1      30.618  29.204  24.038  1.00  0.00     0.251 C 
ATOM     18  O   UNL A   1      31.051  30.112  24.758  1.00  0.00    -0.272 OA
BRANCH  17  19
ATOM     19  C   UNL A   1      29.391  29.464  23.115  1.00  0.00     0.207 C 
ATOM     20  C   UNL A   1      29.803  30.036  21.766  1.00  0.00     0.044 C 
ATOM     21  O   UNL A   1      28.340  30.288  23.614  1.00  0.00    -0.368 OA
ATOM     22  C   UNL A   1      28.665  30.927  21.339  1.00  0.00     0.032 C 
ATOM     23  C   UNL A   1      27.812  31.102  22.571  1.00  0.00     0.161 C 
ENDBRANCH  17  19
ENDBRANCH   8  11
ENDBRANCH   7   8
ENDBRANCH   6   7
ENDBRANCH   4   6
ENDBRANCH   1   2
BRANCH   1  24
ATOM     24  C   UNL A   1      41.616  21.241  26.255  1.00  0.00     0.023 C 
BRANCH  24  25
ATOM     25  C   UNL A   1      41.753  19.763  25.864  1.00  0.00     0.023 C 
BRANCH  25  26
ATOM     26  C   UNL A   1      43.102  19.147  26.191  1.00  0.00     0.116 C 
BRANCH  26  27
ATOM     27  N   UNL A   1      43.837  18.732  25.011  1.00  0.00    -0.352 N 
ATOM     28  C   UNL A   1      44.646  19.518  24.222  1.00  0.00     0.251 C 
ATOM     29  H   UNL A   1      43.748  17.787  24.747  1.00  0.00     0.163 HD
ATOM     30  O   UNL A   1      45.108  19.094  23.170  1.00  0.00    -0.269 OA
BRANCH  28  31
ATOM     31  C   UNL A   1      44.910  20.911  24.649  1.00  0.00     0.039 A 
ATOM     32  C   UNL A   1      44.476  21.963  23.839  1.00  0.00     0.014 A 
ATOM     33  C   UNL A   1      45.526  21.173  25.877  1.00  0.00     0.014 A 
ATOM     34  C   UNL A   1      44.615  23.278  24.285  1.00  0.00     0.010 A 
ATOM     35  C   UNL A   1      45.590  22.477  26.355  1.00  0.00     0.010 A 
ATOM     36  C   UNL A   1      45.152  23.544  25.557  1.00  0.00    -0.014 A 
BRANCH  36  37
ATOM     37  C   UNL A   1      45.309  24.935  26.046  1.00  0.00     0.031 A 
ATOM     38  C   UNL A   1      46.659  25.595  25.983  1.00  0.00     0.074 A 
ATOM     39  C   UNL A   1      44.262  25.587  26.585  1.00  0.00     0.049 A 
ATOM     40  N   UNL A   1      47.017  26.789  26.385  1.00  0.00    -0.248 NA
ATOM     41  C   UNL A   1      47.761  24.798  25.420  1.00  0.00     0.031 C 
ATOM     42  C   UNL A   1      42.916  25.035  26.756  1.00  0.00     0.029 A 
ATOM     43  N   UNL A   1      44.168  26.857  27.095  1.00  0.00    -0.354 N 
ATOM     44  C   UNL A   1      48.380  26.876  26.137  1.00  0.00     0.074 A 
ATOM     45  C   UNL A   1      48.799  25.598  25.606  1.00  0.00     0.031 C 
ATOM     46  C   UNL A   1      42.126  25.971  27.309  1.00  0.00     0.029 A 
ATOM     47  C   UNL A   1      42.913  27.178  27.550  1.00  0.00     0.049 A 
ATOM     48  H   UNL A   1      44.929  27.480  27.131  1.00  0.00     0.167 HD
ATOM     49  C   UNL A   1      49.207  27.935  26.306  1.00  0.00     0.037 A 
ATOM     50  C   UNL A   1      42.450  28.319  28.094  1.00  0.00     0.037 A 
ATOM     51  C   UNL A   1      48.784  29.217  26.801  1.00  0.00     0.049 A 
ATOM     52  C   UNL A   1      43.379  29.491  28.248  1.00  0.00     0.074 A 
ATOM     53  C   UNL A   1      49.530  30.372  26.953  1.00  0.00     0.029 A 
ATOM     54  N   UNL A   1      47.496  29.511  27.219  1.00  0.00    -0.354 N 
ATOM     55  N   UNL A   1      44.651  29.582  27.942  1.00  0.00    -0.248 NA
ATOM     56  C   UNL A   1      42.807  30.722  28.813  1.00  0.00     0.031 C 
ATOM     57  C   UNL A   1      48.699  31.360  27.491  1.00  0.00     0.029 A 
ATOM     58  C   UNL A   1      47.427  30.829  27.640  1.00  0.00     0.049 A 
ATOM     59  H   UNL A   1      46.742  28.878  27.217  1.00  0.00     0.167 HD
ATOM     60  C   UNL A   1      45.025  30.884  28.252  1.00  0.00     0.074 A 
ATOM     61  C   UNL A   1      43.841  31.549  28.758  1.00  0.00     0.031 C 
ATOM     62  C   UNL A   1      46.238  31.474  28.131  1.00  0.00     0.037 A 
BRANCH  49  63
ATOM     63  C   UNL A   1      50.646  27.747  25.933  1.00  0.00     0.057 A 
ATOM     64  C   UNL A   1      51.087  27.888  24.610  1.00  0.00     0.134 A 
ATOM     65  C   UNL A   1      51.604  27.436  26.904  1.00  0.00     0.134 A 
ATOM     66  F   UNL A   1      50.215  28.169  23.630  1.00  0.00    -0.206 F 
ATOM     67  C   UNL A   1      52.425  27.697  24.262  1.00  0.00     0.040 A 
ATOM     68  C   UNL A   1      52.950  27.267  26.572  1.00  0.00     0.040 A 
ATOM     69  F   UNL A   1      51.250  27.290  28.190  1.00  0.00    -0.206 F 
ATOM     70  C   UNL A   1      53.362  27.392  25.247  1.00  0.00     0.006 A 
ENDBRANCH  49  63
BRANCH  50  71
ATOM     71  C   UNL A   1      41.026  28.425  28.498  1.00  0.00     0.057 A 
ATOM     72  C   UNL A   1      40.614  28.065  29.787  1.00  0.00     0.134 A 
ATOM     73  C   UNL A   1      40.045  28.881  27.610  1.00  0.00     0.134 A 
ATOM     74  F   UNL A   1      41.506  27.605  30.677  1.00  0.00    -0.206 F 
ATOM     75  C   UNL A   1      39.273  28.136  30.172  1.00  0.00     0.040 A 
ATOM     76  C   UNL A   1      38.704  28.976  27.988  1.00  0.00     0.040 A 
ATOM     77  F   UNL A   1      40.378  29.248  26.364  1.00  0.00    -0.206 F 
ATOM     78  C   UNL A   1      38.316  28.597  29.272  1.00  0.00     0.006 A 
ENDBRANCH  50  71
BRANCH  62  79
ATOM     79  C   UNL A   1      46.340  32.916  28.526  1.00  0.00     0.057 A 
ATOM     80  C   UNL A   1      46.682  33.300  29.828  1.00  0.00     0.134 A 
ATOM     81  C   UNL A   1      46.140  33.929  27.580  1.00  0.00     0.134 A 
ATOM     82  F   UNL A   1      46.874  32.374  30.781  1.00  0.00    -0.206 F 
ATOM     83  C   UNL A   1      46.806  34.644  30.182  1.00  0.00     0.040 A 
ATOM     84  C   UNL A   1      46.283  35.276  27.917  1.00  0.00     0.040 A 
ATOM     85  F   UNL A   1      45.819  33.626  26.314  1.00  0.00    -0.206 F 
ATOM     86  C   UNL A   1      46.612  35.637  29.221  1.00  0.00     0.006 A 
ENDBRANCH  62  79
ENDBRANCH  36  37
ENDBRANCH  28  31
ENDBRANCH  26  27
ENDBRANCH  25  26
ENDBRANCH  24  25
ENDBRANCH   1  24
TORSDOF 15
ENDMDL
