MODEL 1
REMARK VINA RESULT:     -11.9      0.000      0.000
REMARK SMILES O=C(NCCCCNC(=O)c1ccc(-c2c3nc(c(-c4c(F)cccc4F)c4ccc([nH]4)c(-c4c(F)cccc4F)c4nc(c(-c5c(F)cccc5F)c5ccc2[nH]5)C=C4)C=C3)cc1)C1=Cc2cc(Cl)c(Cl)c(Cl)c2O[C@@H]1C(F)(F)F
REMARK SMILES IDX 6 1 5 2 4 3 3 4 1 5 2 6 65 8 66 9 77 10 67 11 76 12 68 13
REMARK SMILES IDX 75 14 69 15 73 16 70 17 71 18 74 19 72 20 78 21 79 22 80 23
REMARK SMILES IDX 81 24 7 25 8 26 9 27 10 29 11 30 12 31 64 32 13 33 63 34
REMARK SMILES IDX 14 35 15 36 16 37 57 38 17 39 62 40 56 41 58 42 18 43 61 44
REMARK SMILES IDX 55 45 54 46 19 48 45 49 28 50 44 51 29 52 32 53 43 54 59 55
REMARK SMILES IDX 30 56 31 57 42 59 60 60 33 61 20 62 21 63 26 64 22 65 23 66
REMARK SMILES IDX 25 67 27 68 24 69 46 70 47 71 52 72 48 73 49 74 51 75 53 76
REMARK SMILES IDX 50 77 34 78 35 79 40 80 36 81 37 82 39 83 41 84 38 85
REMARK H PARENT 3 7 8 28 58 47 32 58
REMARK Flexibility Score: inf
ROOT
ATOM      1  C   UNL A   1      32.489  28.465  26.324  1.00  0.00     0.023 C 
ENDROOT
BRANCH   1   2
ATOM      2  C   UNL A   1      31.433  27.495  26.852  1.00  0.00     0.023 C 
BRANCH   2   3
ATOM      3  C   UNL A   1      31.358  26.167  26.098  1.00  0.00     0.116 C 
BRANCH   3   4
ATOM      4  N   UNL A   1      31.417  24.988  26.963  1.00  0.00    -0.352 N 
ATOM      5  O   UNL A   1      32.267  23.042  27.761  1.00  0.00    -0.270 OA
ATOM      6  C   UNL A   1      32.146  23.827  26.830  1.00  0.00     0.251 C 
ATOM      7  H   UNL A   1      30.847  25.031  27.764  1.00  0.00     0.163 HD
BRANCH   6   8
ATOM      8  C   UNL A   1      32.878  23.613  25.566  1.00  0.00     0.067 C 
ATOM      9  C   UNL A   1      34.123  24.092  25.445  1.00  0.00     0.025 C 
ATOM     10  C   UNL A   1      32.340  22.579  24.628  1.00  0.00     0.314 C 
ATOM     11  C   UNL A   1      35.072  23.063  24.978  1.00  0.00     0.020 A 
ATOM     12  O   UNL A   1      33.273  21.486  24.472  1.00  0.00    -0.474 OA
ATOM     13  C   UNL A   1      36.419  23.254  25.300  1.00  0.00     0.034 A 
ATOM     14  C   UNL A   1      34.610  21.766  24.667  1.00  0.00     0.148 A 
ATOM     15  C   UNL A   1      37.276  22.155  25.409  1.00  0.00     0.062 A 
ATOM     16  C   UNL A   1      35.485  20.667  24.741  1.00  0.00     0.103 A 
ATOM     17  Cl  UNL A   1      38.866  22.474  26.015  1.00  0.00    -0.083 Cl
ATOM     18  C   UNL A   1      36.816  20.855  25.145  1.00  0.00     0.082 A 
ATOM     19  Cl  UNL A   1      34.842  19.070  24.481  1.00  0.00    -0.079 Cl
ATOM     20  Cl  UNL A   1      37.859  19.492  25.406  1.00  0.00    -0.081 Cl
BRANCH  10  21
ATOM     21  C   UNL A   1      31.964  23.183  23.263  1.00  0.00     0.429 C 
ATOM     22  F   UNL A   1      32.763  22.704  22.279  1.00  0.00    -0.167 F 
ATOM     23  F   UNL A   1      30.690  22.892  22.914  1.00  0.00    -0.167 F 
ATOM     24  F   UNL A   1      32.085  24.533  23.251  1.00  0.00    -0.167 F 
ENDBRANCH  10  21
ENDBRANCH   6   8
ENDBRANCH   3   4
ENDBRANCH   2   3
ENDBRANCH   1   2
BRANCH   1  25
ATOM     25  C   UNL A   1      33.666  28.756  27.254  1.00  0.00     0.116 C 
BRANCH  25  26
ATOM     26  N   UNL A   1      33.684  30.100  27.813  1.00  0.00    -0.352 N 
ATOM     27  C   UNL A   1      34.743  30.768  28.394  1.00  0.00     0.251 C 
ATOM     28  H   UNL A   1      32.835  30.596  27.770  1.00  0.00     0.163 HD
ATOM     29  O   UNL A   1      34.585  31.886  28.873  1.00  0.00    -0.269 OA
BRANCH  27  30
ATOM     30  C   UNL A   1      36.058  30.097  28.494  1.00  0.00     0.039 A 
ATOM     31  C   UNL A   1      36.935  30.170  27.408  1.00  0.00     0.014 A 
ATOM     32  C   UNL A   1      36.452  29.467  29.677  1.00  0.00     0.014 A 
ATOM     33  C   UNL A   1      38.241  29.694  27.542  1.00  0.00     0.010 A 
ATOM     34  C   UNL A   1      37.776  29.069  29.835  1.00  0.00     0.010 A 
ATOM     35  C   UNL A   1      38.687  29.184  28.773  1.00  0.00    -0.014 A 
BRANCH  35  36
ATOM     36  C   UNL A   1      40.097  28.761  28.967  1.00  0.00     0.031 A 
ATOM     37  C   UNL A   1      41.089  29.718  29.571  1.00  0.00     0.074 A 
ATOM     38  C   UNL A   1      40.501  27.545  28.547  1.00  0.00     0.049 A 
ATOM     39  N   UNL A   1      42.378  29.573  29.747  1.00  0.00    -0.248 NA
ATOM     40  C   UNL A   1      40.567  31.023  30.007  1.00  0.00     0.031 C 
ATOM     41  C   UNL A   1      39.651  26.546  27.895  1.00  0.00     0.029 A 
ATOM     42  N   UNL A   1      41.736  26.947  28.594  1.00  0.00    -0.354 N 
ATOM     43  C   UNL A   1      42.820  30.769  30.299  1.00  0.00     0.074 A 
ATOM     44  C   UNL A   1      41.675  31.650  30.374  1.00  0.00     0.031 C 
ATOM     45  C   UNL A   1      40.383  25.453  27.625  1.00  0.00     0.029 A 
ATOM     46  C   UNL A   1      41.758  25.682  28.056  1.00  0.00     0.049 A 
ATOM     47  H   UNL A   1      42.530  27.383  28.979  1.00  0.00     0.167 HD
ATOM     48  C   UNL A   1      44.059  31.095  30.734  1.00  0.00     0.037 A 
ATOM     49  C   UNL A   1      42.775  24.808  27.926  1.00  0.00     0.037 A 
ATOM     50  C   UNL A   1      45.191  30.209  30.688  1.00  0.00     0.049 A 
ATOM     51  C   UNL A   1      44.137  25.186  28.445  1.00  0.00     0.074 A 
ATOM     52  C   UNL A   1      46.486  30.438  31.121  1.00  0.00     0.029 A 
ATOM     53  N   UNL A   1      45.157  28.915  30.192  1.00  0.00    -0.354 N 
ATOM     54  N   UNL A   1      44.527  26.305  29.005  1.00  0.00    -0.248 NA
ATOM     55  C   UNL A   1      45.196  24.172  28.328  1.00  0.00     0.031 C 
ATOM     56  C   UNL A   1      47.240  29.287  30.871  1.00  0.00     0.029 A 
ATOM     57  C   UNL A   1      46.405  28.330  30.316  1.00  0.00     0.049 A 
ATOM     58  H   UNL A   1      44.362  28.476  29.810  1.00  0.00     0.167 HD
ATOM     59  C   UNL A   1      45.862  26.117  29.341  1.00  0.00     0.074 A 
ATOM     60  C   UNL A   1      46.212  24.772  28.931  1.00  0.00     0.031 C 
ATOM     61  C   UNL A   1      46.722  26.980  29.933  1.00  0.00     0.037 A 
BRANCH  48  62
ATOM     62  C   UNL A   1      44.245  32.463  31.321  1.00  0.00     0.057 A 
ATOM     63  C   UNL A   1      44.576  33.563  30.517  1.00  0.00     0.134 A 
ATOM     64  C   UNL A   1      44.065  32.693  32.689  1.00  0.00     0.134 A 
ATOM     65  F   UNL A   1      44.778  33.406  29.200  1.00  0.00    -0.206 F 
ATOM     66  C   UNL A   1      44.743  34.838  31.059  1.00  0.00     0.040 A 
ATOM     67  C   UNL A   1      44.203  33.969  33.238  1.00  0.00     0.040 A 
ATOM     68  F   UNL A   1      43.743  31.684  33.513  1.00  0.00    -0.206 F 
ATOM     69  C   UNL A   1      44.549  35.045  32.423  1.00  0.00     0.006 A 
ENDBRANCH  48  62
BRANCH  49  70
ATOM     70  C   UNL A   1      42.550  23.476  27.309  1.00  0.00     0.057 A 
ATOM     71  C   UNL A   1      42.130  22.385  28.080  1.00  0.00     0.134 A 
ATOM     72  C   UNL A   1      42.786  23.250  25.949  1.00  0.00     0.134 A 
ATOM     73  F   UNL A   1      41.905  22.533  29.393  1.00  0.00    -0.206 F 
ATOM     74  C   UNL A   1      41.983  21.110  27.528  1.00  0.00     0.040 A 
ATOM     75  C   UNL A   1      42.619  21.986  25.378  1.00  0.00     0.040 A 
ATOM     76  F   UNL A   1      43.182  24.254  25.153  1.00  0.00    -0.206 F 
ATOM     77  C   UNL A   1      42.227  20.910  26.171  1.00  0.00     0.006 A 
ENDBRANCH  49  70
BRANCH  61  78
ATOM     78  C   UNL A   1      48.101  26.475  30.232  1.00  0.00     0.057 A 
ATOM     79  C   UNL A   1      48.418  25.853  31.446  1.00  0.00     0.134 A 
ATOM     80  C   UNL A   1      49.117  26.582  29.272  1.00  0.00     0.134 A 
ATOM     81  F   UNL A   1      47.493  25.731  32.409  1.00  0.00    -0.206 F 
ATOM     82  C   UNL A   1      49.705  25.378  31.706  1.00  0.00     0.040 A 
ATOM     83  C   UNL A   1      50.400  26.089  29.511  1.00  0.00     0.040 A 
ATOM     84  F   UNL A   1      48.875  27.159  28.086  1.00  0.00    -0.206 F 
ATOM     85  C   UNL A   1      50.698  25.490  30.734  1.00  0.00     0.006 A 
ENDBRANCH  61  78
ENDBRANCH  35  36
ENDBRANCH  27  30
ENDBRANCH  25  26
ENDBRANCH   1  25
TORSDOF 12
ENDMDL
MODEL 2
REMARK VINA RESULT:     -11.9      2.907      7.553
REMARK SMILES O=C(NCCCCNC(=O)c1ccc(-c2c3nc(c(-c4c(F)cccc4F)c4ccc([nH]4)c(-c4c(F)cccc4F)c4nc(c(-c5c(F)cccc5F)c5ccc2[nH]5)C=C4)C=C3)cc1)C1=Cc2cc(Cl)c(Cl)c(Cl)c2O[C@@H]1C(F)(F)F
REMARK SMILES IDX 6 1 5 2 4 3 3 4 1 5 2 6 65 8 66 9 77 10 67 11 76 12 68 13
REMARK SMILES IDX 75 14 69 15 73 16 70 17 71 18 74 19 72 20 78 21 79 22 80 23
REMARK SMILES IDX 81 24 7 25 8 26 9 27 10 29 11 30 12 31 64 32 13 33 63 34
REMARK SMILES IDX 14 35 15 36 16 37 57 38 17 39 62 40 56 41 58 42 18 43 61 44
REMARK SMILES IDX 55 45 54 46 19 48 45 49 28 50 44 51 29 52 32 53 43 54 59 55
REMARK SMILES IDX 30 56 31 57 42 59 60 60 33 61 20 62 21 63 26 64 22 65 23 66
REMARK SMILES IDX 25 67 27 68 24 69 46 70 47 71 52 72 48 73 49 74 51 75 53 76
REMARK SMILES IDX 50 77 34 78 35 79 40 80 36 81 37 82 39 83 41 84 38 85
REMARK H PARENT 3 7 8 28 58 47 32 58
REMARK Flexibility Score: inf
ROOT
ATOM      1  C   UNL A   1      37.779  20.428  24.805  1.00  0.00     0.023 C 
ENDROOT
BRANCH   1   2
ATOM      2  C   UNL A   1      36.373  20.775  25.291  1.00  0.00     0.023 C 
BRANCH   2   3
ATOM      3  C   UNL A   1      36.065  22.273  25.324  1.00  0.00     0.116 C 
BRANCH   3   4
ATOM      4  N   UNL A   1      35.624  22.817  24.040  1.00  0.00    -0.352 N 
ATOM      5  O   UNL A   1      34.543  24.257  22.659  1.00  0.00    -0.270 OA
ATOM      6  C   UNL A   1      34.626  23.724  23.758  1.00  0.00     0.251 C 
ATOM      7  H   UNL A   1      36.115  22.482  23.255  1.00  0.00     0.163 HD
BRANCH   6   8
ATOM      8  C   UNL A   1      33.728  24.127  24.859  1.00  0.00     0.067 C 
ATOM      9  C   UNL A   1      34.109  25.112  25.682  1.00  0.00     0.025 C 
ATOM     10  C   UNL A   1      32.306  23.670  24.785  1.00  0.00     0.314 C 
ATOM     11  C   UNL A   1      33.072  26.151  25.823  1.00  0.00     0.020 A 
ATOM     12  O   UNL A   1      31.407  24.796  24.653  1.00  0.00    -0.474 OA
ATOM     13  C   UNL A   1      33.503  27.427  26.198  1.00  0.00     0.034 A 
ATOM     14  C   UNL A   1      31.831  26.004  25.167  1.00  0.00     0.148 A 
ATOM     15  C   UNL A   1      32.759  28.554  25.836  1.00  0.00     0.062 A 
ATOM     16  C   UNL A   1      31.065  27.137  24.838  1.00  0.00     0.103 A 
ATOM     17  Cl  UNL A   1      33.481  30.093  26.162  1.00  0.00    -0.083 Cl
ATOM     18  C   UNL A   1      31.544  28.421  25.144  1.00  0.00     0.082 A 
ATOM     19  Cl  UNL A   1      29.608  26.919  23.910  1.00  0.00    -0.079 Cl
ATOM     20  Cl  UNL A   1      30.696  29.833  24.595  1.00  0.00    -0.081 Cl
BRANCH  10  21
ATOM     21  C   UNL A   1      31.920  22.795  25.992  1.00  0.00     0.429 C 
ATOM     22  F   UNL A   1      30.838  22.029  25.714  1.00  0.00    -0.167 F 
ATOM     23  F   UNL A   1      32.919  21.956  26.347  1.00  0.00    -0.167 F 
ATOM     24  F   UNL A   1      31.612  23.538  27.082  1.00  0.00    -0.167 F 
ENDBRANCH  10  21
ENDBRANCH   6   8
ENDBRANCH   3   4
ENDBRANCH   2   3
ENDBRANCH   1   2
BRANCH   1  25
ATOM     25  C   UNL A   1      38.895  20.514  25.846  1.00  0.00     0.116 C 
BRANCH  25  26
ATOM     26  N   UNL A   1      39.915  19.482  25.734  1.00  0.00    -0.352 N 
ATOM     27  C   UNL A   1      41.252  19.565  26.064  1.00  0.00     0.251 C 
ATOM     28  H   UNL A   1      39.613  18.615  25.379  1.00  0.00     0.163 HD
ATOM     29  O   UNL A   1      42.004  18.618  25.857  1.00  0.00    -0.269 OA
BRANCH  27  30
ATOM     30  C   UNL A   1      41.789  20.831  26.610  1.00  0.00     0.039 A 
ATOM     31  C   UNL A   1      42.286  21.789  25.722  1.00  0.00     0.014 A 
ATOM     32  C   UNL A   1      41.732  21.101  27.979  1.00  0.00     0.014 A 
ATOM     33  C   UNL A   1      42.638  23.054  26.198  1.00  0.00     0.010 A 
ATOM     34  C   UNL A   1      42.004  22.387  28.438  1.00  0.00     0.010 A 
ATOM     35  C   UNL A   1      42.453  23.379  27.552  1.00  0.00    -0.014 A 
BRANCH  35  36
ATOM     36  C   UNL A   1      42.730  24.747  28.062  1.00  0.00     0.031 A 
ATOM     37  C   UNL A   1      44.130  25.126  28.461  1.00  0.00     0.074 A 
ATOM     38  C   UNL A   1      41.719  25.624  28.225  1.00  0.00     0.049 A 
ATOM     39  N   UNL A   1      44.564  26.236  29.005  1.00  0.00    -0.248 NA
ATOM     40  C   UNL A   1      45.176  24.114  28.248  1.00  0.00     0.031 C 
ATOM     41  C   UNL A   1      40.309  25.360  27.929  1.00  0.00     0.029 A 
ATOM     42  N   UNL A   1      41.722  26.915  28.693  1.00  0.00    -0.354 N 
ATOM     43  C   UNL A   1      45.925  26.047  29.210  1.00  0.00     0.074 A 
ATOM     44  C   UNL A   1      46.234  24.698  28.789  1.00  0.00     0.031 C 
ATOM     45  C   UNL A   1      39.588  26.460  28.200  1.00  0.00     0.029 A 
ATOM     46  C   UNL A   1      40.476  27.497  28.716  1.00  0.00     0.049 A 
ATOM     47  H   UNL A   1      42.539  27.380  28.983  1.00  0.00     0.167 HD
ATOM     48  C   UNL A   1      46.841  26.926  29.677  1.00  0.00     0.037 A 
ATOM     49  C   UNL A   1      40.097  28.728  29.109  1.00  0.00     0.037 A 
ATOM     50  C   UNL A   1      46.540  28.278  30.067  1.00  0.00     0.049 A 
ATOM     51  C   UNL A   1      41.142  29.696  29.597  1.00  0.00     0.074 A 
ATOM     52  C   UNL A   1      47.402  29.254  30.536  1.00  0.00     0.029 A 
ATOM     53  N   UNL A   1      45.278  28.847  30.016  1.00  0.00    -0.354 N 
ATOM     54  N   UNL A   1      42.432  29.515  29.744  1.00  0.00    -0.248 NA
ATOM     55  C   UNL A   1      40.680  31.044  29.960  1.00  0.00     0.031 C 
ATOM     56  C   UNL A   1      46.656  30.411  30.786  1.00  0.00     0.029 A 
ATOM     57  C   UNL A   1      45.338  30.164  30.438  1.00  0.00     0.049 A 
ATOM     58  H   UNL A   1      44.459  28.384  29.723  1.00  0.00     0.167 HD
ATOM     59  C   UNL A   1      42.940  30.734  30.177  1.00  0.00     0.074 A 
ATOM     60  C   UNL A   1      41.820  31.649  30.260  1.00  0.00     0.031 C 
ATOM     61  C   UNL A   1      44.217  31.066  30.480  1.00  0.00     0.037 A 
BRANCH  48  62
ATOM     62  C   UNL A   1      48.263  26.456  29.767  1.00  0.00     0.057 A 
ATOM     63  C   UNL A   1      49.174  26.681  28.725  1.00  0.00     0.134 A 
ATOM     64  C   UNL A   1      48.737  25.802  30.910  1.00  0.00     0.134 A 
ATOM     65  F   UNL A   1      48.778  27.289  27.596  1.00  0.00    -0.206 F 
ATOM     66  C   UNL A   1      50.499  26.251  28.808  1.00  0.00     0.040 A 
ATOM     67  C   UNL A   1      50.067  25.390  31.015  1.00  0.00     0.040 A 
ATOM     68  F   UNL A   1      47.918  25.560  31.945  1.00  0.00    -0.206 F 
ATOM     69  C   UNL A   1      50.950  25.610  29.960  1.00  0.00     0.006 A 
ENDBRANCH  48  62
BRANCH  49  70
ATOM     70  C   UNL A   1      38.672  29.139  29.032  1.00  0.00     0.057 A 
ATOM     71  C   UNL A   1      37.835  29.060  30.152  1.00  0.00     0.134 A 
ATOM     72  C   UNL A   1      38.102  29.580  27.832  1.00  0.00     0.134 A 
ATOM     73  F   UNL A   1      38.318  28.627  31.325  1.00  0.00    -0.206 F 
ATOM     74  C   UNL A   1      36.477  29.375  30.076  1.00  0.00     0.040 A 
ATOM     75  C   UNL A   1      36.750  29.922  27.748  1.00  0.00     0.040 A 
ATOM     76  F   UNL A   1      38.850  29.686  26.724  1.00  0.00    -0.206 F 
ATOM     77  C   UNL A   1      35.932  29.809  28.869  1.00  0.00     0.006 A 
ENDBRANCH  49  70
BRANCH  61  78
ATOM     78  C   UNL A   1      44.482  32.490  30.867  1.00  0.00     0.057 A 
ATOM     79  C   UNL A   1      44.453  32.915  32.201  1.00  0.00     0.134 A 
ATOM     80  C   UNL A   1      44.805  33.440  29.889  1.00  0.00     0.134 A 
ATOM     81  F   UNL A   1      44.138  32.056  33.181  1.00  0.00    -0.206 F 
ATOM     82  C   UNL A   1      44.712  34.242  32.547  1.00  0.00     0.040 A 
ATOM     83  C   UNL A   1      45.090  34.763  30.226  1.00  0.00     0.040 A 
ATOM     84  F   UNL A   1      44.858  33.094  28.594  1.00  0.00    -0.206 F 
ATOM     85  C   UNL A   1      45.038  35.168  31.558  1.00  0.00     0.006 A 
ENDBRANCH  61  78
ENDBRANCH  35  36
ENDBRANCH  27  30
ENDBRANCH  25  26
ENDBRANCH   1  25
TORSDOF 12
ENDMDL
MODEL 3
REMARK VINA RESULT:     -11.8      2.947      7.429
REMARK SMILES O=C(NCCCCNC(=O)c1ccc(-c2c3nc(c(-c4c(F)cccc4F)c4ccc([nH]4)c(-c4c(F)cccc4F)c4nc(c(-c5c(F)cccc5F)c5ccc2[nH]5)C=C4)C=C3)cc1)C1=Cc2cc(Cl)c(Cl)c(Cl)c2O[C@@H]1C(F)(F)F
REMARK SMILES IDX 6 1 5 2 4 3 3 4 1 5 2 6 65 8 66 9 77 10 67 11 76 12 68 13
REMARK SMILES IDX 75 14 69 15 73 16 70 17 71 18 74 19 72 20 78 21 79 22 80 23
REMARK SMILES IDX 81 24 7 25 8 26 9 27 10 29 11 30 12 31 64 32 13 33 63 34
REMARK SMILES IDX 14 35 15 36 16 37 57 38 17 39 62 40 56 41 58 42 18 43 61 44
REMARK SMILES IDX 55 45 54 46 19 48 45 49 28 50 44 51 29 52 32 53 43 54 59 55
REMARK SMILES IDX 30 56 31 57 42 59 60 60 33 61 20 62 21 63 26 64 22 65 23 66
REMARK SMILES IDX 25 67 27 68 24 69 46 70 47 71 52 72 48 73 49 74 51 75 53 76
REMARK SMILES IDX 50 77 34 78 35 79 40 80 36 81 37 82 39 83 41 84 38 85
REMARK H PARENT 3 7 8 28 58 47 32 58
REMARK Flexibility Score: inf
ROOT
ATOM      1  C   UNL A   1      37.551  21.026  24.678  1.00  0.00     0.023 C 
ENDROOT
BRANCH   1   2
ATOM      2  C   UNL A   1      36.203  20.405  25.039  1.00  0.00     0.023 C 
BRANCH   2   3
ATOM      3  C   UNL A   1      35.038  21.394  25.076  1.00  0.00     0.116 C 
BRANCH   3   4
ATOM      4  N   UNL A   1      34.979  22.287  23.918  1.00  0.00    -0.352 N 
ATOM      5  O   UNL A   1      34.586  24.231  22.816  1.00  0.00    -0.270 OA
ATOM      6  C   UNL A   1      34.340  23.497  23.764  1.00  0.00     0.251 C 
ATOM      7  H   UNL A   1      35.472  21.974  23.126  1.00  0.00     0.163 HD
BRANCH   6   8
ATOM      8  C   UNL A   1      33.431  23.940  24.841  1.00  0.00     0.067 C 
ATOM      9  C   UNL A   1      33.843  24.889  25.692  1.00  0.00     0.025 C 
ATOM     10  C   UNL A   1      31.987  23.572  24.714  1.00  0.00     0.314 C 
ATOM     11  C   UNL A   1      32.867  25.988  25.814  1.00  0.00     0.020 A 
ATOM     12  O   UNL A   1      31.163  24.753  24.570  1.00  0.00    -0.474 OA
ATOM     13  C   UNL A   1      33.363  27.230  26.222  1.00  0.00     0.034 A 
ATOM     14  C   UNL A   1      31.642  25.925  25.115  1.00  0.00     0.148 A 
ATOM     15  C   UNL A   1      32.700  28.404  25.854  1.00  0.00     0.062 A 
ATOM     16  C   UNL A   1      30.958  27.108  24.779  1.00  0.00     0.103 A 
ATOM     17  Cl  UNL A   1      33.503  29.892  26.226  1.00  0.00    -0.083 Cl
ATOM     18  C   UNL A   1      31.504  28.355  25.120  1.00  0.00     0.082 A 
ATOM     19  Cl  UNL A   1      29.522  26.992  23.801  1.00  0.00    -0.079 Cl
ATOM     20  Cl  UNL A   1      30.762  29.824  24.565  1.00  0.00    -0.081 Cl
BRANCH  10  21
ATOM     21  C   UNL A   1      31.509  22.707  25.894  1.00  0.00     0.429 C 
ATOM     22  F   UNL A   1      30.177  22.850  26.097  1.00  0.00    -0.167 F 
ATOM     23  F   UNL A   1      31.737  21.391  25.682  1.00  0.00    -0.167 F 
ATOM     24  F   UNL A   1      32.126  23.040  27.054  1.00  0.00    -0.167 F 
ENDBRANCH  10  21
ENDBRANCH   6   8
ENDBRANCH   3   4
ENDBRANCH   2   3
ENDBRANCH   1   2
BRANCH   1  25
ATOM     25  C   UNL A   1      38.636  20.961  25.752  1.00  0.00     0.116 C 
BRANCH  25  26
ATOM     26  N   UNL A   1      39.563  19.847  25.617  1.00  0.00    -0.352 N 
ATOM     27  C   UNL A   1      40.897  19.800  25.966  1.00  0.00     0.251 C 
ATOM     28  H   UNL A   1      39.191  19.023  25.229  1.00  0.00     0.163 HD
ATOM     29  O   UNL A   1      41.565  18.798  25.736  1.00  0.00    -0.269 OA
BRANCH  27  30
ATOM     30  C   UNL A   1      41.534  20.995  26.562  1.00  0.00     0.039 A 
ATOM     31  C   UNL A   1      42.107  21.946  25.713  1.00  0.00     0.014 A 
ATOM     32  C   UNL A   1      41.501  21.212  27.941  1.00  0.00     0.014 A 
ATOM     33  C   UNL A   1      42.560  23.158  26.239  1.00  0.00     0.010 A 
ATOM     34  C   UNL A   1      41.877  22.451  28.452  1.00  0.00     0.010 A 
ATOM     35  C   UNL A   1      42.403  23.440  27.606  1.00  0.00    -0.014 A 
BRANCH  35  36
ATOM     36  C   UNL A   1      42.790  24.758  28.171  1.00  0.00     0.031 A 
ATOM     37  C   UNL A   1      41.744  25.818  28.380  1.00  0.00     0.074 A 
ATOM     38  C   UNL A   1      44.085  25.024  28.438  1.00  0.00     0.049 A 
ATOM     39  N   UNL A   1      41.888  27.057  28.780  1.00  0.00    -0.248 NA
ATOM     40  C   UNL A   1      40.355  25.447  28.067  1.00  0.00     0.031 C 
ATOM     41  C   UNL A   1      45.203  24.101  28.228  1.00  0.00     0.029 A 
ATOM     42  N   UNL A   1      44.681  26.157  28.935  1.00  0.00    -0.354 N 
ATOM     43  C   UNL A   1      40.614  27.611  28.754  1.00  0.00     0.074 A 
ATOM     44  C   UNL A   1      39.720  26.596  28.243  1.00  0.00     0.031 C 
ATOM     45  C   UNL A   1      46.344  24.697  28.613  1.00  0.00     0.029 A 
ATOM     46  C   UNL A   1      46.045  26.050  29.070  1.00  0.00     0.049 A 
ATOM     47  H   UNL A   1      44.179  26.969  29.172  1.00  0.00     0.167 HD
ATOM     48  C   UNL A   1      40.218  28.843  29.149  1.00  0.00     0.037 A 
ATOM     49  C   UNL A   1      46.950  26.944  29.512  1.00  0.00     0.037 A 
ATOM     50  C   UNL A   1      41.102  29.843  29.687  1.00  0.00     0.049 A 
ATOM     51  C   UNL A   1      46.478  28.298  29.973  1.00  0.00     0.074 A 
ATOM     52  C   UNL A   1      40.796  31.117  30.134  1.00  0.00     0.029 A 
ATOM     53  N   UNL A   1      42.466  29.672  29.865  1.00  0.00    -0.354 N 
ATOM     54  N   UNL A   1      45.263  28.790  29.983  1.00  0.00    -0.248 NA
ATOM     55  C   UNL A   1      47.501  29.213  30.499  1.00  0.00     0.031 C 
ATOM     56  C   UNL A   1      41.979  31.724  30.567  1.00  0.00     0.029 A 
ATOM     57  C   UNL A   1      43.014  30.814  30.422  1.00  0.00     0.049 A 
ATOM     58  H   UNL A   1      42.970  28.859  29.630  1.00  0.00     0.167 HD
ATOM     59  C   UNL A   1      45.370  30.054  30.549  1.00  0.00     0.074 A 
ATOM     60  C   UNL A   1      46.767  30.248  30.880  1.00  0.00     0.031 C 
ATOM     61  C   UNL A   1      44.401  30.973  30.775  1.00  0.00     0.037 A 
BRANCH  48  62
ATOM     62  C   UNL A   1      38.758  29.166  29.036  1.00  0.00     0.057 A 
ATOM     63  C   UNL A   1      37.903  29.083  30.144  1.00  0.00     0.134 A 
ATOM     64  C   UNL A   1      38.204  29.592  27.823  1.00  0.00     0.134 A 
ATOM     65  F   UNL A   1      38.369  28.665  31.331  1.00  0.00    -0.206 F 
ATOM     66  C   UNL A   1      36.546  29.389  30.043  1.00  0.00     0.040 A 
ATOM     67  C   UNL A   1      36.853  29.927  27.717  1.00  0.00     0.040 A 
ATOM     68  F   UNL A   1      38.968  29.699  26.726  1.00  0.00    -0.206 F 
ATOM     69  C   UNL A   1      36.019  29.820  28.827  1.00  0.00     0.006 A 
ENDBRANCH  48  62
BRANCH  49  70
ATOM     70  C   UNL A   1      48.391  26.590  29.577  1.00  0.00     0.057 A 
ATOM     71  C   UNL A   1      48.928  25.949  30.701  1.00  0.00     0.134 A 
ATOM     72  C   UNL A   1      49.272  26.916  28.540  1.00  0.00     0.134 A 
ATOM     73  F   UNL A   1      48.138  25.628  31.736  1.00  0.00    -0.206 F 
ATOM     74  C   UNL A   1      50.293  25.675  30.806  1.00  0.00     0.040 A 
ATOM     75  C   UNL A   1      50.636  26.625  28.621  1.00  0.00     0.040 A 
ATOM     76  F   UNL A   1      48.821  27.522  27.432  1.00  0.00    -0.206 F 
ATOM     77  C   UNL A   1      51.151  26.012  29.761  1.00  0.00     0.006 A 
ENDBRANCH  49  70
BRANCH  61  78
ATOM     78  C   UNL A   1      44.805  32.240  31.465  1.00  0.00     0.057 A 
ATOM     79  C   UNL A   1      45.215  33.375  30.754  1.00  0.00     0.134 A 
ATOM     80  C   UNL A   1      44.746  32.334  32.862  1.00  0.00     0.134 A 
ATOM     81  F   UNL A   1      45.303  33.344  29.416  1.00  0.00    -0.206 F 
ATOM     82  C   UNL A   1      45.578  34.552  31.410  1.00  0.00     0.040 A 
ATOM     83  C   UNL A   1      45.083  33.514  33.527  1.00  0.00     0.040 A 
ATOM     84  F   UNL A   1      44.353  31.286  33.599  1.00  0.00    -0.206 F 
ATOM     85  C   UNL A   1      45.506  34.625  32.800  1.00  0.00     0.006 A 
ENDBRANCH  61  78
ENDBRANCH  35  36
ENDBRANCH  27  30
ENDBRANCH  25  26
ENDBRANCH   1  25
TORSDOF 12
ENDMDL
