MODEL 1
REMARK VINA RESULT:     -10.8      0.000      0.000
REMARK SMILES C[C@]1(C(=O)N2CCC(CC(=O)NCCCCNC(=O)c3ccc(-c4c5nc(c(-c6c(F)cccc6F)c6ccc([nH]6)c(-c6c(F)cccc6F)c6nc(c(-c7c(F)cccc7F)c7ccc4[nH]7)C=C6)C=C5)cc3)CC2)CCC[NH2+]1
REMARK SMILES IDX 14 1 13 2 12 3 10 4 11 5 9 7 8 8 3 9 4 10 5 11 6 12 75 13
REMARK SMILES IDX 7 14 74 15 2 16 1 17 76 18 79 19 77 20 78 21 15 24 16 25
REMARK SMILES IDX 17 26 18 27 19 29 20 30 21 31 73 32 22 33 72 34 23 35 24 36
REMARK SMILES IDX 25 37 66 38 26 39 71 40 65 41 67 42 27 43 70 44 64 45 63 46
REMARK SMILES IDX 28 48 54 49 37 50 53 51 38 52 41 53 52 54 68 55 39 56 40 57
REMARK SMILES IDX 51 59 69 60 42 61 29 62 30 63 35 64 31 65 32 66 34 67 36 68
REMARK SMILES IDX 33 69 55 70 56 71 61 72 57 73 58 74 60 75 62 76 59 77 43 78
REMARK SMILES IDX 44 79 49 80 45 81 46 82 48 83 50 84 47 85
REMARK H PARENT 12 6 79 22 79 23 17 28 67 47 41 58
REMARK Flexibility Score: inf
ROOT
ATOM      1  C   UNL A   1      41.802  19.767  27.257  1.00  0.00     0.023 C 
ENDROOT
BRANCH   1   2
ATOM      2  C   UNL A   1      42.230  19.465  25.815  1.00  0.00     0.116 C 
BRANCH   2   3
ATOM      3  N   UNL A   1      43.518  18.789  25.758  1.00  0.00    -0.356 N 
ATOM      4  C   UNL A   1      44.677  19.139  25.124  1.00  0.00     0.220 C 
ATOM      5  O   UNL A   1      45.632  18.361  25.191  1.00  0.00    -0.275 OA
ATOM      6  H   UNL A   1      43.561  17.942  26.256  1.00  0.00     0.163 HD
BRANCH   4   7
ATOM      7  C   UNL A   1      44.790  20.439  24.338  1.00  0.00     0.103 C 
BRANCH   7   8
ATOM      8  C   UNL A   1      44.510  21.699  25.185  1.00  0.00     0.002 C 
ATOM      9  C   UNL A   1      46.054  25.377  25.058  1.00  0.00     0.283 C 
ATOM     10  O   UNL A   1      46.997  24.986  24.370  1.00  0.00    -0.268 OA
ATOM     11  N   UNL A   1      45.172  24.492  25.660  1.00  0.00    -0.337 N 
ATOM     12  C   UNL A   1      45.711  23.507  26.561  1.00  0.00     0.120 C 
ATOM     13  C   UNL A   1      43.887  24.172  25.067  1.00  0.00     0.120 C 
ATOM     14  C   UNL A   1      45.780  22.149  25.902  1.00  0.00     0.026 C 
ATOM     15  C   UNL A   1      43.949  22.838  24.313  1.00  0.00     0.026 C 
BRANCH   9  16
ATOM     16  C   UNL A   1      45.782  26.875  25.375  1.00  0.00     0.173 C 
ATOM     17  C   UNL A   1      46.483  27.760  24.342  1.00  0.00     0.090 C 
ATOM     18  C   UNL A   1      44.292  27.186  25.524  1.00  0.00     0.084 C 
ATOM     19  N   UNL A   1      46.267  27.166  26.745  1.00  0.00    -0.334 N 
ATOM     20  C   UNL A   1      44.243  28.390  26.446  1.00  0.00     0.068 C 
ATOM     21  C   UNL A   1      45.502  28.280  27.291  1.00  0.00     0.261 C 
ATOM     22  H   UNL A   1      47.256  27.412  26.714  1.00  0.00     0.347 HD
ATOM     23  H   UNL A   1      46.146  26.343  27.336  1.00  0.00     0.347 HD
ENDBRANCH   9  16
ENDBRANCH   7   8
ENDBRANCH   4   7
ENDBRANCH   2   3
ENDBRANCH   1   2
BRANCH   1  24
ATOM     24  C   UNL A   1      40.940  21.002  27.442  1.00  0.00     0.023 C 
BRANCH  24  25
ATOM     25  C   UNL A   1      40.951  21.943  26.255  1.00  0.00     0.116 C 
BRANCH  25  26
ATOM     26  N   UNL A   1      39.620  22.297  25.777  1.00  0.00    -0.352 N 
ATOM     27  C   UNL A   1      38.893  23.442  26.023  1.00  0.00     0.251 C 
ATOM     28  H   UNL A   1      39.182  21.629  25.202  1.00  0.00     0.163 HD
ATOM     29  O   UNL A   1      37.747  23.563  25.618  1.00  0.00    -0.269 OA
BRANCH  27  30
ATOM     30  C   UNL A   1      39.516  24.504  26.835  1.00  0.00     0.039 A 
ATOM     31  C   UNL A   1      40.269  25.492  26.196  1.00  0.00     0.014 A 
ATOM     32  C   UNL A   1      39.251  24.581  28.203  1.00  0.00     0.014 A 
ATOM     33  C   UNL A   1      40.671  26.615  26.918  1.00  0.00     0.010 A 
ATOM     34  C   UNL A   1      39.554  25.747  28.889  1.00  0.00     0.010 A 
ATOM     35  C   UNL A   1      40.267  26.776  28.254  1.00  0.00    -0.014 A 
BRANCH  35  36
ATOM     36  C   UNL A   1      40.580  28.004  29.022  1.00  0.00     0.031 A 
ATOM     37  C   UNL A   1      41.899  28.112  29.735  1.00  0.00     0.074 A 
ATOM     38  C   UNL A   1      39.649  28.968  29.160  1.00  0.00     0.049 A 
ATOM     39  N   UNL A   1      42.319  29.034  30.562  1.00  0.00    -0.248 NA
ATOM     40  C   UNL A   1      42.857  27.014  29.522  1.00  0.00     0.031 C 
ATOM     41  C   UNL A   1      38.307  28.947  28.572  1.00  0.00     0.029 A 
ATOM     42  N   UNL A   1      39.686  30.150  29.856  1.00  0.00    -0.354 N 
ATOM     43  C   UNL A   1      43.569  28.608  30.990  1.00  0.00     0.074 A 
ATOM     44  C   UNL A   1      43.816  27.321  30.380  1.00  0.00     0.031 C 
ATOM     45  C   UNL A   1      37.661  30.075  28.909  1.00  0.00     0.029 A 
ATOM     46  C   UNL A   1      38.524  30.879  29.766  1.00  0.00     0.049 A 
ATOM     47  H   UNL A   1      40.471  30.447  30.370  1.00  0.00     0.167 HD
ATOM     48  C   UNL A   1      44.447  29.248  31.797  1.00  0.00     0.037 A 
ATOM     49  C   UNL A   1      38.195  32.061  30.321  1.00  0.00     0.037 A 
ATOM     50  C   UNL A   1      44.221  30.553  32.356  1.00  0.00     0.049 A 
ATOM     51  C   UNL A   1      39.199  32.765  31.190  1.00  0.00     0.074 A 
ATOM     52  C   UNL A   1      45.081  31.328  33.112  1.00  0.00     0.029 A 
ATOM     53  N   UNL A   1      43.048  31.276  32.211  1.00  0.00    -0.354 N 
ATOM     54  N   UNL A   1      40.407  32.386  31.530  1.00  0.00    -0.248 NA
ATOM     55  C   UNL A   1      38.795  34.061  31.753  1.00  0.00     0.031 C 
ATOM     56  C   UNL A   1      44.416  32.510  33.452  1.00  0.00     0.029 A 
ATOM     57  C   UNL A   1      43.154  32.484  32.878  1.00  0.00     0.049 A 
ATOM     58  H   UNL A   1      42.257  30.977  31.707  1.00  0.00     0.167 HD
ATOM     59  C   UNL A   1      40.916  33.403  32.327  1.00  0.00     0.074 A 
ATOM     60  C   UNL A   1      39.889  34.422  32.409  1.00  0.00     0.031 C 
ATOM     61  C   UNL A   1      42.121  33.485  32.939  1.00  0.00     0.037 A 
BRANCH  48  62
ATOM     62  C   UNL A   1      45.737  28.547  32.102  1.00  0.00     0.057 A 
ATOM     63  C   UNL A   1      46.876  28.714  31.303  1.00  0.00     0.134 A 
ATOM     64  C   UNL A   1      45.848  27.706  33.216  1.00  0.00     0.134 A 
ATOM     65  F   UNL A   1      46.830  29.492  30.210  1.00  0.00    -0.206 F 
ATOM     66  C   UNL A   1      48.069  28.046  31.582  1.00  0.00     0.040 A 
ATOM     67  C   UNL A   1      47.044  27.054  33.522  1.00  0.00     0.040 A 
ATOM     68  F   UNL A   1      44.797  27.504  34.026  1.00  0.00    -0.206 F 
ATOM     69  C   UNL A   1      48.157  27.218  32.699  1.00  0.00     0.006 A 
ENDBRANCH  48  62
BRANCH  49  70
ATOM     70  C   UNL A   1      36.867  32.666  30.051  1.00  0.00     0.057 A 
ATOM     71  C   UNL A   1      35.757  32.344  30.840  1.00  0.00     0.134 A 
ATOM     72  C   UNL A   1      36.673  33.573  29.002  1.00  0.00     0.134 A 
ATOM     73  F   UNL A   1      35.877  31.468  31.847  1.00  0.00    -0.206 F 
ATOM     74  C   UNL A   1      34.496  32.888  30.586  1.00  0.00     0.040 A 
ATOM     75  C   UNL A   1      35.423  34.141  28.751  1.00  0.00     0.040 A 
ATOM     76  F   UNL A   1      37.699  33.927  28.215  1.00  0.00    -0.206 F 
ATOM     77  C   UNL A   1      34.329  33.794  29.541  1.00  0.00     0.006 A 
ENDBRANCH  49  70
BRANCH  61  78
ATOM     78  C   UNL A   1      42.404  34.726  33.730  1.00  0.00     0.057 A 
ATOM     79  C   UNL A   1      42.947  35.870  33.132  1.00  0.00     0.134 A 
ATOM     80  C   UNL A   1      42.081  34.794  35.091  1.00  0.00     0.134 A 
ATOM     81  F   UNL A   1      43.289  35.861  31.834  1.00  0.00    -0.206 F 
ATOM     82  C   UNL A   1      43.172  37.035  33.864  1.00  0.00     0.040 A 
ATOM     83  C   UNL A   1      42.280  35.961  35.828  1.00  0.00     0.040 A 
ATOM     84  F   UNL A   1      41.550  33.734  35.719  1.00  0.00    -0.206 F 
ATOM     85  C   UNL A   1      42.830  37.085  35.215  1.00  0.00     0.006 A 
ENDBRANCH  61  78
ENDBRANCH  35  36
ENDBRANCH  27  30
ENDBRANCH  25  26
ENDBRANCH  24  25
ENDBRANCH   1  24
TORSDOF 13
ENDMDL
MODEL 2
REMARK VINA RESULT:     -10.8      4.062      9.546
REMARK SMILES C[C@]1(C(=O)N2CCC(CC(=O)NCCCCNC(=O)c3ccc(-c4c5nc(c(-c6c(F)cccc6F)c6ccc([nH]6)c(-c6c(F)cccc6F)c6nc(c(-c7c(F)cccc7F)c7ccc4[nH]7)C=C6)C=C5)cc3)CC2)CCC[NH2+]1
REMARK SMILES IDX 14 1 13 2 12 3 10 4 11 5 9 7 8 8 3 9 4 10 5 11 6 12 75 13
REMARK SMILES IDX 7 14 74 15 2 16 1 17 76 18 79 19 77 20 78 21 15 24 16 25
REMARK SMILES IDX 17 26 18 27 19 29 20 30 21 31 73 32 22 33 72 34 23 35 24 36
REMARK SMILES IDX 25 37 66 38 26 39 71 40 65 41 67 42 27 43 70 44 64 45 63 46
REMARK SMILES IDX 28 48 54 49 37 50 53 51 38 52 41 53 52 54 68 55 39 56 40 57
REMARK SMILES IDX 51 59 69 60 42 61 29 62 30 63 35 64 31 65 32 66 34 67 36 68
REMARK SMILES IDX 33 69 55 70 56 71 61 72 57 73 58 74 60 75 62 76 59 77 43 78
REMARK SMILES IDX 44 79 49 80 45 81 46 82 48 83 50 84 47 85
REMARK H PARENT 12 6 79 22 79 23 17 28 67 47 41 58
REMARK Flexibility Score: inf
ROOT
ATOM      1  C   UNL A   1      36.023  21.251  25.497  1.00  0.00     0.023 C 
ENDROOT
BRANCH   1   2
ATOM      2  C   UNL A   1      34.975  20.314  24.882  1.00  0.00     0.116 C 
BRANCH   2   3
ATOM      3  N   UNL A   1      33.653  20.520  25.456  1.00  0.00    -0.356 N 
ATOM      4  C   UNL A   1      32.519  21.048  24.908  1.00  0.00     0.220 C 
ATOM      5  O   UNL A   1      31.524  21.159  25.628  1.00  0.00    -0.275 OA
ATOM      6  H   UNL A   1      33.562  20.233  26.393  1.00  0.00     0.163 HD
BRANCH   4   7
ATOM      7  C   UNL A   1      32.480  21.509  23.457  1.00  0.00     0.103 C 
BRANCH   7   8
ATOM      8  C   UNL A   1      32.446  23.044  23.296  1.00  0.00     0.002 C 
ATOM      9  C   UNL A   1      31.849  25.976  25.938  1.00  0.00     0.283 C 
ATOM     10  O   UNL A   1      31.394  25.179  26.758  1.00  0.00    -0.268 OA
ATOM     11  N   UNL A   1      32.096  25.610  24.623  1.00  0.00    -0.337 N 
ATOM     12  C   UNL A   1      30.997  25.094  23.847  1.00  0.00     0.120 C 
ATOM     13  C   UNL A   1      33.422  25.236  24.169  1.00  0.00     0.120 C 
ATOM     14  C   UNL A   1      31.085  23.592  23.715  1.00  0.00     0.026 C 
ATOM     15  C   UNL A   1      33.571  23.711  24.110  1.00  0.00     0.026 C 
BRANCH   9  16
ATOM     16  C   UNL A   1      32.140  27.470  26.257  1.00  0.00     0.173 C 
ATOM     17  C   UNL A   1      31.410  27.878  27.539  1.00  0.00     0.090 C 
ATOM     18  C   UNL A   1      33.636  27.788  26.286  1.00  0.00     0.084 C 
ATOM     19  N   UNL A   1      31.701  28.295  25.106  1.00  0.00    -0.334 N 
ATOM     20  C   UNL A   1      33.721  29.259  25.928  1.00  0.00     0.068 C 
ATOM     21  C   UNL A   1      32.490  29.520  25.076  1.00  0.00     0.261 C 
ATOM     22  H   UNL A   1      30.713  28.526  25.207  1.00  0.00     0.347 HD
ATOM     23  H   UNL A   1      31.837  27.777  24.238  1.00  0.00     0.347 HD
ENDBRANCH   9  16
ENDBRANCH   7   8
ENDBRANCH   4   7
ENDBRANCH   2   3
ENDBRANCH   1   2
BRANCH   1  24
ATOM     24  C   UNL A   1      37.365  21.288  24.791  1.00  0.00     0.023 C 
BRANCH  24  25
ATOM     25  C   UNL A   1      38.555  21.282  25.728  1.00  0.00     0.116 C 
BRANCH  25  26
ATOM     26  N   UNL A   1      39.378  20.083  25.620  1.00  0.00    -0.352 N 
ATOM     27  C   UNL A   1      40.703  19.915  25.959  1.00  0.00     0.251 C 
ATOM     28  H   UNL A   1      38.927  19.288  25.257  1.00  0.00     0.163 HD
ATOM     29  O   UNL A   1      41.286  18.867  25.733  1.00  0.00    -0.269 OA
BRANCH  27  30
ATOM     30  C   UNL A   1      41.421  21.056  26.558  1.00  0.00     0.039 A 
ATOM     31  C   UNL A   1      42.008  22.004  25.717  1.00  0.00     0.014 A 
ATOM     32  C   UNL A   1      41.404  21.242  27.941  1.00  0.00     0.014 A 
ATOM     33  C   UNL A   1      42.491  23.193  26.263  1.00  0.00     0.010 A 
ATOM     34  C   UNL A   1      41.780  22.468  28.466  1.00  0.00     0.010 A 
ATOM     35  C   UNL A   1      42.328  23.456  27.632  1.00  0.00    -0.014 A 
BRANCH  35  36
ATOM     36  C   UNL A   1      42.728  24.752  28.231  1.00  0.00     0.031 A 
ATOM     37  C   UNL A   1      41.686  25.812  28.459  1.00  0.00     0.074 A 
ATOM     38  C   UNL A   1      44.028  25.010  28.473  1.00  0.00     0.049 A 
ATOM     39  N   UNL A   1      41.839  27.051  28.846  1.00  0.00    -0.248 NA
ATOM     40  C   UNL A   1      40.291  25.438  28.171  1.00  0.00     0.031 C 
ATOM     41  C   UNL A   1      45.139  24.087  28.230  1.00  0.00     0.029 A 
ATOM     42  N   UNL A   1      44.636  26.137  28.964  1.00  0.00    -0.354 N 
ATOM     43  C   UNL A   1      40.568  27.610  28.815  1.00  0.00     0.074 A 
ATOM     44  C   UNL A   1      39.666  26.596  28.316  1.00  0.00     0.031 C 
ATOM     45  C   UNL A   1      46.289  24.675  28.599  1.00  0.00     0.029 A 
ATOM     46  C   UNL A   1      46.002  26.027  29.066  1.00  0.00     0.049 A 
ATOM     47  H   UNL A   1      44.141  26.949  29.219  1.00  0.00     0.167 HD
ATOM     48  C   UNL A   1      40.182  28.850  29.196  1.00  0.00     0.037 A 
ATOM     49  C   UNL A   1      46.918  26.921  29.484  1.00  0.00     0.037 A 
ATOM     50  C   UNL A   1      41.073  29.835  29.744  1.00  0.00     0.049 A 
ATOM     51  C   UNL A   1      46.461  28.281  29.930  1.00  0.00     0.074 A 
ATOM     52  C   UNL A   1      40.769  31.088  30.245  1.00  0.00     0.029 A 
ATOM     53  N   UNL A   1      42.444  29.672  29.868  1.00  0.00    -0.354 N 
ATOM     54  N   UNL A   1      45.246  28.774  29.964  1.00  0.00    -0.248 NA
ATOM     55  C   UNL A   1      47.499  29.211  30.397  1.00  0.00     0.031 C 
ATOM     56  C   UNL A   1      41.963  31.697  30.643  1.00  0.00     0.029 A 
ATOM     57  C   UNL A   1      43.005  30.808  30.422  1.00  0.00     0.049 A 
ATOM     58  H   UNL A   1      42.944  28.866  29.602  1.00  0.00     0.167 HD
ATOM     59  C   UNL A   1      45.370  30.060  30.474  1.00  0.00     0.074 A 
ATOM     60  C   UNL A   1      46.778  30.266  30.748  1.00  0.00     0.031 C 
ATOM     61  C   UNL A   1      44.408  30.987  30.692  1.00  0.00     0.037 A 
BRANCH  48  62
ATOM     62  C   UNL A   1      38.729  29.193  29.049  1.00  0.00     0.057 A 
ATOM     63  C   UNL A   1      38.187  29.600  27.823  1.00  0.00     0.134 A 
ATOM     64  C   UNL A   1      37.859  29.103  30.142  1.00  0.00     0.134 A 
ATOM     65  F   UNL A   1      38.972  29.724  26.741  1.00  0.00    -0.206 F 
ATOM     66  C   UNL A   1      36.838  29.935  27.696  1.00  0.00     0.040 A 
ATOM     67  C   UNL A   1      36.502  29.408  30.021  1.00  0.00     0.040 A 
ATOM     68  F   UNL A   1      38.312  28.717  31.345  1.00  0.00    -0.206 F 
ATOM     69  C   UNL A   1      35.990  29.832  28.796  1.00  0.00     0.006 A 
ENDBRANCH  48  62
BRANCH  49  70
ATOM     70  C   UNL A   1      48.354  26.551  29.528  1.00  0.00     0.057 A 
ATOM     71  C   UNL A   1      48.893  25.891  30.638  1.00  0.00     0.134 A 
ATOM     72  C   UNL A   1      49.222  26.848  28.471  1.00  0.00     0.134 A 
ATOM     73  F   UNL A   1      48.115  25.596  31.690  1.00  0.00    -0.206 F 
ATOM     74  C   UNL A   1      50.246  25.554  30.705  1.00  0.00     0.040 A 
ATOM     75  C   UNL A   1      50.573  26.498  28.514  1.00  0.00     0.040 A 
ATOM     76  F   UNL A   1      48.766  27.473  27.375  1.00  0.00    -0.206 F 
ATOM     77  C   UNL A   1      51.089  25.854  29.637  1.00  0.00     0.006 A 
ENDBRANCH  49  70
BRANCH  61  78
ATOM     78  C   UNL A   1      44.840  32.298  31.275  1.00  0.00     0.057 A 
ATOM     79  C   UNL A   1      44.919  32.496  32.658  1.00  0.00     0.134 A 
ATOM     80  C   UNL A   1      45.232  33.354  30.443  1.00  0.00     0.134 A 
ATOM     81  F   UNL A   1      44.545  31.525  33.506  1.00  0.00    -0.206 F 
ATOM     82  C   UNL A   1      45.360  33.706  33.196  1.00  0.00     0.040 A 
ATOM     83  C   UNL A   1      45.696  34.560  30.968  1.00  0.00     0.040 A 
ATOM     84  F   UNL A   1      45.188  33.224  29.108  1.00  0.00    -0.206 F 
ATOM     85  C   UNL A   1      45.758  34.739  32.349  1.00  0.00     0.006 A 
ENDBRANCH  61  78
ENDBRANCH  35  36
ENDBRANCH  27  30
ENDBRANCH  25  26
ENDBRANCH  24  25
ENDBRANCH   1  24
TORSDOF 13
ENDMDL
MODEL 3
REMARK VINA RESULT:     -10.8      3.973      7.267
REMARK SMILES C[C@]1(C(=O)N2CCC(CC(=O)NCCCCNC(=O)c3ccc(-c4c5nc(c(-c6c(F)cccc6F)c6ccc([nH]6)c(-c6c(F)cccc6F)c6nc(c(-c7c(F)cccc7F)c7ccc4[nH]7)C=C6)C=C5)cc3)CC2)CCC[NH2+]1
REMARK SMILES IDX 14 1 13 2 12 3 10 4 11 5 9 7 8 8 3 9 4 10 5 11 6 12 75 13
REMARK SMILES IDX 7 14 74 15 2 16 1 17 76 18 79 19 77 20 78 21 15 24 16 25
REMARK SMILES IDX 17 26 18 27 19 29 20 30 21 31 73 32 22 33 72 34 23 35 24 36
REMARK SMILES IDX 25 37 66 38 26 39 71 40 65 41 67 42 27 43 70 44 64 45 63 46
REMARK SMILES IDX 28 48 54 49 37 50 53 51 38 52 41 53 52 54 68 55 39 56 40 57
REMARK SMILES IDX 51 59 69 60 42 61 29 62 30 63 35 64 31 65 32 66 34 67 36 68
REMARK SMILES IDX 33 69 55 70 56 71 61 72 57 73 58 74 60 75 62 76 59 77 43 78
REMARK SMILES IDX 44 79 49 80 45 81 46 82 48 83 50 84 47 85
REMARK H PARENT 12 6 79 22 79 23 17 28 67 47 41 58
REMARK Flexibility Score: inf
ROOT
ATOM      1  C   UNL A   1      36.786  19.975  24.978  1.00  0.00     0.023 C 
ENDROOT
BRANCH   1   2
ATOM      2  C   UNL A   1      35.464  20.752  25.024  1.00  0.00     0.116 C 
BRANCH   2   3
ATOM      3  N   UNL A   1      34.336  19.892  25.347  1.00  0.00    -0.356 N 
ATOM      4  C   UNL A   1      33.042  19.920  24.908  1.00  0.00     0.220 C 
ATOM      5  O   UNL A   1      32.253  19.096  25.376  1.00  0.00    -0.275 OA
ATOM      6  H   UNL A   1      34.537  19.173  25.989  1.00  0.00     0.163 HD
BRANCH   4   7
ATOM      7  C   UNL A   1      32.574  20.949  23.887  1.00  0.00     0.103 C 
BRANCH   7   8
ATOM      8  C   UNL A   1      31.826  22.146  24.514  1.00  0.00     0.002 C 
ATOM      9  C   UNL A   1      33.090  25.745  25.687  1.00  0.00     0.283 C 
ATOM     10  O   UNL A   1      34.262  25.369  25.666  1.00  0.00    -0.268 OA
ATOM     11  N   UNL A   1      32.034  24.855  25.554  1.00  0.00    -0.337 N 
ATOM     12  C   UNL A   1      31.938  23.773  26.500  1.00  0.00     0.120 C 
ATOM     13  C   UNL A   1      31.366  24.646  24.283  1.00  0.00     0.120 C 
ATOM     14  C   UNL A   1      32.406  22.474  25.887  1.00  0.00     0.026 C 
ATOM     15  C   UNL A   1      31.885  23.379  23.593  1.00  0.00     0.026 C 
BRANCH   9  16
ATOM     16  C   UNL A   1      32.662  27.222  25.920  1.00  0.00     0.173 C 
ATOM     17  C   UNL A   1      31.333  27.264  26.677  1.00  0.00     0.090 C 
ATOM     18  C   UNL A   1      33.760  28.058  26.581  1.00  0.00     0.084 C 
ATOM     19  N   UNL A   1      32.551  27.897  24.605  1.00  0.00    -0.334 N 
ATOM     20  C   UNL A   1      33.486  29.478  26.125  1.00  0.00     0.068 C 
ATOM     21  C   UNL A   1      32.785  29.324  24.785  1.00  0.00     0.261 C 
ATOM     22  H   UNL A   1      31.618  27.748  24.221  1.00  0.00     0.347 HD
ATOM     23  H   UNL A   1      33.242  27.513  23.961  1.00  0.00     0.347 HD
ENDBRANCH   9  16
ENDBRANCH   7   8
ENDBRANCH   4   7
ENDBRANCH   2   3
ENDBRANCH   1   2
BRANCH   1  24
ATOM     24  C   UNL A   1      38.043  20.821  24.905  1.00  0.00     0.023 C 
BRANCH  24  25
ATOM     25  C   UNL A   1      38.980  20.635  26.081  1.00  0.00     0.116 C 
BRANCH  25  26
ATOM     26  N   UNL A   1      39.961  19.575  25.885  1.00  0.00    -0.352 N 
ATOM     27  C   UNL A   1      41.327  19.622  26.059  1.00  0.00     0.251 C 
ATOM     28  H   UNL A   1      39.599  18.709  25.588  1.00  0.00     0.163 HD
ATOM     29  O   UNL A   1      42.035  18.669  25.774  1.00  0.00    -0.269 OA
BRANCH  27  30
ATOM     30  C   UNL A   1      41.925  20.877  26.554  1.00  0.00     0.039 A 
ATOM     31  C   UNL A   1      42.343  21.837  25.631  1.00  0.00     0.014 A 
ATOM     32  C   UNL A   1      41.955  21.142  27.924  1.00  0.00     0.014 A 
ATOM     33  C   UNL A   1      42.699  23.107  26.083  1.00  0.00     0.010 A 
ATOM     34  C   UNL A   1      42.200  22.434  28.360  1.00  0.00     0.010 A 
ATOM     35  C   UNL A   1      42.575  23.430  27.444  1.00  0.00    -0.014 A 
BRANCH  35  36
ATOM     36  C   UNL A   1      42.838  24.799  27.949  1.00  0.00     0.031 A 
ATOM     37  C   UNL A   1      44.234  25.180  28.356  1.00  0.00     0.074 A 
ATOM     38  C   UNL A   1      41.815  25.656  28.135  1.00  0.00     0.049 A 
ATOM     39  N   UNL A   1      44.656  26.271  28.939  1.00  0.00    -0.248 NA
ATOM     40  C   UNL A   1      45.289  24.182  28.111  1.00  0.00     0.031 C 
ATOM     41  C   UNL A   1      40.407  25.378  27.842  1.00  0.00     0.029 A 
ATOM     42  N   UNL A   1      41.803  26.934  28.634  1.00  0.00    -0.354 N 
ATOM     43  C   UNL A   1      46.013  26.074  29.160  1.00  0.00     0.074 A 
ATOM     44  C   UNL A   1      46.332  24.740  28.703  1.00  0.00     0.031 C 
ATOM     45  C   UNL A   1      39.673  26.464  28.140  1.00  0.00     0.029 A 
ATOM     46  C   UNL A   1      40.549  27.497  28.679  1.00  0.00     0.049 A 
ATOM     47  H   UNL A   1      42.615  27.405  28.929  1.00  0.00     0.167 HD
ATOM     48  C   UNL A   1      46.919  26.940  29.671  1.00  0.00     0.037 A 
ATOM     49  C   UNL A   1      40.156  28.708  29.115  1.00  0.00     0.037 A 
ATOM     50  C   UNL A   1      46.608  28.284  30.072  1.00  0.00     0.049 A 
ATOM     51  C   UNL A   1      41.185  29.662  29.652  1.00  0.00     0.074 A 
ATOM     52  C   UNL A   1      47.467  29.271  30.519  1.00  0.00     0.029 A 
ATOM     53  N   UNL A   1      45.333  28.830  30.068  1.00  0.00    -0.354 N 
ATOM     54  N   UNL A   1      42.478  29.490  29.789  1.00  0.00    -0.248 NA
ATOM     55  C   UNL A   1      40.704  30.978  30.095  1.00  0.00     0.031 C 
ATOM     56  C   UNL A   1      46.707  30.407  30.815  1.00  0.00     0.029 A 
ATOM     57  C   UNL A   1      45.380  30.137  30.520  1.00  0.00     0.049 A 
ATOM     58  H   UNL A   1      44.517  28.359  29.784  1.00  0.00     0.167 HD
ATOM     59  C   UNL A   1      42.967  30.680  30.312  1.00  0.00     0.074 A 
ATOM     60  C   UNL A   1      41.834  31.571  30.455  1.00  0.00     0.031 C 
ATOM     61  C   UNL A   1      44.238  31.006  30.647  1.00  0.00     0.037 A 
BRANCH  48  62
ATOM     62  C   UNL A   1      48.333  26.457  29.804  1.00  0.00     0.057 A 
ATOM     63  C   UNL A   1      48.785  25.803  30.957  1.00  0.00     0.134 A 
ATOM     64  C   UNL A   1      49.249  26.636  28.760  1.00  0.00     0.134 A 
ATOM     65  F   UNL A   1      47.961  25.617  32.000  1.00  0.00    -0.206 F 
ATOM     66  C   UNL A   1      50.106  25.370  31.081  1.00  0.00     0.040 A 
ATOM     67  C   UNL A   1      50.566  26.182  28.861  1.00  0.00     0.040 A 
ATOM     68  F   UNL A   1      48.881  27.251  27.626  1.00  0.00    -0.206 F 
ATOM     69  C   UNL A   1      50.999  25.554  30.027  1.00  0.00     0.006 A 
ENDBRANCH  48  62
BRANCH  49  70
ATOM     70  C   UNL A   1      38.726  29.099  29.038  1.00  0.00     0.057 A 
ATOM     71  C   UNL A   1      38.177  29.583  27.844  1.00  0.00     0.134 A 
ATOM     72  C   UNL A   1      37.877  29.004  30.146  1.00  0.00     0.134 A 
ATOM     73  F   UNL A   1      38.946  29.713  26.754  1.00  0.00    -0.206 F 
ATOM     74  C   UNL A   1      36.840  29.975  27.760  1.00  0.00     0.040 A 
ATOM     75  C   UNL A   1      36.532  29.371  30.070  1.00  0.00     0.040 A 
ATOM     76  F   UNL A   1      38.341  28.541  31.317  1.00  0.00    -0.206 F 
ATOM     77  C   UNL A   1      36.012  29.864  28.875  1.00  0.00     0.006 A 
ENDBRANCH  49  70
BRANCH  61  78
ATOM     78  C   UNL A   1      44.474  32.386  31.178  1.00  0.00     0.057 A 
ATOM     79  C   UNL A   1      44.476  32.654  32.552  1.00  0.00     0.134 A 
ATOM     80  C   UNL A   1      44.756  33.447  30.308  1.00  0.00     0.134 A 
ATOM     81  F   UNL A   1      44.199  31.681  33.434  1.00  0.00    -0.206 F 
ATOM     82  C   UNL A   1      44.735  33.934  33.043  1.00  0.00     0.040 A 
ATOM     83  C   UNL A   1      45.039  34.726  30.787  1.00  0.00     0.040 A 
ATOM     84  F   UNL A   1      44.778  33.252  28.981  1.00  0.00    -0.206 F 
ATOM     85  C   UNL A   1      45.026  34.972  32.159  1.00  0.00     0.006 A 
ENDBRANCH  61  78
ENDBRANCH  35  36
ENDBRANCH  27  30
ENDBRANCH  25  26
ENDBRANCH  24  25
ENDBRANCH   1  24
TORSDOF 13
ENDMDL
