MODEL 1
REMARK VINA RESULT:     -10.1      0.000      0.000
REMARK SMILES O=C(Cc1cccc(-c2ccn(C(F)F)c(=O)c2)c1)NCCCCNC(=O)c1ccc(-c2c3nc(c(-c4c(F)cccc4F)c4ccc([nH]4)c(-c4c(F)cccc4F)c4nc(c(-c5c(F)cccc5F)c5ccc2[nH]5)C=C4)C=C3)cc1
REMARK SMILES IDX 22 1 21 2 20 3 1 4 2 5 3 7 4 8 5 9 19 10 6 11 8 12 7 13 9 14
REMARK SMILES IDX 10 15 18 16 11 17 16 18 12 19 17 20 13 21 14 22 15 23 23 24
REMARK SMILES IDX 24 25 25 26 26 27 27 29 28 30 29 31 81 32 30 33 80 34 31 35
REMARK SMILES IDX 32 36 33 37 74 38 34 39 79 40 73 41 75 42 35 43 78 44 72 45
REMARK SMILES IDX 71 46 36 48 62 49 45 50 61 51 46 52 49 53 60 54 76 55 47 56
REMARK SMILES IDX 48 57 59 59 77 60 50 61 37 62 38 63 43 64 39 65 40 66 42 67
REMARK SMILES IDX 44 68 41 69 63 70 64 71 69 72 65 73 66 74 68 75 70 76 67 77
REMARK SMILES IDX 51 78 52 79 57 80 53 81 54 82 56 83 58 84 55 85
REMARK H PARENT 20 6 25 28 75 47 49 58
REMARK Flexibility Score: inf
ROOT
ATOM      1  C   UNL A   1      32.459  35.972  31.082  1.00  0.00     0.023 C 
ENDROOT
BRANCH   1   2
ATOM      2  C   UNL A   1      32.762  35.960  32.579  1.00  0.00     0.116 C 
BRANCH   2   3
ATOM      3  N   UNL A   1      33.349  34.707  33.009  1.00  0.00    -0.356 N 
ATOM      4  O   UNL A   1      35.485  35.192  32.316  1.00  0.00    -0.275 OA
ATOM      5  C   UNL A   1      34.691  34.428  32.858  1.00  0.00     0.224 C 
ATOM      6  H   UNL A   1      32.768  34.029  33.426  1.00  0.00     0.163 HD
BRANCH   5   7
ATOM      7  C   UNL A   1      35.114  33.062  33.371  1.00  0.00     0.135 C 
BRANCH   7   8
ATOM      8  C   UNL A   1      36.340  33.043  34.257  1.00  0.00    -0.038 A 
ATOM      9  C   UNL A   1      36.664  34.099  35.120  1.00  0.00     0.004 A 
ATOM     10  C   UNL A   1      37.239  31.968  34.149  1.00  0.00     0.013 A 
ATOM     11  C   UNL A   1      37.832  34.060  35.885  1.00  0.00     0.001 A 
ATOM     12  C   UNL A   1      38.423  31.929  34.900  1.00  0.00    -0.018 A 
ATOM     13  C   UNL A   1      38.709  32.979  35.776  1.00  0.00     0.009 A 
BRANCH  12  14
ATOM     14  C   UNL A   1      39.359  30.802  34.718  1.00  0.00    -0.011 A 
ATOM     15  C   UNL A   1      39.368  29.990  33.516  1.00  0.00     0.027 A 
ATOM     16  C   UNL A   1      40.202  30.495  35.719  1.00  0.00     0.080 A 
ATOM     17  C   UNL A   1      40.177  28.929  33.416  1.00  0.00     0.095 A 
ATOM     18  C   UNL A   1      41.118  29.323  35.616  1.00  0.00     0.255 A 
ATOM     19  N   UNL A   1      41.032  28.588  34.445  1.00  0.00    -0.258 N 
ATOM     20  O   UNL A   1      41.865  29.083  36.559  1.00  0.00    -0.269 OA
BRANCH  19  21
ATOM     21  C   UNL A   1      41.864  27.415  34.346  1.00  0.00     0.451 C 
ATOM     22  F   UNL A   1      41.226  26.316  34.816  1.00  0.00    -0.185 F 
ATOM     23  F   UNL A   1      42.216  27.181  33.058  1.00  0.00    -0.185 F 
ENDBRANCH  19  21
ENDBRANCH  12  14
ENDBRANCH   7   8
ENDBRANCH   5   7
ENDBRANCH   2   3
ENDBRANCH   1   2
BRANCH   1  24
ATOM     24  C   UNL A   1      33.240  37.010  30.271  1.00  0.00     0.023 C 
BRANCH  24  25
ATOM     25  C   UNL A   1      33.558  36.616  28.831  1.00  0.00     0.116 C 
BRANCH  25  26
ATOM     26  N   UNL A   1      32.813  35.450  28.384  1.00  0.00    -0.352 N 
ATOM     27  C   UNL A   1      33.212  34.138  28.294  1.00  0.00     0.251 C 
ATOM     28  H   UNL A   1      31.886  35.627  28.104  1.00  0.00     0.163 HD
ATOM     29  O   UNL A   1      32.479  33.311  27.756  1.00  0.00    -0.269 OA
BRANCH  27  30
ATOM     30  C   UNL A   1      34.535  33.719  28.813  1.00  0.00     0.039 A 
ATOM     31  C   UNL A   1      34.590  32.677  29.743  1.00  0.00     0.014 A 
ATOM     32  C   UNL A   1      35.712  34.344  28.394  1.00  0.00     0.014 A 
ATOM     33  C   UNL A   1      35.830  32.214  30.194  1.00  0.00     0.010 A 
ATOM     34  C   UNL A   1      36.947  33.832  28.786  1.00  0.00     0.010 A 
ATOM     35  C   UNL A   1      37.021  32.760  29.688  1.00  0.00    -0.014 A 
BRANCH  35  36
ATOM     36  C   UNL A   1      38.346  32.207  30.073  1.00  0.00     0.031 A 
ATOM     37  C   UNL A   1      38.820  30.893  29.514  1.00  0.00     0.074 A 
ATOM     38  C   UNL A   1      39.100  32.859  30.983  1.00  0.00     0.049 A 
ATOM     39  N   UNL A   1      39.917  30.230  29.780  1.00  0.00    -0.248 NA
ATOM     40  C   UNL A   1      37.935  30.227  28.546  1.00  0.00     0.031 C 
ATOM     41  C   UNL A   1      38.740  34.120  31.633  1.00  0.00     0.029 A 
ATOM     42  N   UNL A   1      40.324  32.546  31.522  1.00  0.00    -0.354 N 
ATOM     43  C   UNL A   1      39.844  29.062  29.031  1.00  0.00     0.074 A 
ATOM     44  C   UNL A   1      38.576  29.087  28.333  1.00  0.00     0.031 C 
ATOM     45  C   UNL A   1      39.733  34.489  32.457  1.00  0.00     0.029 A 
ATOM     46  C   UNL A   1      40.778  33.471  32.430  1.00  0.00     0.049 A 
ATOM     47  H   UNL A   1      40.828  31.736  31.280  1.00  0.00     0.167 HD
ATOM     48  C   UNL A   1      40.758  28.069  28.920  1.00  0.00     0.037 A 
ATOM     49  C   UNL A   1      41.907  33.496  33.165  1.00  0.00     0.037 A 
ATOM     50  C   UNL A   1      42.030  28.056  29.595  1.00  0.00     0.049 A 
ATOM     51  C   UNL A   1      42.899  32.374  33.034  1.00  0.00     0.074 A 
ATOM     52  C   UNL A   1      43.051  27.128  29.488  1.00  0.00     0.029 A 
ATOM     53  N   UNL A   1      42.452  29.010  30.509  1.00  0.00    -0.354 N 
ATOM     54  N   UNL A   1      42.847  31.311  32.268  1.00  0.00    -0.248 NA
ATOM     55  C   UNL A   1      44.106  32.457  33.867  1.00  0.00     0.031 C 
ATOM     56  C   UNL A   1      44.066  27.489  30.381  1.00  0.00     0.029 A 
ATOM     57  C   UNL A   1      43.705  28.676  30.996  1.00  0.00     0.049 A 
ATOM     58  H   UNL A   1      41.937  29.806  30.772  1.00  0.00     0.167 HD
ATOM     59  C   UNL A   1      44.027  30.615  32.503  1.00  0.00     0.074 A 
ATOM     60  C   UNL A   1      44.778  31.384  33.474  1.00  0.00     0.031 C 
ATOM     61  C   UNL A   1      44.448  29.448  31.960  1.00  0.00     0.037 A 
BRANCH  48  62
ATOM     62  C   UNL A   1      40.417  26.902  28.037  1.00  0.00     0.057 A 
ATOM     63  C   UNL A   1      40.952  26.763  26.750  1.00  0.00     0.134 A 
ATOM     64  C   UNL A   1      39.583  25.877  28.502  1.00  0.00     0.134 A 
ATOM     65  F   UNL A   1      41.750  27.712  26.238  1.00  0.00    -0.206 F 
ATOM     66  C   UNL A   1      40.652  25.659  25.949  1.00  0.00     0.040 A 
ATOM     67  C   UNL A   1      39.299  24.755  27.723  1.00  0.00     0.040 A 
ATOM     68  F   UNL A   1      39.042  25.942  29.729  1.00  0.00    -0.206 F 
ATOM     69  C   UNL A   1      39.830  24.646  26.440  1.00  0.00     0.006 A 
ENDBRANCH  48  62
BRANCH  49  70
ATOM     70  C   UNL A   1      42.175  34.641  34.072  1.00  0.00     0.057 A 
ATOM     71  C   UNL A   1      42.006  34.515  35.456  1.00  0.00     0.134 A 
ATOM     72  C   UNL A   1      42.606  35.880  33.586  1.00  0.00     0.134 A 
ATOM     73  F   UNL A   1      41.576  33.358  35.981  1.00  0.00    -0.206 F 
ATOM     74  C   UNL A   1      42.242  35.584  36.323  1.00  0.00     0.040 A 
ATOM     75  C   UNL A   1      42.870  36.950  34.443  1.00  0.00     0.040 A 
ATOM     76  F   UNL A   1      42.794  36.065  32.271  1.00  0.00    -0.206 F 
ATOM     77  C   UNL A   1      42.682  36.805  35.816  1.00  0.00     0.006 A 
ENDBRANCH  49  70
BRANCH  61  78
ATOM     78  C   UNL A   1      45.802  28.942  32.371  1.00  0.00     0.057 A 
ATOM     79  C   UNL A   1      45.973  28.069  33.452  1.00  0.00     0.134 A 
ATOM     80  C   UNL A   1      46.946  29.303  31.645  1.00  0.00     0.134 A 
ATOM     81  F   UNL A   1      44.923  27.693  34.196  1.00  0.00    -0.206 F 
ATOM     82  C   UNL A   1      47.235  27.590  33.811  1.00  0.00     0.040 A 
ATOM     83  C   UNL A   1      48.208  28.808  31.975  1.00  0.00     0.040 A 
ATOM     84  F   UNL A   1      46.852  30.129  30.592  1.00  0.00    -0.206 F 
ATOM     85  C   UNL A   1      48.355  27.953  33.066  1.00  0.00     0.006 A 
ENDBRANCH  61  78
ENDBRANCH  35  36
ENDBRANCH  27  30
ENDBRANCH  25  26
ENDBRANCH  24  25
ENDBRANCH   1  24
TORSDOF 14
ENDMDL
MODEL 2
REMARK VINA RESULT:     -10.0      0.253      6.166
REMARK SMILES O=C(Cc1cccc(-c2ccn(C(F)F)c(=O)c2)c1)NCCCCNC(=O)c1ccc(-c2c3nc(c(-c4c(F)cccc4F)c4ccc([nH]4)c(-c4c(F)cccc4F)c4nc(c(-c5c(F)cccc5F)c5ccc2[nH]5)C=C4)C=C3)cc1
REMARK SMILES IDX 22 1 21 2 20 3 1 4 2 5 3 7 4 8 5 9 19 10 6 11 8 12 7 13 9 14
REMARK SMILES IDX 10 15 18 16 11 17 16 18 12 19 17 20 13 21 14 22 15 23 23 24
REMARK SMILES IDX 24 25 25 26 26 27 27 29 28 30 29 31 81 32 30 33 80 34 31 35
REMARK SMILES IDX 32 36 33 37 74 38 34 39 79 40 73 41 75 42 35 43 78 44 72 45
REMARK SMILES IDX 71 46 36 48 62 49 45 50 61 51 46 52 49 53 60 54 76 55 47 56
REMARK SMILES IDX 48 57 59 59 77 60 50 61 37 62 38 63 43 64 39 65 40 66 42 67
REMARK SMILES IDX 44 68 41 69 63 70 64 71 69 72 65 73 66 74 68 75 70 76 67 77
REMARK SMILES IDX 51 78 52 79 57 80 53 81 54 82 56 83 58 84 55 85
REMARK H PARENT 20 6 25 28 75 47 49 58
REMARK Flexibility Score: inf
ROOT
ATOM      1  C   UNL A   1      32.307  36.227  31.111  1.00  0.00     0.023 C 
ENDROOT
BRANCH   1   2
ATOM      2  C   UNL A   1      32.598  36.066  32.601  1.00  0.00     0.116 C 
BRANCH   2   3
ATOM      3  N   UNL A   1      33.224  34.795  32.905  1.00  0.00    -0.356 N 
ATOM      4  O   UNL A   1      35.381  35.585  32.903  1.00  0.00    -0.275 OA
ATOM      5  C   UNL A   1      34.588  34.660  33.053  1.00  0.00     0.224 C 
ATOM      6  H   UNL A   1      32.654  33.998  33.010  1.00  0.00     0.163 HD
BRANCH   5   7
ATOM      7  C   UNL A   1      35.052  33.248  33.369  1.00  0.00     0.135 C 
BRANCH   7   8
ATOM      8  C   UNL A   1      36.206  33.137  34.341  1.00  0.00    -0.038 A 
ATOM      9  C   UNL A   1      36.445  34.090  35.340  1.00  0.00     0.004 A 
ATOM     10  C   UNL A   1      37.127  32.087  34.184  1.00  0.00     0.013 A 
ATOM     11  C   UNL A   1      37.552  33.973  36.185  1.00  0.00     0.001 A 
ATOM     12  C   UNL A   1      38.250  31.970  35.016  1.00  0.00    -0.018 A 
ATOM     13  C   UNL A   1      38.451  32.917  36.025  1.00  0.00     0.009 A 
BRANCH  12  14
ATOM     14  C   UNL A   1      39.214  30.878  34.784  1.00  0.00    -0.011 A 
ATOM     15  C   UNL A   1      39.215  30.093  33.563  1.00  0.00     0.027 A 
ATOM     16  C   UNL A   1      40.094  30.576  35.754  1.00  0.00     0.080 A 
ATOM     17  C   UNL A   1      40.052  29.060  33.417  1.00  0.00     0.095 A 
ATOM     18  C   UNL A   1      41.042  29.435  35.599  1.00  0.00     0.255 A 
ATOM     19  N   UNL A   1      40.946  28.723  34.414  1.00  0.00    -0.258 N 
ATOM     20  O   UNL A   1      41.822  29.198  36.516  1.00  0.00    -0.269 OA
BRANCH  19  21
ATOM     21  C   UNL A   1      41.810  27.580  34.266  1.00  0.00     0.451 C 
ATOM     22  F   UNL A   1      41.325  26.504  34.932  1.00  0.00    -0.185 F 
ATOM     23  F   UNL A   1      41.943  27.241  32.960  1.00  0.00    -0.185 F 
ENDBRANCH  19  21
ENDBRANCH  12  14
ENDBRANCH   7   8
ENDBRANCH   5   7
ENDBRANCH   2   3
ENDBRANCH   1   2
BRANCH   1  24
ATOM     24  C   UNL A   1      33.269  37.149  30.358  1.00  0.00     0.023 C 
BRANCH  24  25
ATOM     25  C   UNL A   1      33.627  36.712  28.941  1.00  0.00     0.116 C 
BRANCH  25  26
ATOM     26  N   UNL A   1      32.837  35.582  28.479  1.00  0.00    -0.352 N 
ATOM     27  C   UNL A   1      33.183  34.256  28.372  1.00  0.00     0.251 C 
ATOM     28  H   UNL A   1      31.917  35.799  28.202  1.00  0.00     0.163 HD
ATOM     29  O   UNL A   1      32.418  33.466  27.824  1.00  0.00    -0.269 OA
BRANCH  27  30
ATOM     30  C   UNL A   1      34.488  33.778  28.884  1.00  0.00     0.039 A 
ATOM     31  C   UNL A   1      34.499  32.778  29.861  1.00  0.00     0.014 A 
ATOM     32  C   UNL A   1      35.692  34.307  28.414  1.00  0.00     0.014 A 
ATOM     33  C   UNL A   1      35.717  32.259  30.310  1.00  0.00     0.010 A 
ATOM     34  C   UNL A   1      36.901  33.737  28.806  1.00  0.00     0.010 A 
ATOM     35  C   UNL A   1      36.928  32.704  29.755  1.00  0.00    -0.014 A 
BRANCH  35  36
ATOM     36  C   UNL A   1      38.224  32.087  30.141  1.00  0.00     0.031 A 
ATOM     37  C   UNL A   1      39.145  32.780  31.108  1.00  0.00     0.074 A 
ATOM     38  C   UNL A   1      38.606  30.927  29.568  1.00  0.00     0.049 A 
ATOM     39  N   UNL A   1      40.337  32.423  31.516  1.00  0.00    -0.248 NA
ATOM     40  C   UNL A   1      38.673  34.053  31.675  1.00  0.00     0.031 C 
ATOM     41  C   UNL A   1      37.827  30.172  28.585  1.00  0.00     0.029 A 
ATOM     42  N   UNL A   1      39.749  30.183  29.725  1.00  0.00    -0.354 N 
ATOM     43  C   UNL A   1      40.765  33.434  32.367  1.00  0.00     0.074 A 
ATOM     44  C   UNL A   1      39.724  34.439  32.385  1.00  0.00     0.031 C 
ATOM     45  C   UNL A   1      38.499  29.059  28.252  1.00  0.00     0.029 A 
ATOM     46  C   UNL A   1      39.774  29.042  28.960  1.00  0.00     0.049 A 
ATOM     47  H   UNL A   1      40.482  30.442  30.330  1.00  0.00     0.167 HD
ATOM     48  C   UNL A   1      41.912  33.508  33.083  1.00  0.00     0.037 A 
ATOM     49  C   UNL A   1      40.720  28.091  28.837  1.00  0.00     0.037 A 
ATOM     50  C   UNL A   1      42.936  32.496  33.084  1.00  0.00     0.049 A 
ATOM     51  C   UNL A   1      41.991  28.205  29.632  1.00  0.00     0.074 A 
ATOM     52  C   UNL A   1      44.099  32.450  33.832  1.00  0.00     0.029 A 
ATOM     53  N   UNL A   1      42.925  31.356  32.293  1.00  0.00    -0.354 N 
ATOM     54  N   UNL A   1      42.350  29.131  30.487  1.00  0.00    -0.248 NA
ATOM     55  C   UNL A   1      42.985  27.139  29.448  1.00  0.00     0.031 C 
ATOM     56  C   UNL A   1      44.821  31.313  33.453  1.00  0.00     0.029 A 
ATOM     57  C   UNL A   1      44.077  30.618  32.514  1.00  0.00     0.049 A 
ATOM     58  H   UNL A   1      42.207  31.110  31.668  1.00  0.00     0.167 HD
ATOM     59  C   UNL A   1      43.597  28.745  30.965  1.00  0.00     0.074 A 
ATOM     60  C   UNL A   1      43.925  27.494  30.313  1.00  0.00     0.031 C 
ATOM     61  C   UNL A   1      44.394  29.371  31.864  1.00  0.00     0.037 A 
BRANCH  48  62
ATOM     62  C   UNL A   1      42.129  34.732  33.927  1.00  0.00     0.057 A 
ATOM     63  C   UNL A   1      42.635  35.923  33.392  1.00  0.00     0.134 A 
ATOM     64  C   UNL A   1      41.776  34.733  35.283  1.00  0.00     0.134 A 
ATOM     65  F   UNL A   1      43.001  35.990  32.103  1.00  0.00    -0.206 F 
ATOM     66  C   UNL A   1      42.803  37.065  34.179  1.00  0.00     0.040 A 
ATOM     67  C   UNL A   1      41.913  35.875  36.074  1.00  0.00     0.040 A 
ATOM     68  F   UNL A   1      41.279  33.628  35.859  1.00  0.00    -0.206 F 
ATOM     69  C   UNL A   1      42.434  37.044  35.523  1.00  0.00     0.006 A 
ENDBRANCH  48  62
BRANCH  49  70
ATOM     70  C   UNL A   1      40.489  26.928  27.943  1.00  0.00     0.057 A 
ATOM     71  C   UNL A   1      39.680  25.860  28.348  1.00  0.00     0.134 A 
ATOM     72  C   UNL A   1      41.061  26.855  26.668  1.00  0.00     0.134 A 
ATOM     73  F   UNL A   1      39.119  25.863  29.567  1.00  0.00    -0.206 F 
ATOM     74  C   UNL A   1      39.462  24.754  27.525  1.00  0.00     0.040 A 
ATOM     75  C   UNL A   1      40.830  25.767  25.824  1.00  0.00     0.040 A 
ATOM     76  F   UNL A   1      41.840  27.849  26.216  1.00  0.00    -0.206 F 
ATOM     77  C   UNL A   1      40.033  24.709  26.255  1.00  0.00     0.006 A 
ENDBRANCH  49  70
BRANCH  61  78
ATOM     78  C   UNL A   1      45.685  28.696  32.231  1.00  0.00     0.057 A 
ATOM     79  C   UNL A   1      46.862  28.895  31.500  1.00  0.00     0.134 A 
ATOM     80  C   UNL A   1      45.758  27.869  33.361  1.00  0.00     0.134 A 
ATOM     81  F   UNL A   1      46.859  29.664  30.402  1.00  0.00    -0.206 F 
ATOM     82  C   UNL A   1      48.061  28.278  31.864  1.00  0.00     0.040 A 
ATOM     83  C   UNL A   1      46.957  27.271  33.753  1.00  0.00     0.040 A 
ATOM     84  F   UNL A   1      44.671  27.644  34.113  1.00  0.00    -0.206 F 
ATOM     85  C   UNL A   1      48.111  27.470  32.999  1.00  0.00     0.006 A 
ENDBRANCH  61  78
ENDBRANCH  35  36
ENDBRANCH  27  30
ENDBRANCH  25  26
ENDBRANCH  24  25
ENDBRANCH   1  24
TORSDOF 14
ENDMDL
MODEL 3
REMARK VINA RESULT:      -9.3      5.452     10.945
REMARK SMILES O=C(Cc1cccc(-c2ccn(C(F)F)c(=O)c2)c1)NCCCCNC(=O)c1ccc(-c2c3nc(c(-c4c(F)cccc4F)c4ccc([nH]4)c(-c4c(F)cccc4F)c4nc(c(-c5c(F)cccc5F)c5ccc2[nH]5)C=C4)C=C3)cc1
REMARK SMILES IDX 22 1 21 2 20 3 1 4 2 5 3 7 4 8 5 9 19 10 6 11 8 12 7 13 9 14
REMARK SMILES IDX 10 15 18 16 11 17 16 18 12 19 17 20 13 21 14 22 15 23 23 24
REMARK SMILES IDX 24 25 25 26 26 27 27 29 28 30 29 31 81 32 30 33 80 34 31 35
REMARK SMILES IDX 32 36 33 37 74 38 34 39 79 40 73 41 75 42 35 43 78 44 72 45
REMARK SMILES IDX 71 46 36 48 62 49 45 50 61 51 46 52 49 53 60 54 76 55 47 56
REMARK SMILES IDX 48 57 59 59 77 60 50 61 37 62 38 63 43 64 39 65 40 66 42 67
REMARK SMILES IDX 44 68 41 69 63 70 64 71 69 72 65 73 66 74 68 75 70 76 67 77
REMARK SMILES IDX 51 78 52 79 57 80 53 81 54 82 56 83 58 84 55 85
REMARK H PARENT 20 6 25 28 75 47 49 58
REMARK Flexibility Score: inf
ROOT
ATOM      1  C   UNL A   1      35.526  21.949  26.083  1.00  0.00     0.023 C 
ENDROOT
BRANCH   1   2
ATOM      2  C   UNL A   1      35.143  21.349  24.732  1.00  0.00     0.116 C 
BRANCH   2   3
ATOM      3  N   UNL A   1      33.783  21.676  24.352  1.00  0.00    -0.356 N 
ATOM      4  O   UNL A   1      34.349  23.249  22.776  1.00  0.00    -0.275 OA
ATOM      5  C   UNL A   1      33.493  22.603  23.373  1.00  0.00     0.224 C 
ATOM      6  H   UNL A   1      33.040  21.220  24.809  1.00  0.00     0.163 HD
BRANCH   5   7
ATOM      7  C   UNL A   1      32.010  22.808  23.118  1.00  0.00     0.135 C 
BRANCH   7   8
ATOM      8  C   UNL A   1      31.327  23.838  23.992  1.00  0.00    -0.038 A 
ATOM      9  C   UNL A   1      31.057  23.615  25.349  1.00  0.00     0.004 A 
ATOM     10  C   UNL A   1      30.865  25.027  23.404  1.00  0.00     0.013 A 
ATOM     11  C   UNL A   1      30.381  24.574  26.107  1.00  0.00     0.001 A 
ATOM     12  C   UNL A   1      30.170  25.989  24.153  1.00  0.00    -0.018 A 
ATOM     13  C   UNL A   1      29.939  25.758  25.512  1.00  0.00     0.009 A 
BRANCH  12  14
ATOM     14  C   UNL A   1      29.663  27.201  23.482  1.00  0.00    -0.011 A 
ATOM     15  C   UNL A   1      30.535  28.105  22.754  1.00  0.00     0.027 A 
ATOM     16  C   UNL A   1      28.356  27.498  23.585  1.00  0.00     0.080 A 
ATOM     17  C   UNL A   1      30.055  29.235  22.224  1.00  0.00     0.095 A 
ATOM     18  C   UNL A   1      27.805  28.748  22.986  1.00  0.00     0.255 A 
ATOM     19  N   UNL A   1      28.719  29.565  22.340  1.00  0.00    -0.258 N 
ATOM     20  O   UNL A   1      26.606  28.975  23.113  1.00  0.00    -0.269 OA
BRANCH  19  21
ATOM     21  C   UNL A   1      28.223  30.808  21.806  1.00  0.00     0.451 C 
ATOM     22  F   UNL A   1      29.202  31.742  21.738  1.00  0.00    -0.185 F 
ATOM     23  F   UNL A   1      27.722  30.631  20.559  1.00  0.00    -0.185 F 
ENDBRANCH  19  21
ENDBRANCH  12  14
ENDBRANCH   7   8
ENDBRANCH   5   7
ENDBRANCH   2   3
ENDBRANCH   1   2
BRANCH   1  24
ATOM     24  C   UNL A   1      35.980  23.410  26.038  1.00  0.00     0.023 C 
BRANCH  24  25
ATOM     25  C   UNL A   1      37.192  23.696  25.156  1.00  0.00     0.116 C 
BRANCH  25  26
ATOM     26  N   UNL A   1      38.318  22.821  25.438  1.00  0.00    -0.352 N 
ATOM     27  C   UNL A   1      39.476  23.080  26.132  1.00  0.00     0.251 C 
ATOM     28  H   UNL A   1      38.239  21.908  25.079  1.00  0.00     0.163 HD
ATOM     29  O   UNL A   1      40.380  22.248  26.145  1.00  0.00    -0.269 OA
BRANCH  27  30
ATOM     30  C   UNL A   1      39.655  24.369  26.838  1.00  0.00     0.039 A 
ATOM     31  C   UNL A   1      39.117  24.512  28.120  1.00  0.00     0.014 A 
ATOM     32  C   UNL A   1      40.341  25.434  26.247  1.00  0.00     0.014 A 
ATOM     33  C   UNL A   1      39.333  25.693  28.837  1.00  0.00     0.010 A 
ATOM     34  C   UNL A   1      40.620  26.578  26.990  1.00  0.00     0.010 A 
ATOM     35  C   UNL A   1      40.122  26.720  28.294  1.00  0.00    -0.014 A 
BRANCH  35  36
ATOM     36  C   UNL A   1      40.453  27.936  29.084  1.00  0.00     0.031 A 
ATOM     37  C   UNL A   1      41.774  28.052  29.793  1.00  0.00     0.074 A 
ATOM     38  C   UNL A   1      39.533  28.913  29.218  1.00  0.00     0.049 A 
ATOM     39  N   UNL A   1      42.213  29.009  30.573  1.00  0.00    -0.248 NA
ATOM     40  C   UNL A   1      42.719  26.938  29.621  1.00  0.00     0.031 C 
ATOM     41  C   UNL A   1      38.198  28.907  28.617  1.00  0.00     0.029 A 
ATOM     42  N   UNL A   1      39.579  30.099  29.909  1.00  0.00    -0.354 N 
ATOM     43  C   UNL A   1      43.471  28.603  30.999  1.00  0.00     0.074 A 
ATOM     44  C   UNL A   1      43.709  27.295  30.427  1.00  0.00     0.031 C 
ATOM     45  C   UNL A   1      37.566  30.047  28.938  1.00  0.00     0.029 A 
ATOM     46  C   UNL A   1      38.429  30.843  29.804  1.00  0.00     0.049 A 
ATOM     47  H   UNL A   1      40.362  30.389  30.430  1.00  0.00     0.167 HD
ATOM     48  C   UNL A   1      44.355  29.267  31.782  1.00  0.00     0.037 A 
ATOM     49  C   UNL A   1      38.102  32.032  30.348  1.00  0.00     0.037 A 
ATOM     50  C   UNL A   1      44.128  30.579  32.330  1.00  0.00     0.049 A 
ATOM     51  C   UNL A   1      39.096  32.742  31.224  1.00  0.00     0.074 A 
ATOM     52  C   UNL A   1      44.994  31.361  33.074  1.00  0.00     0.029 A 
ATOM     53  N   UNL A   1      42.949  31.299  32.203  1.00  0.00    -0.354 N 
ATOM     54  N   UNL A   1      40.309  32.377  31.561  1.00  0.00    -0.248 NA
ATOM     55  C   UNL A   1      38.676  34.030  31.792  1.00  0.00     0.031 C 
ATOM     56  C   UNL A   1      44.319  32.529  33.446  1.00  0.00     0.029 A 
ATOM     57  C   UNL A   1      43.055  32.502  32.881  1.00  0.00     0.049 A 
ATOM     58  H   UNL A   1      42.155  30.998  31.705  1.00  0.00     0.167 HD
ATOM     59  C   UNL A   1      40.808  33.403  32.355  1.00  0.00     0.074 A 
ATOM     60  C   UNL A   1      39.770  34.410  32.437  1.00  0.00     0.031 C 
ATOM     61  C   UNL A   1      42.018  33.501  32.956  1.00  0.00     0.037 A 
BRANCH  48  62
ATOM     62  C   UNL A   1      45.655  28.585  32.099  1.00  0.00     0.057 A 
ATOM     63  C   UNL A   1      46.790  28.736  31.293  1.00  0.00     0.134 A 
ATOM     64  C   UNL A   1      45.787  27.809  33.259  1.00  0.00     0.134 A 
ATOM     65  F   UNL A   1      46.732  29.458  30.164  1.00  0.00    -0.206 F 
ATOM     66  C   UNL A   1      48.002  28.122  31.615  1.00  0.00     0.040 A 
ATOM     67  C   UNL A   1      47.000  27.214  33.607  1.00  0.00     0.040 A 
ATOM     68  F   UNL A   1      44.742  27.628  34.081  1.00  0.00    -0.206 F 
ATOM     69  C   UNL A   1      48.111  27.365  32.780  1.00  0.00     0.006 A 
ENDBRANCH  48  62
BRANCH  49  70
ATOM     70  C   UNL A   1      36.780  32.641  30.055  1.00  0.00     0.057 A 
ATOM     71  C   UNL A   1      36.615  33.517  28.976  1.00  0.00     0.134 A 
ATOM     72  C   UNL A   1      35.653  32.364  30.838  1.00  0.00     0.134 A 
ATOM     73  F   UNL A   1      37.662  33.836  28.200  1.00  0.00    -0.206 F 
ATOM     74  C   UNL A   1      35.382  34.107  28.694  1.00  0.00     0.040 A 
ATOM     75  C   UNL A   1      34.408  32.927  30.552  1.00  0.00     0.040 A 
ATOM     76  F   UNL A   1      35.741  31.527  31.883  1.00  0.00    -0.206 F 
ATOM     77  C   UNL A   1      34.272  33.808  29.480  1.00  0.00     0.006 A 
ENDBRANCH  49  70
BRANCH  61  78
ATOM     78  C   UNL A   1      42.308  34.757  33.727  1.00  0.00     0.057 A 
ATOM     79  C   UNL A   1      42.058  34.860  35.101  1.00  0.00     0.134 A 
ATOM     80  C   UNL A   1      42.886  35.864  33.091  1.00  0.00     0.134 A 
ATOM     81  F   UNL A   1      41.495  33.842  35.769  1.00  0.00    -0.206 F 
ATOM     82  C   UNL A   1      42.350  36.027  35.811  1.00  0.00     0.040 A 
ATOM     83  C   UNL A   1      43.211  37.025  33.795  1.00  0.00     0.040 A 
ATOM     84  F   UNL A   1      43.161  35.830  31.779  1.00  0.00    -0.206 F 
ATOM     85  C   UNL A   1      42.937  37.110  35.159  1.00  0.00     0.006 A 
ENDBRANCH  61  78
ENDBRANCH  35  36
ENDBRANCH  27  30
ENDBRANCH  25  26
ENDBRANCH  24  25
ENDBRANCH   1  24
TORSDOF 14
ENDMDL
