MODEL 1
REMARK VINA RESULT:     -12.5      0.000      0.000
REMARK SMILES Cc1cc(Br)cc2c1O[C@H](C(F)(F)F)C(C(=O)NCCCCNC(=O)c1ccc(-c3c4nc(c(-c5c(F)cccc5F)c5ccc([nH]5)c(-c5c(F)cccc5F)c5nc(c(-c6c(F)cccc6F)c6ccc3[nH]6)C=C5)C=C4)cc1)=C2
REMARK SMILES IDX 21 1 20 2 19 3 18 4 16 5 17 6 15 8 1 9 2 10 3 11 8 12 4 13
REMARK SMILES IDX 7 14 9 15 5 16 6 17 80 18 10 19 11 20 12 21 13 22 14 23
REMARK SMILES IDX 22 24 23 25 24 26 25 28 26 29 27 30 79 31 28 32 78 33 29 34
REMARK SMILES IDX 30 35 31 36 72 37 32 38 77 39 71 40 73 41 33 42 76 43 70 44
REMARK SMILES IDX 69 45 34 47 60 48 43 49 59 50 44 51 47 52 58 53 74 54 45 55
REMARK SMILES IDX 46 56 57 58 75 59 48 60 35 61 36 62 41 63 37 64 38 65 40 66
REMARK SMILES IDX 42 67 39 68 61 69 62 70 67 71 63 72 64 73 66 74 68 75 65 76
REMARK SMILES IDX 49 77 50 78 55 79 51 80 52 81 54 82 56 83 53 84
REMARK H PARENT 18 7 23 27 73 46 47 57
REMARK Flexibility Score: inf
ROOT
ATOM      1  C   UNL A   1      31.719  31.831  26.736  1.00  0.00     0.023 C 
ENDROOT
BRANCH   1   2
ATOM      2  C   UNL A   1      31.897  30.320  26.896  1.00  0.00     0.023 C 
BRANCH   2   3
ATOM      3  C   UNL A   1      33.345  29.852  26.802  1.00  0.00     0.116 C 
BRANCH   3   4
ATOM      4  N   UNL A   1      33.719  29.519  25.439  1.00  0.00    -0.352 N 
ATOM      5  C   UNL A   1      33.645  28.435  24.633  1.00  0.00     0.251 C 
ATOM      6  O   UNL A   1      34.116  28.591  23.501  1.00  0.00    -0.270 OA
ATOM      7  H   UNL A   1      34.137  30.284  24.980  1.00  0.00     0.163 HD
BRANCH   5   8
ATOM      8  C   UNL A   1      33.054  27.115  25.009  1.00  0.00     0.067 C 
ATOM      9  C   UNL A   1      30.272  23.217  26.881  1.00  0.00     0.048 C 
ATOM     10  C   UNL A   1      31.609  23.349  26.209  1.00  0.00    -0.007 A 
ATOM     11  C   UNL A   1      32.383  22.210  25.950  1.00  0.00     0.023 A 
ATOM     12  C   UNL A   1      32.121  24.606  25.860  1.00  0.00     0.130 A 
ATOM     13  C   UNL A   1      33.636  22.337  25.347  1.00  0.00     0.019 A 
ATOM     14  C   UNL A   1      33.379  24.734  25.261  1.00  0.00     0.019 A 
ATOM     15  O   UNL A   1      31.366  25.703  26.176  1.00  0.00    -0.475 OA
ATOM     16  Br  UNL A   1      34.667  20.789  25.005  1.00  0.00    -0.051 Br
ATOM     17  C   UNL A   1      34.138  23.590  25.003  1.00  0.00     0.027 A 
ATOM     18  C   UNL A   1      33.891  26.063  24.947  1.00  0.00     0.025 C 
ATOM     19  C   UNL A   1      31.618  26.902  25.395  1.00  0.00     0.314 C 
BRANCH  19  20
ATOM     20  C   UNL A   1      30.664  26.934  24.187  1.00  0.00     0.429 C 
ATOM     21  F   UNL A   1      29.499  26.306  24.488  1.00  0.00    -0.167 F 
ATOM     22  F   UNL A   1      30.333  28.196  23.821  1.00  0.00    -0.167 F 
ATOM     23  F   UNL A   1      31.180  26.330  23.093  1.00  0.00    -0.167 F 
ENDBRANCH  19  20
ENDBRANCH   5   8
ENDBRANCH   3   4
ENDBRANCH   2   3
ENDBRANCH   1   2
BRANCH   1  24
ATOM     24  C   UNL A   1      32.796  32.692  27.393  1.00  0.00     0.116 C 
BRANCH  24  25
ATOM     25  N   UNL A   1      32.368  34.051  27.693  1.00  0.00    -0.352 N 
ATOM     26  C   UNL A   1      32.948  34.948  28.558  1.00  0.00     0.251 C 
ATOM     27  H   UNL A   1      31.565  34.366  27.217  1.00  0.00     0.163 HD
ATOM     28  O   UNL A   1      32.449  36.048  28.762  1.00  0.00    -0.269 OA
BRANCH  26  29
ATOM     29  C   UNL A   1      34.166  34.534  29.276  1.00  0.00     0.039 A 
ATOM     30  C   UNL A   1      34.033  33.939  30.532  1.00  0.00     0.014 A 
ATOM     31  C   UNL A   1      35.415  34.637  28.656  1.00  0.00     0.014 A 
ATOM     32  C   UNL A   1      35.151  33.367  31.136  1.00  0.00     0.010 A 
ATOM     33  C   UNL A   1      36.516  34.016  29.234  1.00  0.00     0.010 A 
ATOM     34  C   UNL A   1      36.388  33.364  30.469  1.00  0.00    -0.014 A 
BRANCH  34  35
ATOM     35  C   UNL A   1      37.556  32.658  31.045  1.00  0.00     0.031 A 
ATOM     36  C   UNL A   1      38.162  33.133  32.330  1.00  0.00     0.074 A 
ATOM     37  C   UNL A   1      38.100  31.622  30.376  1.00  0.00     0.049 A 
ATOM     38  N   UNL A   1      39.205  32.672  32.970  1.00  0.00    -0.248 NA
ATOM     39  C   UNL A   1      37.524  34.294  32.973  1.00  0.00     0.031 C 
ATOM     40  C   UNL A   1      37.625  31.099  29.094  1.00  0.00     0.029 A 
ATOM     41  N   UNL A   1      39.171  30.824  30.686  1.00  0.00    -0.354 N 
ATOM     42  C   UNL A   1      39.353  33.487  34.083  1.00  0.00     0.074 A 
ATOM     43  C   UNL A   1      38.325  34.503  34.006  1.00  0.00     0.031 C 
ATOM     44  C   UNL A   1      38.379  30.043  28.744  1.00  0.00     0.029 A 
ATOM     45  C   UNL A   1      39.404  29.833  29.763  1.00  0.00     0.049 A 
ATOM     46  H   UNL A   1      39.720  30.948  31.494  1.00  0.00     0.167 HD
ATOM     47  C   UNL A   1      40.248  33.382  35.091  1.00  0.00     0.037 A 
ATOM     48  C   UNL A   1      40.335  28.862  29.748  1.00  0.00     0.037 A 
ATOM     49  C   UNL A   1      41.253  32.358  35.179  1.00  0.00     0.049 A 
ATOM     50  C   UNL A   1      41.319  28.768  30.877  1.00  0.00     0.074 A 
ATOM     51  C   UNL A   1      42.179  32.141  36.184  1.00  0.00     0.029 A 
ATOM     52  N   UNL A   1      41.459  31.375  34.224  1.00  0.00    -0.354 N 
ATOM     53  N   UNL A   1      41.420  29.519  31.946  1.00  0.00    -0.248 NA
ATOM     54  C   UNL A   1      42.319  27.693  30.799  1.00  0.00     0.031 C 
ATOM     55  C   UNL A   1      42.961  31.038  35.826  1.00  0.00     0.029 A 
ATOM     56  C   UNL A   1      42.504  30.553  34.610  1.00  0.00     0.049 A 
ATOM     57  H   UNL A   1      40.939  31.275  33.393  1.00  0.00     0.167 HD
ATOM     58  C   UNL A   1      42.479  28.999  32.676  1.00  0.00     0.074 A 
ATOM     59  C   UNL A   1      42.983  27.863  31.934  1.00  0.00     0.031 C 
ATOM     60  C   UNL A   1      42.988  29.426  33.858  1.00  0.00     0.037 A 
BRANCH  47  61
ATOM     61  C   UNL A   1      40.162  34.396  36.191  1.00  0.00     0.057 A 
ATOM     62  C   UNL A   1      39.360  34.181  37.320  1.00  0.00     0.134 A 
ATOM     63  C   UNL A   1      40.896  35.586  36.132  1.00  0.00     0.134 A 
ATOM     64  F   UNL A   1      38.620  33.067  37.425  1.00  0.00    -0.206 F 
ATOM     65  C   UNL A   1      39.276  35.124  38.344  1.00  0.00     0.040 A 
ATOM     66  C   UNL A   1      40.836  36.528  37.160  1.00  0.00     0.040 A 
ATOM     67  F   UNL A   1      41.682  35.851  35.078  1.00  0.00    -0.206 F 
ATOM     68  C   UNL A   1      40.021  36.300  38.267  1.00  0.00     0.006 A 
ENDBRANCH  47  61
BRANCH  48  69
ATOM     69  C   UNL A   1      40.346  27.869  28.646  1.00  0.00     0.057 A 
ATOM     70  C   UNL A   1      39.639  26.668  28.763  1.00  0.00     0.134 A 
ATOM     71  C   UNL A   1      41.041  28.101  27.454  1.00  0.00     0.134 A 
ATOM     72  F   UNL A   1      38.967  26.387  29.888  1.00  0.00    -0.206 F 
ATOM     73  C   UNL A   1      39.630  25.724  27.734  1.00  0.00     0.040 A 
ATOM     74  C   UNL A   1      41.027  27.173  26.412  1.00  0.00     0.040 A 
ATOM     75  F   UNL A   1      41.730  29.238  27.282  1.00  0.00    -0.206 F 
ATOM     76  C   UNL A   1      40.323  25.979  26.552  1.00  0.00     0.006 A 
ENDBRANCH  48  69
BRANCH  60  77
ATOM     77  C   UNL A   1      44.139  28.656  34.427  1.00  0.00     0.057 A 
ATOM     78  C   UNL A   1      45.464  29.031  34.177  1.00  0.00     0.134 A 
ATOM     79  C   UNL A   1      43.917  27.574  35.288  1.00  0.00     0.134 A 
ATOM     80  F   UNL A   1      45.738  30.052  33.352  1.00  0.00    -0.206 F 
ATOM     81  C   UNL A   1      46.533  28.349  34.760  1.00  0.00     0.040 A 
ATOM     82  C   UNL A   1      44.978  26.897  35.891  1.00  0.00     0.040 A 
ATOM     83  F   UNL A   1      42.670  27.173  35.571  1.00  0.00    -0.206 F 
ATOM     84  C   UNL A   1      46.291  27.283  35.626  1.00  0.00     0.006 A 
ENDBRANCH  60  77
ENDBRANCH  34  35
ENDBRANCH  26  29
ENDBRANCH  24  25
ENDBRANCH   1  24
TORSDOF 12
ENDMDL
MODEL 2
REMARK VINA RESULT:     -12.5      3.972      5.915
REMARK SMILES Cc1cc(Br)cc2c1O[C@H](C(F)(F)F)C(C(=O)NCCCCNC(=O)c1ccc(-c3c4nc(c(-c5c(F)cccc5F)c5ccc([nH]5)c(-c5c(F)cccc5F)c5nc(c(-c6c(F)cccc6F)c6ccc3[nH]6)C=C5)C=C4)cc1)=C2
REMARK SMILES IDX 21 1 20 2 19 3 18 4 16 5 17 6 15 8 1 9 2 10 3 11 8 12 4 13
REMARK SMILES IDX 7 14 9 15 5 16 6 17 80 18 10 19 11 20 12 21 13 22 14 23
REMARK SMILES IDX 22 24 23 25 24 26 25 28 26 29 27 30 79 31 28 32 78 33 29 34
REMARK SMILES IDX 30 35 31 36 72 37 32 38 77 39 71 40 73 41 33 42 76 43 70 44
REMARK SMILES IDX 69 45 34 47 60 48 43 49 59 50 44 51 47 52 58 53 74 54 45 55
REMARK SMILES IDX 46 56 57 58 75 59 48 60 35 61 36 62 41 63 37 64 38 65 40 66
REMARK SMILES IDX 42 67 39 68 61 69 62 70 67 71 63 72 64 73 66 74 68 75 65 76
REMARK SMILES IDX 49 77 50 78 55 79 51 80 52 81 54 82 56 83 53 84
REMARK H PARENT 18 7 23 27 73 46 47 57
REMARK Flexibility Score: inf
ROOT
ATOM      1  C   UNL A   1      33.261  28.910  25.756  1.00  0.00     0.023 C 
ENDROOT
BRANCH   1   2
ATOM      2  C   UNL A   1      34.054  28.021  24.796  1.00  0.00     0.023 C 
BRANCH   2   3
ATOM      3  C   UNL A   1      33.887  26.527  25.053  1.00  0.00     0.116 C 
BRANCH   3   4
ATOM      4  N   UNL A   1      33.571  25.800  23.836  1.00  0.00    -0.352 N 
ATOM      5  C   UNL A   1      32.508  25.677  23.008  1.00  0.00     0.251 C 
ATOM      6  O   UNL A   1      32.674  24.909  22.055  1.00  0.00    -0.270 OA
ATOM      7  H   UNL A   1      34.332  25.253  23.533  1.00  0.00     0.163 HD
BRANCH   5   8
ATOM      8  C   UNL A   1      31.201  26.383  23.167  1.00  0.00     0.067 C 
ATOM      9  C   UNL A   1      26.296  27.757  23.868  1.00  0.00     0.048 C 
ATOM     10  C   UNL A   1      27.535  28.440  23.361  1.00  0.00    -0.007 A 
ATOM     11  C   UNL A   1      27.489  29.784  22.969  1.00  0.00     0.023 A 
ATOM     12  C   UNL A   1      28.745  27.743  23.239  1.00  0.00     0.130 A 
ATOM     13  C   UNL A   1      28.634  30.410  22.477  1.00  0.00     0.019 A 
ATOM     14  C   UNL A   1      29.893  28.369  22.740  1.00  0.00     0.019 A 
ATOM     15  O   UNL A   1      28.745  26.418  23.578  1.00  0.00    -0.475 OA
ATOM     16  Br  UNL A   1      28.553  32.225  21.952  1.00  0.00    -0.051 Br
ATOM     17  C   UNL A   1      29.835  29.712  22.358  1.00  0.00     0.027 A 
ATOM     18  C   UNL A   1      31.123  27.599  22.595  1.00  0.00     0.025 C 
ATOM     19  C   UNL A   1      30.031  25.848  23.941  1.00  0.00     0.314 C 
BRANCH  19  20
ATOM     20  C   UNL A   1      30.224  25.954  25.466  1.00  0.00     0.429 C 
ATOM     21  F   UNL A   1      29.053  25.713  26.109  1.00  0.00    -0.167 F 
ATOM     22  F   UNL A   1      31.113  25.049  25.940  1.00  0.00    -0.167 F 
ATOM     23  F   UNL A   1      30.657  27.174  25.856  1.00  0.00    -0.167 F 
ENDBRANCH  19  20
ENDBRANCH   5   8
ENDBRANCH   3   4
ENDBRANCH   2   3
ENDBRANCH   1   2
BRANCH   1  24
ATOM     24  C   UNL A   1      33.746  28.910  27.204  1.00  0.00     0.116 C 
BRANCH  24  25
ATOM     25  N   UNL A   1      33.738  30.224  27.832  1.00  0.00    -0.352 N 
ATOM     26  C   UNL A   1      34.770  30.853  28.486  1.00  0.00     0.251 C 
ATOM     27  H   UNL A   1      32.889  30.721  27.782  1.00  0.00     0.163 HD
ATOM     28  O   UNL A   1      34.611  31.942  29.024  1.00  0.00    -0.269 OA
BRANCH  26  29
ATOM     29  C   UNL A   1      36.068  30.161  28.567  1.00  0.00     0.039 A 
ATOM     30  C   UNL A   1      36.936  30.233  27.476  1.00  0.00     0.014 A 
ATOM     31  C   UNL A   1      36.459  29.542  29.759  1.00  0.00     0.014 A 
ATOM     32  C   UNL A   1      38.238  29.754  27.609  1.00  0.00     0.010 A 
ATOM     33  C   UNL A   1      37.773  29.117  29.906  1.00  0.00     0.010 A 
ATOM     34  C   UNL A   1      38.675  29.234  28.839  1.00  0.00    -0.014 A 
BRANCH  34  35
ATOM     35  C   UNL A   1      40.088  28.830  29.030  1.00  0.00     0.031 A 
ATOM     36  C   UNL A   1      41.058  29.775  29.671  1.00  0.00     0.074 A 
ATOM     37  C   UNL A   1      40.502  27.633  28.573  1.00  0.00     0.049 A 
ATOM     38  N   UNL A   1      42.338  29.619  29.890  1.00  0.00    -0.248 NA
ATOM     39  C   UNL A   1      40.525  31.076  30.107  1.00  0.00     0.031 C 
ATOM     40  C   UNL A   1      39.659  26.648  27.891  1.00  0.00     0.029 A 
ATOM     41  N   UNL A   1      41.737  27.040  28.617  1.00  0.00    -0.354 N 
ATOM     42  C   UNL A   1      42.764  30.800  30.480  1.00  0.00     0.074 A 
ATOM     43  C   UNL A   1      41.620  31.683  30.539  1.00  0.00     0.031 C 
ATOM     44  C   UNL A   1      40.394  25.559  27.614  1.00  0.00     0.029 A 
ATOM     45  C   UNL A   1      41.762  25.779  28.072  1.00  0.00     0.049 A 
ATOM     46  H   UNL A   1      42.532  27.476  29.003  1.00  0.00     0.167 HD
ATOM     47  C   UNL A   1      43.992  31.110  30.954  1.00  0.00     0.037 A 
ATOM     48  C   UNL A   1      42.775  24.899  27.965  1.00  0.00     0.037 A 
ATOM     49  C   UNL A   1      45.123  30.222  30.917  1.00  0.00     0.049 A 
ATOM     50  C   UNL A   1      44.129  25.267  28.496  1.00  0.00     0.074 A 
ATOM     51  C   UNL A   1      46.398  30.429  31.411  1.00  0.00     0.029 A 
ATOM     52  N   UNL A   1      45.109  28.955  30.355  1.00  0.00    -0.354 N 
ATOM     53  N   UNL A   1      44.508  26.371  29.092  1.00  0.00    -0.248 NA
ATOM     54  C   UNL A   1      45.198  24.269  28.340  1.00  0.00     0.031 C 
ATOM     55  C   UNL A   1      47.164  29.292  31.128  1.00  0.00     0.029 A 
ATOM     56  C   UNL A   1      46.357  28.369  30.482  1.00  0.00     0.049 A 
ATOM     57  H   UNL A   1      44.328  28.533  29.930  1.00  0.00     0.167 HD
ATOM     58  C   UNL A   1      45.850  26.195  29.399  1.00  0.00     0.074 A 
ATOM     59  C   UNL A   1      46.218  24.875  28.932  1.00  0.00     0.031 C 
ATOM     60  C   UNL A   1      46.701  27.053  30.013  1.00  0.00     0.037 A 
BRANCH  47  61
ATOM     61  C   UNL A   1      44.166  32.464  31.572  1.00  0.00     0.057 A 
ATOM     62  C   UNL A   1      44.513  33.579  30.798  1.00  0.00     0.134 A 
ATOM     63  C   UNL A   1      43.969  32.661  32.943  1.00  0.00     0.134 A 
ATOM     64  F   UNL A   1      44.732  33.450  29.480  1.00  0.00    -0.206 F 
ATOM     65  C   UNL A   1      44.677  34.840  31.370  1.00  0.00     0.040 A 
ATOM     66  C   UNL A   1      44.110  33.921  33.523  1.00  0.00     0.040 A 
ATOM     67  F   UNL A   1      43.635  31.633  33.738  1.00  0.00    -0.206 F 
ATOM     68  C   UNL A   1      44.470  35.014  32.738  1.00  0.00     0.006 A 
ENDBRANCH  47  61
BRANCH  48  69
ATOM     69  C   UNL A   1      42.529  23.562  27.372  1.00  0.00     0.057 A 
ATOM     70  C   UNL A   1      42.653  23.360  25.994  1.00  0.00     0.134 A 
ATOM     71  C   UNL A   1      42.184  22.460  28.162  1.00  0.00     0.134 A 
ATOM     72  F   UNL A   1      42.967  24.384  25.188  1.00  0.00    -0.206 F 
ATOM     73  C   UNL A   1      42.434  22.108  25.417  1.00  0.00     0.040 A 
ATOM     74  C   UNL A   1      41.977  21.199  27.600  1.00  0.00     0.040 A 
ATOM     75  F   UNL A   1      42.057  22.590  29.490  1.00  0.00    -0.206 F 
ATOM     76  C   UNL A   1      42.099  21.021  26.223  1.00  0.00     0.006 A 
ENDBRANCH  48  69
BRANCH  60  77
ATOM     77  C   UNL A   1      48.108  26.588  30.227  1.00  0.00     0.057 A 
ATOM     78  C   UNL A   1      48.479  25.885  31.379  1.00  0.00     0.134 A 
ATOM     79  C   UNL A   1      49.083  26.788  29.241  1.00  0.00     0.134 A 
ATOM     80  F   UNL A   1      47.592  25.674  32.362  1.00  0.00    -0.206 F 
ATOM     81  C   UNL A   1      49.777  25.400  31.546  1.00  0.00     0.040 A 
ATOM     82  C   UNL A   1      50.378  26.291  29.390  1.00  0.00     0.040 A 
ATOM     83  F   UNL A   1      48.785  27.448  28.112  1.00  0.00    -0.206 F 
ATOM     84  C   UNL A   1      50.728  25.595  30.545  1.00  0.00     0.006 A 
ENDBRANCH  60  77
ENDBRANCH  34  35
ENDBRANCH  26  29
ENDBRANCH  24  25
ENDBRANCH   1  24
TORSDOF 12
ENDMDL
MODEL 3
REMARK VINA RESULT:     -12.5      5.453     10.262
REMARK SMILES Cc1cc(Br)cc2c1O[C@H](C(F)(F)F)C(C(=O)NCCCCNC(=O)c1ccc(-c3c4nc(c(-c5c(F)cccc5F)c5ccc([nH]5)c(-c5c(F)cccc5F)c5nc(c(-c6c(F)cccc6F)c6ccc3[nH]6)C=C5)C=C4)cc1)=C2
REMARK SMILES IDX 21 1 20 2 19 3 18 4 16 5 17 6 15 8 1 9 2 10 3 11 8 12 4 13
REMARK SMILES IDX 7 14 9 15 5 16 6 17 80 18 10 19 11 20 12 21 13 22 14 23
REMARK SMILES IDX 22 24 23 25 24 26 25 28 26 29 27 30 79 31 28 32 78 33 29 34
REMARK SMILES IDX 30 35 31 36 72 37 32 38 77 39 71 40 73 41 33 42 76 43 70 44
REMARK SMILES IDX 69 45 34 47 60 48 43 49 59 50 44 51 47 52 58 53 74 54 45 55
REMARK SMILES IDX 46 56 57 58 75 59 48 60 35 61 36 62 41 63 37 64 38 65 40 66
REMARK SMILES IDX 42 67 39 68 61 69 62 70 67 71 63 72 64 73 66 74 68 75 65 76
REMARK SMILES IDX 49 77 50 78 55 79 51 80 52 81 54 82 56 83 53 84
REMARK H PARENT 18 7 23 27 73 46 47 57
REMARK Flexibility Score: inf
ROOT
ATOM      1  C   UNL A   1      38.022  20.165  25.001  1.00  0.00     0.023 C 
ENDROOT
BRANCH   1   2
ATOM      2  C   UNL A   1      37.392  21.459  24.480  1.00  0.00     0.023 C 
BRANCH   2   3
ATOM      3  C   UNL A   1      37.440  22.616  25.472  1.00  0.00     0.116 C 
BRANCH   3   4
ATOM      4  N   UNL A   1      36.313  22.592  26.387  1.00  0.00    -0.352 N 
ATOM      5  C   UNL A   1      35.036  23.039  26.391  1.00  0.00     0.251 C 
ATOM      6  O   UNL A   1      34.403  22.803  27.425  1.00  0.00    -0.270 OA
ATOM      7  H   UNL A   1      36.537  22.127  27.226  1.00  0.00     0.163 HD
BRANCH   5   8
ATOM      8  C   UNL A   1      34.371  23.769  25.270  1.00  0.00     0.067 C 
ATOM      9  C   UNL A   1      32.700  25.578  20.757  1.00  0.00     0.048 C 
ATOM     10  C   UNL A   1      32.634  26.043  22.184  1.00  0.00    -0.007 A 
ATOM     11  C   UNL A   1      31.970  27.233  22.509  1.00  0.00     0.023 A 
ATOM     12  C   UNL A   1      33.262  25.320  23.208  1.00  0.00     0.130 A 
ATOM     13  C   UNL A   1      31.931  27.675  23.831  1.00  0.00     0.019 A 
ATOM     14  C   UNL A   1      33.228  25.766  24.534  1.00  0.00     0.019 A 
ATOM     15  O   UNL A   1      33.950  24.192  22.852  1.00  0.00    -0.475 OA
ATOM     16  Br  UNL A   1      31.028  29.283  24.251  1.00  0.00    -0.051 Br
ATOM     17  C   UNL A   1      32.556  26.951  24.845  1.00  0.00     0.027 A 
ATOM     18  C   UNL A   1      33.923  25.004  25.564  1.00  0.00     0.025 C 
ATOM     19  C   UNL A   1      34.145  23.203  23.898  1.00  0.00     0.314 C 
BRANCH  19  20
ATOM     20  C   UNL A   1      32.994  22.181  23.855  1.00  0.00     0.429 C 
ATOM     21  F   UNL A   1      33.451  20.940  24.161  1.00  0.00    -0.167 F 
ATOM     22  F   UNL A   1      32.019  22.461  24.754  1.00  0.00    -0.167 F 
ATOM     23  F   UNL A   1      32.401  22.107  22.643  1.00  0.00    -0.167 F 
ENDBRANCH  19  20
ENDBRANCH   5   8
ENDBRANCH   3   4
ENDBRANCH   2   3
ENDBRANCH   1   2
BRANCH   1  24
ATOM     24  C   UNL A   1      39.287  20.342  25.839  1.00  0.00     0.116 C 
BRANCH  24  25
ATOM     25  N   UNL A   1      40.181  19.192  25.811  1.00  0.00    -0.352 N 
ATOM     26  C   UNL A   1      41.534  19.170  26.052  1.00  0.00     0.251 C 
ATOM     27  H   UNL A   1      39.765  18.326  25.594  1.00  0.00     0.163 HD
ATOM     28  O   UNL A   1      42.182  18.137  25.938  1.00  0.00    -0.269 OA
BRANCH  26  29
ATOM     29  C   UNL A   1      42.200  20.436  26.404  1.00  0.00     0.039 A 
ATOM     30  C   UNL A   1      42.670  21.255  25.376  1.00  0.00     0.014 A 
ATOM     31  C   UNL A   1      42.255  20.851  27.738  1.00  0.00     0.014 A 
ATOM     32  C   UNL A   1      43.122  22.537  25.680  1.00  0.00     0.010 A 
ATOM     33  C   UNL A   1      42.653  22.150  28.031  1.00  0.00     0.010 A 
ATOM     34  C   UNL A   1      43.074  23.006  27.003  1.00  0.00    -0.014 A 
BRANCH  34  35
ATOM     35  C   UNL A   1      43.441  24.405  27.324  1.00  0.00     0.031 A 
ATOM     36  C   UNL A   1      44.869  24.848  27.224  1.00  0.00     0.074 A 
ATOM     37  C   UNL A   1      42.491  25.256  27.756  1.00  0.00     0.049 A 
ATOM     38  N   UNL A   1      45.390  26.016  27.498  1.00  0.00    -0.248 NA
ATOM     39  C   UNL A   1      45.845  23.841  26.777  1.00  0.00     0.031 C 
ATOM     40  C   UNL A   1      41.076  24.926  27.938  1.00  0.00     0.029 A 
ATOM     41  N   UNL A   1      42.574  26.576  28.121  1.00  0.00    -0.354 N 
ATOM     42  C   UNL A   1      46.751  25.883  27.264  1.00  0.00     0.074 A 
ATOM     43  C   UNL A   1      46.984  24.509  26.876  1.00  0.00     0.031 C 
ATOM     44  C   UNL A   1      40.417  26.024  28.344  1.00  0.00     0.029 A 
ATOM     45  C   UNL A   1      41.367  27.125  28.477  1.00  0.00     0.049 A 
ATOM     46  H   UNL A   1      43.419  27.082  28.126  1.00  0.00     0.167 HD
ATOM     47  C   UNL A   1      47.716  26.828  27.340  1.00  0.00     0.037 A 
ATOM     48  C   UNL A   1      41.062  28.379  28.859  1.00  0.00     0.037 A 
ATOM     49  C   UNL A   1      47.480  28.199  27.703  1.00  0.00     0.049 A 
ATOM     50  C   UNL A   1      42.151  29.409  28.939  1.00  0.00     0.074 A 
ATOM     51  C   UNL A   1      48.386  29.243  27.766  1.00  0.00     0.029 A 
ATOM     52  N   UNL A   1      46.244  28.716  28.059  1.00  0.00    -0.354 N 
ATOM     53  N   UNL A   1      43.427  29.281  28.673  1.00  0.00    -0.248 NA
ATOM     54  C   UNL A   1      41.758  30.758  29.374  1.00  0.00     0.031 C 
ATOM     55  C   UNL A   1      47.701  30.389  28.183  1.00  0.00     0.029 A 
ATOM     56  C   UNL A   1      46.364  30.064  28.353  1.00  0.00     0.049 A 
ATOM     57  H   UNL A   1      45.405  28.202  28.097  1.00  0.00     0.167 HD
ATOM     58  C   UNL A   1      43.987  30.532  28.888  1.00  0.00     0.074 A 
ATOM     59  C   UNL A   1      42.911  31.409  29.298  1.00  0.00     0.031 C 
ATOM     60  C   UNL A   1      45.279  30.919  28.756  1.00  0.00     0.037 A 
BRANCH  47  61
ATOM     61  C   UNL A   1      49.114  26.407  27.005  1.00  0.00     0.057 A 
ATOM     62  C   UNL A   1      49.599  26.468  25.692  1.00  0.00     0.134 A 
ATOM     63  C   UNL A   1      49.988  25.954  27.999  1.00  0.00     0.134 A 
ATOM     64  F   UNL A   1      48.803  26.878  24.692  1.00  0.00    -0.206 F 
ATOM     65  C   UNL A   1      50.899  26.075  25.376  1.00  0.00     0.040 A 
ATOM     66  C   UNL A   1      51.298  25.578  27.699  1.00  0.00     0.040 A 
ATOM     67  F   UNL A   1      49.585  25.873  29.276  1.00  0.00    -0.206 F 
ATOM     68  C   UNL A   1      51.755  25.633  26.384  1.00  0.00     0.006 A 
ENDBRANCH  47  61
BRANCH  48  69
ATOM     69  C   UNL A   1      39.652  28.740  29.146  1.00  0.00     0.057 A 
ATOM     70  C   UNL A   1      38.809  29.189  28.125  1.00  0.00     0.134 A 
ATOM     71  C   UNL A   1      39.112  28.629  30.432  1.00  0.00     0.134 A 
ATOM     72  F   UNL A   1      39.278  29.328  26.876  1.00  0.00    -0.206 F 
ATOM     73  C   UNL A   1      37.478  29.526  28.372  1.00  0.00     0.040 A 
ATOM     74  C   UNL A   1      37.778  28.947  30.691  1.00  0.00     0.040 A 
ATOM     75  F   UNL A   1      39.869  28.197  31.450  1.00  0.00    -0.206 F 
ATOM     76  C   UNL A   1      36.957  29.400  29.659  1.00  0.00     0.006 A 
ENDBRANCH  48  69
BRANCH  60  77
ATOM     77  C   UNL A   1      45.600  32.353  29.046  1.00  0.00     0.057 A 
ATOM     78  C   UNL A   1      46.008  32.768  30.319  1.00  0.00     0.134 A 
ATOM     79  C   UNL A   1      45.564  33.312  28.026  1.00  0.00     0.134 A 
ATOM     80  F   UNL A   1      46.050  31.896  31.337  1.00  0.00    -0.206 F 
ATOM     81  C   UNL A   1      46.365  34.093  30.569  1.00  0.00     0.040 A 
ATOM     82  C   UNL A   1      45.937  34.636  28.261  1.00  0.00     0.040 A 
ATOM     83  F   UNL A   1      45.187  32.973  26.785  1.00  0.00    -0.206 F 
ATOM     84  C   UNL A   1      46.338  35.030  29.536  1.00  0.00     0.006 A 
ENDBRANCH  60  77
ENDBRANCH  34  35
ENDBRANCH  26  29
ENDBRANCH  24  25
ENDBRANCH   1  24
TORSDOF 12
ENDMDL
