MODEL 1
REMARK VINA RESULT:     -10.5      0.000      0.000
REMARK SMILES [NH3+][C@H](Cc1cc(F)c(F)c(F)c1)C(=O)NCCCCNC(=O)c1ccc(-c2c3nc(c(-c4c(F)cccc4F)c4ccc([nH]4)c(-c4c(F)cccc4F)c4nc(c(-c5c(F)cccc5F)c5ccc2[nH]5)C=C4)C=C3)cc1
REMARK SMILES IDX 17 1 16 2 15 3 13 4 14 5 2 7 1 8 3 12 4 13 5 14 12 15 6 16
REMARK SMILES IDX 10 17 7 18 8 19 11 20 9 21 18 22 19 23 20 24 21 25 22 27
REMARK SMILES IDX 23 28 24 29 76 30 25 31 75 32 26 33 27 34 28 35 69 36 29 37
REMARK SMILES IDX 74 38 68 39 70 40 30 41 73 42 67 43 66 44 31 46 57 47 40 48
REMARK SMILES IDX 56 49 41 50 44 51 55 52 71 53 42 54 43 55 54 57 72 58 45 59
REMARK SMILES IDX 32 60 33 61 38 62 34 63 35 64 37 65 39 66 36 67 58 68 59 69
REMARK SMILES IDX 64 70 60 71 61 72 63 73 65 74 62 75 46 76 47 77 52 78 48 79
REMARK SMILES IDX 49 80 51 81 53 82 50 83
REMARK H PARENT 15 6 1 9 1 10 1 11 20 26 70 45 44 56
REMARK Flexibility Score: inf
ROOT
ATOM      1  C   UNL A   1      34.329  34.680  28.001  1.00  0.00     0.023 C 
ENDROOT
BRANCH   1   2
ATOM      2  C   UNL A   1      33.205  34.779  29.029  1.00  0.00     0.116 C 
BRANCH   2   3
ATOM      3  N   UNL A   1      33.135  36.085  29.641  1.00  0.00    -0.351 N 
ATOM      4  C   UNL A   1      33.110  36.439  30.962  1.00  0.00     0.278 C 
ATOM      5  O   UNL A   1      32.993  37.640  31.217  1.00  0.00    -0.268 OA
ATOM      6  H   UNL A   1      33.099  36.837  29.009  1.00  0.00     0.163 HD
BRANCH   4   7
ATOM      7  C   UNL A   1      33.253  35.387  32.097  1.00  0.00     0.275 C 
BRANCH   7   8
ATOM      8  N   UNL A   1      31.989  35.296  32.846  1.00  0.00    -0.347 N 
ATOM      9  H   UNL A   1      31.725  34.317  32.949  1.00  0.00     0.345 HD
ATOM     10  H   UNL A   1      31.257  35.796  32.341  1.00  0.00     0.345 HD
ATOM     11  H   UNL A   1      32.110  35.713  33.769  1.00  0.00     0.345 HD
ENDBRANCH   7   8
BRANCH   7  12
ATOM     12  C   UNL A   1      34.583  35.526  32.889  1.00  0.00     0.111 C 
BRANCH  12  13
ATOM     13  C   UNL A   1      35.666  34.460  32.795  1.00  0.00    -0.036 A 
ATOM     14  C   UNL A   1      36.027  33.745  33.952  1.00  0.00     0.046 A 
ATOM     15  C   UNL A   1      36.242  34.048  31.581  1.00  0.00     0.046 A 
ATOM     16  C   UNL A   1      36.922  32.673  33.884  1.00  0.00     0.162 A 
ATOM     17  C   UNL A   1      37.129  32.971  31.526  1.00  0.00     0.162 A 
ATOM     18  F   UNL A   1      37.232  32.012  35.006  1.00  0.00    -0.204 F 
ATOM     19  C   UNL A   1      37.471  32.281  32.673  1.00  0.00     0.194 A 
ATOM     20  F   UNL A   1      37.630  32.608  30.337  1.00  0.00    -0.204 F 
ATOM     21  F   UNL A   1      38.311  31.239  32.610  1.00  0.00    -0.200 F 
ENDBRANCH  12  13
ENDBRANCH   7  12
ENDBRANCH   4   7
ENDBRANCH   2   3
ENDBRANCH   1   2
BRANCH   1  22
ATOM     22  C   UNL A   1      35.073  33.348  28.015  1.00  0.00     0.023 C 
BRANCH  22  23
ATOM     23  C   UNL A   1      34.538  32.320  29.007  1.00  0.00     0.116 C 
BRANCH  23  24
ATOM     24  N   UNL A   1      33.995  31.128  28.379  1.00  0.00    -0.352 N 
ATOM     25  C   UNL A   1      34.655  29.963  28.030  1.00  0.00     0.251 C 
ATOM     26  H   UNL A   1      33.032  31.152  28.175  1.00  0.00     0.163 HD
ATOM     27  O   UNL A   1      34.074  29.076  27.424  1.00  0.00    -0.269 OA
BRANCH  25  28
ATOM     28  C   UNL A   1      36.088  29.834  28.364  1.00  0.00     0.039 A 
ATOM     29  C   UNL A   1      36.441  29.373  29.633  1.00  0.00     0.014 A 
ATOM     30  C   UNL A   1      37.063  30.095  27.402  1.00  0.00     0.014 A 
ATOM     31  C   UNL A   1      37.781  29.085  29.907  1.00  0.00     0.010 A 
ATOM     32  C   UNL A   1      38.383  29.734  27.651  1.00  0.00     0.010 A 
ATOM     33  C   UNL A   1      38.753  29.217  28.901  1.00  0.00    -0.014 A 
BRANCH  33  34
ATOM     34  C   UNL A   1      40.160  28.807  29.130  1.00  0.00     0.031 A 
ATOM     35  C   UNL A   1      41.129  29.766  29.759  1.00  0.00     0.074 A 
ATOM     36  C   UNL A   1      40.586  27.606  28.691  1.00  0.00     0.049 A 
ATOM     37  N   UNL A   1      42.417  29.635  29.950  1.00  0.00    -0.248 NA
ATOM     38  C   UNL A   1      40.583  31.060  30.202  1.00  0.00     0.031 C 
ATOM     39  C   UNL A   1      39.758  26.609  28.010  1.00  0.00     0.029 A 
ATOM     40  N   UNL A   1      41.829  27.027  28.741  1.00  0.00    -0.354 N 
ATOM     41  C   UNL A   1      42.836  30.832  30.515  1.00  0.00     0.074 A 
ATOM     42  C   UNL A   1      41.679  31.697  30.586  1.00  0.00     0.031 C 
ATOM     43  C   UNL A   1      40.511  25.534  27.724  1.00  0.00     0.029 A 
ATOM     44  C   UNL A   1      41.878  25.778  28.171  1.00  0.00     0.049 A 
ATOM     45  H   UNL A   1      42.612  27.466  29.148  1.00  0.00     0.167 HD
ATOM     46  C   UNL A   1      44.071  31.173  30.955  1.00  0.00     0.037 A 
ATOM     47  C   UNL A   1      42.912  24.929  28.020  1.00  0.00     0.037 A 
ATOM     48  C   UNL A   1      45.213  30.300  30.916  1.00  0.00     0.049 A 
ATOM     49  C   UNL A   1      44.267  25.319  28.540  1.00  0.00     0.074 A 
ATOM     50  C   UNL A   1      46.491  30.530  31.395  1.00  0.00     0.029 A 
ATOM     51  N   UNL A   1      45.213  29.026  30.368  1.00  0.00    -0.354 N 
ATOM     52  N   UNL A   1      44.637  26.431  29.128  1.00  0.00    -0.248 NA
ATOM     53  C   UNL A   1      45.347  24.336  28.381  1.00  0.00     0.031 C 
ATOM     54  C   UNL A   1      47.273  29.404  31.111  1.00  0.00     0.029 A 
ATOM     55  C   UNL A   1      46.472  28.462  30.487  1.00  0.00     0.049 A 
ATOM     56  H   UNL A   1      44.434  28.590  29.955  1.00  0.00     0.167 HD
ATOM     57  C   UNL A   1      45.982  26.273  29.430  1.00  0.00     0.074 A 
ATOM     58  C   UNL A   1      46.361  24.951  28.972  1.00  0.00     0.031 C 
ATOM     59  C   UNL A   1      46.829  27.143  30.033  1.00  0.00     0.037 A 
BRANCH  46  60
ATOM     60  C   UNL A   1      44.239  32.547  31.531  1.00  0.00     0.057 A 
ATOM     61  C   UNL A   1      44.039  32.803  32.894  1.00  0.00     0.134 A 
ATOM     62  C   UNL A   1      44.619  33.623  30.719  1.00  0.00     0.134 A 
ATOM     63  F   UNL A   1      43.659  31.818  33.721  1.00  0.00    -0.206 F 
ATOM     64  C   UNL A   1      44.187  34.084  33.425  1.00  0.00     0.040 A 
ATOM     65  C   UNL A   1      44.794  34.905  31.243  1.00  0.00     0.040 A 
ATOM     66  F   UNL A   1      44.828  33.446  29.406  1.00  0.00    -0.206 F 
ATOM     67  C   UNL A   1      44.570  35.140  32.599  1.00  0.00     0.006 A 
ENDBRANCH  46  60
BRANCH  47  68
ATOM     68  C   UNL A   1      42.700  23.611  27.374  1.00  0.00     0.057 A 
ATOM     69  C   UNL A   1      42.348  22.487  28.131  1.00  0.00     0.134 A 
ATOM     70  C   UNL A   1      42.847  23.439  25.993  1.00  0.00     0.134 A 
ATOM     71  F   UNL A   1      42.211  22.587  29.461  1.00  0.00    -0.206 F 
ATOM     72  C   UNL A   1      42.165  21.236  27.541  1.00  0.00     0.040 A 
ATOM     73  C   UNL A   1      42.646  22.199  25.386  1.00  0.00     0.040 A 
ATOM     74  F   UNL A   1      43.175  24.480  25.213  1.00  0.00    -0.206 F 
ATOM     75  C   UNL A   1      42.310  21.090  26.162  1.00  0.00     0.006 A 
ENDBRANCH  47  68
BRANCH  59  76
ATOM     76  C   UNL A   1      48.237  26.683  30.257  1.00  0.00     0.057 A 
ATOM     77  C   UNL A   1      49.256  26.953  29.337  1.00  0.00     0.134 A 
ATOM     78  C   UNL A   1      48.583  25.997  31.429  1.00  0.00     0.134 A 
ATOM     79  F   UNL A   1      48.984  27.594  28.190  1.00  0.00    -0.206 F 
ATOM     80  C   UNL A   1      50.570  26.542  29.565  1.00  0.00     0.040 A 
ATOM     81  C   UNL A   1      49.898  25.601  31.678  1.00  0.00     0.040 A 
ATOM     82  F   UNL A   1      47.653  25.714  32.353  1.00  0.00    -0.206 F 
ATOM     83  C   UNL A   1      50.894  25.869  30.742  1.00  0.00     0.006 A 
ENDBRANCH  59  76
ENDBRANCH  33  34
ENDBRANCH  25  28
ENDBRANCH  23  24
ENDBRANCH  22  23
ENDBRANCH   1  22
TORSDOF 14
ENDMDL
MODEL 2
REMARK VINA RESULT:     -10.5      3.407     11.384
REMARK SMILES [NH3+][C@H](Cc1cc(F)c(F)c(F)c1)C(=O)NCCCCNC(=O)c1ccc(-c2c3nc(c(-c4c(F)cccc4F)c4ccc([nH]4)c(-c4c(F)cccc4F)c4nc(c(-c5c(F)cccc5F)c5ccc2[nH]5)C=C4)C=C3)cc1
REMARK SMILES IDX 17 1 16 2 15 3 13 4 14 5 2 7 1 8 3 12 4 13 5 14 12 15 6 16
REMARK SMILES IDX 10 17 7 18 8 19 11 20 9 21 18 22 19 23 20 24 21 25 22 27
REMARK SMILES IDX 23 28 24 29 76 30 25 31 75 32 26 33 27 34 28 35 69 36 29 37
REMARK SMILES IDX 74 38 68 39 70 40 30 41 73 42 67 43 66 44 31 46 57 47 40 48
REMARK SMILES IDX 56 49 41 50 44 51 55 52 71 53 42 54 43 55 54 57 72 58 45 59
REMARK SMILES IDX 32 60 33 61 38 62 34 63 35 64 37 65 39 66 36 67 58 68 59 69
REMARK SMILES IDX 64 70 60 71 61 72 63 73 65 74 62 75 46 76 47 77 52 78 48 79
REMARK SMILES IDX 49 80 51 81 53 82 50 83
REMARK H PARENT 15 6 1 9 1 10 1 11 20 26 70 45 44 56
REMARK Flexibility Score: inf
ROOT
ATOM      1  C   UNL A   1      41.869  20.045  27.393  1.00  0.00     0.023 C 
ENDROOT
BRANCH   1   2
ATOM      2  C   UNL A   1      42.474  19.810  26.012  1.00  0.00     0.116 C 
BRANCH   2   3
ATOM      3  N   UNL A   1      43.619  18.931  26.056  1.00  0.00    -0.351 N 
ATOM      4  C   UNL A   1      44.673  18.813  25.193  1.00  0.00     0.278 C 
ATOM      5  O   UNL A   1      45.503  17.934  25.440  1.00  0.00    -0.268 OA
ATOM      6  H   UNL A   1      43.644  18.322  26.829  1.00  0.00     0.163 HD
BRANCH   4   7
ATOM      7  C   UNL A   1      44.845  19.758  23.972  1.00  0.00     0.275 C 
BRANCH   7   8
ATOM      8  N   UNL A   1      45.125  18.959  22.767  1.00  0.00    -0.347 N 
ATOM      9  H   UNL A   1      46.082  19.132  22.460  1.00  0.00     0.345 HD
ATOM     10  H   UNL A   1      44.476  19.223  22.025  1.00  0.00     0.345 HD
ATOM     11  H   UNL A   1      45.012  17.968  22.982  1.00  0.00     0.345 HD
ENDBRANCH   7   8
BRANCH   7  12
ATOM     12  C   UNL A   1      45.742  20.989  24.278  1.00  0.00     0.111 C 
BRANCH  12  13
ATOM     13  C   UNL A   1      45.206  22.170  25.077  1.00  0.00    -0.036 A 
ATOM     14  C   UNL A   1      44.315  23.067  24.460  1.00  0.00     0.046 A 
ATOM     15  C   UNL A   1      45.446  22.346  26.450  1.00  0.00     0.046 A 
ATOM     16  C   UNL A   1      43.702  24.088  25.193  1.00  0.00     0.162 A 
ATOM     17  C   UNL A   1      44.821  23.365  27.171  1.00  0.00     0.162 A 
ATOM     18  F   UNL A   1      42.852  24.915  24.571  1.00  0.00    -0.204 F 
ATOM     19  C   UNL A   1      43.948  24.236  26.548  1.00  0.00     0.194 A 
ATOM     20  F   UNL A   1      45.070  23.473  28.484  1.00  0.00    -0.204 F 
ATOM     21  F   UNL A   1      43.340  25.202  27.251  1.00  0.00    -0.200 F 
ENDBRANCH  12  13
ENDBRANCH   7  12
ENDBRANCH   4   7
ENDBRANCH   2   3
ENDBRANCH   1   2
BRANCH   1  22
ATOM     22  C   UNL A   1      40.923  21.240  27.466  1.00  0.00     0.023 C 
BRANCH  22  23
ATOM     23  C   UNL A   1      40.905  22.126  26.223  1.00  0.00     0.116 C 
BRANCH  23  24
ATOM     24  N   UNL A   1      39.569  22.449  25.755  1.00  0.00    -0.352 N 
ATOM     25  C   UNL A   1      38.806  23.568  26.038  1.00  0.00     0.251 C 
ATOM     26  H   UNL A   1      39.152  21.787  25.158  1.00  0.00     0.163 HD
ATOM     27  O   UNL A   1      37.656  23.656  25.637  1.00  0.00    -0.269 OA
BRANCH  25  28
ATOM     28  C   UNL A   1      39.394  24.632  26.878  1.00  0.00     0.039 A 
ATOM     29  C   UNL A   1      40.113  25.655  26.257  1.00  0.00     0.014 A 
ATOM     30  C   UNL A   1      39.167  24.652  28.254  1.00  0.00     0.014 A 
ATOM     31  C   UNL A   1      40.529  26.753  27.012  1.00  0.00     0.010 A 
ATOM     32  C   UNL A   1      39.514  25.782  28.987  1.00  0.00     0.010 A 
ATOM     33  C   UNL A   1      40.189  26.847  28.372  1.00  0.00    -0.014 A 
BRANCH  33  34
ATOM     34  C   UNL A   1      40.516  28.055  29.168  1.00  0.00     0.031 A 
ATOM     35  C   UNL A   1      41.824  28.140  29.902  1.00  0.00     0.074 A 
ATOM     36  C   UNL A   1      39.601  29.036  29.301  1.00  0.00     0.049 A 
ATOM     37  N   UNL A   1      42.251  29.061  30.727  1.00  0.00    -0.248 NA
ATOM     38  C   UNL A   1      42.763  27.022  29.708  1.00  0.00     0.031 C 
ATOM     39  C   UNL A   1      38.271  29.044  28.689  1.00  0.00     0.029 A 
ATOM     40  N   UNL A   1      39.648  30.209  30.010  1.00  0.00    -0.354 N 
ATOM     41  C   UNL A   1      43.495  28.625  31.164  1.00  0.00     0.074 A 
ATOM     42  C   UNL A   1      43.731  27.334  30.556  1.00  0.00     0.031 C 
ATOM     43  C   UNL A   1      37.637  30.178  29.033  1.00  0.00     0.029 A 
ATOM     44  C   UNL A   1      38.500  30.958  29.913  1.00  0.00     0.049 A 
ATOM     45  H   UNL A   1      40.431  30.490  30.538  1.00  0.00     0.167 HD
ATOM     46  C   UNL A   1      44.372  29.255  31.981  1.00  0.00     0.037 A 
ATOM     47  C   UNL A   1      38.178  32.138  30.475  1.00  0.00     0.037 A 
ATOM     48  C   UNL A   1      44.152  30.554  32.558  1.00  0.00     0.049 A 
ATOM     49  C   UNL A   1      39.179  32.829  31.358  1.00  0.00     0.074 A 
ATOM     50  C   UNL A   1      45.007  31.304  33.347  1.00  0.00     0.029 A 
ATOM     51  N   UNL A   1      42.993  31.299  32.402  1.00  0.00    -0.354 N 
ATOM     52  N   UNL A   1      40.377  32.435  31.715  1.00  0.00    -0.248 NA
ATOM     53  C   UNL A   1      38.786  34.132  31.913  1.00  0.00     0.031 C 
ATOM     54  C   UNL A   1      44.353  32.492  33.693  1.00  0.00     0.029 A 
ATOM     55  C   UNL A   1      43.106  32.496  33.089  1.00  0.00     0.049 A 
ATOM     56  H   UNL A   1      42.207  31.018  31.880  1.00  0.00     0.167 HD
ATOM     57  C   UNL A   1      40.890  33.448  32.514  1.00  0.00     0.074 A 
ATOM     58  C   UNL A   1      39.877  34.482  32.579  1.00  0.00     0.031 C 
ATOM     59  C   UNL A   1      42.091  33.517  33.137  1.00  0.00     0.037 A 
BRANCH  46  60
ATOM     60  C   UNL A   1      45.657  28.545  32.285  1.00  0.00     0.057 A 
ATOM     61  C   UNL A   1      46.803  28.729  31.500  1.00  0.00     0.134 A 
ATOM     62  C   UNL A   1      45.757  27.681  33.383  1.00  0.00     0.134 A 
ATOM     63  F   UNL A   1      46.768  29.532  30.426  1.00  0.00    -0.206 F 
ATOM     64  C   UNL A   1      47.994  28.060  31.779  1.00  0.00     0.040 A 
ATOM     65  C   UNL A   1      46.951  27.025  33.687  1.00  0.00     0.040 A 
ATOM     66  F   UNL A   1      44.699  27.462  34.177  1.00  0.00    -0.206 F 
ATOM     67  C   UNL A   1      48.072  27.207  32.879  1.00  0.00     0.006 A 
ENDBRANCH  46  60
BRANCH  47  68
ATOM     68  C   UNL A   1      36.860  32.757  30.197  1.00  0.00     0.057 A 
ATOM     69  C   UNL A   1      36.676  33.591  29.088  1.00  0.00     0.134 A 
ATOM     70  C   UNL A   1      35.756  32.537  31.029  1.00  0.00     0.134 A 
ATOM     71  F   UNL A   1      37.703  33.854  28.265  1.00  0.00    -0.206 F 
ATOM     72  C   UNL A   1      35.448  34.197  28.823  1.00  0.00     0.040 A 
ATOM     73  C   UNL A   1      34.515  33.118  30.765  1.00  0.00     0.040 A 
ATOM     74  F   UNL A   1      35.866  31.741  32.102  1.00  0.00    -0.206 F 
ATOM     75  C   UNL A   1      34.360  33.958  29.662  1.00  0.00     0.006 A 
ENDBRANCH  47  68
BRANCH  59  76
ATOM     76  C   UNL A   1      42.386  34.761  33.918  1.00  0.00     0.057 A 
ATOM     77  C   UNL A   1      42.895  35.912  33.305  1.00  0.00     0.134 A 
ATOM     78  C   UNL A   1      42.119  34.818  35.292  1.00  0.00     0.134 A 
ATOM     79  F   UNL A   1      43.184  35.915  31.996  1.00  0.00    -0.206 F 
ATOM     80  C   UNL A   1      43.145  37.074  34.036  1.00  0.00     0.040 A 
ATOM     81  C   UNL A   1      42.344  35.982  36.028  1.00  0.00     0.040 A 
ATOM     82  F   UNL A   1      41.624  33.750  35.935  1.00  0.00    -0.206 F 
ATOM     83  C   UNL A   1      42.862  37.113  35.401  1.00  0.00     0.006 A 
ENDBRANCH  59  76
ENDBRANCH  33  34
ENDBRANCH  25  28
ENDBRANCH  23  24
ENDBRANCH  22  23
ENDBRANCH   1  22
TORSDOF 14
ENDMDL
MODEL 3
REMARK VINA RESULT:     -10.3      3.364     10.786
REMARK SMILES [NH3+][C@H](Cc1cc(F)c(F)c(F)c1)C(=O)NCCCCNC(=O)c1ccc(-c2c3nc(c(-c4c(F)cccc4F)c4ccc([nH]4)c(-c4c(F)cccc4F)c4nc(c(-c5c(F)cccc5F)c5ccc2[nH]5)C=C4)C=C3)cc1
REMARK SMILES IDX 17 1 16 2 15 3 13 4 14 5 2 7 1 8 3 12 4 13 5 14 12 15 6 16
REMARK SMILES IDX 10 17 7 18 8 19 11 20 9 21 18 22 19 23 20 24 21 25 22 27
REMARK SMILES IDX 23 28 24 29 76 30 25 31 75 32 26 33 27 34 28 35 69 36 29 37
REMARK SMILES IDX 74 38 68 39 70 40 30 41 73 42 67 43 66 44 31 46 57 47 40 48
REMARK SMILES IDX 56 49 41 50 44 51 55 52 71 53 42 54 43 55 54 57 72 58 45 59
REMARK SMILES IDX 32 60 33 61 38 62 34 63 35 64 37 65 39 66 36 67 58 68 59 69
REMARK SMILES IDX 64 70 60 71 61 72 63 73 65 74 62 75 46 76 47 77 52 78 48 79
REMARK SMILES IDX 49 80 51 81 53 82 50 83
REMARK H PARENT 15 6 1 9 1 10 1 11 20 26 70 45 44 56
REMARK Flexibility Score: inf
ROOT
ATOM      1  C   UNL A   1      42.288  19.434  27.042  1.00  0.00     0.023 C 
ENDROOT
BRANCH   1   2
ATOM      2  C   UNL A   1      42.957  19.615  25.682  1.00  0.00     0.116 C 
BRANCH   2   3
ATOM      3  N   UNL A   1      44.336  20.026  25.799  1.00  0.00    -0.351 N 
ATOM      4  C   UNL A   1      44.980  21.110  25.270  1.00  0.00     0.278 C 
ATOM      5  O   UNL A   1      46.192  21.201  25.485  1.00  0.00    -0.268 OA
ATOM      6  H   UNL A   1      44.900  19.434  26.346  1.00  0.00     0.163 HD
BRANCH   4   7
ATOM      7  C   UNL A   1      44.224  22.200  24.460  1.00  0.00     0.275 C 
BRANCH   7   8
ATOM      8  N   UNL A   1      44.725  22.221  23.076  1.00  0.00    -0.347 N 
ATOM      9  H   UNL A   1      45.627  22.696  23.048  1.00  0.00     0.345 HD
ATOM     10  H   UNL A   1      44.061  22.716  22.481  1.00  0.00     0.345 HD
ATOM     11  H   UNL A   1      44.836  21.264  22.740  1.00  0.00     0.345 HD
ENDBRANCH   7   8
BRANCH   7  12
ATOM     12  C   UNL A   1      44.093  23.545  25.228  1.00  0.00     0.111 C 
BRANCH  12  13
ATOM     13  C   UNL A   1      44.296  23.609  26.736  1.00  0.00    -0.036 A 
ATOM     14  C   UNL A   1      45.505  24.117  27.243  1.00  0.00     0.046 A 
ATOM     15  C   UNL A   1      43.284  23.312  27.665  1.00  0.00     0.046 A 
ATOM     16  C   UNL A   1      45.682  24.312  28.617  1.00  0.00     0.162 A 
ATOM     17  C   UNL A   1      43.471  23.519  29.033  1.00  0.00     0.162 A 
ATOM     18  F   UNL A   1      46.844  24.808  29.060  1.00  0.00    -0.204 F 
ATOM     19  C   UNL A   1      44.666  24.020  29.513  1.00  0.00     0.194 A 
ATOM     20  F   UNL A   1      42.464  23.239  29.872  1.00  0.00    -0.204 F 
ATOM     21  F   UNL A   1      44.833  24.230  30.826  1.00  0.00    -0.200 F 
ENDBRANCH  12  13
ENDBRANCH   7  12
ENDBRANCH   4   7
ENDBRANCH   2   3
ENDBRANCH   1   2
BRANCH   1  22
ATOM     22  C   UNL A   1      41.176  20.439  27.330  1.00  0.00     0.023 C 
BRANCH  22  23
ATOM     23  C   UNL A   1      40.940  21.472  26.233  1.00  0.00     0.116 C 
BRANCH  23  24
ATOM     24  N   UNL A   1      39.536  21.721  25.955  1.00  0.00    -0.352 N 
ATOM     25  C   UNL A   1      38.807  22.874  26.179  1.00  0.00     0.251 C 
ATOM     26  H   UNL A   1      39.039  20.970  25.556  1.00  0.00     0.163 HD
ATOM     27  O   UNL A   1      37.603  22.901  25.972  1.00  0.00    -0.269 OA
BRANCH  25  28
ATOM     28  C   UNL A   1      39.504  24.060  26.718  1.00  0.00     0.039 A 
ATOM     29  C   UNL A   1      40.110  24.945  25.824  1.00  0.00     0.014 A 
ATOM     30  C   UNL A   1      39.488  24.327  28.086  1.00  0.00     0.014 A 
ATOM     31  C   UNL A   1      40.624  26.153  26.301  1.00  0.00     0.010 A 
ATOM     32  C   UNL A   1      39.930  25.563  28.547  1.00  0.00     0.010 A 
ATOM     33  C   UNL A   1      40.493  26.490  27.658  1.00  0.00    -0.014 A 
BRANCH  33  34
ATOM     34  C   UNL A   1      40.924  27.815  28.169  1.00  0.00     0.031 A 
ATOM     35  C   UNL A   1      42.387  28.136  28.281  1.00  0.00     0.074 A 
ATOM     36  C   UNL A   1      40.003  28.692  28.613  1.00  0.00     0.049 A 
ATOM     37  N   UNL A   1      42.965  29.192  28.794  1.00  0.00    -0.248 NA
ATOM     38  C   UNL A   1      43.327  27.119  27.781  1.00  0.00     0.031 C 
ATOM     39  C   UNL A   1      38.555  28.475  28.615  1.00  0.00     0.029 A 
ATOM     40  N   UNL A   1      40.152  29.940  29.163  1.00  0.00    -0.354 N 
ATOM     41  C   UNL A   1      44.330  28.958  28.696  1.00  0.00     0.074 A 
ATOM     42  C   UNL A   1      44.495  27.639  28.125  1.00  0.00     0.031 C 
ATOM     43  C   UNL A   1      37.949  29.561  29.122  1.00  0.00     0.029 A 
ATOM     44  C   UNL A   1      38.963  30.535  29.511  1.00  0.00     0.049 A 
ATOM     45  H   UNL A   1      41.029  30.369  29.297  1.00  0.00     0.167 HD
ATOM     46  C   UNL A   1      45.355  29.777  29.031  1.00  0.00     0.037 A 
ATOM     47  C   UNL A   1      38.720  31.729  30.083  1.00  0.00     0.037 A 
ATOM     48  C   UNL A   1      45.191  31.102  29.566  1.00  0.00     0.049 A 
ATOM     49  C   UNL A   1      39.873  32.631  30.422  1.00  0.00     0.074 A 
ATOM     50  C   UNL A   1      46.165  32.034  29.877  1.00  0.00     0.029 A 
ATOM     51  N   UNL A   1      43.968  31.685  29.864  1.00  0.00    -0.354 N 
ATOM     52  N   UNL A   1      41.158  32.422  30.267  1.00  0.00    -0.248 NA
ATOM     53  C   UNL A   1      39.543  33.937  31.010  1.00  0.00     0.031 C 
ATOM     54  C   UNL A   1      45.533  33.171  30.393  1.00  0.00     0.029 A 
ATOM     55  C   UNL A   1      44.164  32.960  30.367  1.00  0.00     0.049 A 
ATOM     56  H   UNL A   1      43.092  31.255  29.738  1.00  0.00     0.167 HD
ATOM     57  C   UNL A   1      41.788  33.575  30.715  1.00  0.00     0.074 A 
ATOM     58  C   UNL A   1      40.742  34.487  31.135  1.00  0.00     0.031 C 
ATOM     59  C   UNL A   1      43.112  33.856  30.773  1.00  0.00     0.037 A 
BRANCH  46  60
ATOM     60  C   UNL A   1      46.746  29.261  28.812  1.00  0.00     0.057 A 
ATOM     61  C   UNL A   1      47.425  29.467  27.603  1.00  0.00     0.134 A 
ATOM     62  C   UNL A   1      47.420  28.565  29.823  1.00  0.00     0.134 A 
ATOM     63  F   UNL A   1      46.828  30.113  26.591  1.00  0.00    -0.206 F 
ATOM     64  C   UNL A   1      48.715  28.977  27.399  1.00  0.00     0.040 A 
ATOM     65  C   UNL A   1      48.720  28.091  29.638  1.00  0.00     0.040 A 
ATOM     66  F   UNL A   1      46.828  28.335  31.004  1.00  0.00    -0.206 F 
ATOM     67  C   UNL A   1      49.368  28.290  28.420  1.00  0.00     0.006 A 
ENDBRANCH  46  60
BRANCH  47  68
ATOM     68  C   UNL A   1      37.323  32.155  30.345  1.00  0.00     0.057 A 
ATOM     69  C   UNL A   1      36.623  32.934  29.417  1.00  0.00     0.134 A 
ATOM     70  C   UNL A   1      36.657  31.800  31.524  1.00  0.00     0.134 A 
ATOM     71  F   UNL A   1      37.216  33.320  28.277  1.00  0.00    -0.206 F 
ATOM     72  C   UNL A   1      35.316  33.359  29.657  1.00  0.00     0.040 A 
ATOM     73  C   UNL A   1      35.343  32.199  31.768  1.00  0.00     0.040 A 
ATOM     74  F   UNL A   1      37.272  31.047  32.448  1.00  0.00    -0.206 F 
ATOM     75  C   UNL A   1      34.670  32.988  30.835  1.00  0.00     0.006 A 
ENDBRANCH  47  68
BRANCH  59  76
ATOM     76  C   UNL A   1      43.504  35.210  31.281  1.00  0.00     0.057 A 
ATOM     77  C   UNL A   1      43.680  36.298  30.418  1.00  0.00     0.134 A 
ATOM     78  C   UNL A   1      43.664  35.435  32.654  1.00  0.00     0.134 A 
ATOM     79  F   UNL A   1      43.554  36.142  29.092  1.00  0.00    -0.206 F 
ATOM     80  C   UNL A   1      44.021  37.562  30.903  1.00  0.00     0.040 A 
ATOM     81  C   UNL A   1      43.983  36.699  33.151  1.00  0.00     0.040 A 
ATOM     82  F   UNL A   1      43.502  34.435  33.533  1.00  0.00    -0.206 F 
ATOM     83  C   UNL A   1      44.167  37.766  32.273  1.00  0.00     0.006 A 
ENDBRANCH  59  76
ENDBRANCH  33  34
ENDBRANCH  25  28
ENDBRANCH  23  24
ENDBRANCH  22  23
ENDBRANCH   1  22
TORSDOF 14
ENDMDL
