MODEL 1
REMARK VINA RESULT:     -10.4      0.000      0.000
REMARK SMILES O=C(CCCc1nc(-c2ccc(Cl)c(Cl)c2)c(-c2ccccc2)o1)NCCCCNC(=O)c1ccc(-c2c3nc(c(-c4c(F)cccc4F)c4ccc([nH]4)c(-c4c(F)cccc4F)c4nc(c(-c5c(F)cccc5F)c5ccc2[nH]5)C=C4)C=C3)cc1
REMARK SMILES IDX 26 1 25 2 1 3 2 4 3 6 4 7 5 8 6 9 7 10 24 11 8 12 17 13 9 14
REMARK SMILES IDX 10 15 16 16 11 17 14 18 12 19 15 20 13 21 18 22 19 23 23 24
REMARK SMILES IDX 20 25 22 26 21 27 27 28 28 29 29 30 30 31 31 32 32 34 33 35
REMARK SMILES IDX 34 36 86 37 35 38 85 39 36 40 37 41 38 42 79 43 39 44 84 45
REMARK SMILES IDX 78 46 80 47 40 48 83 49 77 50 76 51 41 53 67 54 50 55 66 56
REMARK SMILES IDX 51 57 54 58 65 59 81 60 52 61 53 62 64 64 82 65 55 66 42 67
REMARK SMILES IDX 43 68 48 69 44 70 45 71 47 72 49 73 46 74 68 75 69 76 74 77
REMARK SMILES IDX 70 78 71 79 73 80 75 81 72 82 56 83 57 84 62 85 58 86 59 87
REMARK SMILES IDX 61 88 63 89 60 90
REMARK H PARENT 25 5 30 33 80 52 54 63
REMARK Flexibility Score: inf
ROOT
ATOM      1  C   UNL A   1      32.943  35.466  29.108  1.00  0.00     0.116 C 
ENDROOT
BRANCH   1   2
ATOM      2  N   UNL A   1      33.053  35.400  30.551  1.00  0.00    -0.356 N 
ATOM      3  O   UNL A   1      32.984  37.676  30.863  1.00  0.00    -0.275 OA
ATOM      4  C   UNL A   1      33.059  36.541  31.322  1.00  0.00     0.220 C 
ATOM      5  H   UNL A   1      33.125  34.522  30.989  1.00  0.00     0.163 HD
BRANCH   4   6
ATOM      6  C   UNL A   1      33.138  36.288  32.811  1.00  0.00     0.100 C 
BRANCH   6   7
ATOM      7  C   UNL A   1      34.527  35.817  33.249  1.00  0.00     0.020 C 
BRANCH   7   8
ATOM      8  C   UNL A   1      34.614  34.353  33.691  1.00  0.00     0.098 C 
BRANCH   8   9
ATOM      9  C   UNL A   1      35.913  33.726  33.334  1.00  0.00     0.195 A 
ATOM     10  N   UNL A   1      36.372  32.541  33.691  1.00  0.00    -0.213 NA
ATOM     11  O   UNL A   1      36.706  34.414  32.455  1.00  0.00    -0.440 OA
ATOM     12  C   UNL A   1      37.590  32.472  33.053  1.00  0.00     0.117 A 
ATOM     13  C   UNL A   1      37.771  33.581  32.251  1.00  0.00     0.162 A 
BRANCH  12  14
ATOM     14  C   UNL A   1      38.550  31.400  33.209  1.00  0.00     0.006 A 
ATOM     15  C   UNL A   1      39.780  31.625  33.832  1.00  0.00     0.012 A 
ATOM     16  C   UNL A   1      38.223  30.107  32.776  1.00  0.00     0.032 A 
ATOM     17  C   UNL A   1      40.671  30.565  34.027  1.00  0.00     0.023 A 
ATOM     18  C   UNL A   1      39.102  29.044  32.992  1.00  0.00     0.060 A 
ATOM     19  C   UNL A   1      40.334  29.273  33.611  1.00  0.00     0.059 A 
ATOM     20  Cl  UNL A   1      38.586  27.472  32.510  1.00  0.00    -0.083 Cl
ATOM     21  Cl  UNL A   1      41.472  28.005  33.901  1.00  0.00    -0.083 Cl
ENDBRANCH  12  14
BRANCH  13  22
ATOM     22  C   UNL A   1      38.771  33.998  31.288  1.00  0.00     0.020 A 
ATOM     23  C   UNL A   1      38.471  34.074  29.924  1.00  0.00     0.012 A 
ATOM     24  C   UNL A   1      40.040  34.401  31.732  1.00  0.00     0.012 A 
ATOM     25  C   UNL A   1      39.418  34.568  29.024  1.00  0.00     0.001 A 
ATOM     26  C   UNL A   1      40.987  34.885  30.830  1.00  0.00     0.001 A 
ATOM     27  C   UNL A   1      40.673  34.975  29.476  1.00  0.00     0.000 A 
ENDBRANCH  13  22
ENDBRANCH   8   9
ENDBRANCH   7   8
ENDBRANCH   6   7
ENDBRANCH   4   6
ENDBRANCH   1   2
BRANCH   1  28
ATOM     28  C   UNL A   1      33.777  34.400  28.403  1.00  0.00     0.023 C 
BRANCH  28  29
ATOM     29  C   UNL A   1      35.005  33.916  29.174  1.00  0.00     0.023 C 
BRANCH  29  30
ATOM     30  C   UNL A   1      34.944  32.480  29.683  1.00  0.00     0.116 C 
BRANCH  30  31
ATOM     31  N   UNL A   1      34.236  31.598  28.770  1.00  0.00    -0.352 N 
ATOM     32  C   UNL A   1      34.702  30.520  28.058  1.00  0.00     0.251 C 
ATOM     33  H   UNL A   1      33.281  31.803  28.644  1.00  0.00     0.163 HD
ATOM     34  O   UNL A   1      33.986  29.996  27.203  1.00  0.00    -0.269 OA
BRANCH  32  35
ATOM     35  C   UNL A   1      36.066  29.995  28.288  1.00  0.00     0.039 A 
ATOM     36  C   UNL A   1      37.029  30.162  27.288  1.00  0.00     0.014 A 
ATOM     37  C   UNL A   1      36.397  29.320  29.466  1.00  0.00     0.014 A 
ATOM     38  C   UNL A   1      38.335  29.713  27.495  1.00  0.00     0.010 A 
ATOM     39  C   UNL A   1      37.715  28.929  29.699  1.00  0.00     0.010 A 
ATOM     40  C   UNL A   1      38.699  29.121  28.716  1.00  0.00    -0.014 A 
BRANCH  40  41
ATOM     41  C   UNL A   1      40.100  28.705  28.981  1.00  0.00     0.031 A 
ATOM     42  C   UNL A   1      41.066  29.651  29.642  1.00  0.00     0.074 A 
ATOM     43  C   UNL A   1      40.525  27.492  28.577  1.00  0.00     0.049 A 
ATOM     44  N   UNL A   1      42.344  29.497  29.880  1.00  0.00    -0.248 NA
ATOM     45  C   UNL A   1      40.528  30.952  30.069  1.00  0.00     0.031 C 
ATOM     46  C   UNL A   1      39.708  26.495  27.881  1.00  0.00     0.029 A 
ATOM     47  N   UNL A   1      41.758  26.897  28.683  1.00  0.00    -0.354 N 
ATOM     48  C   UNL A   1      42.766  30.682  30.469  1.00  0.00     0.074 A 
ATOM     49  C   UNL A   1      41.618  31.562  30.510  1.00  0.00     0.031 C 
ATOM     50  C   UNL A   1      40.457  25.406  27.640  1.00  0.00     0.029 A 
ATOM     51  C   UNL A   1      41.812  25.640  28.132  1.00  0.00     0.049 A 
ATOM     52  H   UNL A   1      42.530  27.331  29.113  1.00  0.00     0.167 HD
ATOM     53  C   UNL A   1      43.991  31.000  30.949  1.00  0.00     0.037 A 
ATOM     54  C   UNL A   1      42.839  24.778  28.022  1.00  0.00     0.037 A 
ATOM     55  C   UNL A   1      45.130  30.118  30.933  1.00  0.00     0.049 A 
ATOM     56  C   UNL A   1      44.192  25.159  28.550  1.00  0.00     0.074 A 
ATOM     57  C   UNL A   1      46.397  30.334  31.448  1.00  0.00     0.029 A 
ATOM     58  N   UNL A   1      45.139  28.851  30.369  1.00  0.00    -0.354 N 
ATOM     59  N   UNL A   1      44.565  26.268  29.138  1.00  0.00    -0.248 NA
ATOM     60  C   UNL A   1      45.264  24.168  28.392  1.00  0.00     0.031 C 
ATOM     61  C   UNL A   1      47.184  29.213  31.162  1.00  0.00     0.029 A 
ATOM     62  C   UNL A   1      46.395  28.282  30.508  1.00  0.00     0.049 A 
ATOM     63  H   UNL A   1      44.369  28.420  29.935  1.00  0.00     0.167 HD
ATOM     64  C   UNL A   1      45.911  26.101  29.437  1.00  0.00     0.074 A 
ATOM     65  C   UNL A   1      46.284  24.780  28.976  1.00  0.00     0.031 C 
ATOM     66  C   UNL A   1      46.758  26.968  30.041  1.00  0.00     0.037 A 
BRANCH  53  67
ATOM     67  C   UNL A   1      44.166  32.369  31.542  1.00  0.00     0.057 A 
ATOM     68  C   UNL A   1      44.491  33.480  30.752  1.00  0.00     0.134 A 
ATOM     69  C   UNL A   1      43.972  32.586  32.912  1.00  0.00     0.134 A 
ATOM     70  F   UNL A   1      44.700  33.338  29.434  1.00  0.00    -0.206 F 
ATOM     71  C   UNL A   1      44.643  34.751  31.307  1.00  0.00     0.040 A 
ATOM     72  C   UNL A   1      44.095  33.858  33.475  1.00  0.00     0.040 A 
ATOM     73  F   UNL A   1      43.651  31.568  33.725  1.00  0.00    -0.206 F 
ATOM     74  C   UNL A   1      44.438  34.944  32.672  1.00  0.00     0.006 A 
ENDBRANCH  53  67
BRANCH  54  75
ATOM     75  C   UNL A   1      42.634  23.468  27.362  1.00  0.00     0.057 A 
ATOM     76  C   UNL A   1      42.274  22.329  28.090  1.00  0.00     0.134 A 
ATOM     77  C   UNL A   1      42.804  23.329  25.982  1.00  0.00     0.134 A 
ATOM     78  F   UNL A   1      42.138  22.395  29.423  1.00  0.00    -0.206 F 
ATOM     79  C   UNL A   1      42.086  21.096  27.465  1.00  0.00     0.040 A 
ATOM     80  C   UNL A   1      42.588  22.111  25.338  1.00  0.00     0.040 A 
ATOM     81  F   UNL A   1      43.188  24.382  25.249  1.00  0.00    -0.206 F 
ATOM     82  C   UNL A   1      42.232  20.988  26.082  1.00  0.00     0.006 A 
ENDBRANCH  54  75
BRANCH  66  83
ATOM     83  C   UNL A   1      48.165  26.501  30.268  1.00  0.00     0.057 A 
ATOM     84  C   UNL A   1      49.186  26.756  29.343  1.00  0.00     0.134 A 
ATOM     85  C   UNL A   1      48.506  25.811  31.437  1.00  0.00     0.134 A 
ATOM     86  F   UNL A   1      48.920  27.398  28.196  1.00  0.00    -0.206 F 
ATOM     87  C   UNL A   1      50.493  26.321  29.566  1.00  0.00     0.040 A 
ATOM     88  C   UNL A   1      49.815  25.392  31.682  1.00  0.00     0.040 A 
ATOM     89  F   UNL A   1      47.576  25.541  32.366  1.00  0.00    -0.206 F 
ATOM     90  C   UNL A   1      50.812  25.642  30.741  1.00  0.00     0.006 A 
ENDBRANCH  66  83
ENDBRANCH  40  41
ENDBRANCH  32  35
ENDBRANCH  30  31
ENDBRANCH  29  30
ENDBRANCH  28  29
ENDBRANCH   1  28
TORSDOF 16
ENDMDL
MODEL 2
REMARK VINA RESULT:      -9.5      5.324     10.592
REMARK SMILES O=C(CCCc1nc(-c2ccc(Cl)c(Cl)c2)c(-c2ccccc2)o1)NCCCCNC(=O)c1ccc(-c2c3nc(c(-c4c(F)cccc4F)c4ccc([nH]4)c(-c4c(F)cccc4F)c4nc(c(-c5c(F)cccc5F)c5ccc2[nH]5)C=C4)C=C3)cc1
REMARK SMILES IDX 26 1 25 2 1 3 2 4 3 6 4 7 5 8 6 9 7 10 24 11 8 12 17 13 9 14
REMARK SMILES IDX 10 15 16 16 11 17 14 18 12 19 15 20 13 21 18 22 19 23 23 24
REMARK SMILES IDX 20 25 22 26 21 27 27 28 28 29 29 30 30 31 31 32 32 34 33 35
REMARK SMILES IDX 34 36 86 37 35 38 85 39 36 40 37 41 38 42 79 43 39 44 84 45
REMARK SMILES IDX 78 46 80 47 40 48 83 49 77 50 76 51 41 53 67 54 50 55 66 56
REMARK SMILES IDX 51 57 54 58 65 59 81 60 52 61 53 62 64 64 82 65 55 66 42 67
REMARK SMILES IDX 43 68 48 69 44 70 45 71 47 72 49 73 46 74 68 75 69 76 74 77
REMARK SMILES IDX 70 78 71 79 73 80 75 81 72 82 56 83 57 84 62 85 58 86 59 87
REMARK SMILES IDX 61 88 63 89 60 90
REMARK H PARENT 25 5 30 33 80 52 54 63
REMARK Flexibility Score: inf
ROOT
ATOM      1  C   UNL A   1      32.919  30.166  25.864  1.00  0.00     0.116 C 
ENDROOT
BRANCH   1   2
ATOM      2  N   UNL A   1      32.600  29.649  24.548  1.00  0.00    -0.356 N 
ATOM      3  O   UNL A   1      33.266  27.498  25.011  1.00  0.00    -0.275 OA
ATOM      4  C   UNL A   1      32.802  28.324  24.231  1.00  0.00     0.220 C 
ATOM      5  H   UNL A   1      32.231  30.257  23.868  1.00  0.00     0.163 HD
BRANCH   4   6
ATOM      6  C   UNL A   1      32.377  27.946  22.830  1.00  0.00     0.100 C 
BRANCH   6   7
ATOM      7  C   UNL A   1      31.366  26.797  22.818  1.00  0.00     0.020 C 
BRANCH   7   8
ATOM      8  C   UNL A   1      31.714  25.625  21.894  1.00  0.00     0.098 C 
BRANCH   8   9
ATOM      9  C   UNL A   1      32.351  24.496  22.621  1.00  0.00     0.195 A 
ATOM     10  N   UNL A   1      31.933  23.246  22.712  1.00  0.00    -0.213 NA
ATOM     11  O   UNL A   1      33.566  24.745  23.199  1.00  0.00    -0.440 OA
ATOM     12  C   UNL A   1      32.914  22.643  23.466  1.00  0.00     0.117 A 
ATOM     13  C   UNL A   1      33.940  23.534  23.713  1.00  0.00     0.162 A 
BRANCH  12  14
ATOM     14  C   UNL A   1      32.873  21.278  23.943  1.00  0.00     0.006 A 
ATOM     15  C   UNL A   1      33.002  20.990  25.304  1.00  0.00     0.012 A 
ATOM     16  C   UNL A   1      32.652  20.231  23.036  1.00  0.00     0.032 A 
ATOM     17  C   UNL A   1      32.900  19.670  25.754  1.00  0.00     0.023 A 
ATOM     18  C   UNL A   1      32.528  18.916  23.487  1.00  0.00     0.060 A 
ATOM     19  C   UNL A   1      32.661  18.632  24.849  1.00  0.00     0.059 A 
ATOM     20  Cl  UNL A   1      32.166  17.703  22.319  1.00  0.00    -0.083 Cl
ATOM     21  Cl  UNL A   1      32.527  17.026  25.474  1.00  0.00    -0.083 Cl
ENDBRANCH  12  14
BRANCH  13  22
ATOM     22  C   UNL A   1      35.247  23.447  24.334  1.00  0.00     0.020 A 
ATOM     23  C   UNL A   1      35.548  24.178  25.487  1.00  0.00     0.012 A 
ATOM     24  C   UNL A   1      36.207  22.563  23.815  1.00  0.00     0.012 A 
ATOM     25  C   UNL A   1      36.779  24.009  26.124  1.00  0.00     0.001 A 
ATOM     26  C   UNL A   1      37.439  22.402  24.448  1.00  0.00     0.001 A 
ATOM     27  C   UNL A   1      37.722  23.121  25.607  1.00  0.00     0.000 A 
ENDBRANCH  13  22
ENDBRANCH   8   9
ENDBRANCH   7   8
ENDBRANCH   6   7
ENDBRANCH   4   6
ENDBRANCH   1   2
BRANCH   1  28
ATOM     28  C   UNL A   1      31.679  30.585  26.649  1.00  0.00     0.023 C 
BRANCH  28  29
ATOM     29  C   UNL A   1      31.492  32.093  26.819  1.00  0.00     0.023 C 
BRANCH  29  30
ATOM     30  C   UNL A   1      32.761  32.890  27.100  1.00  0.00     0.116 C 
BRANCH  30  31
ATOM     31  N   UNL A   1      32.479  34.212  27.633  1.00  0.00    -0.352 N 
ATOM     32  C   UNL A   1      33.043  34.862  28.703  1.00  0.00     0.251 C 
ATOM     33  H   UNL A   1      31.780  34.716  27.156  1.00  0.00     0.163 HD
ATOM     34  O   UNL A   1      32.551  35.918  29.106  1.00  0.00    -0.269 OA
BRANCH  32  35
ATOM     35  C   UNL A   1      34.221  34.294  29.396  1.00  0.00     0.039 A 
ATOM     36  C   UNL A   1      34.017  33.497  30.526  1.00  0.00     0.014 A 
ATOM     37  C   UNL A   1      35.520  34.561  28.958  1.00  0.00     0.014 A 
ATOM     38  C   UNL A   1      35.109  32.916  31.176  1.00  0.00     0.010 A 
ATOM     39  C   UNL A   1      36.605  33.930  29.567  1.00  0.00     0.010 A 
ATOM     40  C   UNL A   1      36.411  33.100  30.683  1.00  0.00    -0.014 A 
BRANCH  40  41
ATOM     41  C   UNL A   1      37.575  32.430  31.317  1.00  0.00     0.031 A 
ATOM     42  C   UNL A   1      38.260  31.278  30.631  1.00  0.00     0.074 A 
ATOM     43  C   UNL A   1      37.986  32.819  32.539  1.00  0.00     0.049 A 
ATOM     44  N   UNL A   1      39.235  30.519  31.063  1.00  0.00    -0.248 NA
ATOM     45  C   UNL A   1      37.766  30.918  29.293  1.00  0.00     0.031 C 
ATOM     46  C   UNL A   1      37.383  33.888  33.337  1.00  0.00     0.029 A 
ATOM     47  N   UNL A   1      39.005  32.348  33.330  1.00  0.00    -0.354 N 
ATOM     48  C   UNL A   1      39.461  29.585  30.061  1.00  0.00     0.074 A 
ATOM     49  C   UNL A   1      38.490  29.844  29.018  1.00  0.00     0.031 C 
ATOM     50  C   UNL A   1      38.055  34.003  34.495  1.00  0.00     0.029 A 
ATOM     51  C   UNL A   1      39.111  32.996  34.536  1.00  0.00     0.049 A 
ATOM     52  H   UNL A   1      39.603  31.614  33.058  1.00  0.00     0.167 HD
ATOM     53  C   UNL A   1      40.402  28.612  30.005  1.00  0.00     0.037 A 
ATOM     54  C   UNL A   1      39.955  32.795  35.565  1.00  0.00     0.037 A 
ATOM     55  C   UNL A   1      41.384  28.366  31.028  1.00  0.00     0.049 A 
ATOM     56  C   UNL A   1      40.980  31.702  35.485  1.00  0.00     0.074 A 
ATOM     57  C   UNL A   1      42.413  27.440  31.033  1.00  0.00     0.029 A 
ATOM     58  N   UNL A   1      41.459  29.051  32.232  1.00  0.00    -0.354 N 
ATOM     59  N   UNL A   1      41.206  30.852  34.515  1.00  0.00    -0.248 NA
ATOM     60  C   UNL A   1      41.864  31.541  36.648  1.00  0.00     0.031 C 
ATOM     61  C   UNL A   1      43.087  27.537  32.255  1.00  0.00     0.029 A 
ATOM     62  C   UNL A   1      42.505  28.554  32.994  1.00  0.00     0.049 A 
ATOM     63  H   UNL A   1      40.858  29.781  32.506  1.00  0.00     0.167 HD
ATOM     64  C   UNL A   1      42.268  30.067  34.941  1.00  0.00     0.074 A 
ATOM     65  C   UNL A   1      42.650  30.549  36.252  1.00  0.00     0.031 C 
ATOM     66  C   UNL A   1      42.873  29.038  34.300  1.00  0.00     0.037 A 
BRANCH  53  67
ATOM     67  C   UNL A   1      40.417  27.737  28.784  1.00  0.00     0.057 A 
ATOM     68  C   UNL A   1      41.199  28.048  27.663  1.00  0.00     0.134 A 
ATOM     69  C   UNL A   1      39.671  26.553  28.743  1.00  0.00     0.134 A 
ATOM     70  F   UNL A   1      41.929  29.173  27.635  1.00  0.00    -0.206 F 
ATOM     71  C   UNL A   1      41.216  27.226  26.535  1.00  0.00     0.040 A 
ATOM     72  C   UNL A   1      39.701  25.709  27.630  1.00  0.00     0.040 A 
ATOM     73  F   UNL A   1      38.907  26.191  29.785  1.00  0.00    -0.206 F 
ATOM     74  C   UNL A   1      40.470  26.049  26.519  1.00  0.00     0.006 A 
ENDBRANCH  53  67
BRANCH  54  75
ATOM     75  C   UNL A   1      39.850  33.638  36.778  1.00  0.00     0.057 A 
ATOM     76  C   UNL A   1      38.986  33.308  37.828  1.00  0.00     0.134 A 
ATOM     77  C   UNL A   1      40.611  34.803  36.907  1.00  0.00     0.134 A 
ATOM     78  F   UNL A   1      38.201  32.223  37.740  1.00  0.00    -0.206 F 
ATOM     79  C   UNL A   1      38.887  34.108  38.966  1.00  0.00     0.040 A 
ATOM     80  C   UNL A   1      40.548  35.595  38.052  1.00  0.00     0.040 A 
ATOM     81  F   UNL A   1      41.422  35.182  35.910  1.00  0.00    -0.206 F 
ATOM     82  C   UNL A   1      39.679  35.249  39.086  1.00  0.00     0.006 A 
ENDBRANCH  54  75
BRANCH  66  83
ATOM     83  C   UNL A   1      44.032  28.387  34.994  1.00  0.00     0.057 A 
ATOM     84  C   UNL A   1      43.874  27.232  35.770  1.00  0.00     0.134 A 
ATOM     85  C   UNL A   1      45.324  28.910  34.863  1.00  0.00     0.134 A 
ATOM     86  F   UNL A   1      42.660  26.692  35.947  1.00  0.00    -0.206 F 
ATOM     87  C   UNL A   1      44.960  26.631  36.408  1.00  0.00     0.040 A 
ATOM     88  C   UNL A   1      46.422  28.304  35.477  1.00  0.00     0.040 A 
ATOM     89  F   UNL A   1      45.544  30.012  34.130  1.00  0.00    -0.206 F 
ATOM     90  C   UNL A   1      46.240  27.164  36.258  1.00  0.00     0.006 A 
ENDBRANCH  66  83
ENDBRANCH  40  41
ENDBRANCH  32  35
ENDBRANCH  30  31
ENDBRANCH  29  30
ENDBRANCH  28  29
ENDBRANCH   1  28
TORSDOF 16
ENDMDL
MODEL 3
REMARK VINA RESULT:      -9.5      5.301      8.893
REMARK SMILES O=C(CCCc1nc(-c2ccc(Cl)c(Cl)c2)c(-c2ccccc2)o1)NCCCCNC(=O)c1ccc(-c2c3nc(c(-c4c(F)cccc4F)c4ccc([nH]4)c(-c4c(F)cccc4F)c4nc(c(-c5c(F)cccc5F)c5ccc2[nH]5)C=C4)C=C3)cc1
REMARK SMILES IDX 26 1 25 2 1 3 2 4 3 6 4 7 5 8 6 9 7 10 24 11 8 12 17 13 9 14
REMARK SMILES IDX 10 15 16 16 11 17 14 18 12 19 15 20 13 21 18 22 19 23 23 24
REMARK SMILES IDX 20 25 22 26 21 27 27 28 28 29 29 30 30 31 31 32 32 34 33 35
REMARK SMILES IDX 34 36 86 37 35 38 85 39 36 40 37 41 38 42 79 43 39 44 84 45
REMARK SMILES IDX 78 46 80 47 40 48 83 49 77 50 76 51 41 53 67 54 50 55 66 56
REMARK SMILES IDX 51 57 54 58 65 59 81 60 52 61 53 62 64 64 82 65 55 66 42 67
REMARK SMILES IDX 43 68 48 69 44 70 45 71 47 72 49 73 46 74 68 75 69 76 74 77
REMARK SMILES IDX 70 78 71 79 73 80 75 81 72 82 56 83 57 84 62 85 58 86 59 87
REMARK SMILES IDX 61 88 63 89 60 90
REMARK H PARENT 25 5 30 33 80 52 54 63
REMARK Flexibility Score: inf
ROOT
ATOM      1  C   UNL A   1      32.705  30.015  25.952  1.00  0.00     0.116 C 
ENDROOT
BRANCH   1   2
ATOM      2  N   UNL A   1      31.928  29.498  24.844  1.00  0.00    -0.356 N 
ATOM      3  O   UNL A   1      31.467  27.481  25.845  1.00  0.00    -0.275 OA
ATOM      4  C   UNL A   1      31.358  28.245  24.891  1.00  0.00     0.220 C 
ATOM      5  H   UNL A   1      31.805  30.053  24.040  1.00  0.00     0.163 HD
BRANCH   4   6
ATOM      6  C   UNL A   1      30.547  27.881  23.668  1.00  0.00     0.100 C 
BRANCH   6   7
ATOM      7  C   UNL A   1      30.104  26.416  23.677  1.00  0.00     0.020 C 
BRANCH   7   8
ATOM      8  C   UNL A   1      30.703  25.542  22.572  1.00  0.00     0.098 C 
BRANCH   8   9
ATOM      9  C   UNL A   1      31.540  24.437  23.108  1.00  0.00     0.195 A 
ATOM     10  N   UNL A   1      31.257  23.148  23.154  1.00  0.00    -0.213 NA
ATOM     11  O   UNL A   1      32.799  24.770  23.529  1.00  0.00    -0.440 OA
ATOM     12  C   UNL A   1      32.390  22.599  23.711  1.00  0.00     0.117 A 
ATOM     13  C   UNL A   1      33.354  23.572  23.884  1.00  0.00     0.162 A 
BRANCH  12  14
ATOM     14  C   UNL A   1      32.545  21.208  24.077  1.00  0.00     0.006 A 
ATOM     15  C   UNL A   1      32.734  20.833  25.409  1.00  0.00     0.012 A 
ATOM     16  C   UNL A   1      32.455  20.216  23.089  1.00  0.00     0.032 A 
ATOM     17  C   UNL A   1      32.822  19.480  25.752  1.00  0.00     0.023 A 
ATOM     18  C   UNL A   1      32.521  18.865  23.433  1.00  0.00     0.060 A 
ATOM     19  C   UNL A   1      32.714  18.494  24.766  1.00  0.00     0.059 A 
ATOM     20  Cl  UNL A   1      32.311  17.710  22.171  1.00  0.00    -0.083 Cl
ATOM     21  Cl  UNL A   1      32.812  16.840  25.260  1.00  0.00    -0.083 Cl
ENDBRANCH  12  14
BRANCH  13  22
ATOM     22  C   UNL A   1      34.741  23.577  24.308  1.00  0.00     0.020 A 
ATOM     23  C   UNL A   1      35.116  24.118  25.542  1.00  0.00     0.012 A 
ATOM     24  C   UNL A   1      35.718  22.970  23.503  1.00  0.00     0.012 A 
ATOM     25  C   UNL A   1      36.441  24.029  25.973  1.00  0.00     0.001 A 
ATOM     26  C   UNL A   1      37.042  22.890  23.932  1.00  0.00     0.001 A 
ATOM     27  C   UNL A   1      37.402  23.414  25.171  1.00  0.00     0.000 A 
ENDBRANCH  13  22
ENDBRANCH   8   9
ENDBRANCH   7   8
ENDBRANCH   6   7
ENDBRANCH   4   6
ENDBRANCH   1   2
BRANCH   1  28
ATOM     28  C   UNL A   1      31.836  30.622  27.050  1.00  0.00     0.023 C 
BRANCH  28  29
ATOM     29  C   UNL A   1      31.555  32.118  26.908  1.00  0.00     0.023 C 
BRANCH  29  30
ATOM     30  C   UNL A   1      32.780  33.026  26.923  1.00  0.00     0.116 C 
BRANCH  30  31
ATOM     31  N   UNL A   1      32.532  34.279  27.618  1.00  0.00    -0.352 N 
ATOM     32  C   UNL A   1      33.109  34.772  28.763  1.00  0.00     0.251 C 
ATOM     33  H   UNL A   1      31.851  34.859  27.208  1.00  0.00     0.163 HD
ATOM     34  O   UNL A   1      32.646  35.783  29.295  1.00  0.00    -0.269 OA
BRANCH  32  35
ATOM     35  C   UNL A   1      34.267  34.088  29.380  1.00  0.00     0.039 A 
ATOM     36  C   UNL A   1      34.030  33.104  30.345  1.00  0.00     0.014 A 
ATOM     37  C   UNL A   1      35.579  34.424  29.037  1.00  0.00     0.014 A 
ATOM     38  C   UNL A   1      35.103  32.414  30.916  1.00  0.00     0.010 A 
ATOM     39  C   UNL A   1      36.645  33.692  29.557  1.00  0.00     0.010 A 
ATOM     40  C   UNL A   1      36.419  32.679  30.503  1.00  0.00    -0.014 A 
BRANCH  40  41
ATOM     41  C   UNL A   1      37.565  31.903  31.044  1.00  0.00     0.031 A 
ATOM     42  C   UNL A   1      38.112  32.206  32.413  1.00  0.00     0.074 A 
ATOM     43  C   UNL A   1      38.154  30.961  30.283  1.00  0.00     0.049 A 
ATOM     44  N   UNL A   1      39.154  31.694  33.020  1.00  0.00    -0.248 NA
ATOM     45  C   UNL A   1      37.410  33.237  33.192  1.00  0.00     0.031 C 
ATOM     46  C   UNL A   1      37.757  30.599  28.921  1.00  0.00     0.029 A 
ATOM     47  N   UNL A   1      39.224  30.142  30.546  1.00  0.00    -0.354 N 
ATOM     48  C   UNL A   1      39.241  32.349  34.241  1.00  0.00     0.074 A 
ATOM     49  C   UNL A   1      38.174  33.328  34.270  1.00  0.00     0.031 C 
ATOM     50  C   UNL A   1      38.560  29.619  28.475  1.00  0.00     0.029 A 
ATOM     51  C   UNL A   1      39.548  29.307  29.504  1.00  0.00     0.049 A 
ATOM     52  H   UNL A   1      39.713  30.152  31.400  1.00  0.00     0.167 HD
ATOM     53  C   UNL A   1      40.116  32.143  35.254  1.00  0.00     0.037 A 
ATOM     54  C   UNL A   1      40.537  28.402  29.385  1.00  0.00     0.037 A 
ATOM     55  C   UNL A   1      41.163  31.154  35.239  1.00  0.00     0.049 A 
ATOM     56  C   UNL A   1      41.503  28.201  30.515  1.00  0.00     0.074 A 
ATOM     57  C   UNL A   1      42.063  30.834  36.242  1.00  0.00     0.029 A 
ATOM     58  N   UNL A   1      41.453  30.326  34.164  1.00  0.00    -0.354 N 
ATOM     59  N   UNL A   1      41.549  28.801  31.678  1.00  0.00    -0.248 NA
ATOM     60  C   UNL A   1      42.557  27.198  30.310  1.00  0.00     0.031 C 
ATOM     61  C   UNL A   1      42.921  29.839  35.761  1.00  0.00     0.029 A 
ATOM     62  C   UNL A   1      42.529  29.509  34.474  1.00  0.00     0.049 A 
ATOM     63  H   UNL A   1      40.967  30.319  33.309  1.00  0.00     0.167 HD
ATOM     64  C   UNL A   1      42.624  28.237  32.351  1.00  0.00     0.074 A 
ATOM     65  C   UNL A   1      43.195  27.238  31.471  1.00  0.00     0.031 C 
ATOM     66  C   UNL A   1      43.093  28.522  33.590  1.00  0.00     0.037 A 
BRANCH  53  67
ATOM     67  C   UNL A   1      39.976  33.006  36.475  1.00  0.00     0.057 A 
ATOM     68  C   UNL A   1      39.065  32.698  37.494  1.00  0.00     0.134 A 
ATOM     69  C   UNL A   1      40.783  34.136  36.649  1.00  0.00     0.134 A 
ATOM     70  F   UNL A   1      38.255  31.634  37.384  1.00  0.00    -0.206 F 
ATOM     71  C   UNL A   1      38.944  33.499  38.631  1.00  0.00     0.040 A 
ATOM     72  C   UNL A   1      40.690  34.930  37.794  1.00  0.00     0.040 A 
ATOM     73  F   UNL A   1      41.681  34.484  35.716  1.00  0.00    -0.206 F 
ATOM     74  C   UNL A   1      39.763  34.616  38.786  1.00  0.00     0.006 A 
ENDBRANCH  53  67
BRANCH  54  75
ATOM     75  C   UNL A   1      40.678  27.628  28.130  1.00  0.00     0.057 A 
ATOM     76  C   UNL A   1      41.426  28.111  27.051  1.00  0.00     0.134 A 
ATOM     77  C   UNL A   1      40.055  26.386  27.983  1.00  0.00     0.134 A 
ATOM     78  F   UNL A   1      42.011  29.316  27.122  1.00  0.00    -0.206 F 
ATOM     79  C   UNL A   1      41.552  27.381  25.869  1.00  0.00     0.040 A 
ATOM     80  C   UNL A   1      40.198  25.629  26.821  1.00  0.00     0.040 A 
ATOM     81  F   UNL A   1      39.294  25.901  28.973  1.00  0.00    -0.206 F 
ATOM     82  C   UNL A   1      40.947  26.130  25.756  1.00  0.00     0.006 A 
ENDBRANCH  54  75
BRANCH  66  83
ATOM     83  C   UNL A   1      44.262  27.720  34.079  1.00  0.00     0.057 A 
ATOM     84  C   UNL A   1      45.579  28.180  33.949  1.00  0.00     0.134 A 
ATOM     85  C   UNL A   1      44.065  26.486  34.709  1.00  0.00     0.134 A 
ATOM     86  F   UNL A   1      45.835  29.347  33.340  1.00  0.00    -0.206 F 
ATOM     87  C   UNL A   1      46.660  27.428  34.412  1.00  0.00     0.040 A 
ATOM     88  C   UNL A   1      45.136  25.736  35.197  1.00  0.00     0.040 A 
ATOM     89  F   UNL A   1      42.828  25.991  34.869  1.00  0.00    -0.206 F 
ATOM     90  C   UNL A   1      46.440  26.205  35.043  1.00  0.00     0.006 A 
ENDBRANCH  66  83
ENDBRANCH  40  41
ENDBRANCH  32  35
ENDBRANCH  30  31
ENDBRANCH  29  30
ENDBRANCH  28  29
ENDBRANCH   1  28
TORSDOF 16
ENDMDL
