MODEL 1
REMARK VINA RESULT:      -9.1      0.000      0.000
REMARK SMILES O=C(Cn1nc(-c2ccccc2)ccc1=O)N[C@@H](C(=O)NCCCCNC(=O)c1ccc(-c2c3nc(c(-c4c(F)cccc4F)c4ccc([nH]4)c(-c4c(F)cccc4F)c4nc(c(-c5c(F)cccc5F)c5ccc2[nH]5)C=C4)C=C3)cc1)c1ccccc1
REMARK SMILES IDX 22 1 21 2 19 3 20 4 18 6 17 7 1 8 2 9 3 11 4 12 5 13 15 14
REMARK SMILES IDX 6 15 14 16 16 17 13 18 7 19 8 20 12 21 9 22 11 23 10 24
REMARK SMILES IDX 83 25 84 26 88 27 85 28 87 29 86 30 23 31 24 32 25 33 26 34
REMARK SMILES IDX 27 35 28 37 29 38 30 39 82 40 31 41 81 42 32 43 33 44 34 45
REMARK SMILES IDX 75 46 35 47 80 48 74 49 76 50 36 51 79 52 73 53 72 54 37 56
REMARK SMILES IDX 63 57 46 58 62 59 47 60 50 61 61 62 77 63 48 64 49 65 60 67
REMARK SMILES IDX 78 68 51 69 38 70 39 71 44 72 40 73 41 74 43 75 45 76 42 77
REMARK SMILES IDX 64 78 65 79 70 80 66 81 67 82 69 83 71 84 68 85 52 86 53 87
REMARK SMILES IDX 58 88 54 89 55 90 57 91 59 92 56 93
REMARK H PARENT 21 5 17 10 26 36 76 55 50 66
REMARK Flexibility Score: inf
ROOT
ATOM      1  C   UNL A   1      45.644  22.824  24.713  1.00  0.00     0.116 C 
ENDROOT
BRANCH   1   2
ATOM      2  N   UNL A   1      46.428  23.198  25.872  1.00  0.00    -0.354 N 
ATOM      3  C   UNL A   1      47.120  24.362  26.094  1.00  0.00     0.247 C 
ATOM      4  O   UNL A   1      47.996  24.315  26.961  1.00  0.00    -0.272 OA
ATOM      5  H   UNL A   1      46.472  22.530  26.595  1.00  0.00     0.163 HD
BRANCH   3   6
ATOM      6  C   UNL A   1      46.823  25.623  25.226  1.00  0.00     0.202 C 
BRANCH   6   7
ATOM      7  N   UNL A   1      48.077  26.367  25.127  1.00  0.00    -0.339 N 
ATOM      8  O   UNL A   1      47.839  27.033  22.948  1.00  0.00    -0.273 OA
ATOM      9  C   UNL A   1      48.495  27.017  23.987  1.00  0.00     0.242 C 
ATOM     10  H   UNL A   1      48.657  26.405  25.922  1.00  0.00     0.164 HD
BRANCH   9  11
ATOM     11  C   UNL A   1      49.907  27.593  24.071  1.00  0.00     0.248 C 
BRANCH  11  12
ATOM     12  N   UNL A   1      50.164  28.057  25.425  1.00  0.00    -0.220 N 
ATOM     13  N   UNL A   1      49.271  28.974  25.939  1.00  0.00    -0.169 NA
ATOM     14  C   UNL A   1      51.316  27.638  26.076  1.00  0.00     0.267 A 
ATOM     15  C   UNL A   1      49.562  29.503  27.085  1.00  0.00     0.091 A 
ATOM     16  C   UNL A   1      51.566  28.240  27.401  1.00  0.00     0.075 A 
ATOM     17  O   UNL A   1      52.121  26.824  25.635  1.00  0.00    -0.268 OA
ATOM     18  C   UNL A   1      50.740  29.158  27.904  1.00  0.00     0.036 A 
BRANCH  15  19
ATOM     19  C   UNL A   1      48.670  30.536  27.641  1.00  0.00     0.002 A 
ATOM     20  C   UNL A   1      48.900  31.009  28.935  1.00  0.00     0.010 A 
ATOM     21  C   UNL A   1      47.573  30.983  26.900  1.00  0.00     0.010 A 
ATOM     22  C   UNL A   1      48.036  31.958  29.482  1.00  0.00     0.001 A 
ATOM     23  C   UNL A   1      46.707  31.924  27.456  1.00  0.00     0.001 A 
ATOM     24  C   UNL A   1      46.943  32.413  28.743  1.00  0.00     0.000 A 
ENDBRANCH  15  19
ENDBRANCH  11  12
ENDBRANCH   9  11
ENDBRANCH   6   7
BRANCH   6  25
ATOM     25  C   UNL A   1      45.689  26.515  25.746  1.00  0.00    -0.016 A 
ATOM     26  C   UNL A   1      44.355  26.338  25.338  1.00  0.00     0.006 A 
ATOM     27  C   UNL A   1      45.973  27.616  26.577  1.00  0.00     0.006 A 
ATOM     28  C   UNL A   1      43.340  27.187  25.791  1.00  0.00     0.000 A 
ATOM     29  C   UNL A   1      44.960  28.469  27.023  1.00  0.00     0.000 A 
ATOM     30  C   UNL A   1      43.642  28.249  26.636  1.00  0.00     0.000 A 
ENDBRANCH   6  25
ENDBRANCH   3   6
ENDBRANCH   1   2
BRANCH   1  31
ATOM     31  C   UNL A   1      46.078  21.453  24.188  1.00  0.00     0.023 C 
BRANCH  31  32
ATOM     32  C   UNL A   1      44.947  20.426  24.085  1.00  0.00     0.023 C 
BRANCH  32  33
ATOM     33  C   UNL A   1      44.420  19.915  25.417  1.00  0.00     0.116 C 
BRANCH  33  34
ATOM     34  N   UNL A   1      43.126  19.257  25.314  1.00  0.00    -0.352 N 
ATOM     35  C   UNL A   1      41.910  19.693  25.789  1.00  0.00     0.251 C 
ATOM     36  H   UNL A   1      43.119  18.391  24.845  1.00  0.00     0.163 HD
ATOM     37  O   UNL A   1      40.917  18.978  25.723  1.00  0.00    -0.269 OA
BRANCH  35  38
ATOM     38  C   UNL A   1      41.830  21.022  26.431  1.00  0.00     0.039 A 
ATOM     39  C   UNL A   1      42.048  22.182  25.687  1.00  0.00     0.014 A 
ATOM     40  C   UNL A   1      41.603  21.096  27.808  1.00  0.00     0.014 A 
ATOM     41  C   UNL A   1      42.212  23.397  26.343  1.00  0.00     0.010 A 
ATOM     42  C   UNL A   1      41.691  22.331  28.455  1.00  0.00     0.010 A 
ATOM     43  C   UNL A   1      42.052  23.482  27.735  1.00  0.00    -0.014 A 
BRANCH  43  44
ATOM     44  C   UNL A   1      42.304  24.775  28.421  1.00  0.00     0.031 A 
ATOM     45  C   UNL A   1      43.674  25.106  28.951  1.00  0.00     0.074 A 
ATOM     46  C   UNL A   1      41.311  25.679  28.511  1.00  0.00     0.049 A 
ATOM     47  N   UNL A   1      44.082  26.190  29.563  1.00  0.00    -0.248 NA
ATOM     48  C   UNL A   1      44.721  24.089  28.774  1.00  0.00     0.031 C 
ATOM     49  C   UNL A   1      39.944  25.484  28.021  1.00  0.00     0.029 A 
ATOM     50  N   UNL A   1      41.303  26.951  29.024  1.00  0.00    -0.354 N 
ATOM     51  C   UNL A   1      45.423  25.976  29.860  1.00  0.00     0.074 A 
ATOM     52  C   UNL A   1      45.753  24.650  29.387  1.00  0.00     0.031 C 
ATOM     53  C   UNL A   1      39.245  26.612  28.215  1.00  0.00     0.029 A 
ATOM     54  C   UNL A   1      40.093  27.587  28.891  1.00  0.00     0.049 A 
ATOM     55  H   UNL A   1      42.089  27.367  29.446  1.00  0.00     0.167 HD
ATOM     56  C   UNL A   1      46.303  26.815  30.460  1.00  0.00     0.037 A 
ATOM     57  C   UNL A   1      39.707  28.814  29.284  1.00  0.00     0.037 A 
ATOM     58  C   UNL A   1      45.983  28.144  30.912  1.00  0.00     0.049 A 
ATOM     59  C   UNL A   1      40.690  29.702  29.989  1.00  0.00     0.074 A 
ATOM     60  C   UNL A   1      46.811  29.077  31.510  1.00  0.00     0.029 A 
ATOM     61  N   UNL A   1      44.730  28.729  30.814  1.00  0.00    -0.354 N 
ATOM     62  N   UNL A   1      41.954  29.488  30.258  1.00  0.00    -0.248 NA
ATOM     63  C   UNL A   1      40.184  31.000  30.459  1.00  0.00     0.031 C 
ATOM     64  C   UNL A   1      46.050  30.214  31.808  1.00  0.00     0.029 A 
ATOM     65  C   UNL A   1      44.757  30.002  31.360  1.00  0.00     0.049 A 
ATOM     66  H   UNL A   1      43.936  28.302  30.415  1.00  0.00     0.167 HD
ATOM     67  C   UNL A   1      42.399  30.626  30.919  1.00  0.00     0.074 A 
ATOM     68  C   UNL A   1      41.274  31.537  30.987  1.00  0.00     0.031 C 
ATOM     69  C   UNL A   1      43.626  30.891  31.429  1.00  0.00     0.037 A 
BRANCH  56  70
ATOM     70  C   UNL A   1      47.700  26.308  30.677  1.00  0.00     0.057 A 
ATOM     71  C   UNL A   1      48.656  26.389  29.657  1.00  0.00     0.134 A 
ATOM     72  C   UNL A   1      48.092  25.718  31.885  1.00  0.00     0.134 A 
ATOM     73  F   UNL A   1      48.343  26.938  28.474  1.00  0.00    -0.206 F 
ATOM     74  C   UNL A   1      49.952  25.902  29.830  1.00  0.00     0.040 A 
ATOM     75  C   UNL A   1      49.392  25.248  32.079  1.00  0.00     0.040 A 
ATOM     76  F   UNL A   1      47.229  25.623  32.908  1.00  0.00    -0.206 F 
ATOM     77  C   UNL A   1      50.325  25.335  31.048  1.00  0.00     0.006 A 
ENDBRANCH  56  70
BRANCH  57  78
ATOM     78  C   UNL A   1      38.320  29.272  29.029  1.00  0.00     0.057 A 
ATOM     79  C   UNL A   1      37.925  29.729  27.767  1.00  0.00     0.134 A 
ATOM     80  C   UNL A   1      37.355  29.252  30.042  1.00  0.00     0.134 A 
ATOM     81  F   UNL A   1      38.805  29.775  26.756  1.00  0.00    -0.206 F 
ATOM     82  C   UNL A   1      36.621  30.161  27.522  1.00  0.00     0.040 A 
ATOM     83  C   UNL A   1      36.041  29.656  29.805  1.00  0.00     0.040 A 
ATOM     84  F   UNL A   1      37.672  28.804  31.266  1.00  0.00    -0.206 F 
ATOM     85  C   UNL A   1      35.672  30.117  28.542  1.00  0.00     0.006 A 
ENDBRANCH  57  78
BRANCH  69  86
ATOM     86  C   UNL A   1      43.807  32.223  32.091  1.00  0.00     0.057 A 
ATOM     87  C   UNL A   1      43.737  32.346  33.484  1.00  0.00     0.134 A 
ATOM     88  C   UNL A   1      44.049  33.385  31.348  1.00  0.00     0.134 A 
ATOM     89  F   UNL A   1      43.504  31.271  34.253  1.00  0.00    -0.206 F 
ATOM     90  C   UNL A   1      43.904  33.579  34.115  1.00  0.00     0.040 A 
ATOM     91  C   UNL A   1      44.241  34.619  31.970  1.00  0.00     0.040 A 
ATOM     92  F   UNL A   1      44.145  33.329  30.011  1.00  0.00    -0.206 F 
ATOM     93  C   UNL A   1      44.165  34.720  33.357  1.00  0.00     0.006 A 
ENDBRANCH  69  86
ENDBRANCH  43  44
ENDBRANCH  35  38
ENDBRANCH  33  34
ENDBRANCH  32  33
ENDBRANCH  31  32
ENDBRANCH   1  31
TORSDOF 16
ENDMDL
MODEL 2
REMARK VINA RESULT:      -9.0      5.734     12.429
REMARK SMILES O=C(Cn1nc(-c2ccccc2)ccc1=O)N[C@@H](C(=O)NCCCCNC(=O)c1ccc(-c2c3nc(c(-c4c(F)cccc4F)c4ccc([nH]4)c(-c4c(F)cccc4F)c4nc(c(-c5c(F)cccc5F)c5ccc2[nH]5)C=C4)C=C3)cc1)c1ccccc1
REMARK SMILES IDX 22 1 21 2 19 3 20 4 18 6 17 7 1 8 2 9 3 11 4 12 5 13 15 14
REMARK SMILES IDX 6 15 14 16 16 17 13 18 7 19 8 20 12 21 9 22 11 23 10 24
REMARK SMILES IDX 83 25 84 26 88 27 85 28 87 29 86 30 23 31 24 32 25 33 26 34
REMARK SMILES IDX 27 35 28 37 29 38 30 39 82 40 31 41 81 42 32 43 33 44 34 45
REMARK SMILES IDX 75 46 35 47 80 48 74 49 76 50 36 51 79 52 73 53 72 54 37 56
REMARK SMILES IDX 63 57 46 58 62 59 47 60 50 61 61 62 77 63 48 64 49 65 60 67
REMARK SMILES IDX 78 68 51 69 38 70 39 71 44 72 40 73 41 74 43 75 45 76 42 77
REMARK SMILES IDX 64 78 65 79 70 80 66 81 67 82 69 83 71 84 68 85 52 86 53 87
REMARK SMILES IDX 58 88 54 89 55 90 57 91 59 92 56 93
REMARK H PARENT 21 5 17 10 26 36 76 55 50 66
REMARK Flexibility Score: inf
ROOT
ATOM      1  C   UNL A   1      33.480  28.890  26.435  1.00  0.00     0.116 C 
ENDROOT
BRANCH   1   2
ATOM      2  N   UNL A   1      33.517  29.224  25.026  1.00  0.00    -0.354 N 
ATOM      3  C   UNL A   1      32.525  29.080  24.090  1.00  0.00     0.247 C 
ATOM      4  O   UNL A   1      32.889  29.081  22.911  1.00  0.00    -0.272 OA
ATOM      5  H   UNL A   1      34.365  29.604  24.698  1.00  0.00     0.163 HD
BRANCH   3   6
ATOM      6  C   UNL A   1      31.049  28.863  24.543  1.00  0.00     0.202 C 
BRANCH   6   7
ATOM      7  N   UNL A   1      30.762  27.442  24.367  1.00  0.00    -0.339 N 
ATOM      8  O   UNL A   1      30.686  26.891  26.589  1.00  0.00    -0.273 OA
ATOM      9  C   UNL A   1      30.605  26.556  25.409  1.00  0.00     0.242 C 
ATOM     10  H   UNL A   1      30.675  27.097  23.448  1.00  0.00     0.164 HD
BRANCH   9  11
ATOM     11  C   UNL A   1      30.466  25.096  24.982  1.00  0.00     0.248 C 
BRANCH  11  12
ATOM     12  N   UNL A   1      31.418  24.281  25.719  1.00  0.00    -0.220 N 
ATOM     13  N   UNL A   1      32.692  24.202  25.197  1.00  0.00    -0.169 NA
ATOM     14  C   UNL A   1      30.981  23.565  26.825  1.00  0.00     0.267 A 
ATOM     15  C   UNL A   1      33.510  23.371  25.759  1.00  0.00     0.091 A 
ATOM     16  C   UNL A   1      31.975  22.672  27.452  1.00  0.00     0.075 A 
ATOM     17  O   UNL A   1      29.852  23.622  27.303  1.00  0.00    -0.268 OA
ATOM     18  C   UNL A   1      33.202  22.548  26.945  1.00  0.00     0.036 A 
BRANCH  15  19
ATOM     19  C   UNL A   1      34.862  23.207  25.194  1.00  0.00     0.002 A 
ATOM     20  C   UNL A   1      35.020  23.175  23.806  1.00  0.00     0.010 A 
ATOM     21  C   UNL A   1      35.956  23.022  26.043  1.00  0.00     0.010 A 
ATOM     22  C   UNL A   1      36.290  22.982  23.266  1.00  0.00     0.001 A 
ATOM     23  C   UNL A   1      37.222  22.819  25.496  1.00  0.00     0.001 A 
ATOM     24  C   UNL A   1      37.387  22.803  24.110  1.00  0.00     0.000 A 
ENDBRANCH  15  19
ENDBRANCH  11  12
ENDBRANCH   9  11
ENDBRANCH   6   7
BRANCH   6  25
ATOM     25  C   UNL A   1      30.015  29.732  23.816  1.00  0.00    -0.016 A 
ATOM     26  C   UNL A   1      29.747  31.056  24.208  1.00  0.00     0.006 A 
ATOM     27  C   UNL A   1      29.221  29.186  22.790  1.00  0.00     0.006 A 
ATOM     28  C   UNL A   1      28.771  31.820  23.560  1.00  0.00     0.000 A 
ATOM     29  C   UNL A   1      28.240  29.946  22.148  1.00  0.00     0.000 A 
ATOM     30  C   UNL A   1      28.021  31.267  22.528  1.00  0.00     0.000 A 
ENDBRANCH   6  25
ENDBRANCH   3   6
ENDBRANCH   1   2
BRANCH   1  31
ATOM     31  C   UNL A   1      33.994  30.058  27.281  1.00  0.00     0.023 C 
BRANCH  31  32
ATOM     32  C   UNL A   1      32.980  31.187  27.486  1.00  0.00     0.023 C 
BRANCH  32  33
ATOM     33  C   UNL A   1      33.427  32.550  26.981  1.00  0.00     0.116 C 
BRANCH  33  34
ATOM     34  N   UNL A   1      32.811  33.661  27.691  1.00  0.00    -0.352 N 
ATOM     35  C   UNL A   1      33.264  34.304  28.820  1.00  0.00     0.251 C 
ATOM     36  H   UNL A   1      31.963  33.994  27.317  1.00  0.00     0.163 HD
ATOM     37  O   UNL A   1      32.581  35.159  29.373  1.00  0.00    -0.269 OA
BRANCH  35  38
ATOM     38  C   UNL A   1      34.570  33.912  29.389  1.00  0.00     0.039 A 
ATOM     39  C   UNL A   1      35.758  34.351  28.804  1.00  0.00     0.014 A 
ATOM     40  C   UNL A   1      34.599  33.036  30.478  1.00  0.00     0.014 A 
ATOM     41  C   UNL A   1      36.966  33.784  29.194  1.00  0.00     0.010 A 
ATOM     42  C   UNL A   1      35.822  32.526  30.920  1.00  0.00     0.010 A 
ATOM     43  C   UNL A   1      37.009  32.852  30.244  1.00  0.00    -0.014 A 
BRANCH  43  44
ATOM     44  C   UNL A   1      38.300  32.206  30.592  1.00  0.00     0.031 A 
ATOM     45  C   UNL A   1      39.167  32.770  31.687  1.00  0.00     0.074 A 
ATOM     46  C   UNL A   1      38.664  31.074  29.962  1.00  0.00     0.049 A 
ATOM     47  N   UNL A   1      40.317  32.332  32.138  1.00  0.00    -0.248 NA
ATOM     48  C   UNL A   1      38.682  33.983  32.363  1.00  0.00     0.031 C 
ATOM     49  C   UNL A   1      37.902  30.420  28.896  1.00  0.00     0.029 A 
ATOM     50  N   UNL A   1      39.751  30.259  30.143  1.00  0.00    -0.354 N 
ATOM     51  C   UNL A   1      40.700  33.225  33.132  1.00  0.00     0.074 A 
ATOM     52  C   UNL A   1      39.676  34.244  33.201  1.00  0.00     0.031 C 
ATOM     53  C   UNL A   1      38.522  29.281  28.551  1.00  0.00     0.029 A 
ATOM     54  C   UNL A   1      39.749  29.154  29.328  1.00  0.00     0.049 A 
ATOM     55  H   UNL A   1      40.464  30.449  30.795  1.00  0.00     0.167 HD
ATOM     56  C   UNL A   1      41.798  33.191  33.924  1.00  0.00     0.037 A 
ATOM     57  C   UNL A   1      40.644  28.157  29.211  1.00  0.00     0.037 A 
ATOM     58  C   UNL A   1      42.809  32.165  33.873  1.00  0.00     0.049 A 
ATOM     59  C   UNL A   1      41.876  28.171  30.069  1.00  0.00     0.074 A 
ATOM     60  C   UNL A   1      43.946  32.032  34.650  1.00  0.00     0.029 A 
ATOM     61  N   UNL A   1      42.801  31.095  32.992  1.00  0.00    -0.354 N 
ATOM     62  N   UNL A   1      42.221  29.018  31.007  1.00  0.00    -0.248 NA
ATOM     63  C   UNL A   1      42.850  27.095  29.838  1.00  0.00     0.031 C 
ATOM     64  C   UNL A   1      44.645  30.900  34.214  1.00  0.00     0.029 A 
ATOM     65  C   UNL A   1      43.924  30.309  33.191  1.00  0.00     0.049 A 
ATOM     66  H   UNL A   1      42.100  30.920  32.322  1.00  0.00     0.167 HD
ATOM     67  C   UNL A   1      43.446  28.573  31.486  1.00  0.00     0.074 A 
ATOM     68  C   UNL A   1      43.771  27.367  30.752  1.00  0.00     0.031 C 
ATOM     69  C   UNL A   1      44.235  29.118  32.444  1.00  0.00     0.037 A 
BRANCH  56  70
ATOM     70  C   UNL A   1      41.973  34.310  34.910  1.00  0.00     0.057 A 
ATOM     71  C   UNL A   1      42.672  35.471  34.555  1.00  0.00     0.134 A 
ATOM     72  C   UNL A   1      41.473  34.230  36.215  1.00  0.00     0.134 A 
ATOM     73  F   UNL A   1      43.182  35.609  33.322  1.00  0.00    -0.206 F 
ATOM     74  C   UNL A   1      42.867  36.512  35.463  1.00  0.00     0.040 A 
ATOM     75  C   UNL A   1      41.642  35.275  37.126  1.00  0.00     0.040 A 
ATOM     76  F   UNL A   1      40.782  33.151  36.614  1.00  0.00    -0.206 F 
ATOM     77  C   UNL A   1      42.345  36.418  36.753  1.00  0.00     0.006 A 
ENDBRANCH  56  70
BRANCH  57  78
ATOM     78  C   UNL A   1      40.415  27.066  28.234  1.00  0.00     0.057 A 
ATOM     79  C   UNL A   1      40.989  27.099  26.958  1.00  0.00     0.134 A 
ATOM     80  C   UNL A   1      39.623  25.959  28.559  1.00  0.00     0.134 A 
ATOM     81  F   UNL A   1      41.756  28.135  26.586  1.00  0.00    -0.206 F 
ATOM     82  C   UNL A   1      40.777  26.075  26.035  1.00  0.00     0.040 A 
ATOM     83  C   UNL A   1      39.423  24.915  27.656  1.00  0.00     0.040 A 
ATOM     84  F   UNL A   1      39.064  25.864  29.774  1.00  0.00    -0.206 F 
ATOM     85  C   UNL A   1      39.998  24.974  26.386  1.00  0.00     0.006 A 
ENDBRANCH  57  78
BRANCH  69  86
ATOM     86  C   UNL A   1      45.514  28.400  32.752  1.00  0.00     0.057 A 
ATOM     87  C   UNL A   1      46.703  28.740  32.094  1.00  0.00     0.134 A 
ATOM     88  C   UNL A   1      45.568  27.368  33.697  1.00  0.00     0.134 A 
ATOM     89  F   UNL A   1      46.718  29.716  31.173  1.00  0.00    -0.206 F 
ATOM     90  C   UNL A   1      47.901  28.081  32.370  1.00  0.00     0.040 A 
ATOM     91  C   UNL A   1      46.766  26.719  33.999  1.00  0.00     0.040 A 
ATOM     92  F   UNL A   1      44.467  27.008  34.373  1.00  0.00    -0.206 F 
ATOM     93  C   UNL A   1      47.936  27.072  33.331  1.00  0.00     0.006 A 
ENDBRANCH  69  86
ENDBRANCH  43  44
ENDBRANCH  35  38
ENDBRANCH  33  34
ENDBRANCH  32  33
ENDBRANCH  31  32
ENDBRANCH   1  31
TORSDOF 16
ENDMDL
MODEL 3
REMARK VINA RESULT:      -8.7      5.364     12.197
REMARK SMILES O=C(Cn1nc(-c2ccccc2)ccc1=O)N[C@@H](C(=O)NCCCCNC(=O)c1ccc(-c2c3nc(c(-c4c(F)cccc4F)c4ccc([nH]4)c(-c4c(F)cccc4F)c4nc(c(-c5c(F)cccc5F)c5ccc2[nH]5)C=C4)C=C3)cc1)c1ccccc1
REMARK SMILES IDX 22 1 21 2 19 3 20 4 18 6 17 7 1 8 2 9 3 11 4 12 5 13 15 14
REMARK SMILES IDX 6 15 14 16 16 17 13 18 7 19 8 20 12 21 9 22 11 23 10 24
REMARK SMILES IDX 83 25 84 26 88 27 85 28 87 29 86 30 23 31 24 32 25 33 26 34
REMARK SMILES IDX 27 35 28 37 29 38 30 39 82 40 31 41 81 42 32 43 33 44 34 45
REMARK SMILES IDX 75 46 35 47 80 48 74 49 76 50 36 51 79 52 73 53 72 54 37 56
REMARK SMILES IDX 63 57 46 58 62 59 47 60 50 61 61 62 77 63 48 64 49 65 60 67
REMARK SMILES IDX 78 68 51 69 38 70 39 71 44 72 40 73 41 74 43 75 45 76 42 77
REMARK SMILES IDX 64 78 65 79 70 80 66 81 67 82 69 83 71 84 68 85 52 86 53 87
REMARK SMILES IDX 58 88 54 89 55 90 57 91 59 92 56 93
REMARK H PARENT 21 5 17 10 26 36 76 55 50 66
REMARK Flexibility Score: inf
ROOT
ATOM      1  C   UNL A   1      33.917  28.500  25.584  1.00  0.00     0.116 C 
ENDROOT
BRANCH   1   2
ATOM      2  N   UNL A   1      33.645  28.953  24.235  1.00  0.00    -0.354 N 
ATOM      3  C   UNL A   1      32.484  28.834  23.515  1.00  0.00     0.247 C 
ATOM      4  O   UNL A   1      32.590  28.954  22.291  1.00  0.00    -0.272 OA
ATOM      5  H   UNL A   1      34.389  29.405  23.776  1.00  0.00     0.163 HD
BRANCH   3   6
ATOM      6  C   UNL A   1      31.145  28.498  24.241  1.00  0.00     0.202 C 
BRANCH   6   7
ATOM      7  N   UNL A   1      30.959  27.053  24.130  1.00  0.00    -0.339 N 
ATOM      8  O   UNL A   1      30.994  26.591  26.373  1.00  0.00    -0.273 OA
ATOM      9  C   UNL A   1      30.902  26.202  25.211  1.00  0.00     0.242 C 
ATOM     10  H   UNL A   1      30.870  26.666  23.229  1.00  0.00     0.164 HD
BRANCH   9  11
ATOM     11  C   UNL A   1      30.860  24.720  24.845  1.00  0.00     0.248 C 
BRANCH  11  12
ATOM     12  N   UNL A   1      31.710  23.970  25.756  1.00  0.00    -0.220 N 
ATOM     13  N   UNL A   1      33.025  23.805  25.372  1.00  0.00    -0.169 NA
ATOM     14  C   UNL A   1      31.147  23.390  26.884  1.00  0.00     0.267 A 
ATOM     15  C   UNL A   1      33.758  23.023  26.097  1.00  0.00     0.091 A 
ATOM     16  C   UNL A   1      32.048  22.550  27.698  1.00  0.00     0.075 A 
ATOM     17  O   UNL A   1      29.981  23.525  27.241  1.00  0.00    -0.268 OA
ATOM     18  C   UNL A   1      33.313  22.343  27.329  1.00  0.00     0.036 A 
BRANCH  15  19
ATOM     19  C   UNL A   1      35.151  22.767  25.687  1.00  0.00     0.002 A 
ATOM     20  C   UNL A   1      35.533  21.466  25.350  1.00  0.00     0.010 A 
ATOM     21  C   UNL A   1      36.084  23.807  25.699  1.00  0.00     0.010 A 
ATOM     22  C   UNL A   1      36.858  21.210  24.998  1.00  0.00     0.001 A 
ATOM     23  C   UNL A   1      37.410  23.542  25.357  1.00  0.00     0.001 A 
ATOM     24  C   UNL A   1      37.792  22.247  25.003  1.00  0.00     0.000 A 
ENDBRANCH  15  19
ENDBRANCH  11  12
ENDBRANCH   9  11
ENDBRANCH   6   7
BRANCH   6  25
ATOM     25  C   UNL A   1      29.918  29.256  23.719  1.00  0.00    -0.016 A 
ATOM     26  C   UNL A   1      28.953  28.641  22.902  1.00  0.00     0.006 A 
ATOM     27  C   UNL A   1      29.778  30.636  23.962  1.00  0.00     0.006 A 
ATOM     28  C   UNL A   1      27.862  29.359  22.402  1.00  0.00     0.000 A 
ATOM     29  C   UNL A   1      28.693  31.356  23.455  1.00  0.00     0.000 A 
ATOM     30  C   UNL A   1      27.730  30.715  22.681  1.00  0.00     0.000 A 
ENDBRANCH   6  25
ENDBRANCH   3   6
ENDBRANCH   1   2
BRANCH   1  31
ATOM     31  C   UNL A   1      33.655  29.621  26.593  1.00  0.00     0.023 C 
BRANCH  31  32
ATOM     32  C   UNL A   1      34.553  29.581  27.833  1.00  0.00     0.023 C 
BRANCH  32  33
ATOM     33  C   UNL A   1      35.309  30.869  28.121  1.00  0.00     0.116 C 
BRANCH  33  34
ATOM     34  N   UNL A   1      35.360  31.207  29.535  1.00  0.00    -0.352 N 
ATOM     35  C   UNL A   1      36.330  30.878  30.454  1.00  0.00     0.251 C 
ATOM     36  H   UNL A   1      34.605  31.738  29.878  1.00  0.00     0.163 HD
ATOM     37  O   UNL A   1      36.185  31.141  31.642  1.00  0.00    -0.269 OA
BRANCH  35  38
ATOM     38  C   UNL A   1      37.532  30.152  29.994  1.00  0.00     0.039 A 
ATOM     39  C   UNL A   1      38.283  29.388  30.888  1.00  0.00     0.014 A 
ATOM     40  C   UNL A   1      37.946  30.299  28.667  1.00  0.00     0.014 A 
ATOM     41  C   UNL A   1      39.533  28.915  30.506  1.00  0.00     0.010 A 
ATOM     42  C   UNL A   1      39.169  29.756  28.263  1.00  0.00     0.010 A 
ATOM     43  C   UNL A   1      39.997  29.109  29.194  1.00  0.00    -0.014 A 
BRANCH  43  44
ATOM     44  C   UNL A   1      41.365  28.660  28.831  1.00  0.00     0.031 A 
ATOM     45  C   UNL A   1      41.614  27.239  28.400  1.00  0.00     0.074 A 
ATOM     46  C   UNL A   1      42.375  29.550  28.831  1.00  0.00     0.049 A 
ATOM     47  N   UNL A   1      42.738  26.672  28.033  1.00  0.00    -0.248 NA
ATOM     48  C   UNL A   1      40.454  26.335  28.379  1.00  0.00     0.031 C 
ATOM     49  C   UNL A   1      42.257  30.959  29.213  1.00  0.00     0.029 A 
ATOM     50  N   UNL A   1      43.692  29.409  28.476  1.00  0.00    -0.354 N 
ATOM     51  C   UNL A   1      42.423  25.347  27.759  1.00  0.00     0.074 A 
ATOM     52  C   UNL A   1      41.011  25.185  28.027  1.00  0.00     0.031 C 
ATOM     53  C   UNL A   1      43.441  31.563  29.027  1.00  0.00     0.029 A 
ATOM     54  C   UNL A   1      44.411  30.574  28.569  1.00  0.00     0.049 A 
ATOM     55  H   UNL A   1      44.082  28.554  28.184  1.00  0.00     0.167 HD
ATOM     56  C   UNL A   1      43.233  24.358  27.310  1.00  0.00     0.037 A 
ATOM     57  C   UNL A   1      45.712  30.816  28.325  1.00  0.00     0.037 A 
ATOM     58  C   UNL A   1      44.635  24.522  27.021  1.00  0.00     0.049 A 
ATOM     59  C   UNL A   1      46.597  29.690  27.876  1.00  0.00     0.074 A 
ATOM     60  C   UNL A   1      45.534  23.586  26.541  1.00  0.00     0.029 A 
ATOM     61  N   UNL A   1      45.340  25.704  27.186  1.00  0.00    -0.354 N 
ATOM     62  N   UNL A   1      46.284  28.445  27.617  1.00  0.00    -0.248 NA
ATOM     63  C   UNL A   1      48.022  30.004  27.701  1.00  0.00     0.031 C 
ATOM     64  C   UNL A   1      46.793  24.192  26.450  1.00  0.00     0.029 A 
ATOM     65  C   UNL A   1      46.668  25.516  26.838  1.00  0.00     0.049 A 
ATOM     66  H   UNL A   1      44.954  26.553  27.504  1.00  0.00     0.167 HD
ATOM     67  C   UNL A   1      47.468  27.828  27.238  1.00  0.00     0.074 A 
ATOM     68  C   UNL A   1      48.501  28.844  27.277  1.00  0.00     0.031 C 
ATOM     69  C   UNL A   1      47.684  26.535  26.893  1.00  0.00     0.037 A 
BRANCH  56  70
ATOM     70  C   UNL A   1      42.624  22.999  27.120  1.00  0.00     0.057 A 
ATOM     71  C   UNL A   1      42.353  22.511  25.835  1.00  0.00     0.134 A 
ATOM     72  C   UNL A   1      42.281  22.185  28.206  1.00  0.00     0.134 A 
ATOM     73  F   UNL A   1      42.652  23.244  24.752  1.00  0.00    -0.206 F 
ATOM     74  C   UNL A   1      41.765  21.261  25.637  1.00  0.00     0.040 A 
ATOM     75  C   UNL A   1      41.713  20.923  28.021  1.00  0.00     0.040 A 
ATOM     76  F   UNL A   1      42.527  22.587  29.463  1.00  0.00    -0.206 F 
ATOM     77  C   UNL A   1      41.448  20.460  26.734  1.00  0.00     0.006 A 
ENDBRANCH  56  70
BRANCH  57  78
ATOM     78  C   UNL A   1      46.260  32.181  28.513  1.00  0.00     0.057 A 
ATOM     79  C   UNL A   1      46.246  33.120  27.475  1.00  0.00     0.134 A 
ATOM     80  C   UNL A   1      46.801  32.580  29.739  1.00  0.00     0.134 A 
ATOM     81  F   UNL A   1      45.742  32.797  26.274  1.00  0.00    -0.206 F 
ATOM     82  C   UNL A   1      46.760  34.406  27.646  1.00  0.00     0.040 A 
ATOM     83  C   UNL A   1      47.296  33.870  29.934  1.00  0.00     0.040 A 
ATOM     84  F   UNL A   1      46.823  31.729  30.776  1.00  0.00    -0.206 F 
ATOM     85  C   UNL A   1      47.280  34.786  28.882  1.00  0.00     0.006 A 
ENDBRANCH  57  78
BRANCH  69  86
ATOM     86  C   UNL A   1      49.087  26.161  26.524  1.00  0.00     0.057 A 
ATOM     87  C   UNL A   1      49.589  26.435  25.245  1.00  0.00     0.134 A 
ATOM     88  C   UNL A   1      49.942  25.527  27.434  1.00  0.00     0.134 A 
ATOM     89  F   UNL A   1      48.819  27.036  24.325  1.00  0.00    -0.206 F 
ATOM     90  C   UNL A   1      50.893  26.093  24.887  1.00  0.00     0.040 A 
ATOM     91  C   UNL A   1      51.256  25.203  27.094  1.00  0.00     0.040 A 
ATOM     92  F   UNL A   1      49.525  25.255  28.680  1.00  0.00    -0.206 F 
ATOM     93  C   UNL A   1      51.734  25.482  25.816  1.00  0.00     0.006 A 
ENDBRANCH  69  86
ENDBRANCH  43  44
ENDBRANCH  35  38
ENDBRANCH  33  34
ENDBRANCH  32  33
ENDBRANCH  31  32
ENDBRANCH   1  31
TORSDOF 16
ENDMDL
