MODEL 1
REMARK VINA RESULT:     -11.5      0.000      0.000
REMARK SMILES N#CCSCC(=O)N1Cc2ccccc2C[C@@H]1C(=O)NCCCCNC(=O)c1ccc(-c2c3nc(c(-c4c(F)cccc4F)c4ccc([nH]4)c(-c4c(F)cccc4F)c4nc(c(-c5c(F)cccc5F)c5ccc2[nH]5)C=C4)C=C3)cc1
REMARK SMILES IDX 21 1 20 2 18 3 19 4 17 6 8 7 9 8 10 9 16 10 11 11 15 12
REMARK SMILES IDX 12 13 14 14 13 15 6 16 7 17 5 18 4 19 3 20 2 21 1 22 22 23
REMARK SMILES IDX 23 24 24 25 25 26 26 27 27 29 28 30 29 31 81 32 30 33 80 34
REMARK SMILES IDX 31 35 32 36 33 37 74 38 34 39 79 40 73 41 75 42 35 43 78 44
REMARK SMILES IDX 72 45 71 46 36 48 62 49 45 50 61 51 46 52 49 53 60 54 76 55
REMARK SMILES IDX 47 56 48 57 59 59 77 60 50 61 37 62 38 63 43 64 39 65 40 66
REMARK SMILES IDX 42 67 44 68 41 69 63 70 64 71 69 72 65 73 66 74 68 75 70 76
REMARK SMILES IDX 67 77 51 78 52 79 57 80 53 81 54 82 56 83 58 84 55 85
REMARK H PARENT 20 5 25 28 75 47 49 58
REMARK Flexibility Score: inf
ROOT
ATOM      1  C   UNL A   1      32.476  29.773  27.167  1.00  0.00     0.116 C 
ENDROOT
BRANCH   1   2
ATOM      2  N   UNL A   1      31.823  28.481  27.281  1.00  0.00    -0.354 N 
ATOM      3  C   UNL A   1      31.589  27.473  26.398  1.00  0.00     0.243 C 
ATOM      4  O   UNL A   1      30.828  26.585  26.808  1.00  0.00    -0.273 OA
ATOM      5  H   UNL A   1      31.478  28.296  28.185  1.00  0.00     0.163 HD
BRANCH   3   6
ATOM      6  C   UNL A   1      32.115  27.405  24.930  1.00  0.00     0.179 C 
ATOM      7  N   UNL A   1      31.199  26.797  23.951  1.00  0.00    -0.325 N 
ATOM      8  C   UNL A   1      31.573  25.504  23.343  1.00  0.00     0.156 C 
ATOM      9  C   UNL A   1      32.536  24.672  24.154  1.00  0.00    -0.025 A 
ATOM     10  C   UNL A   1      33.530  26.806  24.949  1.00  0.00     0.071 C 
ATOM     11  C   UNL A   1      32.512  23.272  24.103  1.00  0.00     0.006 A 
ATOM     12  C   UNL A   1      33.490  25.308  24.961  1.00  0.00    -0.040 A 
ATOM     13  C   UNL A   1      33.384  22.522  24.898  1.00  0.00     0.000 A 
ATOM     14  C   UNL A   1      34.375  24.555  25.741  1.00  0.00     0.004 A 
ATOM     15  C   UNL A   1      34.308  23.163  25.721  1.00  0.00     0.000 A 
BRANCH   7  16
ATOM     16  C   UNL A   1      29.994  27.367  23.556  1.00  0.00     0.233 C 
ATOM     17  O   UNL A   1      28.929  26.801  23.839  1.00  0.00    -0.274 OA
BRANCH  16  18
ATOM     18  C   UNL A   1      29.930  28.548  22.587  1.00  0.00     0.170 C 
BRANCH  18  19
ATOM     19  S   UNL A   1      28.961  30.020  22.993  1.00  0.00    -0.137 SA
BRANCH  19  20
ATOM     20  C   UNL A   1      28.600  30.703  21.351  1.00  0.00     0.189 C 
BRANCH  20  21
ATOM     21  C   UNL A   1      28.139  32.151  21.379  1.00  0.00     0.073 C 
ATOM     22  N   UNL A   1      27.756  33.352  21.402  1.00  0.00    -0.197 NA
ENDBRANCH  20  21
ENDBRANCH  19  20
ENDBRANCH  18  19
ENDBRANCH  16  18
ENDBRANCH   7  16
ENDBRANCH   3   6
ENDBRANCH   1   2
BRANCH   1  23
ATOM     23  C   UNL A   1      31.745  30.672  26.175  1.00  0.00     0.023 C 
BRANCH  23  24
ATOM     24  C   UNL A   1      31.415  32.068  26.688  1.00  0.00     0.023 C 
BRANCH  24  25
ATOM     25  C   UNL A   1      32.606  32.835  27.243  1.00  0.00     0.116 C 
BRANCH  25  26
ATOM     26  N   UNL A   1      32.299  34.196  27.664  1.00  0.00    -0.352 N 
ATOM     27  C   UNL A   1      32.966  34.987  28.568  1.00  0.00     0.251 C 
ATOM     28  H   UNL A   1      31.507  34.604  27.242  1.00  0.00     0.163 HD
ATOM     29  O   UNL A   1      32.532  36.095  28.868  1.00  0.00    -0.269 OA
BRANCH  27  30
ATOM     30  C   UNL A   1      34.187  34.467  29.218  1.00  0.00     0.039 A 
ATOM     31  C   UNL A   1      34.066  33.764  30.419  1.00  0.00     0.014 A 
ATOM     32  C   UNL A   1      35.437  34.622  28.615  1.00  0.00     0.014 A 
ATOM     33  C   UNL A   1      35.190  33.151  30.974  1.00  0.00     0.010 A 
ATOM     34  C   UNL A   1      36.533  33.929  29.114  1.00  0.00     0.010 A 
ATOM     35  C   UNL A   1      36.423  33.196  30.303  1.00  0.00    -0.014 A 
BRANCH  35  36
ATOM     36  C   UNL A   1      37.619  32.506  30.845  1.00  0.00     0.031 A 
ATOM     37  C   UNL A   1      38.252  32.995  32.119  1.00  0.00     0.074 A 
ATOM     38  C   UNL A   1      38.174  31.489  30.158  1.00  0.00     0.049 A 
ATOM     39  N   UNL A   1      39.331  32.567  32.724  1.00  0.00    -0.248 NA
ATOM     40  C   UNL A   1      37.612  34.145  32.779  1.00  0.00     0.031 C 
ATOM     41  C   UNL A   1      37.701  30.974  28.872  1.00  0.00     0.029 A 
ATOM     42  N   UNL A   1      39.263  30.708  30.447  1.00  0.00    -0.354 N 
ATOM     43  C   UNL A   1      39.509  33.411  33.813  1.00  0.00     0.074 A 
ATOM     44  C   UNL A   1      38.468  34.411  33.752  1.00  0.00     0.031 C 
ATOM     45  C   UNL A   1      38.472  29.938  28.502  1.00  0.00     0.029 A 
ATOM     46  C   UNL A   1      39.507  29.734  29.510  1.00  0.00     0.049 A 
ATOM     47  H   UNL A   1      39.819  30.834  31.250  1.00  0.00     0.167 HD
ATOM     48  C   UNL A   1      40.437  33.340  34.797  1.00  0.00     0.037 A 
ATOM     49  C   UNL A   1      40.453  28.777  29.477  1.00  0.00     0.037 A 
ATOM     50  C   UNL A   1      41.438  32.311  34.885  1.00  0.00     0.049 A 
ATOM     51  C   UNL A   1      41.432  28.677  30.614  1.00  0.00     0.074 A 
ATOM     52  C   UNL A   1      42.378  32.103  35.878  1.00  0.00     0.029 A 
ATOM     53  N   UNL A   1      41.617  31.307  33.945  1.00  0.00    -0.354 N 
ATOM     54  N   UNL A   1      41.545  29.437  31.675  1.00  0.00    -0.248 NA
ATOM     55  C   UNL A   1      42.406  27.580  30.552  1.00  0.00     0.031 C 
ATOM     56  C   UNL A   1      43.143  30.985  35.526  1.00  0.00     0.029 A 
ATOM     57  C   UNL A   1      42.656  30.478  34.332  1.00  0.00     0.049 A 
ATOM     58  H   UNL A   1      41.084  31.200  33.124  1.00  0.00     0.167 HD
ATOM     59  C   UNL A   1      42.584  28.896  32.421  1.00  0.00     0.074 A 
ATOM     60  C   UNL A   1      43.057  27.735  31.697  1.00  0.00     0.031 C 
ATOM     61  C   UNL A   1      43.103  29.323  33.598  1.00  0.00     0.037 A 
BRANCH  48  62
ATOM     62  C   UNL A   1      40.390  34.394  35.861  1.00  0.00     0.057 A 
ATOM     63  C   UNL A   1      39.601  34.248  37.010  1.00  0.00     0.134 A 
ATOM     64  C   UNL A   1      41.143  35.569  35.741  1.00  0.00     0.134 A 
ATOM     65  F   UNL A   1      38.842  33.154  37.177  1.00  0.00    -0.206 F 
ATOM     66  C   UNL A   1      39.536  35.244  37.985  1.00  0.00     0.040 A 
ATOM     67  C   UNL A   1      41.109  36.560  36.722  1.00  0.00     0.040 A 
ATOM     68  F   UNL A   1      41.922  35.772  34.668  1.00  0.00    -0.206 F 
ATOM     69  C   UNL A   1      40.297  36.403  37.845  1.00  0.00     0.006 A 
ENDBRANCH  48  62
BRANCH  49  70
ATOM     70  C   UNL A   1      40.486  27.801  28.361  1.00  0.00     0.057 A 
ATOM     71  C   UNL A   1      39.796  26.585  28.450  1.00  0.00     0.134 A 
ATOM     72  C   UNL A   1      41.203  28.050  27.186  1.00  0.00     0.134 A 
ATOM     73  F   UNL A   1      39.104  26.284  29.559  1.00  0.00    -0.206 F 
ATOM     74  C   UNL A   1      39.836  25.644  27.422  1.00  0.00     0.040 A 
ATOM     75  C   UNL A   1      41.236  27.127  26.140  1.00  0.00     0.040 A 
ATOM     76  F   UNL A   1      41.877  29.200  27.036  1.00  0.00    -0.206 F 
ATOM     77  C   UNL A   1      40.556  25.915  26.259  1.00  0.00     0.006 A 
ENDBRANCH  49  70
BRANCH  61  78
ATOM     78  C   UNL A   1      44.217  28.510  34.185  1.00  0.00     0.057 A 
ATOM     79  C   UNL A   1      45.560  28.808  33.927  1.00  0.00     0.134 A 
ATOM     80  C   UNL A   1      43.940  27.435  35.038  1.00  0.00     0.134 A 
ATOM     81  F   UNL A   1      45.888  29.818  33.107  1.00  0.00    -0.206 F 
ATOM     82  C   UNL A   1      46.592  28.049  34.481  1.00  0.00     0.040 A 
ATOM     83  C   UNL A   1      44.965  26.684  35.615  1.00  0.00     0.040 A 
ATOM     84  F   UNL A   1      42.674  27.104  35.329  1.00  0.00    -0.206 F 
ATOM     85  C   UNL A   1      46.295  26.986  35.332  1.00  0.00     0.006 A 
ENDBRANCH  61  78
ENDBRANCH  35  36
ENDBRANCH  27  30
ENDBRANCH  25  26
ENDBRANCH  24  25
ENDBRANCH  23  24
ENDBRANCH   1  23
TORSDOF 16
ENDMDL
MODEL 2
REMARK VINA RESULT:     -11.3      0.834      6.221
REMARK SMILES N#CCSCC(=O)N1Cc2ccccc2C[C@@H]1C(=O)NCCCCNC(=O)c1ccc(-c2c3nc(c(-c4c(F)cccc4F)c4ccc([nH]4)c(-c4c(F)cccc4F)c4nc(c(-c5c(F)cccc5F)c5ccc2[nH]5)C=C4)C=C3)cc1
REMARK SMILES IDX 21 1 20 2 18 3 19 4 17 6 8 7 9 8 10 9 16 10 11 11 15 12
REMARK SMILES IDX 12 13 14 14 13 15 6 16 7 17 5 18 4 19 3 20 2 21 1 22 22 23
REMARK SMILES IDX 23 24 24 25 25 26 26 27 27 29 28 30 29 31 81 32 30 33 80 34
REMARK SMILES IDX 31 35 32 36 33 37 74 38 34 39 79 40 73 41 75 42 35 43 78 44
REMARK SMILES IDX 72 45 71 46 36 48 62 49 45 50 61 51 46 52 49 53 60 54 76 55
REMARK SMILES IDX 47 56 48 57 59 59 77 60 50 61 37 62 38 63 43 64 39 65 40 66
REMARK SMILES IDX 42 67 44 68 41 69 63 70 64 71 69 72 65 73 66 74 68 75 70 76
REMARK SMILES IDX 67 77 51 78 52 79 57 80 53 81 54 82 56 83 58 84 55 85
REMARK H PARENT 20 5 25 28 75 47 49 58
REMARK Flexibility Score: inf
ROOT
ATOM      1  C   UNL A   1      32.631  29.669  27.045  1.00  0.00     0.116 C 
ENDROOT
BRANCH   1   2
ATOM      2  N   UNL A   1      31.835  28.473  27.261  1.00  0.00    -0.354 N 
ATOM      3  C   UNL A   1      31.508  27.416  26.470  1.00  0.00     0.243 C 
ATOM      4  O   UNL A   1      30.645  26.661  26.939  1.00  0.00    -0.273 OA
ATOM      5  H   UNL A   1      31.454  28.416  28.167  1.00  0.00     0.163 HD
BRANCH   3   6
ATOM      6  C   UNL A   1      32.053  27.148  25.033  1.00  0.00     0.179 C 
ATOM      7  N   UNL A   1      31.072  26.634  24.063  1.00  0.00    -0.325 N 
ATOM      8  C   UNL A   1      31.231  25.254  23.562  1.00  0.00     0.156 C 
ATOM      9  C   UNL A   1      32.013  24.333  24.466  1.00  0.00    -0.025 A 
ATOM     10  C   UNL A   1      33.342  26.319  25.149  1.00  0.00     0.071 C 
ATOM     11  C   UNL A   1      31.747  22.958  24.512  1.00  0.00     0.006 A 
ATOM     12  C   UNL A   1      33.041  24.855  25.264  1.00  0.00    -0.040 A 
ATOM     13  C   UNL A   1      32.454  22.131  25.391  1.00  0.00     0.000 A 
ATOM     14  C   UNL A   1      33.761  24.022  26.128  1.00  0.00     0.004 A 
ATOM     15  C   UNL A   1      33.453  22.665  26.203  1.00  0.00     0.000 A 
BRANCH   7  16
ATOM     16  C   UNL A   1      29.995  27.371  23.582  1.00  0.00     0.233 C 
ATOM     17  O   UNL A   1      28.842  26.958  23.766  1.00  0.00    -0.274 OA
BRANCH  16  18
ATOM     18  C   UNL A   1      30.178  28.558  22.636  1.00  0.00     0.170 C 
BRANCH  18  19
ATOM     19  S   UNL A   1      28.818  29.712  22.332  1.00  0.00    -0.137 SA
BRANCH  19  20
ATOM     20  C   UNL A   1      29.113  30.987  23.589  1.00  0.00     0.189 C 
BRANCH  20  21
ATOM     21  C   UNL A   1      28.741  32.389  23.137  1.00  0.00     0.073 C 
ATOM     22  N   UNL A   1      28.432  33.553  22.761  1.00  0.00    -0.197 NA
ENDBRANCH  20  21
ENDBRANCH  19  20
ENDBRANCH  18  19
ENDBRANCH  16  18
ENDBRANCH   7  16
ENDBRANCH   3   6
ENDBRANCH   1   2
BRANCH   1  23
ATOM     23  C   UNL A   1      31.881  30.679  26.182  1.00  0.00     0.023 C 
BRANCH  23  24
ATOM     24  C   UNL A   1      31.499  31.975  26.885  1.00  0.00     0.023 C 
BRANCH  24  25
ATOM     25  C   UNL A   1      32.680  32.827  27.326  1.00  0.00     0.116 C 
BRANCH  25  26
ATOM     26  N   UNL A   1      32.340  34.212  27.625  1.00  0.00    -0.352 N 
ATOM     27  C   UNL A   1      32.943  35.072  28.511  1.00  0.00     0.251 C 
ATOM     28  H   UNL A   1      31.578  34.582  27.122  1.00  0.00     0.163 HD
ATOM     29  O   UNL A   1      32.486  36.196  28.700  1.00  0.00    -0.269 OA
BRANCH  27  30
ATOM     30  C   UNL A   1      34.119  34.610  29.278  1.00  0.00     0.039 A 
ATOM     31  C   UNL A   1      33.927  34.093  30.562  1.00  0.00     0.014 A 
ATOM     32  C   UNL A   1      35.395  34.634  28.710  1.00  0.00     0.014 A 
ATOM     33  C   UNL A   1      35.007  33.530  31.244  1.00  0.00     0.010 A 
ATOM     34  C   UNL A   1      36.444  33.984  29.348  1.00  0.00     0.010 A 
ATOM     35  C   UNL A   1      36.263  33.435  30.625  1.00  0.00    -0.014 A 
BRANCH  35  36
ATOM     36  C   UNL A   1      37.412  32.790  31.307  1.00  0.00     0.031 A 
ATOM     37  C   UNL A   1      38.093  31.610  30.670  1.00  0.00     0.074 A 
ATOM     38  C   UNL A   1      37.795  33.220  32.524  1.00  0.00     0.049 A 
ATOM     39  N   UNL A   1      39.073  30.875  31.130  1.00  0.00    -0.248 NA
ATOM     40  C   UNL A   1      37.578  31.173  29.362  1.00  0.00     0.031 C 
ATOM     41  C   UNL A   1      37.163  34.304  33.281  1.00  0.00     0.029 A 
ATOM     42  N   UNL A   1      38.809  32.793  33.342  1.00  0.00    -0.354 N 
ATOM     43  C   UNL A   1      39.269  29.877  30.182  1.00  0.00     0.074 A 
ATOM     44  C   UNL A   1      38.269  30.063  29.156  1.00  0.00     0.031 C 
ATOM     45  C   UNL A   1      37.828  34.480  34.434  1.00  0.00     0.029 A 
ATOM     46  C   UNL A   1      38.914  33.508  34.510  1.00  0.00     0.049 A 
ATOM     47  H   UNL A   1      39.405  32.042  33.115  1.00  0.00     0.167 HD
ATOM     48  C   UNL A   1      40.218  28.912  30.152  1.00  0.00     0.037 A 
ATOM     49  C   UNL A   1      39.796  33.397  35.520  1.00  0.00     0.037 A 
ATOM     50  C   UNL A   1      41.246  28.763  31.146  1.00  0.00     0.049 A 
ATOM     51  C   UNL A   1      40.882  32.360  35.433  1.00  0.00     0.074 A 
ATOM     52  C   UNL A   1      42.299  27.867  31.174  1.00  0.00     0.029 A 
ATOM     53  N   UNL A   1      41.353  29.545  32.287  1.00  0.00    -0.354 N 
ATOM     54  N   UNL A   1      41.100  31.470  34.496  1.00  0.00    -0.248 NA
ATOM     55  C   UNL A   1      41.849  32.322  36.538  1.00  0.00     0.031 C 
ATOM     56  C   UNL A   1      43.032  28.092  32.344  1.00  0.00     0.029 A 
ATOM     57  C   UNL A   1      42.453  29.149  33.028  1.00  0.00     0.049 A 
ATOM     58  H   UNL A   1      40.737  30.273  32.533  1.00  0.00     0.167 HD
ATOM     59  C   UNL A   1      42.243  30.783  34.884  1.00  0.00     0.074 A 
ATOM     60  C   UNL A   1      42.680  31.372  36.133  1.00  0.00     0.031 C 
ATOM     61  C   UNL A   1      42.873  29.756  34.264  1.00  0.00     0.037 A 
BRANCH  48  62
ATOM     62  C   UNL A   1      40.193  27.962  28.992  1.00  0.00     0.057 A 
ATOM     63  C   UNL A   1      39.482  26.755  29.042  1.00  0.00     0.134 A 
ATOM     64  C   UNL A   1      40.884  28.256  27.810  1.00  0.00     0.134 A 
ATOM     65  F   UNL A   1      38.814  26.407  30.152  1.00  0.00    -0.206 F 
ATOM     66  C   UNL A   1      39.485  25.860  27.972  1.00  0.00     0.040 A 
ATOM     67  C   UNL A   1      40.872  27.381  26.722  1.00  0.00     0.040 A 
ATOM     68  F   UNL A   1      41.583  29.395  27.693  1.00  0.00    -0.206 F 
ATOM     69  C   UNL A   1      40.178  26.175  26.805  1.00  0.00     0.006 A 
ENDBRANCH  48  62
BRANCH  49  70
ATOM     70  C   UNL A   1      39.728  34.328  36.673  1.00  0.00     0.057 A 
ATOM     71  C   UNL A   1      39.057  33.967  37.848  1.00  0.00     0.134 A 
ATOM     72  C   UNL A   1      40.323  35.593  36.633  1.00  0.00     0.134 A 
ATOM     73  F   UNL A   1      38.454  32.773  37.940  1.00  0.00    -0.206 F 
ATOM     74  C   UNL A   1      38.961  34.839  38.933  1.00  0.00     0.040 A 
ATOM     75  C   UNL A   1      40.253  36.468  37.718  1.00  0.00     0.040 A 
ATOM     76  F   UNL A   1      40.989  35.993  35.540  1.00  0.00    -0.206 F 
ATOM     77  C   UNL A   1      39.564  36.094  38.871  1.00  0.00     0.006 A 
ENDBRANCH  49  70
BRANCH  61  78
ATOM     78  C   UNL A   1      44.116  29.229  34.915  1.00  0.00     0.057 A 
ATOM     79  C   UNL A   1      44.078  28.160  35.818  1.00  0.00     0.134 A 
ATOM     80  C   UNL A   1      45.367  29.782  34.613  1.00  0.00     0.134 A 
ATOM     81  F   UNL A   1      42.908  27.598  36.157  1.00  0.00    -0.206 F 
ATOM     82  C   UNL A   1      45.241  27.672  36.416  1.00  0.00     0.040 A 
ATOM     83  C   UNL A   1      46.538  29.287  35.187  1.00  0.00     0.040 A 
ATOM     84  F   UNL A   1      45.470  30.803  33.750  1.00  0.00    -0.206 F 
ATOM     85  C   UNL A   1      46.475  28.233  36.097  1.00  0.00     0.006 A 
ENDBRANCH  61  78
ENDBRANCH  35  36
ENDBRANCH  27  30
ENDBRANCH  25  26
ENDBRANCH  24  25
ENDBRANCH  23  24
ENDBRANCH   1  23
TORSDOF 16
ENDMDL
MODEL 3
REMARK VINA RESULT:     -11.3      4.239      6.537
REMARK SMILES N#CCSCC(=O)N1Cc2ccccc2C[C@@H]1C(=O)NCCCCNC(=O)c1ccc(-c2c3nc(c(-c4c(F)cccc4F)c4ccc([nH]4)c(-c4c(F)cccc4F)c4nc(c(-c5c(F)cccc5F)c5ccc2[nH]5)C=C4)C=C3)cc1
REMARK SMILES IDX 21 1 20 2 18 3 19 4 17 6 8 7 9 8 10 9 16 10 11 11 15 12
REMARK SMILES IDX 12 13 14 14 13 15 6 16 7 17 5 18 4 19 3 20 2 21 1 22 22 23
REMARK SMILES IDX 23 24 24 25 25 26 26 27 27 29 28 30 29 31 81 32 30 33 80 34
REMARK SMILES IDX 31 35 32 36 33 37 74 38 34 39 79 40 73 41 75 42 35 43 78 44
REMARK SMILES IDX 72 45 71 46 36 48 62 49 45 50 61 51 46 52 49 53 60 54 76 55
REMARK SMILES IDX 47 56 48 57 59 59 77 60 50 61 37 62 38 63 43 64 39 65 40 66
REMARK SMILES IDX 42 67 44 68 41 69 63 70 64 71 69 72 65 73 66 74 68 75 70 76
REMARK SMILES IDX 67 77 51 78 52 79 57 80 53 81 54 82 56 83 58 84 55 85
REMARK H PARENT 20 5 25 28 75 47 49 58
REMARK Flexibility Score: inf
ROOT
ATOM      1  C   UNL A   1      31.954  25.532  26.107  1.00  0.00     0.116 C 
ENDROOT
BRANCH   1   2
ATOM      2  N   UNL A   1      32.682  24.567  26.912  1.00  0.00    -0.354 N 
ATOM      3  C   UNL A   1      33.377  23.437  26.610  1.00  0.00     0.243 C 
ATOM      4  O   UNL A   1      33.715  22.755  27.588  1.00  0.00    -0.273 OA
ATOM      5  H   UNL A   1      32.670  24.772  27.875  1.00  0.00     0.163 HD
BRANCH   3   6
ATOM      6  C   UNL A   1      33.686  22.912  25.173  1.00  0.00     0.179 C 
ATOM      7  N   UNL A   1      33.759  21.448  25.030  1.00  0.00    -0.325 N 
ATOM      8  C   UNL A   1      35.065  20.833  24.718  1.00  0.00     0.156 C 
ATOM      9  C   UNL A   1      36.268  21.654  25.113  1.00  0.00    -0.025 A 
ATOM     10  C   UNL A   1      34.905  23.675  24.630  1.00  0.00     0.071 C 
ATOM     11  C   UNL A   1      37.475  21.046  25.486  1.00  0.00     0.006 A 
ATOM     12  C   UNL A   1      36.189  23.054  25.090  1.00  0.00    -0.040 A 
ATOM     13  C   UNL A   1      38.561  21.826  25.892  1.00  0.00     0.000 A 
ATOM     14  C   UNL A   1      37.285  23.833  25.477  1.00  0.00     0.004 A 
ATOM     15  C   UNL A   1      38.463  23.217  25.896  1.00  0.00     0.000 A 
BRANCH   7  16
ATOM     16  C   UNL A   1      32.667  20.598  25.170  1.00  0.00     0.233 C 
ATOM     17  O   UNL A   1      31.526  21.075  25.232  1.00  0.00    -0.274 OA
BRANCH  16  18
ATOM     18  C   UNL A   1      32.829  19.109  25.479  1.00  0.00     0.170 C 
BRANCH  18  19
ATOM     19  S   UNL A   1      32.469  17.863  24.219  1.00  0.00    -0.137 SA
BRANCH  19  20
ATOM     20  C   UNL A   1      34.132  17.365  23.691  1.00  0.00     0.189 C 
BRANCH  20  21
ATOM     21  C   UNL A   1      34.751  16.283  24.560  1.00  0.00     0.073 C 
ATOM     22  N   UNL A   1      35.265  15.385  25.281  1.00  0.00    -0.197 NA
ENDBRANCH  20  21
ENDBRANCH  19  20
ENDBRANCH  18  19
ENDBRANCH  16  18
ENDBRANCH   7  16
ENDBRANCH   3   6
ENDBRANCH   1   2
BRANCH   1  23
ATOM     23  C   UNL A   1      32.830  26.734  25.766  1.00  0.00     0.023 C 
BRANCH  23  24
ATOM     24  C   UNL A   1      32.784  27.876  26.773  1.00  0.00     0.023 C 
BRANCH  24  25
ATOM     25  C   UNL A   1      34.005  28.784  26.754  1.00  0.00     0.116 C 
BRANCH  25  26
ATOM     26  N   UNL A   1      33.861  29.996  27.550  1.00  0.00    -0.352 N 
ATOM     27  C   UNL A   1      34.787  30.602  28.365  1.00  0.00     0.251 C 
ATOM     28  H   UNL A   1      32.984  30.440  27.495  1.00  0.00     0.163 HD
ATOM     29  O   UNL A   1      34.482  31.588  29.031  1.00  0.00    -0.269 OA
BRANCH  27  30
ATOM     30  C   UNL A   1      36.142  30.022  28.474  1.00  0.00     0.039 A 
ATOM     31  C   UNL A   1      37.030  30.174  27.407  1.00  0.00     0.014 A 
ATOM     32  C   UNL A   1      36.551  29.383  29.647  1.00  0.00     0.014 A 
ATOM     33  C   UNL A   1      38.352  29.752  27.548  1.00  0.00     0.010 A 
ATOM     34  C   UNL A   1      37.890  29.056  29.821  1.00  0.00     0.010 A 
ATOM     35  C   UNL A   1      38.801  29.227  28.770  1.00  0.00    -0.014 A 
BRANCH  35  36
ATOM     36  C   UNL A   1      40.216  28.823  28.962  1.00  0.00     0.031 A 
ATOM     37  C   UNL A   1      41.186  29.779  29.601  1.00  0.00     0.074 A 
ATOM     38  C   UNL A   1      40.640  27.630  28.502  1.00  0.00     0.049 A 
ATOM     39  N   UNL A   1      42.471  29.638  29.806  1.00  0.00    -0.248 NA
ATOM     40  C   UNL A   1      40.650  31.081  30.029  1.00  0.00     0.031 C 
ATOM     41  C   UNL A   1      39.814  26.649  27.795  1.00  0.00     0.029 A 
ATOM     42  N   UNL A   1      41.878  27.043  28.557  1.00  0.00    -0.354 N 
ATOM     43  C   UNL A   1      42.896  30.841  30.358  1.00  0.00     0.074 A 
ATOM     44  C   UNL A   1      41.749  31.719  30.398  1.00  0.00     0.031 C 
ATOM     45  C   UNL A   1      40.559  25.567  27.517  1.00  0.00     0.029 A 
ATOM     46  C   UNL A   1      41.917  25.788  28.002  1.00  0.00     0.049 A 
ATOM     47  H   UNL A   1      42.664  27.480  28.957  1.00  0.00     0.167 HD
ATOM     48  C   UNL A   1      44.124  31.173  30.821  1.00  0.00     0.037 A 
ATOM     49  C   UNL A   1      42.934  24.911  27.907  1.00  0.00     0.037 A 
ATOM     50  C   UNL A   1      45.249  30.278  30.830  1.00  0.00     0.049 A 
ATOM     51  C   UNL A   1      44.272  25.277  28.488  1.00  0.00     0.074 A 
ATOM     52  C   UNL A   1      46.516  30.488  31.343  1.00  0.00     0.029 A 
ATOM     53  N   UNL A   1      45.234  28.993  30.309  1.00  0.00    -0.354 N 
ATOM     54  N   UNL A   1      44.641  26.391  29.073  1.00  0.00    -0.248 NA
ATOM     55  C   UNL A   1      45.329  24.261  28.406  1.00  0.00     0.031 C 
ATOM     56  C   UNL A   1      47.276  29.336  31.112  1.00  0.00     0.029 A 
ATOM     57  C   UNL A   1      46.472  28.398  30.484  1.00  0.00     0.049 A 
ATOM     58  H   UNL A   1      44.458  28.567  29.879  1.00  0.00     0.167 HD
ATOM     59  C   UNL A   1      45.964  26.200  29.452  1.00  0.00     0.074 A 
ATOM     60  C   UNL A   1      46.325  24.858  29.043  1.00  0.00     0.031 C 
ATOM     61  C   UNL A   1      46.805  27.058  30.078  1.00  0.00     0.037 A 
BRANCH  48  62
ATOM     62  C   UNL A   1      44.297  32.556  31.374  1.00  0.00     0.057 A 
ATOM     63  C   UNL A   1      44.706  33.627  30.567  1.00  0.00     0.134 A 
ATOM     64  C   UNL A   1      44.049  32.823  32.726  1.00  0.00     0.134 A 
ATOM     65  F   UNL A   1      44.976  33.433  29.267  1.00  0.00    -0.206 F 
ATOM     66  C   UNL A   1      44.894  34.906  31.091  1.00  0.00     0.040 A 
ATOM     67  C   UNL A   1      44.208  34.105  33.256  1.00  0.00     0.040 A 
ATOM     68  F   UNL A   1      43.652  31.845  33.553  1.00  0.00    -0.206 F 
ATOM     69  C   UNL A   1      44.639  35.149  32.439  1.00  0.00     0.006 A 
ENDBRANCH  48  62
BRANCH  49  70
ATOM     70  C   UNL A   1      42.715  23.580  27.290  1.00  0.00     0.057 A 
ATOM     71  C   UNL A   1      42.296  22.490  28.064  1.00  0.00     0.134 A 
ATOM     72  C   UNL A   1      42.919  23.361  25.924  1.00  0.00     0.134 A 
ATOM     73  F   UNL A   1      42.100  22.637  29.383  1.00  0.00    -0.206 F 
ATOM     74  C   UNL A   1      42.110  21.226  27.506  1.00  0.00     0.040 A 
ATOM     75  C   UNL A   1      42.716  22.106  25.348  1.00  0.00     0.040 A 
ATOM     76  F   UNL A   1      43.310  24.366  25.128  1.00  0.00    -0.206 F 
ATOM     77  C   UNL A   1      42.316  21.031  26.142  1.00  0.00     0.006 A 
ENDBRANCH  49  70
BRANCH  61  78
ATOM     78  C   UNL A   1      48.184  26.557  30.384  1.00  0.00     0.057 A 
ATOM     79  C   UNL A   1      49.252  26.753  29.501  1.00  0.00     0.134 A 
ATOM     80  C   UNL A   1      48.448  25.894  31.589  1.00  0.00     0.134 A 
ATOM     81  F   UNL A   1      49.057  27.370  28.325  1.00  0.00    -0.206 F 
ATOM     82  C   UNL A   1      50.534  26.287  29.796  1.00  0.00     0.040 A 
ATOM     83  C   UNL A   1      49.731  25.445  31.904  1.00  0.00     0.040 A 
ATOM     84  F   UNL A   1      47.469  25.682  32.480  1.00  0.00    -0.206 F 
ATOM     85  C   UNL A   1      50.777  25.635  31.003  1.00  0.00     0.006 A 
ENDBRANCH  61  78
ENDBRANCH  35  36
ENDBRANCH  27  30
ENDBRANCH  25  26
ENDBRANCH  24  25
ENDBRANCH  23  24
ENDBRANCH   1  23
TORSDOF 16
ENDMDL
