MODEL 1
REMARK VINA RESULT:     -11.4      0.000      0.000
REMARK SMILES Cc1ccn2c([C@H]3C[C@@H]3C(=O)NCCCCNC(=O)c3ccc(-c4c5nc(c(-c6c(F)cccc6F)c6ccc([nH]6)c(-c6c(F)cccc6F)c6nc(c(-c7c(F)cccc7F)c7ccc4[nH]7)C=C6)C=C5)cc3)nnc2c1
REMARK SMILES IDX 15 1 14 2 13 3 12 4 10 5 11 6 9 8 7 9 8 10 6 11 1 12 2 13
REMARK SMILES IDX 3 14 77 15 4 16 76 17 5 18 75 19 74 20 16 21 17 22 18 23
REMARK SMILES IDX 19 25 20 26 21 27 73 28 22 29 72 30 23 31 24 32 25 33 66 34
REMARK SMILES IDX 26 35 71 36 65 37 67 38 27 39 70 40 64 41 63 42 28 44 54 45
REMARK SMILES IDX 37 46 53 47 38 48 41 49 52 50 68 51 39 52 40 53 51 55 69 56
REMARK SMILES IDX 42 57 29 58 30 59 35 60 31 61 32 62 34 63 36 64 33 65 55 66
REMARK SMILES IDX 56 67 61 68 57 69 58 70 60 71 62 72 59 73 43 74 44 75 49 76
REMARK SMILES IDX 45 77 46 78 48 79 50 80 47 81
REMARK H PARENT 12 7 17 24 67 43 41 54
REMARK Flexibility Score: inf
ROOT
ATOM      1  C   UNL A   1      39.505  22.097  26.198  1.00  0.00     0.023 C 
ENDROOT
BRANCH   1   2
ATOM      2  C   UNL A   1      39.024  23.471  26.689  1.00  0.00     0.023 C 
BRANCH   2   3
ATOM      3  C   UNL A   1      37.636  23.862  26.182  1.00  0.00     0.116 C 
BRANCH   3   4
ATOM      4  N   UNL A   1      36.778  22.700  26.107  1.00  0.00    -0.356 N 
ATOM      5  C   UNL A   1      35.726  22.457  25.269  1.00  0.00     0.223 C 
ATOM      6  O   UNL A   1      35.071  21.432  25.387  1.00  0.00    -0.275 OA
ATOM      7  H   UNL A   1      36.980  21.982  26.752  1.00  0.00     0.163 HD
BRANCH   5   8
ATOM      8  C   UNL A   1      35.432  23.401  24.170  1.00  0.00     0.090 C 
ATOM      9  C   UNL A   1      34.032  23.860  23.790  1.00  0.00     0.071 C 
ATOM     10  C   UNL A   1      34.780  22.887  22.916  1.00  0.00     0.026 C 
BRANCH   9  11
ATOM     11  C   UNL A   1      33.898  25.306  23.327  1.00  0.00     0.141 A 
ATOM     12  C   UNL A   1      32.809  30.202  25.757  1.00  0.00     0.044 C 
ATOM     13  C   UNL A   1      33.229  28.903  25.138  1.00  0.00    -0.046 A 
ATOM     14  C   UNL A   1      33.470  27.770  26.035  1.00  0.00     0.022 A 
ATOM     15  C   UNL A   1      33.328  28.752  23.798  1.00  0.00     0.053 A 
ATOM     16  C   UNL A   1      33.728  26.559  25.512  1.00  0.00     0.095 A 
ATOM     17  C   UNL A   1      33.610  27.473  23.247  1.00  0.00     0.161 A 
ATOM     18  N   UNL A   1      33.776  26.416  24.129  1.00  0.00    -0.286 N 
ATOM     19  N   UNL A   1      33.698  27.036  22.011  1.00  0.00    -0.130 NA
ATOM     20  N   UNL A   1      33.850  25.670  22.062  1.00  0.00    -0.134 NA
ENDBRANCH   9  11
ENDBRANCH   5   8
ENDBRANCH   3   4
ENDBRANCH   2   3
ENDBRANCH   1   2
BRANCH   1  21
ATOM     21  C   UNL A   1      40.952  21.763  26.573  1.00  0.00     0.116 C 
BRANCH  21  22
ATOM     22  N   UNL A   1      41.915  22.189  25.575  1.00  0.00    -0.352 N 
ATOM     23  C   UNL A   1      42.676  23.309  25.389  1.00  0.00     0.251 C 
ATOM     24  H   UNL A   1      42.052  21.515  24.871  1.00  0.00     0.163 HD
ATOM     25  O   UNL A   1      43.513  23.248  24.484  1.00  0.00    -0.269 OA
BRANCH  23  26
ATOM     26  C   UNL A   1      42.530  24.587  26.137  1.00  0.00     0.039 A 
ATOM     27  C   UNL A   1      43.013  24.831  27.419  1.00  0.00     0.014 A 
ATOM     28  C   UNL A   1      41.767  25.595  25.507  1.00  0.00     0.014 A 
ATOM     29  C   UNL A   1      42.673  26.002  28.085  1.00  0.00     0.010 A 
ATOM     30  C   UNL A   1      41.434  26.776  26.165  1.00  0.00     0.010 A 
ATOM     31  C   UNL A   1      41.856  26.960  27.473  1.00  0.00    -0.014 A 
BRANCH  31  32
ATOM     32  C   UNL A   1      41.600  28.186  28.224  1.00  0.00     0.031 A 
ATOM     33  C   UNL A   1      42.680  29.205  28.093  1.00  0.00     0.074 A 
ATOM     34  C   UNL A   1      40.499  28.442  28.959  1.00  0.00     0.049 A 
ATOM     35  N   UNL A   1      43.501  29.603  29.009  1.00  0.00    -0.248 NA
ATOM     36  C   UNL A   1      42.977  29.730  26.752  1.00  0.00     0.031 C 
ATOM     37  C   UNL A   1      39.241  27.699  29.023  1.00  0.00     0.029 A 
ATOM     38  N   UNL A   1      40.267  29.503  29.785  1.00  0.00    -0.354 N 
ATOM     39  C   UNL A   1      44.315  30.561  28.411  1.00  0.00     0.074 A 
ATOM     40  C   UNL A   1      44.040  30.498  27.000  1.00  0.00     0.031 C 
ATOM     41  C   UNL A   1      38.314  28.445  29.669  1.00  0.00     0.029 A 
ATOM     42  C   UNL A   1      38.945  29.652  30.183  1.00  0.00     0.049 A 
ATOM     43  H   UNL A   1      40.981  30.115  30.076  1.00  0.00     0.167 HD
ATOM     44  C   UNL A   1      45.002  31.466  29.161  1.00  0.00     0.037 A 
ATOM     45  C   UNL A   1      38.412  30.710  30.848  1.00  0.00     0.037 A 
ATOM     46  C   UNL A   1      45.151  31.007  30.520  1.00  0.00     0.049 A 
ATOM     47  C   UNL A   1      39.529  31.428  31.513  1.00  0.00     0.074 A 
ATOM     48  C   UNL A   1      45.724  29.899  31.118  1.00  0.00     0.029 A 
ATOM     49  N   UNL A   1      44.354  31.570  31.488  1.00  0.00    -0.354 N 
ATOM     50  N   UNL A   1      40.175  30.965  32.544  1.00  0.00    -0.248 NA
ATOM     51  C   UNL A   1      40.214  32.465  30.757  1.00  0.00     0.031 C 
ATOM     52  C   UNL A   1      44.853  29.576  32.202  1.00  0.00     0.029 A 
ATOM     53  C   UNL A   1      43.848  30.540  32.234  1.00  0.00     0.049 A 
ATOM     54  H   UNL A   1      44.180  32.530  31.618  1.00  0.00     0.167 HD
ATOM     55  C   UNL A   1      41.497  31.307  32.308  1.00  0.00     0.074 A 
ATOM     56  C   UNL A   1      41.449  32.305  31.239  1.00  0.00     0.031 C 
ATOM     57  C   UNL A   1      42.521  30.548  32.795  1.00  0.00     0.037 A 
BRANCH  44  58
ATOM     58  C   UNL A   1      45.166  32.923  28.785  1.00  0.00     0.057 A 
ATOM     59  C   UNL A   1      44.106  33.845  28.687  1.00  0.00     0.134 A 
ATOM     60  C   UNL A   1      46.449  33.503  28.864  1.00  0.00     0.134 A 
ATOM     61  F   UNL A   1      42.825  33.470  28.614  1.00  0.00    -0.206 F 
ATOM     62  C   UNL A   1      44.295  35.228  28.755  1.00  0.00     0.040 A 
ATOM     63  C   UNL A   1      46.645  34.884  28.982  1.00  0.00     0.040 A 
ATOM     64  F   UNL A   1      47.549  32.737  28.936  1.00  0.00    -0.206 F 
ATOM     65  C   UNL A   1      45.562  35.750  28.951  1.00  0.00     0.006 A 
ENDBRANCH  44  58
BRANCH  45  66
ATOM     66  C   UNL A   1      37.055  31.302  30.770  1.00  0.00     0.057 A 
ATOM     67  C   UNL A   1      36.655  32.083  29.673  1.00  0.00     0.134 A 
ATOM     68  C   UNL A   1      36.224  31.363  31.901  1.00  0.00     0.134 A 
ATOM     69  F   UNL A   1      37.402  32.153  28.563  1.00  0.00    -0.206 F 
ATOM     70  C   UNL A   1      35.518  32.898  29.708  1.00  0.00     0.040 A 
ATOM     71  C   UNL A   1      35.086  32.182  31.951  1.00  0.00     0.040 A 
ATOM     72  F   UNL A   1      36.534  30.685  33.016  1.00  0.00    -0.206 F 
ATOM     73  C   UNL A   1      34.738  32.965  30.856  1.00  0.00     0.006 A 
ENDBRANCH  45  66
BRANCH  57  74
ATOM     74  C   UNL A   1      42.198  29.482  33.802  1.00  0.00     0.057 A 
ATOM     75  C   UNL A   1      42.463  29.737  35.152  1.00  0.00     0.134 A 
ATOM     76  C   UNL A   1      41.774  28.186  33.471  1.00  0.00     0.134 A 
ATOM     77  F   UNL A   1      42.927  30.937  35.537  1.00  0.00    -0.206 F 
ATOM     78  C   UNL A   1      42.304  28.756  36.132  1.00  0.00     0.040 A 
ATOM     79  C   UNL A   1      41.575  27.207  34.448  1.00  0.00     0.040 A 
ATOM     80  F   UNL A   1      41.595  27.816  32.196  1.00  0.00    -0.206 F 
ATOM     81  C   UNL A   1      41.846  27.488  35.784  1.00  0.00     0.006 A 
ENDBRANCH  57  74
ENDBRANCH  31  32
ENDBRANCH  23  26
ENDBRANCH  21  22
ENDBRANCH   1  21
TORSDOF 12
ENDMDL
MODEL 2
REMARK VINA RESULT:     -11.4      1.438      2.245
REMARK SMILES Cc1ccn2c([C@H]3C[C@@H]3C(=O)NCCCCNC(=O)c3ccc(-c4c5nc(c(-c6c(F)cccc6F)c6ccc([nH]6)c(-c6c(F)cccc6F)c6nc(c(-c7c(F)cccc7F)c7ccc4[nH]7)C=C6)C=C5)cc3)nnc2c1
REMARK SMILES IDX 15 1 14 2 13 3 12 4 10 5 11 6 9 8 7 9 8 10 6 11 1 12 2 13
REMARK SMILES IDX 3 14 77 15 4 16 76 17 5 18 75 19 74 20 16 21 17 22 18 23
REMARK SMILES IDX 19 25 20 26 21 27 73 28 22 29 72 30 23 31 24 32 25 33 66 34
REMARK SMILES IDX 26 35 71 36 65 37 67 38 27 39 70 40 64 41 63 42 28 44 54 45
REMARK SMILES IDX 37 46 53 47 38 48 41 49 52 50 68 51 39 52 40 53 51 55 69 56
REMARK SMILES IDX 42 57 29 58 30 59 35 60 31 61 32 62 34 63 36 64 33 65 55 66
REMARK SMILES IDX 56 67 61 68 57 69 58 70 60 71 62 72 59 73 43 74 44 75 49 76
REMARK SMILES IDX 45 77 46 78 48 79 50 80 47 81
REMARK H PARENT 12 7 17 24 67 43 41 54
REMARK Flexibility Score: inf
ROOT
ATOM      1  C   UNL A   1      37.400  21.315  24.603  1.00  0.00     0.023 C 
ENDROOT
BRANCH   1   2
ATOM      2  C   UNL A   1      36.220  20.441  25.052  1.00  0.00     0.023 C 
BRANCH   2   3
ATOM      3  C   UNL A   1      35.212  21.167  25.943  1.00  0.00     0.116 C 
BRANCH   3   4
ATOM      4  N   UNL A   1      33.910  20.544  25.847  1.00  0.00    -0.356 N 
ATOM      5  C   UNL A   1      32.897  20.795  24.963  1.00  0.00     0.223 C 
ATOM      6  O   UNL A   1      31.833  20.204  25.068  1.00  0.00    -0.275 OA
ATOM      7  H   UNL A   1      33.728  19.841  26.512  1.00  0.00     0.163 HD
BRANCH   5   8
ATOM      8  C   UNL A   1      33.122  21.723  23.836  1.00  0.00     0.090 C 
ATOM      9  C   UNL A   1      32.124  22.783  23.390  1.00  0.00     0.071 C 
ATOM     10  C   UNL A   1      32.338  21.540  22.566  1.00  0.00     0.026 C 
BRANCH   9  11
ATOM     11  C   UNL A   1      32.712  24.099  22.896  1.00  0.00     0.141 A 
ATOM     12  C   UNL A   1      33.426  29.208  25.003  1.00  0.00     0.044 C 
ATOM     13  C   UNL A   1      33.349  27.800  24.496  1.00  0.00    -0.046 A 
ATOM     14  C   UNL A   1      32.912  26.764  25.435  1.00  0.00     0.022 A 
ATOM     15  C   UNL A   1      33.611  27.493  23.206  1.00  0.00     0.053 A 
ATOM     16  C   UNL A   1      32.711  25.512  24.988  1.00  0.00     0.095 A 
ATOM     17  C   UNL A   1      33.408  26.167  22.737  1.00  0.00     0.161 A 
ATOM     18  N   UNL A   1      32.940  25.229  23.645  1.00  0.00    -0.286 N 
ATOM     19  N   UNL A   1      33.518  25.617  21.549  1.00  0.00    -0.130 NA
ATOM     20  N   UNL A   1      33.054  24.325  21.643  1.00  0.00    -0.134 NA
ENDBRANCH   9  11
ENDBRANCH   5   8
ENDBRANCH   3   4
ENDBRANCH   2   3
ENDBRANCH   1   2
BRANCH   1  21
ATOM     21  C   UNL A   1      38.112  22.051  25.743  1.00  0.00     0.116 C 
BRANCH  21  22
ATOM     22  N   UNL A   1      39.543  21.820  25.769  1.00  0.00    -0.352 N 
ATOM     23  C   UNL A   1      40.609  22.448  26.349  1.00  0.00     0.251 C 
ATOM     24  H   UNL A   1      39.808  21.028  25.248  1.00  0.00     0.163 HD
ATOM     25  O   UNL A   1      41.691  21.860  26.271  1.00  0.00    -0.269 OA
BRANCH  23  26
ATOM     26  C   UNL A   1      40.574  23.787  26.999  1.00  0.00     0.039 A 
ATOM     27  C   UNL A   1      39.692  24.816  26.680  1.00  0.00     0.014 A 
ATOM     28  C   UNL A   1      41.577  24.041  27.959  1.00  0.00     0.014 A 
ATOM     29  C   UNL A   1      39.860  26.079  27.232  1.00  0.00     0.010 A 
ATOM     30  C   UNL A   1      41.742  25.302  28.527  1.00  0.00     0.010 A 
ATOM     31  C   UNL A   1      40.904  26.333  28.130  1.00  0.00    -0.014 A 
BRANCH  31  32
ATOM     32  C   UNL A   1      40.967  27.673  28.707  1.00  0.00     0.031 A 
ATOM     33  C   UNL A   1      42.176  28.444  28.300  1.00  0.00     0.074 A 
ATOM     34  C   UNL A   1      40.037  28.227  29.511  1.00  0.00     0.049 A 
ATOM     35  N   UNL A   1      43.170  28.797  29.047  1.00  0.00    -0.248 NA
ATOM     36  C   UNL A   1      42.370  28.723  26.870  1.00  0.00     0.031 C 
ATOM     37  C   UNL A   1      38.692  27.750  29.829  1.00  0.00     0.029 A 
ATOM     38  N   UNL A   1      40.105  29.412  30.185  1.00  0.00    -0.354 N 
ATOM     39  C   UNL A   1      44.046  29.497  28.221  1.00  0.00     0.074 A 
ATOM     40  C   UNL A   1      43.573  29.302  26.876  1.00  0.00     0.031 C 
ATOM     41  C   UNL A   1      38.003  28.735  30.451  1.00  0.00     0.029 A 
ATOM     42  C   UNL A   1      38.895  29.858  30.700  1.00  0.00     0.049 A 
ATOM     43  H   UNL A   1      40.946  29.911  30.297  1.00  0.00     0.167 HD
ATOM     44  C   UNL A   1      44.974  30.347  28.742  1.00  0.00     0.037 A 
ATOM     45  C   UNL A   1      38.648  31.076  31.249  1.00  0.00     0.037 A 
ATOM     46  C   UNL A   1      45.229  30.051  30.130  1.00  0.00     0.049 A 
ATOM     47  C   UNL A   1      39.951  31.651  31.667  1.00  0.00     0.074 A 
ATOM     48  C   UNL A   1      45.680  28.943  30.824  1.00  0.00     0.029 A 
ATOM     49  N   UNL A   1      44.680  30.876  31.082  1.00  0.00    -0.354 N 
ATOM     50  N   UNL A   1      40.644  31.214  32.679  1.00  0.00    -0.248 NA
ATOM     51  C   UNL A   1      40.693  32.432  30.688  1.00  0.00     0.031 C 
ATOM     52  C   UNL A   1      44.925  28.934  32.034  1.00  0.00     0.029 A 
ATOM     53  C   UNL A   1      44.113  30.067  32.029  1.00  0.00     0.049 A 
ATOM     54  H   UNL A   1      44.692  31.860  31.081  1.00  0.00     0.167 HD
ATOM     55  C   UNL A   1      41.960  31.266  32.246  1.00  0.00     0.074 A 
ATOM     56  C   UNL A   1      41.936  32.106  31.049  1.00  0.00     0.031 C 
ATOM     57  C   UNL A   1      42.897  30.399  32.727  1.00  0.00     0.037 A 
BRANCH  44  58
ATOM     58  C   UNL A   1      45.331  31.685  28.130  1.00  0.00     0.057 A 
ATOM     59  C   UNL A   1      46.549  31.964  27.480  1.00  0.00     0.134 A 
ATOM     60  C   UNL A   1      44.299  32.611  27.876  1.00  0.00     0.134 A 
ATOM     61  F   UNL A   1      47.629  31.186  27.601  1.00  0.00    -0.206 F 
ATOM     62  C   UNL A   1      46.702  33.022  26.579  1.00  0.00     0.040 A 
ATOM     63  C   UNL A   1      44.427  33.643  26.940  1.00  0.00     0.040 A 
ATOM     64  F   UNL A   1      43.094  32.476  28.452  1.00  0.00    -0.206 F 
ATOM     65  C   UNL A   1      45.627  33.837  26.270  1.00  0.00     0.006 A 
ENDBRANCH  44  58
BRANCH  45  66
ATOM     66  C   UNL A   1      37.414  31.897  31.232  1.00  0.00     0.057 A 
ATOM     67  C   UNL A   1      36.455  31.807  32.255  1.00  0.00     0.134 A 
ATOM     68  C   UNL A   1      37.004  32.569  30.068  1.00  0.00     0.134 A 
ATOM     69  F   UNL A   1      36.711  31.135  33.387  1.00  0.00    -0.206 F 
ATOM     70  C   UNL A   1      35.162  32.323  32.119  1.00  0.00     0.040 A 
ATOM     71  C   UNL A   1      35.708  33.083  29.916  1.00  0.00     0.040 A 
ATOM     72  F   UNL A   1      37.829  32.680  29.016  1.00  0.00    -0.206 F 
ATOM     73  C   UNL A   1      34.777  32.948  30.939  1.00  0.00     0.006 A 
ENDBRANCH  45  66
BRANCH  57  74
ATOM     74  C   UNL A   1      42.538  29.555  33.916  1.00  0.00     0.057 A 
ATOM     75  C   UNL A   1      43.006  29.943  35.176  1.00  0.00     0.134 A 
ATOM     76  C   UNL A   1      41.879  28.318  33.836  1.00  0.00     0.134 A 
ATOM     77  F   UNL A   1      43.695  31.086  35.320  1.00  0.00    -0.206 F 
ATOM     78  C   UNL A   1      42.818  29.150  36.309  1.00  0.00     0.040 A 
ATOM     79  C   UNL A   1      41.653  27.532  34.970  1.00  0.00     0.040 A 
ATOM     80  F   UNL A   1      41.488  27.812  32.659  1.00  0.00    -0.206 F 
ATOM     81  C   UNL A   1      42.128  27.945  36.211  1.00  0.00     0.006 A 
ENDBRANCH  57  74
ENDBRANCH  31  32
ENDBRANCH  23  26
ENDBRANCH  21  22
ENDBRANCH   1  21
TORSDOF 12
ENDMDL
MODEL 3
REMARK VINA RESULT:     -11.3      4.638      9.805
REMARK SMILES Cc1ccn2c([C@H]3C[C@@H]3C(=O)NCCCCNC(=O)c3ccc(-c4c5nc(c(-c6c(F)cccc6F)c6ccc([nH]6)c(-c6c(F)cccc6F)c6nc(c(-c7c(F)cccc7F)c7ccc4[nH]7)C=C6)C=C5)cc3)nnc2c1
REMARK SMILES IDX 15 1 14 2 13 3 12 4 10 5 11 6 9 8 7 9 8 10 6 11 1 12 2 13
REMARK SMILES IDX 3 14 77 15 4 16 76 17 5 18 75 19 74 20 16 21 17 22 18 23
REMARK SMILES IDX 19 25 20 26 21 27 73 28 22 29 72 30 23 31 24 32 25 33 66 34
REMARK SMILES IDX 26 35 71 36 65 37 67 38 27 39 70 40 64 41 63 42 28 44 54 45
REMARK SMILES IDX 37 46 53 47 38 48 41 49 52 50 68 51 39 52 40 53 51 55 69 56
REMARK SMILES IDX 42 57 29 58 30 59 35 60 31 61 32 62 34 63 36 64 33 65 55 66
REMARK SMILES IDX 56 67 61 68 57 69 58 70 60 71 62 72 59 73 43 74 44 75 49 76
REMARK SMILES IDX 45 77 46 78 48 79 50 80 47 81
REMARK H PARENT 12 7 17 24 67 43 41 54
REMARK Flexibility Score: inf
ROOT
ATOM      1  C   UNL A   1      37.386  33.079  33.151  1.00  0.00     0.023 C 
ENDROOT
BRANCH   1   2
ATOM      2  C   UNL A   1      36.428  33.408  34.305  1.00  0.00     0.023 C 
BRANCH   2   3
ATOM      3  C   UNL A   1      35.021  33.798  33.854  1.00  0.00     0.116 C 
BRANCH   3   4
ATOM      4  N   UNL A   1      34.778  35.202  34.106  1.00  0.00    -0.356 N 
ATOM      5  C   UNL A   1      34.079  36.105  33.355  1.00  0.00     0.223 C 
ATOM      6  O   UNL A   1      34.025  37.277  33.698  1.00  0.00    -0.275 OA
ATOM      7  H   UNL A   1      35.173  35.557  34.936  1.00  0.00     0.163 HD
BRANCH   5   8
ATOM      8  C   UNL A   1      33.324  35.644  32.170  1.00  0.00     0.090 C 
ATOM      9  C   UNL A   1      33.664  36.030  30.737  1.00  0.00     0.071 C 
ATOM     10  C   UNL A   1      32.462  36.623  31.423  1.00  0.00     0.026 C 
BRANCH   9  11
ATOM     11  C   UNL A   1      33.448  34.955  29.679  1.00  0.00     0.141 A 
ATOM     12  C   UNL A   1      36.170  30.395  27.989  1.00  0.00     0.044 C 
ATOM     13  C   UNL A   1      35.383  31.546  28.538  1.00  0.00    -0.046 A 
ATOM     14  C   UNL A   1      35.872  32.179  29.765  1.00  0.00     0.022 A 
ATOM     15  C   UNL A   1      34.293  32.031  27.902  1.00  0.00     0.053 A 
ATOM     16  C   UNL A   1      35.265  33.288  30.221  1.00  0.00     0.095 A 
ATOM     17  C   UNL A   1      33.647  33.198  28.391  1.00  0.00     0.161 A 
ATOM     18  N   UNL A   1      34.176  33.799  29.523  1.00  0.00    -0.286 N 
ATOM     19  N   UNL A   1      32.634  33.907  27.946  1.00  0.00    -0.130 NA
ATOM     20  N   UNL A   1      32.528  35.026  28.739  1.00  0.00    -0.134 NA
ENDBRANCH   9  11
ENDBRANCH   5   8
ENDBRANCH   3   4
ENDBRANCH   2   3
ENDBRANCH   1   2
BRANCH   1  21
ATOM     21  C   UNL A   1      38.450  34.150  32.889  1.00  0.00     0.116 C 
BRANCH  21  22
ATOM     22  N   UNL A   1      38.657  34.419  31.479  1.00  0.00    -0.352 N 
ATOM     23  C   UNL A   1      39.125  33.693  30.420  1.00  0.00     0.251 C 
ATOM     24  H   UNL A   1      38.402  35.336  31.228  1.00  0.00     0.163 HD
ATOM     25  O   UNL A   1      39.012  34.223  29.310  1.00  0.00    -0.269 OA
BRANCH  23  26
ATOM     26  C   UNL A   1      39.800  32.370  30.510  1.00  0.00     0.039 A 
ATOM     27  C   UNL A   1      41.174  32.171  30.618  1.00  0.00     0.014 A 
ATOM     28  C   UNL A   1      38.967  31.236  30.395  1.00  0.00     0.014 A 
ATOM     29  C   UNL A   1      41.705  30.891  30.524  1.00  0.00     0.010 A 
ATOM     30  C   UNL A   1      39.494  29.948  30.314  1.00  0.00     0.010 A 
ATOM     31  C   UNL A   1      40.871  29.782  30.339  1.00  0.00    -0.014 A 
BRANCH  31  32
ATOM     32  C   UNL A   1      41.512  28.471  30.312  1.00  0.00     0.031 A 
ATOM     33  C   UNL A   1      42.044  28.038  31.636  1.00  0.00     0.074 A 
ATOM     34  C   UNL A   1      41.616  27.669  29.234  1.00  0.00     0.049 A 
ATOM     35  N   UNL A   1      43.283  27.900  31.977  1.00  0.00    -0.248 NA
ATOM     36  C   UNL A   1      41.094  27.886  32.748  1.00  0.00     0.031 C 
ATOM     37  C   UNL A   1      40.965  27.788  27.930  1.00  0.00     0.029 A 
ATOM     38  N   UNL A   1      42.317  26.503  29.117  1.00  0.00    -0.354 N 
ATOM     39  C   UNL A   1      43.275  27.476  33.303  1.00  0.00     0.074 A 
ATOM     40  C   UNL A   1      41.919  27.617  33.762  1.00  0.00     0.031 C 
ATOM     41  C   UNL A   1      41.130  26.635  27.240  1.00  0.00     0.029 A 
ATOM     42  C   UNL A   1      42.010  25.751  27.990  1.00  0.00     0.049 A 
ATOM     43  H   UNL A   1      42.987  26.218  29.779  1.00  0.00     0.167 HD
ATOM     44  C   UNL A   1      44.356  26.851  33.848  1.00  0.00     0.037 A 
ATOM     45  C   UNL A   1      42.421  24.484  27.725  1.00  0.00     0.037 A 
ATOM     46  C   UNL A   1      45.552  27.130  33.092  1.00  0.00     0.049 A 
ATOM     47  C   UNL A   1      43.625  24.222  28.552  1.00  0.00     0.074 A 
ATOM     48  C   UNL A   1      46.241  28.279  32.744  1.00  0.00     0.029 A 
ATOM     49  N   UNL A   1      46.040  26.150  32.261  1.00  0.00    -0.354 N 
ATOM     50  N   UNL A   1      44.789  24.763  28.330  1.00  0.00    -0.248 NA
ATOM     51  C   UNL A   1      43.425  23.694  29.894  1.00  0.00     0.031 C 
ATOM     52  C   UNL A   1      46.702  28.043  31.415  1.00  0.00     0.029 A 
ATOM     53  C   UNL A   1      46.322  26.748  31.063  1.00  0.00     0.049 A 
ATOM     54  H   UNL A   1      46.162  25.199  32.486  1.00  0.00     0.167 HD
ATOM     55  C   UNL A   1      45.283  25.053  29.591  1.00  0.00     0.074 A 
ATOM     56  C   UNL A   1      44.442  24.294  30.516  1.00  0.00     0.031 C 
ATOM     57  C   UNL A   1      46.140  26.097  29.791  1.00  0.00     0.037 A 
BRANCH  44  58
ATOM     58  C   UNL A   1      44.263  25.672  34.793  1.00  0.00     0.057 A 
ATOM     59  C   UNL A   1      43.791  24.395  34.430  1.00  0.00     0.134 A 
ATOM     60  C   UNL A   1      44.987  25.714  36.002  1.00  0.00     0.134 A 
ATOM     61  F   UNL A   1      43.096  24.172  33.311  1.00  0.00    -0.206 F 
ATOM     62  C   UNL A   1      44.093  23.241  35.158  1.00  0.00     0.040 A 
ATOM     63  C   UNL A   1      45.335  24.559  36.712  1.00  0.00     0.040 A 
ATOM     64  F   UNL A   1      45.471  26.873  36.476  1.00  0.00    -0.206 F 
ATOM     65  C   UNL A   1      44.906  23.313  36.276  1.00  0.00     0.006 A 
ENDBRANCH  44  58
BRANCH  45  66
ATOM     66  C   UNL A   1      41.733  23.389  26.999  1.00  0.00     0.057 A 
ATOM     67  C   UNL A   1      40.389  23.070  27.252  1.00  0.00     0.134 A 
ATOM     68  C   UNL A   1      42.458  22.441  26.258  1.00  0.00     0.134 A 
ATOM     69  F   UNL A   1      39.616  23.868  28.002  1.00  0.00    -0.206 F 
ATOM     70  C   UNL A   1      39.809  21.870  26.824  1.00  0.00     0.040 A 
ATOM     71  C   UNL A   1      41.891  21.231  25.830  1.00  0.00     0.040 A 
ATOM     72  F   UNL A   1      43.759  22.630  25.992  1.00  0.00    -0.206 F 
ATOM     73  C   UNL A   1      40.565  20.937  26.126  1.00  0.00     0.006 A 
ENDBRANCH  45  66
BRANCH  57  74
ATOM     74  C   UNL A   1      46.734  26.768  28.587  1.00  0.00     0.057 A 
ATOM     75  C   UNL A   1      48.058  26.473  28.244  1.00  0.00     0.134 A 
ATOM     76  C   UNL A   1      46.099  27.783  27.855  1.00  0.00     0.134 A 
ATOM     77  F   UNL A   1      48.749  25.554  28.938  1.00  0.00    -0.206 F 
ATOM     78  C   UNL A   1      48.720  27.144  27.215  1.00  0.00     0.040 A 
ATOM     79  C   UNL A   1      46.739  28.435  26.797  1.00  0.00     0.040 A 
ATOM     80  F   UNL A   1      44.870  28.208  28.175  1.00  0.00    -0.206 F 
ATOM     81  C   UNL A   1      48.057  28.120  26.478  1.00  0.00     0.006 A 
ENDBRANCH  57  74
ENDBRANCH  31  32
ENDBRANCH  23  26
ENDBRANCH  21  22
ENDBRANCH   1  21
TORSDOF 12
ENDMDL
