MODEL 1
REMARK VINA RESULT:      -9.4      0.000      0.000
REMARK SMILES COc1cnc(F)c(C(=O)NCCCCNC(=O)c2ccc(-c3c4nc(c(-c5c(F)cccc5F)c5ccc([nH]5)c(-c5c(F)cccc5F)c5nc(c(-c6c(F)cccc6F)c6ccc3[nH]6)C=C5)C=C4)cc2)c1
REMARK SMILES IDX 14 1 13 2 12 3 11 4 9 5 10 6 8 8 3 9 4 10 73 11 5 12 6 13
REMARK SMILES IDX 7 14 2 15 1 16 15 17 16 18 17 19 18 21 19 22 20 23 72 24
REMARK SMILES IDX 21 25 71 26 22 27 23 28 24 29 65 30 25 31 70 32 64 33 66 34
REMARK SMILES IDX 26 35 69 36 63 37 62 38 27 40 53 41 36 42 52 43 37 44 40 45
REMARK SMILES IDX 51 46 67 47 38 48 39 49 50 51 68 52 41 53 28 54 29 55 34 56
REMARK SMILES IDX 30 57 31 58 33 59 35 60 32 61 54 62 55 63 60 64 56 65 57 66
REMARK SMILES IDX 59 67 61 68 58 69 42 70 43 71 48 72 44 73 45 74 47 75 49 76
REMARK SMILES IDX 46 77
REMARK H PARENT 11 7 16 20 66 39 40 50
REMARK Flexibility Score: inf
ROOT
ATOM      1  C   UNL A   1      33.561  35.363  31.937  1.00  0.00     0.023 C 
ENDROOT
BRANCH   1   2
ATOM      2  C   UNL A   1      34.700  35.727  32.892  1.00  0.00     0.023 C 
BRANCH   2   3
ATOM      3  C   UNL A   1      35.760  34.638  33.074  1.00  0.00     0.116 C 
BRANCH   3   4
ATOM      4  N   UNL A   1      35.998  34.390  34.482  1.00  0.00    -0.352 N 
ATOM      5  C   UNL A   1      36.648  33.389  35.151  1.00  0.00     0.256 C 
ATOM      6  O   UNL A   1      36.650  33.463  36.382  1.00  0.00    -0.269 OA
ATOM      7  H   UNL A   1      35.617  35.079  35.073  1.00  0.00     0.163 HD
BRANCH   5   8
ATOM      8  C   UNL A   1      37.392  32.272  34.524  1.00  0.00     0.098 A 
ATOM      9  C   UNL A   1      39.389  30.900  34.585  1.00  0.00     0.138 A 
ATOM     10  C   UNL A   1      38.883  30.180  33.519  1.00  0.00     0.160 A 
ATOM     11  C   UNL A   1      38.655  31.980  35.065  1.00  0.00     0.066 A 
ATOM     12  N   UNL A   1      37.669  30.412  32.982  1.00  0.00    -0.224 NA
ATOM     13  C   UNL A   1      36.942  31.426  33.520  1.00  0.00     0.225 A 
ATOM     14  F   UNL A   1      35.695  31.512  33.049  1.00  0.00    -0.184 F 
BRANCH   9  15
ATOM     15  O   UNL A   1      40.592  30.541  35.118  1.00  0.00    -0.495 OA
ATOM     16  C   UNL A   1      41.074  29.341  34.505  1.00  0.00     0.278 C 
ENDBRANCH   9  15
ENDBRANCH   5   8
ENDBRANCH   3   4
ENDBRANCH   2   3
ENDBRANCH   1   2
BRANCH   1  17
ATOM     17  C   UNL A   1      33.492  36.201  30.666  1.00  0.00     0.116 C 
BRANCH  17  18
ATOM     18  N   UNL A   1      32.757  35.555  29.589  1.00  0.00    -0.352 N 
ATOM     19  C   UNL A   1      33.146  34.505  28.792  1.00  0.00     0.251 C 
ATOM     20  H   UNL A   1      31.861  35.919  29.407  1.00  0.00     0.163 HD
ATOM     21  O   UNL A   1      32.442  34.137  27.862  1.00  0.00    -0.269 OA
BRANCH  19  22
ATOM     22  C   UNL A   1      34.448  33.849  29.039  1.00  0.00     0.039 A 
ATOM     23  C   UNL A   1      35.594  34.402  28.462  1.00  0.00     0.014 A 
ATOM     24  C   UNL A   1      34.540  32.715  29.849  1.00  0.00     0.014 A 
ATOM     25  C   UNL A   1      36.845  33.857  28.754  1.00  0.00     0.010 A 
ATOM     26  C   UNL A   1      35.792  32.211  30.188  1.00  0.00     0.010 A 
ATOM     27  C   UNL A   1      36.955  32.779  29.647  1.00  0.00    -0.014 A 
BRANCH  27  28
ATOM     28  C   UNL A   1      38.279  32.237  30.035  1.00  0.00     0.031 A 
ATOM     29  C   UNL A   1      38.736  30.910  29.502  1.00  0.00     0.074 A 
ATOM     30  C   UNL A   1      39.035  32.908  30.924  1.00  0.00     0.049 A 
ATOM     31  N   UNL A   1      39.822  30.236  29.783  1.00  0.00    -0.248 NA
ATOM     32  C   UNL A   1      37.840  30.236  28.548  1.00  0.00     0.031 C 
ATOM     33  C   UNL A   1      38.677  34.182  31.552  1.00  0.00     0.029 A 
ATOM     34  N   UNL A   1      40.259  32.603  31.466  1.00  0.00    -0.354 N 
ATOM     35  C   UNL A   1      39.730  29.054  29.060  1.00  0.00     0.074 A 
ATOM     36  C   UNL A   1      38.465  29.083  28.359  1.00  0.00     0.031 C 
ATOM     37  C   UNL A   1      39.668  34.558  32.377  1.00  0.00     0.029 A 
ATOM     38  C   UNL A   1      40.712  33.540  32.362  1.00  0.00     0.049 A 
ATOM     39  H   UNL A   1      40.762  31.790  31.234  1.00  0.00     0.167 HD
ATOM     40  C   UNL A   1      40.629  28.046  28.974  1.00  0.00     0.037 A 
ATOM     41  C   UNL A   1      41.843  33.570  33.091  1.00  0.00     0.037 A 
ATOM     42  C   UNL A   1      41.903  28.036  29.642  1.00  0.00     0.049 A 
ATOM     43  C   UNL A   1      42.833  32.446  32.962  1.00  0.00     0.074 A 
ATOM     44  C   UNL A   1      42.915  27.096  29.555  1.00  0.00     0.029 A 
ATOM     45  N   UNL A   1      42.341  29.018  30.517  1.00  0.00    -0.354 N 
ATOM     46  N   UNL A   1      42.765  31.368  32.219  1.00  0.00    -0.248 NA
ATOM     47  C   UNL A   1      44.057  32.544  33.769  1.00  0.00     0.031 C 
ATOM     48  C   UNL A   1      43.953  27.492  30.407  1.00  0.00     0.029 A 
ATOM     49  C   UNL A   1      43.601  28.697  30.993  1.00  0.00     0.049 A 
ATOM     50  H   UNL A   1      41.832  29.823  30.764  1.00  0.00     0.167 HD
ATOM     51  C   UNL A   1      43.947  30.675  32.448  1.00  0.00     0.074 A 
ATOM     52  C   UNL A   1      44.716  31.459  33.392  1.00  0.00     0.031 C 
ATOM     53  C   UNL A   1      44.356  29.494  31.924  1.00  0.00     0.037 A 
BRANCH  40  54
ATOM     54  C   UNL A   1      40.265  26.869  28.119  1.00  0.00     0.057 A 
ATOM     55  C   UNL A   1      40.777  26.713  26.824  1.00  0.00     0.134 A 
ATOM     56  C   UNL A   1      39.420  25.865  28.606  1.00  0.00     0.134 A 
ATOM     57  F   UNL A   1      41.582  27.647  26.293  1.00  0.00    -0.206 F 
ATOM     58  C   UNL A   1      40.442  25.611  26.035  1.00  0.00     0.040 A 
ATOM     59  C   UNL A   1      39.096  24.747  27.835  1.00  0.00     0.040 A 
ATOM     60  F   UNL A   1      38.900  25.951  29.839  1.00  0.00    -0.206 F 
ATOM     61  C   UNL A   1      39.603  24.621  26.543  1.00  0.00     0.006 A 
ENDBRANCH  40  54
BRANCH  41  62
ATOM     62  C   UNL A   1      42.119  34.719  33.988  1.00  0.00     0.057 A 
ATOM     63  C   UNL A   1      41.826  34.649  35.354  1.00  0.00     0.134 A 
ATOM     64  C   UNL A   1      42.671  35.910  33.504  1.00  0.00     0.134 A 
ATOM     65  F   UNL A   1      41.279  33.538  35.871  1.00  0.00    -0.206 F 
ATOM     66  C   UNL A   1      42.053  35.730  36.207  1.00  0.00     0.040 A 
ATOM     67  C   UNL A   1      42.923  36.993  34.348  1.00  0.00     0.040 A 
ATOM     68  F   UNL A   1      42.979  36.036  32.205  1.00  0.00    -0.206 F 
ATOM     69  C   UNL A   1      42.607  36.906  35.703  1.00  0.00     0.006 A 
ENDBRANCH  41  62
BRANCH  53  70
ATOM     70  C   UNL A   1      45.711  28.999  32.333  1.00  0.00     0.057 A 
ATOM     71  C   UNL A   1      45.884  28.151  33.433  1.00  0.00     0.134 A 
ATOM     72  C   UNL A   1      46.849  29.345  31.593  1.00  0.00     0.134 A 
ATOM     73  F   UNL A   1      44.834  27.796  34.188  1.00  0.00    -0.206 F 
ATOM     74  C   UNL A   1      47.146  27.679  33.795  1.00  0.00     0.040 A 
ATOM     75  C   UNL A   1      48.112  28.862  31.933  1.00  0.00     0.040 A 
ATOM     76  F   UNL A   1      46.748  30.150  30.523  1.00  0.00    -0.206 F 
ATOM     77  C   UNL A   1      48.264  28.030  33.039  1.00  0.00     0.006 A 
ENDBRANCH  53  70
ENDBRANCH  27  28
ENDBRANCH  19  22
ENDBRANCH  17  18
ENDBRANCH   1  17
TORSDOF 12
ENDMDL
MODEL 2
REMARK VINA RESULT:      -9.2      0.360      6.564
REMARK SMILES COc1cnc(F)c(C(=O)NCCCCNC(=O)c2ccc(-c3c4nc(c(-c5c(F)cccc5F)c5ccc([nH]5)c(-c5c(F)cccc5F)c5nc(c(-c6c(F)cccc6F)c6ccc3[nH]6)C=C5)C=C4)cc2)c1
REMARK SMILES IDX 14 1 13 2 12 3 11 4 9 5 10 6 8 8 3 9 4 10 73 11 5 12 6 13
REMARK SMILES IDX 7 14 2 15 1 16 15 17 16 18 17 19 18 21 19 22 20 23 72 24
REMARK SMILES IDX 21 25 71 26 22 27 23 28 24 29 65 30 25 31 70 32 64 33 66 34
REMARK SMILES IDX 26 35 69 36 63 37 62 38 27 40 53 41 36 42 52 43 37 44 40 45
REMARK SMILES IDX 51 46 67 47 38 48 39 49 50 51 68 52 41 53 28 54 29 55 34 56
REMARK SMILES IDX 30 57 31 58 33 59 35 60 32 61 54 62 55 63 60 64 56 65 57 66
REMARK SMILES IDX 59 67 61 68 58 69 42 70 43 71 48 72 44 73 45 74 47 75 49 76
REMARK SMILES IDX 46 77
REMARK H PARENT 11 7 16 20 66 39 40 50
REMARK Flexibility Score: inf
ROOT
ATOM      1  C   UNL A   1      33.634  35.412  32.026  1.00  0.00     0.023 C 
ENDROOT
BRANCH   1   2
ATOM      2  C   UNL A   1      34.762  35.748  33.004  1.00  0.00     0.023 C 
BRANCH   2   3
ATOM      3  C   UNL A   1      35.832  34.664  33.149  1.00  0.00     0.116 C 
BRANCH   3   4
ATOM      4  N   UNL A   1      36.098  34.397  34.549  1.00  0.00    -0.352 N 
ATOM      5  C   UNL A   1      36.763  33.388  35.190  1.00  0.00     0.256 C 
ATOM      6  O   UNL A   1      36.789  33.444  36.422  1.00  0.00    -0.269 OA
ATOM      7  H   UNL A   1      35.727  35.075  35.157  1.00  0.00     0.163 HD
BRANCH   5   8
ATOM      8  C   UNL A   1      37.498  32.281  34.533  1.00  0.00     0.098 A 
ATOM      9  C   UNL A   1      39.534  30.970  34.483  1.00  0.00     0.138 A 
ATOM     10  C   UNL A   1      38.982  30.216  33.464  1.00  0.00     0.160 A 
ATOM     11  C   UNL A   1      38.802  32.036  34.994  1.00  0.00     0.066 A 
ATOM     12  N   UNL A   1      37.728  30.404  33.005  1.00  0.00    -0.224 NA
ATOM     13  C   UNL A   1      37.009  31.406  33.574  1.00  0.00     0.225 A 
ATOM     14  F   UNL A   1      35.731  31.448  33.185  1.00  0.00    -0.184 F 
BRANCH   9  15
ATOM     15  O   UNL A   1      40.780  30.654  34.941  1.00  0.00    -0.495 OA
ATOM     16  C   UNL A   1      41.245  29.445  34.335  1.00  0.00     0.278 C 
ENDBRANCH   9  15
ENDBRANCH   5   8
ENDBRANCH   3   4
ENDBRANCH   2   3
ENDBRANCH   1   2
BRANCH   1  17
ATOM     17  C   UNL A   1      33.594  36.270  30.767  1.00  0.00     0.116 C 
BRANCH  17  18
ATOM     18  N   UNL A   1      32.818  35.676  29.689  1.00  0.00    -0.352 N 
ATOM     19  C   UNL A   1      33.146  34.618  28.876  1.00  0.00     0.251 C 
ATOM     20  H   UNL A   1      31.940  36.088  29.519  1.00  0.00     0.163 HD
ATOM     21  O   UNL A   1      32.415  34.298  27.947  1.00  0.00    -0.269 OA
BRANCH  19  22
ATOM     22  C   UNL A   1      34.414  33.893  29.103  1.00  0.00     0.039 A 
ATOM     23  C   UNL A   1      35.572  34.363  28.478  1.00  0.00     0.014 A 
ATOM     24  C   UNL A   1      34.465  32.775  29.940  1.00  0.00     0.014 A 
ATOM     25  C   UNL A   1      36.797  33.753  28.749  1.00  0.00     0.010 A 
ATOM     26  C   UNL A   1      35.695  32.207  30.256  1.00  0.00     0.010 A 
ATOM     27  C   UNL A   1      36.872  32.693  29.667  1.00  0.00    -0.014 A 
BRANCH  27  28
ATOM     28  C   UNL A   1      38.174  32.084  30.031  1.00  0.00     0.031 A 
ATOM     29  C   UNL A   1      39.136  32.830  30.908  1.00  0.00     0.074 A 
ATOM     30  C   UNL A   1      38.516  30.890  29.509  1.00  0.00     0.049 A 
ATOM     31  N   UNL A   1      40.348  32.499  31.273  1.00  0.00    -0.248 NA
ATOM     32  C   UNL A   1      38.689  34.135  31.420  1.00  0.00     0.031 C 
ATOM     33  C   UNL A   1      37.688  30.092  28.604  1.00  0.00     0.029 A 
ATOM     34  N   UNL A   1      39.659  30.147  29.656  1.00  0.00    -0.354 N 
ATOM     35  C   UNL A   1      40.815  33.560  32.038  1.00  0.00     0.074 A 
ATOM     36  C   UNL A   1      39.773  34.563  32.052  1.00  0.00     0.031 C 
ATOM     37  C   UNL A   1      38.343  28.961  28.292  1.00  0.00     0.029 A 
ATOM     38  C   UNL A   1      39.645  28.970  28.948  1.00  0.00     0.049 A 
ATOM     39  H   UNL A   1      40.417  30.430  30.217  1.00  0.00     0.167 HD
ATOM     40  C   UNL A   1      41.998  33.678  32.686  1.00  0.00     0.037 A 
ATOM     41  C   UNL A   1      40.582  28.010  28.838  1.00  0.00     0.037 A 
ATOM     42  C   UNL A   1      43.017  32.663  32.702  1.00  0.00     0.049 A 
ATOM     43  C   UNL A   1      41.879  28.157  29.583  1.00  0.00     0.074 A 
ATOM     44  C   UNL A   1      44.217  32.657  33.393  1.00  0.00     0.029 A 
ATOM     45  N   UNL A   1      42.954  31.471  31.997  1.00  0.00    -0.354 N 
ATOM     46  N   UNL A   1      42.278  29.134  30.360  1.00  0.00    -0.248 NA
ATOM     47  C   UNL A   1      42.854  27.067  29.438  1.00  0.00     0.031 C 
ATOM     48  C   UNL A   1      44.896  31.475  33.077  1.00  0.00     0.029 A 
ATOM     49  C   UNL A   1      44.102  30.730  32.221  1.00  0.00     0.049 A 
ATOM     50  H   UNL A   1      42.205  31.194  31.422  1.00  0.00     0.167 HD
ATOM     51  C   UNL A   1      43.536  28.765  30.818  1.00  0.00     0.074 A 
ATOM     52  C   UNL A   1      43.830  27.471  30.239  1.00  0.00     0.031 C 
ATOM     53  C   UNL A   1      44.372  29.439  31.644  1.00  0.00     0.037 A 
BRANCH  40  54
ATOM     54  C   UNL A   1      42.249  34.951  33.437  1.00  0.00     0.057 A 
ATOM     55  C   UNL A   1      42.954  36.018  32.864  1.00  0.00     0.134 A 
ATOM     56  C   UNL A   1      41.754  35.126  34.735  1.00  0.00     0.134 A 
ATOM     57  F   UNL A   1      43.465  35.909  31.628  1.00  0.00    -0.206 F 
ATOM     58  C   UNL A   1      43.178  37.204  33.565  1.00  0.00     0.040 A 
ATOM     59  C   UNL A   1      41.953  36.315  35.437  1.00  0.00     0.040 A 
ATOM     60  F   UNL A   1      41.068  34.145  35.340  1.00  0.00    -0.206 F 
ATOM     61  C   UNL A   1      42.671  37.357  34.854  1.00  0.00     0.006 A 
ENDBRANCH  40  54
BRANCH  41  62
ATOM     62  C   UNL A   1      40.318  26.805  28.013  1.00  0.00     0.057 A 
ATOM     63  C   UNL A   1      40.855  26.685  26.727  1.00  0.00     0.134 A 
ATOM     64  C   UNL A   1      39.521  25.756  28.483  1.00  0.00     0.134 A 
ATOM     65  F   UNL A   1      41.614  27.667  26.217  1.00  0.00    -0.206 F 
ATOM     66  C   UNL A   1      40.595  25.571  25.927  1.00  0.00     0.040 A 
ATOM     67  C   UNL A   1      39.268  24.626  27.702  1.00  0.00     0.040 A 
ATOM     68  F   UNL A   1      38.982  25.810  29.710  1.00  0.00    -0.206 F 
ATOM     69  C   UNL A   1      39.800  24.535  26.417  1.00  0.00     0.006 A 
ENDBRANCH  41  62
BRANCH  53  70
ATOM     70  C   UNL A   1      45.667  28.771  31.997  1.00  0.00     0.057 A 
ATOM     71  C   UNL A   1      46.829  28.971  31.241  1.00  0.00     0.134 A 
ATOM     72  C   UNL A   1      45.760  27.951  33.128  1.00  0.00     0.134 A 
ATOM     73  F   UNL A   1      46.799  29.735  30.139  1.00  0.00    -0.206 F 
ATOM     74  C   UNL A   1      48.034  28.361  31.588  1.00  0.00     0.040 A 
ATOM     75  C   UNL A   1      46.966  27.353  33.496  1.00  0.00     0.040 A 
ATOM     76  F   UNL A   1      44.684  27.726  33.897  1.00  0.00    -0.206 F 
ATOM     77  C   UNL A   1      48.107  27.554  32.723  1.00  0.00     0.006 A 
ENDBRANCH  53  70
ENDBRANCH  27  28
ENDBRANCH  19  22
ENDBRANCH  17  18
ENDBRANCH   1  17
TORSDOF 12
ENDMDL
MODEL 3
REMARK VINA RESULT:      -9.1      4.142      6.775
REMARK SMILES COc1cnc(F)c(C(=O)NCCCCNC(=O)c2ccc(-c3c4nc(c(-c5c(F)cccc5F)c5ccc([nH]5)c(-c5c(F)cccc5F)c5nc(c(-c6c(F)cccc6F)c6ccc3[nH]6)C=C5)C=C4)cc2)c1
REMARK SMILES IDX 14 1 13 2 12 3 11 4 9 5 10 6 8 8 3 9 4 10 73 11 5 12 6 13
REMARK SMILES IDX 7 14 2 15 1 16 15 17 16 18 17 19 18 21 19 22 20 23 72 24
REMARK SMILES IDX 21 25 71 26 22 27 23 28 24 29 65 30 25 31 70 32 64 33 66 34
REMARK SMILES IDX 26 35 69 36 63 37 62 38 27 40 53 41 36 42 52 43 37 44 40 45
REMARK SMILES IDX 51 46 67 47 38 48 39 49 50 51 68 52 41 53 28 54 29 55 34 56
REMARK SMILES IDX 30 57 31 58 33 59 35 60 32 61 54 62 55 63 60 64 56 65 57 66
REMARK SMILES IDX 59 67 61 68 58 69 42 70 43 71 48 72 44 73 45 74 47 75 49 76
REMARK SMILES IDX 46 77
REMARK H PARENT 11 7 16 20 66 39 40 50
REMARK Flexibility Score: inf
ROOT
ATOM      1  C   UNL A   1      31.626  30.754  26.070  1.00  0.00     0.023 C 
ENDROOT
BRANCH   1   2
ATOM      2  C   UNL A   1      32.245  29.705  25.145  1.00  0.00     0.023 C 
BRANCH   2   3
ATOM      3  C   UNL A   1      31.614  28.314  25.236  1.00  0.00     0.116 C 
BRANCH   3   4
ATOM      4  N   UNL A   1      31.548  27.699  23.925  1.00  0.00    -0.352 N 
ATOM      5  C   UNL A   1      30.668  27.825  22.884  1.00  0.00     0.256 C 
ATOM      6  O   UNL A   1      30.887  27.125  21.892  1.00  0.00    -0.269 OA
ATOM      7  H   UNL A   1      32.280  27.065  23.749  1.00  0.00     0.163 HD
BRANCH   5   8
ATOM      8  C   UNL A   1      29.525  28.766  22.828  1.00  0.00     0.098 A 
ATOM      9  C   UNL A   1      28.759  30.960  22.144  1.00  0.00     0.138 A 
ATOM     10  C   UNL A   1      27.495  30.618  22.589  1.00  0.00     0.160 A 
ATOM     11  C   UNL A   1      29.791  30.041  22.302  1.00  0.00     0.066 A 
ATOM     12  N   UNL A   1      27.192  29.401  23.082  1.00  0.00    -0.224 NA
ATOM     13  C   UNL A   1      28.204  28.498  23.155  1.00  0.00     0.225 A 
ATOM     14  F   UNL A   1      27.814  27.270  23.510  1.00  0.00    -0.184 F 
BRANCH   9  15
ATOM     15  O   UNL A   1      28.955  32.188  21.582  1.00  0.00    -0.495 OA
ATOM     16  C   UNL A   1      27.821  32.566  20.795  1.00  0.00     0.278 C 
ENDBRANCH   9  15
ENDBRANCH   5   8
ENDBRANCH   3   4
ENDBRANCH   2   3
ENDBRANCH   1   2
BRANCH   1  17
ATOM     17  C   UNL A   1      32.605  31.440  27.014  1.00  0.00     0.116 C 
BRANCH  17  18
ATOM     18  N   UNL A   1      32.246  32.818  27.316  1.00  0.00    -0.352 N 
ATOM     19  C   UNL A   1      32.943  33.747  28.049  1.00  0.00     0.251 C 
ATOM     20  H   UNL A   1      31.388  33.126  26.944  1.00  0.00     0.163 HD
ATOM     21  O   UNL A   1      32.455  34.844  28.289  1.00  0.00    -0.269 OA
BRANCH  19  22
ATOM     22  C   UNL A   1      34.274  33.397  28.588  1.00  0.00     0.039 A 
ATOM     23  C   UNL A   1      34.342  32.695  29.794  1.00  0.00     0.014 A 
ATOM     24  C   UNL A   1      35.442  33.737  27.900  1.00  0.00     0.014 A 
ATOM     25  C   UNL A   1      35.582  32.272  30.277  1.00  0.00     0.010 A 
ATOM     26  C   UNL A   1      36.670  33.262  28.350  1.00  0.00     0.010 A 
ATOM     27  C   UNL A   1      36.750  32.523  29.540  1.00  0.00    -0.014 A 
BRANCH  27  28
ATOM     28  C   UNL A   1      38.067  32.012  29.993  1.00  0.00     0.031 A 
ATOM     29  C   UNL A   1      38.591  30.708  29.466  1.00  0.00     0.074 A 
ATOM     30  C   UNL A   1      38.752  32.689  30.933  1.00  0.00     0.049 A 
ATOM     31  N   UNL A   1      39.679  30.061  29.796  1.00  0.00    -0.248 NA
ATOM     32  C   UNL A   1      37.769  30.025  28.453  1.00  0.00     0.031 C 
ATOM     33  C   UNL A   1      38.323  33.941  31.560  1.00  0.00     0.029 A 
ATOM     34  N   UNL A   1      39.952  32.410  31.537  1.00  0.00    -0.354 N 
ATOM     35  C   UNL A   1      39.663  28.889  29.051  1.00  0.00     0.074 A 
ATOM     36  C   UNL A   1      38.438  28.894  28.281  1.00  0.00     0.031 C 
ATOM     37  C   UNL A   1      39.255  34.331  32.445  1.00  0.00     0.029 A 
ATOM     38  C   UNL A   1      40.328  33.344  32.472  1.00  0.00     0.049 A 
ATOM     39  H   UNL A   1      40.492  31.616  31.321  1.00  0.00     0.167 HD
ATOM     40  C   UNL A   1      40.594  27.909  28.999  1.00  0.00     0.037 A 
ATOM     41  C   UNL A   1      41.415  33.394  33.263  1.00  0.00     0.037 A 
ATOM     42  C   UNL A   1      41.829  27.924  29.737  1.00  0.00     0.049 A 
ATOM     43  C   UNL A   1      42.443  32.300  33.172  1.00  0.00     0.074 A 
ATOM     44  C   UNL A   1      42.872  27.015  29.693  1.00  0.00     0.029 A 
ATOM     45  N   UNL A   1      42.189  28.903  30.651  1.00  0.00    -0.354 N 
ATOM     46  N   UNL A   1      42.449  31.234  32.410  1.00  0.00    -0.248 NA
ATOM     47  C   UNL A   1      43.617  32.420  34.048  1.00  0.00     0.031 C 
ATOM     48  C   UNL A   1      43.848  27.426  30.607  1.00  0.00     0.029 A 
ATOM     49  C   UNL A   1      43.429  28.609  31.191  1.00  0.00     0.049 A 
ATOM     50  H   UNL A   1      41.643  29.688  30.882  1.00  0.00     0.167 HD
ATOM     51  C   UNL A   1      43.636  30.571  32.694  1.00  0.00     0.074 A 
ATOM     52  C   UNL A   1      44.328  31.361  33.691  1.00  0.00     0.031 C 
ATOM     53  C   UNL A   1      44.108  29.412  32.175  1.00  0.00     0.037 A 
BRANCH  40  54
ATOM     54  C   UNL A   1      40.313  26.736  28.107  1.00  0.00     0.057 A 
ATOM     55  C   UNL A   1      40.882  26.629  26.831  1.00  0.00     0.134 A 
ATOM     56  C   UNL A   1      39.491  25.689  28.540  1.00  0.00     0.134 A 
ATOM     57  F   UNL A   1      41.668  27.606  26.352  1.00  0.00    -0.206 F 
ATOM     58  C   UNL A   1      40.623  25.532  26.008  1.00  0.00     0.040 A 
ATOM     59  C   UNL A   1      39.244  24.576  27.735  1.00  0.00     0.040 A 
ATOM     60  F   UNL A   1      38.919  25.728  29.752  1.00  0.00    -0.206 F 
ATOM     61  C   UNL A   1      39.807  24.498  26.462  1.00  0.00     0.006 A 
ENDBRANCH  40  54
BRANCH  41  62
ATOM     62  C   UNL A   1      41.607  34.534  34.192  1.00  0.00     0.057 A 
ATOM     63  C   UNL A   1      41.151  34.468  35.513  1.00  0.00     0.134 A 
ATOM     64  C   UNL A   1      42.238  35.714  33.783  1.00  0.00     0.134 A 
ATOM     65  F   UNL A   1      40.523  33.368  35.956  1.00  0.00    -0.206 F 
ATOM     66  C   UNL A   1      41.299  35.542  36.392  1.00  0.00     0.040 A 
ATOM     67  C   UNL A   1      42.411  36.789  34.656  1.00  0.00     0.040 A 
ATOM     68  F   UNL A   1      42.702  35.836  32.530  1.00  0.00    -0.206 F 
ATOM     69  C   UNL A   1      41.935  36.707  35.964  1.00  0.00     0.006 A 
ENDBRANCH  41  62
BRANCH  53  70
ATOM     70  C   UNL A   1      45.452  28.949  32.651  1.00  0.00     0.057 A 
ATOM     71  C   UNL A   1      46.636  29.362  32.028  1.00  0.00     0.134 A 
ATOM     72  C   UNL A   1      45.563  28.112  33.768  1.00  0.00     0.134 A 
ATOM     73  F   UNL A   1      46.594  30.153  30.945  1.00  0.00    -0.206 F 
ATOM     74  C   UNL A   1      47.884  28.942  32.489  1.00  0.00     0.040 A 
ATOM     75  C   UNL A   1      46.805  27.704  34.251  1.00  0.00     0.040 A 
ATOM     76  F   UNL A   1      44.465  27.688  34.412  1.00  0.00    -0.206 F 
ATOM     77  C   UNL A   1      47.971  28.116  33.609  1.00  0.00     0.006 A 
ENDBRANCH  53  70
ENDBRANCH  27  28
ENDBRANCH  19  22
ENDBRANCH  17  18
ENDBRANCH   1  17
TORSDOF 12
ENDMDL
