MODEL 1
REMARK VINA RESULT:     -11.1      0.000      0.000
REMARK SMILES COc1ccc(-c2sc(N)nc2C(=O)NCCCCNC(=O)c2ccc(-c3c4nc(c(-c5c(F)cccc5F)c5ccc([nH]5)c(-c5c(F)cccc5F)c5nc(c(-c6c(F)cccc6F)c6ccc3[nH]6)C=C5)C=C4)cc2)cc1OC
REMARK SMILES IDX 17 1 16 2 15 3 13 4 14 5 12 7 7 8 8 9 9 10 11 11 6 12 3 13
REMARK SMILES IDX 4 14 78 15 5 16 77 17 2 18 1 19 79 20 80 21 10 22 18 25
REMARK SMILES IDX 19 26 20 27 21 28 22 30 23 31 24 32 76 33 25 34 75 35 26 36
REMARK SMILES IDX 27 37 28 38 69 39 29 40 74 41 68 42 70 43 30 44 73 45 67 46
REMARK SMILES IDX 66 47 31 49 57 50 40 51 56 52 41 53 44 54 55 55 71 56 42 57
REMARK SMILES IDX 43 58 54 60 72 61 45 62 32 63 33 64 38 65 34 66 35 67 37 68
REMARK SMILES IDX 39 69 36 70 58 71 59 72 64 73 60 74 61 75 63 76 65 77 62 78
REMARK SMILES IDX 46 79 47 80 52 81 48 82 49 83 51 84 53 85 50 86
REMARK H PARENT 15 6 10 23 10 24 20 29 70 48 44 59
REMARK Flexibility Score: inf
ROOT
ATOM      1  C   UNL A   1      34.026  28.398  24.618  1.00  0.00     0.023 C 
ENDROOT
BRANCH   1   2
ATOM      2  C   UNL A   1      33.460  28.716  23.234  1.00  0.00     0.116 C 
BRANCH   2   3
ATOM      3  N   UNL A   1      33.673  27.629  22.297  1.00  0.00    -0.351 N 
ATOM      4  C   UNL A   1      33.097  26.384  22.181  1.00  0.00     0.271 C 
ATOM      5  O   UNL A   1      33.514  25.690  21.251  1.00  0.00    -0.267 OA
ATOM      6  H   UNL A   1      34.358  27.818  21.616  1.00  0.00     0.163 HD
BRANCH   4   7
ATOM      7  C   UNL A   1      32.044  25.922  23.102  1.00  0.00     0.149 A 
ATOM      8  C   UNL A   1      32.226  24.930  24.064  1.00  0.00     0.069 A 
ATOM      9  S   UNL A   1      30.750  24.633  24.892  1.00  0.00    -0.096 S 
ATOM     10  C   UNL A   1      29.988  25.850  23.969  1.00  0.00     0.181 A 
ATOM     11  N   UNL A   1      30.743  26.428  23.076  1.00  0.00    -0.215 NA
BRANCH   8  12
ATOM     12  C   UNL A   1      33.430  24.207  24.476  1.00  0.00    -0.002 A 
ATOM     13  C   UNL A   1      35.664  22.737  25.341  1.00  0.00     0.160 A 
ATOM     14  C   UNL A   1      35.648  24.136  25.447  1.00  0.00     0.051 A 
ATOM     15  C   UNL A   1      34.563  22.062  24.803  1.00  0.00     0.161 A 
ATOM     16  C   UNL A   1      34.540  24.869  25.008  1.00  0.00     0.014 A 
ATOM     17  C   UNL A   1      33.460  22.809  24.371  1.00  0.00     0.060 A 
BRANCH  13  18
ATOM     18  O   UNL A   1      36.717  22.050  25.884  1.00  0.00    -0.493 OA
ATOM     19  C   UNL A   1      37.648  21.617  24.893  1.00  0.00     0.278 C 
ENDBRANCH  13  18
BRANCH  15  20
ATOM     20  O   UNL A   1      34.379  20.716  24.643  1.00  0.00    -0.493 OA
ATOM     21  C   UNL A   1      33.061  20.201  24.735  1.00  0.00     0.278 C 
ENDBRANCH  15  20
ENDBRANCH   8  12
BRANCH  10  22
ATOM     22  N   UNL A   1      28.709  26.186  24.157  1.00  0.00    -0.375 N 
ATOM     23  H   UNL A   1      27.997  25.527  23.992  1.00  0.00     0.159 HD
ATOM     24  H   UNL A   1      28.478  27.095  24.459  1.00  0.00     0.159 HD
ENDBRANCH  10  22
ENDBRANCH   4   7
ENDBRANCH   2   3
ENDBRANCH   1   2
BRANCH   1  25
ATOM     25  C   UNL A   1      33.121  28.789  25.790  1.00  0.00     0.023 C 
BRANCH  25  26
ATOM     26  C   UNL A   1      33.800  28.853  27.155  1.00  0.00     0.116 C 
BRANCH  26  27
ATOM     27  N   UNL A   1      33.789  30.183  27.748  1.00  0.00    -0.352 N 
ATOM     28  C   UNL A   1      34.793  30.826  28.433  1.00  0.00     0.251 C 
ATOM     29  H   UNL A   1      32.950  30.689  27.644  1.00  0.00     0.163 HD
ATOM     30  O   UNL A   1      34.593  31.918  28.957  1.00  0.00    -0.269 OA
BRANCH  28  31
ATOM     31  C   UNL A   1      36.109  30.170  28.570  1.00  0.00     0.039 A 
ATOM     32  C   UNL A   1      37.002  30.211  27.497  1.00  0.00     0.014 A 
ATOM     33  C   UNL A   1      36.475  29.559  29.772  1.00  0.00     0.014 A 
ATOM     34  C   UNL A   1      38.298  29.716  27.656  1.00  0.00     0.010 A 
ATOM     35  C   UNL A   1      37.784  29.124  29.950  1.00  0.00     0.010 A 
ATOM     36  C   UNL A   1      38.711  29.209  28.899  1.00  0.00    -0.014 A 
BRANCH  36  37
ATOM     37  C   UNL A   1      40.111  28.776  29.139  1.00  0.00     0.031 A 
ATOM     38  C   UNL A   1      41.106  29.743  29.713  1.00  0.00     0.074 A 
ATOM     39  C   UNL A   1      40.508  27.550  28.748  1.00  0.00     0.049 A 
ATOM     40  N   UNL A   1      42.400  29.612  29.857  1.00  0.00    -0.248 NA
ATOM     41  C   UNL A   1      40.579  31.043  30.156  1.00  0.00     0.031 C 
ATOM     42  C   UNL A   1      39.648  26.530  28.144  1.00  0.00     0.029 A 
ATOM     43  N   UNL A   1      41.748  26.960  28.778  1.00  0.00    -0.354 N 
ATOM     44  C   UNL A   1      42.845  30.817  30.382  1.00  0.00     0.074 A 
ATOM     45  C   UNL A   1      41.689  31.682  30.494  1.00  0.00     0.031 C 
ATOM     46  C   UNL A   1      40.383  25.440  27.869  1.00  0.00     0.029 A 
ATOM     47  C   UNL A   1      41.771  25.698  28.237  1.00  0.00     0.049 A 
ATOM     48  H   UNL A   1      42.545  27.401  29.153  1.00  0.00     0.167 HD
ATOM     49  C   UNL A   1      44.100  31.167  30.752  1.00  0.00     0.037 A 
ATOM     50  C   UNL A   1      42.799  24.850  28.042  1.00  0.00     0.037 A 
ATOM     51  C   UNL A   1      45.240  30.294  30.670  1.00  0.00     0.049 A 
ATOM     52  C   UNL A   1      44.185  25.263  28.456  1.00  0.00     0.074 A 
ATOM     53  C   UNL A   1      46.540  30.535  31.078  1.00  0.00     0.029 A 
ATOM     54  N   UNL A   1      45.216  29.012  30.143  1.00  0.00    -0.354 N 
ATOM     55  N   UNL A   1      44.583  26.387  29.001  1.00  0.00    -0.248 NA
ATOM     56  C   UNL A   1      45.265  24.293  28.226  1.00  0.00     0.031 C 
ATOM     57  C   UNL A   1      47.311  29.411  30.766  1.00  0.00     0.029 A 
ATOM     58  C   UNL A   1      46.482  28.454  30.202  1.00  0.00     0.049 A 
ATOM     59  H   UNL A   1      44.417  28.563  29.782  1.00  0.00     0.167 HD
ATOM     60  C   UNL A   1      45.948  26.247  29.207  1.00  0.00     0.074 A 
ATOM     61  C   UNL A   1      46.312  24.928  28.733  1.00  0.00     0.031 C 
ATOM     62  C   UNL A   1      46.823  27.132  29.743  1.00  0.00     0.037 A 
BRANCH  49  63
ATOM     63  C   UNL A   1      44.302  32.555  31.284  1.00  0.00     0.057 A 
ATOM     64  C   UNL A   1      44.611  33.629  30.441  1.00  0.00     0.134 A 
ATOM     65  C   UNL A   1      44.156  32.825  32.650  1.00  0.00     0.134 A 
ATOM     66  F   UNL A   1      44.776  33.435  29.124  1.00  0.00    -0.206 F 
ATOM     67  C   UNL A   1      44.792  34.920  30.940  1.00  0.00     0.040 A 
ATOM     68  C   UNL A   1      44.309  34.115  33.158  1.00  0.00     0.040 A 
ATOM     69  F   UNL A   1      43.855  31.842  33.512  1.00  0.00    -0.206 F 
ATOM     70  C   UNL A   1      44.635  35.166  32.303  1.00  0.00     0.006 A 
ENDBRANCH  49  63
BRANCH  50  71
ATOM     71  C   UNL A   1      42.559  23.517  27.436  1.00  0.00     0.057 A 
ATOM     72  C   UNL A   1      42.650  23.331  26.051  1.00  0.00     0.134 A 
ATOM     73  C   UNL A   1      42.230  22.403  28.217  1.00  0.00     0.134 A 
ATOM     74  F   UNL A   1      42.942  24.365  25.249  1.00  0.00    -0.206 F 
ATOM     75  C   UNL A   1      42.406  22.089  25.462  1.00  0.00     0.040 A 
ATOM     76  C   UNL A   1      42.005  21.150  27.644  1.00  0.00     0.040 A 
ATOM     77  F   UNL A   1      42.133  22.516  29.549  1.00  0.00    -0.206 F 
ATOM     78  C   UNL A   1      42.087  20.993  26.262  1.00  0.00     0.006 A 
ENDBRANCH  50  71
BRANCH  62  79
ATOM     79  C   UNL A   1      48.248  26.692  29.890  1.00  0.00     0.057 A 
ATOM     80  C   UNL A   1      48.674  25.916  30.975  1.00  0.00     0.134 A 
ATOM     81  C   UNL A   1      49.190  26.997  28.899  1.00  0.00     0.134 A 
ATOM     82  F   UNL A   1      47.823  25.602  31.962  1.00  0.00    -0.206 F 
ATOM     83  C   UNL A   1      49.992  25.467  31.073  1.00  0.00     0.040 A 
ATOM     84  C   UNL A   1      50.504  26.536  28.977  1.00  0.00     0.040 A 
ATOM     85  F   UNL A   1      48.842  27.732  27.832  1.00  0.00    -0.206 F 
ATOM     86  C   UNL A   1      50.909  25.769  30.068  1.00  0.00     0.006 A 
ENDBRANCH  62  79
ENDBRANCH  36  37
ENDBRANCH  28  31
ENDBRANCH  26  27
ENDBRANCH  25  26
ENDBRANCH   1  25
TORSDOF 15
ENDMDL
MODEL 2
REMARK VINA RESULT:     -11.1      2.682      7.759
REMARK SMILES COc1ccc(-c2sc(N)nc2C(=O)NCCCCNC(=O)c2ccc(-c3c4nc(c(-c5c(F)cccc5F)c5ccc([nH]5)c(-c5c(F)cccc5F)c5nc(c(-c6c(F)cccc6F)c6ccc3[nH]6)C=C5)C=C4)cc2)cc1OC
REMARK SMILES IDX 17 1 16 2 15 3 13 4 14 5 12 7 7 8 8 9 9 10 11 11 6 12 3 13
REMARK SMILES IDX 4 14 78 15 5 16 77 17 2 18 1 19 79 20 80 21 10 22 18 25
REMARK SMILES IDX 19 26 20 27 21 28 22 30 23 31 24 32 76 33 25 34 75 35 26 36
REMARK SMILES IDX 27 37 28 38 69 39 29 40 74 41 68 42 70 43 30 44 73 45 67 46
REMARK SMILES IDX 66 47 31 49 57 50 40 51 56 52 41 53 44 54 55 55 71 56 42 57
REMARK SMILES IDX 43 58 54 60 72 61 45 62 32 63 33 64 38 65 34 66 35 67 37 68
REMARK SMILES IDX 39 69 36 70 58 71 59 72 64 73 60 74 61 75 63 76 65 77 62 78
REMARK SMILES IDX 46 79 47 80 52 81 48 82 49 83 51 84 53 85 50 86
REMARK H PARENT 15 6 10 23 10 24 20 29 70 48 44 59
REMARK Flexibility Score: inf
ROOT
ATOM      1  C   UNL A   1      39.179  22.573  26.384  1.00  0.00     0.023 C 
ENDROOT
BRANCH   1   2
ATOM      2  C   UNL A   1      37.867  23.260  26.004  1.00  0.00     0.116 C 
BRANCH   2   3
ATOM      3  N   UNL A   1      37.638  23.236  24.571  1.00  0.00    -0.351 N 
ATOM      4  C   UNL A   1      36.562  22.829  23.816  1.00  0.00     0.271 C 
ATOM      5  O   UNL A   1      36.694  22.946  22.595  1.00  0.00    -0.267 OA
ATOM      6  H   UNL A   1      38.393  23.576  24.041  1.00  0.00     0.163 HD
BRANCH   4   7
ATOM      7  C   UNL A   1      35.332  22.299  24.430  1.00  0.00     0.149 A 
ATOM      8  C   UNL A   1      34.204  23.068  24.711  1.00  0.00     0.069 A 
ATOM      9  S   UNL A   1      33.008  22.101  25.480  1.00  0.00    -0.096 S 
ATOM     10  C   UNL A   1      34.028  20.738  25.352  1.00  0.00     0.181 A 
ATOM     11  N   UNL A   1      35.195  20.964  24.813  1.00  0.00    -0.215 NA
BRANCH   8  12
ATOM     12  C   UNL A   1      33.899  24.466  24.405  1.00  0.00    -0.002 A 
ATOM     13  C   UNL A   1      33.414  27.151  23.731  1.00  0.00     0.160 A 
ATOM     14  C   UNL A   1      33.549  26.768  25.074  1.00  0.00     0.051 A 
ATOM     15  C   UNL A   1      33.522  26.195  22.715  1.00  0.00     0.161 A 
ATOM     16  C   UNL A   1      33.780  25.430  25.411  1.00  0.00     0.014 A 
ATOM     17  C   UNL A   1      33.758  24.861  23.068  1.00  0.00     0.060 A 
BRANCH  13  18
ATOM     18  O   UNL A   1      33.300  28.484  23.437  1.00  0.00    -0.493 OA
ATOM     19  C   UNL A   1      33.257  29.294  24.610  1.00  0.00     0.278 C 
ENDBRANCH  13  18
BRANCH  15  20
ATOM     20  O   UNL A   1      33.449  26.374  21.360  1.00  0.00    -0.493 OA
ATOM     21  C   UNL A   1      32.527  25.586  20.626  1.00  0.00     0.278 C 
ENDBRANCH  15  20
ENDBRANCH   8  12
BRANCH  10  22
ATOM     22  N   UNL A   1      33.650  19.528  25.771  1.00  0.00    -0.375 N 
ATOM     23  H   UNL A   1      33.536  18.796  25.123  1.00  0.00     0.159 HD
ATOM     24  H   UNL A   1      33.486  19.368  26.729  1.00  0.00     0.159 HD
ENDBRANCH  10  22
ENDBRANCH   4   7
ENDBRANCH   2   3
ENDBRANCH   1   2
BRANCH   1  25
ATOM     25  C   UNL A   1      39.353  21.160  25.819  1.00  0.00     0.023 C 
BRANCH  25  26
ATOM     26  C   UNL A   1      40.031  20.157  26.747  1.00  0.00     0.116 C 
BRANCH  26  27
ATOM     27  N   UNL A   1      41.081  19.383  26.099  1.00  0.00    -0.352 N 
ATOM     28  C   UNL A   1      42.351  19.780  25.753  1.00  0.00     0.251 C 
ATOM     29  H   UNL A   1      40.850  18.451  25.880  1.00  0.00     0.163 HD
ATOM     30  O   UNL A   1      43.090  19.031  25.121  1.00  0.00    -0.269 OA
BRANCH  28  31
ATOM     31  C   UNL A   1      42.806  21.139  26.111  1.00  0.00     0.039 A 
ATOM     32  C   UNL A   1      43.006  22.077  25.095  1.00  0.00     0.014 A 
ATOM     33  C   UNL A   1      42.989  21.496  27.450  1.00  0.00     0.014 A 
ATOM     34  C   UNL A   1      43.304  23.401  25.425  1.00  0.00     0.010 A 
ATOM     35  C   UNL A   1      43.222  22.827  27.778  1.00  0.00     0.010 A 
ATOM     36  C   UNL A   1      43.370  23.794  26.771  1.00  0.00    -0.014 A 
BRANCH  36  37
ATOM     37  C   UNL A   1      43.575  25.212  27.161  1.00  0.00     0.031 A 
ATOM     38  C   UNL A   1      44.965  25.772  27.246  1.00  0.00     0.074 A 
ATOM     39  C   UNL A   1      42.520  25.962  27.534  1.00  0.00     0.049 A 
ATOM     40  N   UNL A   1      45.365  26.929  27.709  1.00  0.00    -0.248 NA
ATOM     41  C   UNL A   1      46.054  24.901  26.778  1.00  0.00     0.031 C 
ATOM     42  C   UNL A   1      41.122  25.525  27.530  1.00  0.00     0.029 A 
ATOM     43  N   UNL A   1      42.463  27.249  28.012  1.00  0.00    -0.354 N 
ATOM     44  C   UNL A   1      46.750  26.915  27.610  1.00  0.00     0.074 A 
ATOM     45  C   UNL A   1      47.124  25.621  27.081  1.00  0.00     0.031 C 
ATOM     46  C   UNL A   1      40.346  26.526  27.977  1.00  0.00     0.029 A 
ATOM     47  C   UNL A   1      41.192  27.659  28.336  1.00  0.00     0.049 A 
ATOM     48  H   UNL A   1      43.257  27.822  28.112  1.00  0.00     0.167 HD
ATOM     49  C   UNL A   1      47.629  27.899  27.917  1.00  0.00     0.037 A 
ATOM     50  C   UNL A   1      40.761  28.813  28.880  1.00  0.00     0.037 A 
ATOM     51  C   UNL A   1      47.252  29.196  28.411  1.00  0.00     0.049 A 
ATOM     52  C   UNL A   1      41.757  29.888  29.218  1.00  0.00     0.074 A 
ATOM     53  C   UNL A   1      48.064  30.280  28.692  1.00  0.00     0.029 A 
ATOM     54  N   UNL A   1      45.952  29.583  28.698  1.00  0.00    -0.354 N 
ATOM     55  N   UNL A   1      43.059  29.883  29.069  1.00  0.00    -0.248 NA
ATOM     56  C   UNL A   1      41.225  31.129  29.801  1.00  0.00     0.031 C 
ATOM     57  C   UNL A   1      47.260  31.313  29.183  1.00  0.00     0.029 A 
ATOM     58  C   UNL A   1      45.941  30.886  29.168  1.00  0.00     0.049 A 
ATOM     59  H   UNL A   1      45.154  29.017  28.584  1.00  0.00     0.167 HD
ATOM     60  C   UNL A   1      43.497  31.124  29.509  1.00  0.00     0.074 A 
ATOM     61  C   UNL A   1      42.323  31.861  29.927  1.00  0.00     0.031 C 
ATOM     62  C   UNL A   1      44.761  31.611  29.561  1.00  0.00     0.037 A 
BRANCH  49  63
ATOM     63  C   UNL A   1      49.087  27.607  27.721  1.00  0.00     0.057 A 
ATOM     64  C   UNL A   1      49.892  27.141  28.769  1.00  0.00     0.134 A 
ATOM     65  C   UNL A   1      49.685  27.765  26.466  1.00  0.00     0.134 A 
ATOM     66  F   UNL A   1      49.382  26.980  29.999  1.00  0.00    -0.206 F 
ATOM     67  C   UNL A   1      51.247  26.866  28.580  1.00  0.00     0.040 A 
ATOM     68  C   UNL A   1      51.034  27.469  26.259  1.00  0.00     0.040 A 
ATOM     69  F   UNL A   1      48.970  28.203  25.419  1.00  0.00    -0.206 F 
ATOM     70  C   UNL A   1      51.820  27.024  27.319  1.00  0.00     0.006 A 
ENDBRANCH  49  63
BRANCH  50  71
ATOM     71  C   UNL A   1      39.312  29.021  29.129  1.00  0.00     0.057 A 
ATOM     72  C   UNL A   1      38.761  28.785  30.394  1.00  0.00     0.134 A 
ATOM     73  C   UNL A   1      38.448  29.454  28.118  1.00  0.00     0.134 A 
ATOM     74  F   UNL A   1      39.535  28.350  31.398  1.00  0.00    -0.206 F 
ATOM     75  C   UNL A   1      37.397  28.955  30.640  1.00  0.00     0.040 A 
ATOM     76  C   UNL A   1      37.086  29.650  28.355  1.00  0.00     0.040 A 
ATOM     77  F   UNL A   1      38.917  29.703  26.886  1.00  0.00    -0.206 F 
ATOM     78  C   UNL A   1      36.557  29.393  29.618  1.00  0.00     0.006 A 
ENDBRANCH  50  71
BRANCH  62  79
ATOM     79  C   UNL A   1      44.939  33.019  30.043  1.00  0.00     0.057 A 
ATOM     80  C   UNL A   1      44.857  34.114  29.174  1.00  0.00     0.134 A 
ATOM     81  C   UNL A   1      45.131  33.283  31.405  1.00  0.00     0.134 A 
ATOM     82  F   UNL A   1      44.687  33.925  27.857  1.00  0.00    -0.206 F 
ATOM     83  C   UNL A   1      44.972  35.424  29.643  1.00  0.00     0.040 A 
ATOM     84  C   UNL A   1      45.225  34.589  31.888  1.00  0.00     0.040 A 
ATOM     85  F   UNL A   1      45.211  32.277  32.289  1.00  0.00    -0.206 F 
ATOM     86  C   UNL A   1      45.147  35.664  31.005  1.00  0.00     0.006 A 
ENDBRANCH  62  79
ENDBRANCH  36  37
ENDBRANCH  28  31
ENDBRANCH  26  27
ENDBRANCH  25  26
ENDBRANCH   1  25
TORSDOF 15
ENDMDL
MODEL 3
REMARK VINA RESULT:     -11.0      3.190      4.760
REMARK SMILES COc1ccc(-c2sc(N)nc2C(=O)NCCCCNC(=O)c2ccc(-c3c4nc(c(-c5c(F)cccc5F)c5ccc([nH]5)c(-c5c(F)cccc5F)c5nc(c(-c6c(F)cccc6F)c6ccc3[nH]6)C=C5)C=C4)cc2)cc1OC
REMARK SMILES IDX 17 1 16 2 15 3 13 4 14 5 12 7 7 8 8 9 9 10 11 11 6 12 3 13
REMARK SMILES IDX 4 14 78 15 5 16 77 17 2 18 1 19 79 20 80 21 10 22 18 25
REMARK SMILES IDX 19 26 20 27 21 28 22 30 23 31 24 32 76 33 25 34 75 35 26 36
REMARK SMILES IDX 27 37 28 38 69 39 29 40 74 41 68 42 70 43 30 44 73 45 67 46
REMARK SMILES IDX 66 47 31 49 57 50 40 51 56 52 41 53 44 54 55 55 71 56 42 57
REMARK SMILES IDX 43 58 54 60 72 61 45 62 32 63 33 64 38 65 34 66 35 67 37 68
REMARK SMILES IDX 39 69 36 70 58 71 59 72 64 73 60 74 61 75 63 76 65 77 62 78
REMARK SMILES IDX 46 79 47 80 52 81 48 82 49 83 51 84 53 85 50 86
REMARK H PARENT 15 6 10 23 10 24 20 29 70 48 44 59
REMARK Flexibility Score: inf
ROOT
ATOM      1  C   UNL A   1      34.513  30.877  27.685  1.00  0.00     0.023 C 
ENDROOT
BRANCH   1   2
ATOM      2  C   UNL A   1      34.275  29.425  27.269  1.00  0.00     0.116 C 
BRANCH   2   3
ATOM      3  N   UNL A   1      33.040  28.898  27.820  1.00  0.00    -0.351 N 
ATOM      4  C   UNL A   1      31.918  28.367  27.227  1.00  0.00     0.271 C 
ATOM      5  O   UNL A   1      31.028  28.004  28.001  1.00  0.00    -0.267 OA
ATOM      6  H   UNL A   1      32.999  28.924  28.803  1.00  0.00     0.163 HD
BRANCH   4   7
ATOM      7  C   UNL A   1      31.795  28.235  25.764  1.00  0.00     0.149 A 
ATOM      8  C   UNL A   1      32.208  27.116  25.043  1.00  0.00     0.069 A 
ATOM      9  S   UNL A   1      31.955  27.372  23.362  1.00  0.00    -0.096 S 
ATOM     10  C   UNL A   1      31.284  28.906  23.697  1.00  0.00     0.181 A 
ATOM     11  N   UNL A   1      31.270  29.245  24.957  1.00  0.00    -0.215 NA
BRANCH   8  12
ATOM     12  C   UNL A   1      32.728  25.825  25.495  1.00  0.00    -0.002 A 
ATOM     13  C   UNL A   1      33.684  23.374  26.486  1.00  0.00     0.160 A 
ATOM     14  C   UNL A   1      34.527  24.222  25.751  1.00  0.00     0.051 A 
ATOM     15  C   UNL A   1      32.357  23.746  26.731  1.00  0.00     0.161 A 
ATOM     16  C   UNL A   1      34.049  25.438  25.250  1.00  0.00     0.014 A 
ATOM     17  C   UNL A   1      31.895  24.967  26.226  1.00  0.00     0.060 A 
BRANCH  13  18
ATOM     18  O   UNL A   1      34.219  22.249  27.054  1.00  0.00    -0.493 OA
ATOM     19  C   UNL A   1      34.933  21.454  26.109  1.00  0.00     0.278 C 
ENDBRANCH  13  18
BRANCH  15  20
ATOM     20  O   UNL A   1      31.399  23.077  27.442  1.00  0.00    -0.493 OA
ATOM     21  C   UNL A   1      30.105  22.953  26.876  1.00  0.00     0.278 C 
ENDBRANCH  15  20
ENDBRANCH   8  12
BRANCH  10  22
ATOM     22  N   UNL A   1      30.805  29.696  22.733  1.00  0.00    -0.375 N 
ATOM     23  H   UNL A   1      29.980  30.213  22.884  1.00  0.00     0.159 HD
ATOM     24  H   UNL A   1      31.276  29.762  21.871  1.00  0.00     0.159 HD
ENDBRANCH  10  22
ENDBRANCH   4   7
ENDBRANCH   2   3
ENDBRANCH   1   2
BRANCH   1  25
ATOM     25  C   UNL A   1      33.270  31.770  27.645  1.00  0.00     0.023 C 
BRANCH  25  26
ATOM     26  C   UNL A   1      33.504  33.207  27.188  1.00  0.00     0.116 C 
BRANCH  26  27
ATOM     27  N   UNL A   1      32.890  34.201  28.056  1.00  0.00    -0.352 N 
ATOM     28  C   UNL A   1      33.278  34.600  29.314  1.00  0.00     0.251 C 
ATOM     29  H   UNL A   1      32.089  34.647  27.695  1.00  0.00     0.163 HD
ATOM     30  O   UNL A   1      32.592  35.387  29.959  1.00  0.00    -0.269 OA
BRANCH  28  31
ATOM     31  C   UNL A   1      34.510  34.037  29.903  1.00  0.00     0.039 A 
ATOM     32  C   UNL A   1      34.403  33.136  30.966  1.00  0.00     0.014 A 
ATOM     33  C   UNL A   1      35.762  34.362  29.374  1.00  0.00     0.014 A 
ATOM     34  C   UNL A   1      35.546  32.492  31.444  1.00  0.00     0.010 A 
ATOM     35  C   UNL A   1      36.889  33.673  29.807  1.00  0.00     0.010 A 
ATOM     36  C   UNL A   1      36.792  32.724  30.837  1.00  0.00    -0.014 A 
BRANCH  36  37
ATOM     37  C   UNL A   1      38.009  31.977  31.243  1.00  0.00     0.031 A 
ATOM     38  C   UNL A   1      38.879  32.507  32.346  1.00  0.00     0.074 A 
ATOM     39  C   UNL A   1      38.381  30.880  30.556  1.00  0.00     0.049 A 
ATOM     40  N   UNL A   1      40.054  32.091  32.746  1.00  0.00    -0.248 NA
ATOM     41  C   UNL A   1      38.376  33.682  33.074  1.00  0.00     0.031 C 
ATOM     42  C   UNL A   1      37.642  30.284  29.441  1.00  0.00     0.029 A 
ATOM     43  N   UNL A   1      39.493  30.083  30.679  1.00  0.00    -0.354 N 
ATOM     44  C   UNL A   1      40.440  32.965  33.753  1.00  0.00     0.074 A 
ATOM     45  C   UNL A   1      39.393  33.958  33.876  1.00  0.00     0.031 C 
ATOM     46  C   UNL A   1      38.315  29.213  28.989  1.00  0.00     0.029 A 
ATOM     47  C   UNL A   1      39.550  29.071  29.751  1.00  0.00     0.049 A 
ATOM     48  H   UNL A   1      40.182  30.223  31.367  1.00  0.00     0.167 HD
ATOM     49  C   UNL A   1      41.557  32.934  34.517  1.00  0.00     0.037 A 
ATOM     50  C   UNL A   1      40.502  28.145  29.529  1.00  0.00     0.037 A 
ATOM     51  C   UNL A   1      42.580  31.928  34.415  1.00  0.00     0.049 A 
ATOM     52  C   UNL A   1      41.737  28.134  30.386  1.00  0.00     0.074 A 
ATOM     53  C   UNL A   1      43.718  31.775  35.186  1.00  0.00     0.029 A 
ATOM     54  N   UNL A   1      42.586  30.901  33.482  1.00  0.00    -0.354 N 
ATOM     55  N   UNL A   1      42.065  28.935  31.372  1.00  0.00    -0.248 NA
ATOM     56  C   UNL A   1      42.736  27.094  30.102  1.00  0.00     0.031 C 
ATOM     57  C   UNL A   1      44.433  30.676  34.698  1.00  0.00     0.029 A 
ATOM     58  C   UNL A   1      43.717  30.121  33.648  1.00  0.00     0.049 A 
ATOM     59  H   UNL A   1      41.889  30.750  32.803  1.00  0.00     0.167 HD
ATOM     60  C   UNL A   1      43.288  28.477  31.843  1.00  0.00     0.074 A 
ATOM     61  C   UNL A   1      43.644  27.326  31.040  1.00  0.00     0.031 C 
ATOM     62  C   UNL A   1      44.047  28.967  32.853  1.00  0.00     0.037 A 
BRANCH  49  63
ATOM     63  C   UNL A   1      41.728  34.022  35.536  1.00  0.00     0.057 A 
ATOM     64  C   UNL A   1      41.264  33.880  36.850  1.00  0.00     0.134 A 
ATOM     65  C   UNL A   1      42.390  35.210  35.207  1.00  0.00     0.134 A 
ATOM     66  F   UNL A   1      40.610  32.770  37.225  1.00  0.00    -0.206 F 
ATOM     67  C   UNL A   1      41.431  34.894  37.795  1.00  0.00     0.040 A 
ATOM     68  C   UNL A   1      42.585  36.220  36.150  1.00  0.00     0.040 A 
ATOM     69  F   UNL A   1      42.864  35.408  33.968  1.00  0.00    -0.206 F 
ATOM     70  C   UNL A   1      42.099  36.066  37.447  1.00  0.00     0.006 A 
ENDBRANCH  49  63
BRANCH  50  71
ATOM     71  C   UNL A   1      40.322  27.138  28.453  1.00  0.00     0.057 A 
ATOM     72  C   UNL A   1      39.515  26.012  28.652  1.00  0.00     0.134 A 
ATOM     73  C   UNL A   1      40.950  27.271  27.209  1.00  0.00     0.134 A 
ATOM     74  F   UNL A   1      38.903  25.819  29.829  1.00  0.00    -0.206 F 
ATOM     75  C   UNL A   1      39.352  25.044  27.658  1.00  0.00     0.040 A 
ATOM     76  C   UNL A   1      40.778  26.324  26.199  1.00  0.00     0.040 A 
ATOM     77  F   UNL A   1      41.731  28.332  26.956  1.00  0.00    -0.206 F 
ATOM     78  C   UNL A   1      39.982  25.203  26.425  1.00  0.00     0.006 A 
ENDBRANCH  50  71
BRANCH  62  79
ATOM     79  C   UNL A   1      45.316  28.237  33.179  1.00  0.00     0.057 A 
ATOM     80  C   UNL A   1      46.540  28.587  32.597  1.00  0.00     0.134 A 
ATOM     81  C   UNL A   1      45.319  27.215  34.136  1.00  0.00     0.134 A 
ATOM     82  F   UNL A   1      46.599  29.549  31.665  1.00  0.00    -0.206 F 
ATOM     83  C   UNL A   1      47.723  27.935  32.948  1.00  0.00     0.040 A 
ATOM     84  C   UNL A   1      46.499  26.572  34.511  1.00  0.00     0.040 A 
ATOM     85  F   UNL A   1      44.179  26.838  34.735  1.00  0.00    -0.206 F 
ATOM     86  C   UNL A   1      47.706  26.931  33.915  1.00  0.00     0.006 A 
ENDBRANCH  62  79
ENDBRANCH  36  37
ENDBRANCH  28  31
ENDBRANCH  26  27
ENDBRANCH  25  26
ENDBRANCH   1  25
TORSDOF 15
ENDMDL
