MODEL 1
REMARK VINA RESULT:     -11.2      0.000      0.000
REMARK SMILES CC(C)(C)OC(=O)[C@@H](C(=O)NCCCCNC(=O)c1ccc(-c2c3nc(c(-c4c(F)cccc4F)c4ccc([nH]4)c(-c4c(F)cccc4F)c4nc(c(-c5c(F)cccc5F)c5ccc2[nH]5)C=C4)C=C3)cc1)[C@@H]([NH3+])Cc1cccc(F)c1
REMARK SMILES IDX 13 1 12 2 11 3 9 4 10 5 8 7 6 8 7 9 5 10 2 11 1 12 3 13 4 14
REMARK SMILES IDX 73 15 74 16 75 20 76 21 77 22 82 23 78 24 80 25 79 26 81 27
REMARK SMILES IDX 14 28 15 29 16 30 17 31 18 33 19 34 20 35 72 36 21 37 71 38
REMARK SMILES IDX 22 39 23 40 24 41 65 42 25 43 70 44 64 45 66 46 26 47 69 48
REMARK SMILES IDX 63 49 62 50 27 52 53 53 36 54 52 55 37 56 40 57 51 58 67 59
REMARK SMILES IDX 38 60 39 61 50 63 68 64 41 65 28 66 29 67 34 68 30 69 31 70
REMARK SMILES IDX 33 71 35 72 32 73 54 74 55 75 60 76 56 77 57 78 59 79 61 80
REMARK SMILES IDX 58 81 42 82 43 83 48 84 44 85 45 86 47 87 49 88 46 89
REMARK H PARENT 11 6 74 17 74 18 74 19 16 32 66 51 40 62
REMARK Flexibility Score: inf
ROOT
ATOM      1  C   UNL A   1      31.554  30.919  26.078  1.00  0.00     0.023 C 
ENDROOT
BRANCH   1   2
ATOM      2  C   UNL A   1      32.830  30.212  26.546  1.00  0.00     0.116 C 
BRANCH   2   3
ATOM      3  N   UNL A   1      32.499  29.159  27.488  1.00  0.00    -0.355 N 
ATOM      4  C   UNL A   1      31.838  27.994  27.215  1.00  0.00     0.240 C 
ATOM      5  O   UNL A   1      31.022  27.631  28.059  1.00  0.00    -0.274 OA
ATOM      6  H   UNL A   1      32.779  29.299  28.421  1.00  0.00     0.163 HD
BRANCH   4   7
ATOM      7  C   UNL A   1      32.116  27.241  25.925  1.00  0.00     0.246 C 
BRANCH   7   8
ATOM      8  C   UNL A   1      30.855  27.199  25.090  1.00  0.00     0.325 C 
ATOM      9  O   UNL A   1      30.051  26.270  25.133  1.00  0.00    -0.251 OA
BRANCH   8  10
ATOM     10  O   UNL A   1      30.728  28.295  24.297  1.00  0.00    -0.459 OA
BRANCH  10  11
ATOM     11  C   UNL A   1      31.309  28.329  22.964  1.00  0.00     0.104 C 
ATOM     12  C   UNL A   1      30.476  29.369  22.201  1.00  0.00     0.056 C 
ATOM     13  C   UNL A   1      31.175  26.979  22.252  1.00  0.00     0.056 C 
ATOM     14  C   UNL A   1      32.765  28.803  22.993  1.00  0.00     0.056 C 
ENDBRANCH  10  11
ENDBRANCH   8  10
ENDBRANCH   7   8
BRANCH   7  15
ATOM     15  C   UNL A   1      32.667  25.789  26.104  1.00  0.00     0.209 C 
BRANCH  15  16
ATOM     16  N   UNL A   1      31.648  24.960  26.812  1.00  0.00    -0.354 N 
ATOM     17  H   UNL A   1      31.894  23.974  26.727  1.00  0.00     0.344 HD
ATOM     18  H   UNL A   1      30.732  25.120  26.395  1.00  0.00     0.344 HD
ATOM     19  H   UNL A   1      31.624  25.220  27.798  1.00  0.00     0.344 HD
ENDBRANCH  15  16
BRANCH  15  20
ATOM     20  C   UNL A   1      32.977  25.011  24.785  1.00  0.00     0.102 C 
BRANCH  20  21
ATOM     21  C   UNL A   1      34.319  24.330  24.613  1.00  0.00    -0.039 A 
ATOM     22  C   UNL A   1      34.582  23.629  23.422  1.00  0.00     0.004 A 
ATOM     23  C   UNL A   1      35.303  24.331  25.609  1.00  0.00     0.043 A 
ATOM     24  C   UNL A   1      35.832  23.048  23.190  1.00  0.00     0.003 A 
ATOM     25  C   UNL A   1      36.559  23.782  25.355  1.00  0.00     0.123 A 
ATOM     26  C   UNL A   1      36.836  23.151  24.149  1.00  0.00     0.039 A 
ATOM     27  F   UNL A   1      37.522  23.882  26.281  1.00  0.00    -0.207 F 
ENDBRANCH  20  21
ENDBRANCH  15  20
ENDBRANCH   7  15
ENDBRANCH   4   7
ENDBRANCH   2   3
ENDBRANCH   1   2
BRANCH   1  28
ATOM     28  C   UNL A   1      31.378  32.361  26.571  1.00  0.00     0.023 C 
BRANCH  28  29
ATOM     29  C   UNL A   1      32.615  32.990  27.199  1.00  0.00     0.116 C 
BRANCH  29  30
ATOM     30  N   UNL A   1      32.352  34.306  27.752  1.00  0.00    -0.352 N 
ATOM     31  C   UNL A   1      33.014  34.992  28.734  1.00  0.00     0.251 C 
ATOM     32  H   UNL A   1      31.579  34.777  27.361  1.00  0.00     0.163 HD
ATOM     33  O   UNL A   1      32.551  36.054  29.151  1.00  0.00    -0.269 OA
BRANCH  31  34
ATOM     34  C   UNL A   1      34.258  34.453  29.322  1.00  0.00     0.039 A 
ATOM     35  C   UNL A   1      34.167  33.746  30.524  1.00  0.00     0.014 A 
ATOM     36  C   UNL A   1      35.503  34.647  28.716  1.00  0.00     0.014 A 
ATOM     37  C   UNL A   1      35.313  33.187  31.087  1.00  0.00     0.010 A 
ATOM     38  C   UNL A   1      36.635  34.026  29.240  1.00  0.00     0.010 A 
ATOM     39  C   UNL A   1      36.552  33.292  30.432  1.00  0.00    -0.014 A 
BRANCH  39  40
ATOM     40  C   UNL A   1      37.753  32.619  30.988  1.00  0.00     0.031 A 
ATOM     41  C   UNL A   1      38.387  33.108  32.261  1.00  0.00     0.074 A 
ATOM     42  C   UNL A   1      38.284  31.573  30.326  1.00  0.00     0.049 A 
ATOM     43  N   UNL A   1      39.427  32.634  32.899  1.00  0.00    -0.248 NA
ATOM     44  C   UNL A   1      37.787  34.294  32.892  1.00  0.00     0.031 C 
ATOM     45  C   UNL A   1      37.797  31.044  29.050  1.00  0.00     0.029 A 
ATOM     46  N   UNL A   1      39.350  30.765  30.633  1.00  0.00    -0.354 N 
ATOM     47  C   UNL A   1      39.604  33.458  34.003  1.00  0.00     0.074 A 
ATOM     48  C   UNL A   1      38.603  34.498  33.917  1.00  0.00     0.031 C 
ATOM     49  C   UNL A   1      38.541  29.982  28.700  1.00  0.00     0.029 A 
ATOM     50  C   UNL A   1      39.575  29.775  29.708  1.00  0.00     0.049 A 
ATOM     51  H   UNL A   1      39.901  30.883  31.441  1.00  0.00     0.167 HD
ATOM     52  C   UNL A   1      40.500  33.340  35.011  1.00  0.00     0.037 A 
ATOM     53  C   UNL A   1      40.511  28.808  29.675  1.00  0.00     0.037 A 
ATOM     54  C   UNL A   1      41.489  32.298  35.101  1.00  0.00     0.049 A 
ATOM     55  C   UNL A   1      41.493  28.703  30.809  1.00  0.00     0.074 A 
ATOM     56  C   UNL A   1      42.417  32.073  36.103  1.00  0.00     0.029 A 
ATOM     57  N   UNL A   1      41.678  31.305  34.151  1.00  0.00    -0.354 N 
ATOM     58  N   UNL A   1      41.601  29.449  31.882  1.00  0.00    -0.248 NA
ATOM     59  C   UNL A   1      42.475  27.613  30.733  1.00  0.00     0.031 C 
ATOM     60  C   UNL A   1      43.194  30.967  35.740  1.00  0.00     0.029 A 
ATOM     61  C   UNL A   1      42.719  30.475  34.536  1.00  0.00     0.049 A 
ATOM     62  H   UNL A   1      41.151  31.206  33.324  1.00  0.00     0.167 HD
ATOM     63  C   UNL A   1      42.648  28.907  32.617  1.00  0.00     0.074 A 
ATOM     64  C   UNL A   1      43.119  27.752  31.883  1.00  0.00     0.031 C 
ATOM     65  C   UNL A   1      43.176  29.330  33.791  1.00  0.00     0.037 A 
BRANCH  52  66
ATOM     66  C   UNL A   1      40.441  34.358  36.114  1.00  0.00     0.057 A 
ATOM     67  C   UNL A   1      41.147  35.566  36.035  1.00  0.00     0.134 A 
ATOM     68  C   UNL A   1      39.629  34.157  37.238  1.00  0.00     0.134 A 
ATOM     69  F   UNL A   1      41.951  35.817  34.992  1.00  0.00    -0.206 F 
ATOM     70  C   UNL A   1      41.060  36.530  37.043  1.00  0.00     0.040 A 
ATOM     71  C   UNL A   1      39.514  35.123  38.238  1.00  0.00     0.040 A 
ATOM     72  F   UNL A   1      38.923  33.025  37.374  1.00  0.00    -0.206 F 
ATOM     73  C   UNL A   1      40.235  36.313  38.143  1.00  0.00     0.006 A 
ENDBRANCH  52  66
BRANCH  53  74
ATOM     74  C   UNL A   1      40.560  27.851  28.541  1.00  0.00     0.057 A 
ATOM     75  C   UNL A   1      41.312  28.123  27.392  1.00  0.00     0.134 A 
ATOM     76  C   UNL A   1      39.830  26.656  28.565  1.00  0.00     0.134 A 
ATOM     77  F   UNL A   1      42.018  29.259  27.301  1.00  0.00    -0.206 F 
ATOM     78  C   UNL A   1      41.312  27.259  26.296  1.00  0.00     0.040 A 
ATOM     79  C   UNL A   1      39.844  25.769  27.488  1.00  0.00     0.040 A 
ATOM     80  F   UNL A   1      39.096  26.332  29.639  1.00  0.00    -0.206 F 
ATOM     81  C   UNL A   1      40.578  26.075  26.344  1.00  0.00     0.006 A 
ENDBRANCH  53  74
BRANCH  65  82
ATOM     82  C   UNL A   1      44.308  28.521  34.357  1.00  0.00     0.057 A 
ATOM     83  C   UNL A   1      44.082  27.388  35.149  1.00  0.00     0.134 A 
ATOM     84  C   UNL A   1      45.638  28.878  34.101  1.00  0.00     0.134 A 
ATOM     85  F   UNL A   1      42.831  27.001  35.441  1.00  0.00    -0.206 F 
ATOM     86  C   UNL A   1      45.139  26.659  35.698  1.00  0.00     0.040 A 
ATOM     87  C   UNL A   1      46.703  28.139  34.620  1.00  0.00     0.040 A 
ATOM     88  F   UNL A   1      45.925  29.946  33.342  1.00  0.00    -0.206 F 
ATOM     89  C   UNL A   1      46.454  27.033  35.430  1.00  0.00     0.006 A 
ENDBRANCH  65  82
ENDBRANCH  39  40
ENDBRANCH  31  34
ENDBRANCH  29  30
ENDBRANCH  28  29
ENDBRANCH   1  28
TORSDOF 18
ENDMDL
MODEL 2
REMARK VINA RESULT:     -11.1      2.134      3.868
REMARK SMILES CC(C)(C)OC(=O)[C@@H](C(=O)NCCCCNC(=O)c1ccc(-c2c3nc(c(-c4c(F)cccc4F)c4ccc([nH]4)c(-c4c(F)cccc4F)c4nc(c(-c5c(F)cccc5F)c5ccc2[nH]5)C=C4)C=C3)cc1)[C@@H]([NH3+])Cc1cccc(F)c1
REMARK SMILES IDX 13 1 12 2 11 3 9 4 10 5 8 7 6 8 7 9 5 10 2 11 1 12 3 13 4 14
REMARK SMILES IDX 73 15 74 16 75 20 76 21 77 22 82 23 78 24 80 25 79 26 81 27
REMARK SMILES IDX 14 28 15 29 16 30 17 31 18 33 19 34 20 35 72 36 21 37 71 38
REMARK SMILES IDX 22 39 23 40 24 41 65 42 25 43 70 44 64 45 66 46 26 47 69 48
REMARK SMILES IDX 63 49 62 50 27 52 53 53 36 54 52 55 37 56 40 57 51 58 67 59
REMARK SMILES IDX 38 60 39 61 50 63 68 64 41 65 28 66 29 67 34 68 30 69 31 70
REMARK SMILES IDX 33 71 35 72 32 73 54 74 55 75 60 76 56 77 57 78 59 79 61 80
REMARK SMILES IDX 58 81 42 82 43 83 48 84 44 85 45 86 47 87 49 88 46 89
REMARK H PARENT 11 6 74 17 74 18 74 19 16 32 66 51 40 62
REMARK Flexibility Score: inf
ROOT
ATOM      1  C   UNL A   1      31.490  30.218  26.750  1.00  0.00     0.023 C 
ENDROOT
BRANCH   1   2
ATOM      2  C   UNL A   1      32.167  29.431  25.623  1.00  0.00     0.116 C 
BRANCH   2   3
ATOM      3  N   UNL A   1      31.592  29.800  24.343  1.00  0.00    -0.355 N 
ATOM      4  C   UNL A   1      31.014  28.962  23.431  1.00  0.00     0.240 C 
ATOM      5  O   UNL A   1      31.271  29.192  22.253  1.00  0.00    -0.274 OA
ATOM      6  H   UNL A   1      31.624  30.755  24.106  1.00  0.00     0.163 HD
BRANCH   4   7
ATOM      7  C   UNL A   1      30.130  27.818  23.900  1.00  0.00     0.246 C 
BRANCH   7   8
ATOM      8  C   UNL A   1      30.848  26.505  23.666  1.00  0.00     0.325 C 
ATOM      9  O   UNL A   1      30.744  25.859  22.627  1.00  0.00    -0.251 OA
BRANCH   8  10
ATOM     10  O   UNL A   1      31.603  26.137  24.733  1.00  0.00    -0.459 OA
BRANCH  10  11
ATOM     11  C   UNL A   1      32.959  25.641  24.559  1.00  0.00     0.104 C 
ATOM     12  C   UNL A   1      32.788  24.217  24.010  1.00  0.00     0.056 C 
ATOM     13  C   UNL A   1      33.711  25.564  25.892  1.00  0.00     0.056 C 
ATOM     14  C   UNL A   1      33.735  26.466  23.527  1.00  0.00     0.056 C 
ENDBRANCH  10  11
ENDBRANCH   8  10
ENDBRANCH   7   8
BRANCH   7  15
ATOM     15  C   UNL A   1      28.712  27.756  23.243  1.00  0.00     0.209 C 
BRANCH  15  16
ATOM     16  N   UNL A   1      27.973  26.577  23.781  1.00  0.00    -0.354 N 
ATOM     17  H   UNL A   1      27.244  26.304  23.122  1.00  0.00     0.344 HD
ATOM     18  H   UNL A   1      27.550  26.820  24.675  1.00  0.00     0.344 HD
ATOM     19  H   UNL A   1      28.621  25.800  23.911  1.00  0.00     0.344 HD
ENDBRANCH  15  16
BRANCH  15  20
ATOM     20  C   UNL A   1      27.780  28.979  23.519  1.00  0.00     0.102 C 
BRANCH  20  21
ATOM     21  C   UNL A   1      28.000  30.275  22.767  1.00  0.00    -0.039 A 
ATOM     22  C   UNL A   1      27.887  30.280  21.366  1.00  0.00     0.004 A 
ATOM     23  C   UNL A   1      28.353  31.471  23.405  1.00  0.00     0.043 A 
ATOM     24  C   UNL A   1      28.009  31.467  20.638  1.00  0.00     0.003 A 
ATOM     25  C   UNL A   1      28.436  32.656  22.677  1.00  0.00     0.123 A 
ATOM     26  C   UNL A   1      28.255  32.667  21.301  1.00  0.00     0.039 A 
ATOM     27  F   UNL A   1      28.673  33.808  23.318  1.00  0.00    -0.207 F 
ENDBRANCH  20  21
ENDBRANCH  15  20
ENDBRANCH   7  15
ENDBRANCH   4   7
ENDBRANCH   2   3
ENDBRANCH   1   2
BRANCH   1  28
ATOM     28  C   UNL A   1      31.440  31.739  26.557  1.00  0.00     0.023 C 
BRANCH  28  29
ATOM     29  C   UNL A   1      32.717  32.483  26.923  1.00  0.00     0.116 C 
BRANCH  29  30
ATOM     30  N   UNL A   1      32.456  33.805  27.465  1.00  0.00    -0.352 N 
ATOM     31  C   UNL A   1      33.093  34.480  28.472  1.00  0.00     0.251 C 
ATOM     32  H   UNL A   1      31.708  34.289  27.045  1.00  0.00     0.163 HD
ATOM     33  O   UNL A   1      32.633  35.550  28.871  1.00  0.00    -0.269 OA
BRANCH  31  34
ATOM     34  C   UNL A   1      34.304  33.920  29.107  1.00  0.00     0.039 A 
ATOM     35  C   UNL A   1      34.141  32.929  30.078  1.00  0.00     0.014 A 
ATOM     36  C   UNL A   1      35.586  34.364  28.769  1.00  0.00     0.014 A 
ATOM     37  C   UNL A   1      35.261  32.347  30.670  1.00  0.00     0.010 A 
ATOM     38  C   UNL A   1      36.705  33.731  29.306  1.00  0.00     0.010 A 
ATOM     39  C   UNL A   1      36.554  32.718  30.263  1.00  0.00    -0.014 A 
BRANCH  39  40
ATOM     40  C   UNL A   1      37.743  32.033  30.829  1.00  0.00     0.031 A 
ATOM     41  C   UNL A   1      38.268  32.403  32.188  1.00  0.00     0.074 A 
ATOM     42  C   UNL A   1      38.363  31.084  30.100  1.00  0.00     0.049 A 
ATOM     43  N   UNL A   1      39.284  31.901  32.845  1.00  0.00    -0.248 NA
ATOM     44  C   UNL A   1      37.577  33.491  32.897  1.00  0.00     0.031 C 
ATOM     45  C   UNL A   1      37.985  30.679  28.744  1.00  0.00     0.029 A 
ATOM     46  N   UNL A   1      39.440  30.287  30.395  1.00  0.00    -0.354 N 
ATOM     47  C   UNL A   1      39.350  32.606  34.040  1.00  0.00     0.074 A 
ATOM     48  C   UNL A   1      38.312  33.613  33.993  1.00  0.00     0.031 C 
ATOM     49  C   UNL A   1      38.797  29.690  28.337  1.00  0.00     0.029 A 
ATOM     50  C   UNL A   1      39.769  29.412  29.389  1.00  0.00     0.049 A 
ATOM     51  H   UNL A   1      39.930  30.337  31.248  1.00  0.00     0.167 HD
ATOM     52  C   UNL A   1      40.180  32.412  35.091  1.00  0.00     0.037 A 
ATOM     53  C   UNL A   1      40.747  28.488  29.321  1.00  0.00     0.037 A 
ATOM     54  C   UNL A   1      41.206  31.403  35.140  1.00  0.00     0.049 A 
ATOM     55  C   UNL A   1      41.654  28.297  30.505  1.00  0.00     0.074 A 
ATOM     56  C   UNL A   1      42.073  31.104  36.177  1.00  0.00     0.029 A 
ATOM     57  N   UNL A   1      41.501  30.526  34.107  1.00  0.00    -0.354 N 
ATOM     58  N   UNL A   1      41.657  28.926  31.655  1.00  0.00    -0.248 NA
ATOM     59  C   UNL A   1      42.685  27.258  30.384  1.00  0.00     0.031 C 
ATOM     60  C   UNL A   1      42.921  30.073  35.756  1.00  0.00     0.029 A 
ATOM     61  C   UNL A   1      42.549  29.698  34.475  1.00  0.00     0.049 A 
ATOM     62  H   UNL A   1      41.036  30.498  33.239  1.00  0.00     0.167 HD
ATOM     63  C   UNL A   1      42.675  28.345  32.401  1.00  0.00     0.074 A 
ATOM     64  C   UNL A   1      43.244  27.295  31.584  1.00  0.00     0.031 C 
ATOM     65  C   UNL A   1      43.105  28.658  33.648  1.00  0.00     0.037 A 
BRANCH  52  66
ATOM     66  C   UNL A   1      40.003  33.301  36.289  1.00  0.00     0.057 A 
ATOM     67  C   UNL A   1      40.694  34.515  36.409  1.00  0.00     0.134 A 
ATOM     68  C   UNL A   1      39.095  32.973  37.302  1.00  0.00     0.134 A 
ATOM     69  F   UNL A   1      41.587  34.884  35.479  1.00  0.00    -0.206 F 
ATOM     70  C   UNL A   1      40.500  35.361  37.503  1.00  0.00     0.040 A 
ATOM     71  C   UNL A   1      38.872  33.822  38.387  1.00  0.00     0.040 A 
ATOM     72  F   UNL A   1      38.396  31.829  37.247  1.00  0.00    -0.206 F 
ATOM     73  C   UNL A   1      39.579  35.019  38.491  1.00  0.00     0.006 A 
ENDBRANCH  52  66
BRANCH  53  74
ATOM     74  C   UNL A   1      40.913  27.662  28.098  1.00  0.00     0.057 A 
ATOM     75  C   UNL A   1      41.694  28.104  27.023  1.00  0.00     0.134 A 
ATOM     76  C   UNL A   1      40.269  26.426  27.961  1.00  0.00     0.134 A 
ATOM     77  F   UNL A   1      42.321  29.287  27.086  1.00  0.00    -0.206 F 
ATOM     78  C   UNL A   1      41.803  27.362  25.846  1.00  0.00     0.040 A 
ATOM     79  C   UNL A   1      40.393  25.662  26.801  1.00  0.00     0.040 A 
ATOM     80  F   UNL A   1      39.513  25.943  28.958  1.00  0.00    -0.206 F 
ATOM     81  C   UNL A   1      41.154  26.135  25.734  1.00  0.00     0.006 A 
ENDBRANCH  53  74
BRANCH  65  82
ATOM     82  C   UNL A   1      44.230  27.833  34.204  1.00  0.00     0.057 A 
ATOM     83  C   UNL A   1      44.000  26.625  34.875  1.00  0.00     0.134 A 
ATOM     84  C   UNL A   1      45.559  28.251  34.062  1.00  0.00     0.134 A 
ATOM     85  F   UNL A   1      42.748  26.176  35.057  1.00  0.00    -0.206 F 
ATOM     86  C   UNL A   1      45.048  25.881  35.418  1.00  0.00     0.040 A 
ATOM     87  C   UNL A   1      46.618  27.499  34.574  1.00  0.00     0.040 A 
ATOM     88  F   UNL A   1      45.851  29.393  33.421  1.00  0.00    -0.206 F 
ATOM     89  C   UNL A   1      46.363  26.316  35.264  1.00  0.00     0.006 A 
ENDBRANCH  65  82
ENDBRANCH  39  40
ENDBRANCH  31  34
ENDBRANCH  29  30
ENDBRANCH  28  29
ENDBRANCH   1  28
TORSDOF 18
ENDMDL
MODEL 3
REMARK VINA RESULT:     -11.0      5.289      9.997
REMARK SMILES CC(C)(C)OC(=O)[C@@H](C(=O)NCCCCNC(=O)c1ccc(-c2c3nc(c(-c4c(F)cccc4F)c4ccc([nH]4)c(-c4c(F)cccc4F)c4nc(c(-c5c(F)cccc5F)c5ccc2[nH]5)C=C4)C=C3)cc1)[C@@H]([NH3+])Cc1cccc(F)c1
REMARK SMILES IDX 13 1 12 2 11 3 9 4 10 5 8 7 6 8 7 9 5 10 2 11 1 12 3 13 4 14
REMARK SMILES IDX 73 15 74 16 75 20 76 21 77 22 82 23 78 24 80 25 79 26 81 27
REMARK SMILES IDX 14 28 15 29 16 30 17 31 18 33 19 34 20 35 72 36 21 37 71 38
REMARK SMILES IDX 22 39 23 40 24 41 65 42 25 43 70 44 64 45 66 46 26 47 69 48
REMARK SMILES IDX 63 49 62 50 27 52 53 53 36 54 52 55 37 56 40 57 51 58 67 59
REMARK SMILES IDX 38 60 39 61 50 63 68 64 41 65 28 66 29 67 34 68 30 69 31 70
REMARK SMILES IDX 33 71 35 72 32 73 54 74 55 75 60 76 56 77 57 78 59 79 61 80
REMARK SMILES IDX 58 81 42 82 43 83 48 84 44 85 45 86 47 87 49 88 46 89
REMARK H PARENT 11 6 74 17 74 18 74 19 16 32 66 51 40 62
REMARK Flexibility Score: inf
ROOT
ATOM      1  C   UNL A   1      36.865  20.557  24.618  1.00  0.00     0.023 C 
ENDROOT
BRANCH   1   2
ATOM      2  C   UNL A   1      36.873  21.812  25.496  1.00  0.00     0.116 C 
BRANCH   2   3
ATOM      3  N   UNL A   1      35.601  21.948  26.182  1.00  0.00    -0.355 N 
ATOM      4  C   UNL A   1      34.468  22.538  25.697  1.00  0.00     0.240 C 
ATOM      5  O   UNL A   1      33.835  23.221  26.497  1.00  0.00    -0.274 OA
ATOM      6  H   UNL A   1      35.550  21.577  27.092  1.00  0.00     0.163 HD
BRANCH   4   7
ATOM      7  C   UNL A   1      34.069  22.346  24.243  1.00  0.00     0.246 C 
BRANCH   7   8
ATOM      8  C   UNL A   1      34.352  23.619  23.475  1.00  0.00     0.325 C 
ATOM      9  O   UNL A   1      35.481  23.962  23.137  1.00  0.00    -0.251 OA
BRANCH   8  10
ATOM     10  O   UNL A   1      33.219  24.323  23.216  1.00  0.00    -0.459 OA
BRANCH  10  11
ATOM     11  C   UNL A   1      33.089  25.713  23.624  1.00  0.00     0.104 C 
ATOM     12  C   UNL A   1      31.640  25.843  24.115  1.00  0.00     0.056 C 
ATOM     13  C   UNL A   1      33.293  26.671  22.445  1.00  0.00     0.056 C 
ATOM     14  C   UNL A   1      34.026  26.052  24.787  1.00  0.00     0.056 C 
ENDBRANCH  10  11
ENDBRANCH   8  10
ENDBRANCH   7   8
BRANCH   7  15
ATOM     15  C   UNL A   1      32.582  21.920  24.009  1.00  0.00     0.209 C 
BRANCH  15  16
ATOM     16  N   UNL A   1      32.343  21.756  22.546  1.00  0.00    -0.354 N 
ATOM     17  H   UNL A   1      32.119  20.782  22.345  1.00  0.00     0.344 HD
ATOM     18  H   UNL A   1      33.181  22.025  22.032  1.00  0.00     0.344 HD
ATOM     19  H   UNL A   1      31.564  22.349  22.260  1.00  0.00     0.344 HD
ENDBRANCH  15  16
BRANCH  15  20
ATOM     20  C   UNL A   1      32.155  20.558  24.645  1.00  0.00     0.102 C 
BRANCH  20  21
ATOM     21  C   UNL A   1      32.798  19.273  24.169  1.00  0.00    -0.039 A 
ATOM     22  C   UNL A   1      32.293  18.640  23.019  1.00  0.00     0.004 A 
ATOM     23  C   UNL A   1      33.857  18.658  24.849  1.00  0.00     0.043 A 
ATOM     24  C   UNL A   1      32.901  17.492  22.502  1.00  0.00     0.003 A 
ATOM     25  C   UNL A   1      34.481  17.536  24.306  1.00  0.00     0.123 A 
ATOM     26  C   UNL A   1      34.020  16.955  23.132  1.00  0.00     0.039 A 
ATOM     27  F   UNL A   1      35.557  17.021  24.916  1.00  0.00    -0.207 F 
ENDBRANCH  20  21
ENDBRANCH  15  20
ENDBRANCH   7  15
ENDBRANCH   4   7
ENDBRANCH   2   3
ENDBRANCH   1   2
BRANCH   1  28
ATOM     28  C   UNL A   1      37.881  19.474  25.002  1.00  0.00     0.023 C 
BRANCH  28  29
ATOM     29  C   UNL A   1      39.100  19.967  25.769  1.00  0.00     0.116 C 
BRANCH  29  30
ATOM     30  N   UNL A   1      40.195  19.014  25.750  1.00  0.00    -0.352 N 
ATOM     31  C   UNL A   1      41.532  19.211  25.969  1.00  0.00     0.251 C 
ATOM     32  H   UNL A   1      39.937  18.085  25.548  1.00  0.00     0.163 HD
ATOM     33  O   UNL A   1      42.321  18.286  25.780  1.00  0.00    -0.269 OA
BRANCH  31  34
ATOM     34  C   UNL A   1      42.039  20.532  26.397  1.00  0.00     0.039 A 
ATOM     35  C   UNL A   1      42.422  21.443  25.409  1.00  0.00     0.014 A 
ATOM     36  C   UNL A   1      42.153  20.875  27.748  1.00  0.00     0.014 A 
ATOM     37  C   UNL A   1      42.866  22.713  25.773  1.00  0.00     0.010 A 
ATOM     38  C   UNL A   1      42.526  22.169  28.107  1.00  0.00     0.010 A 
ATOM     39  C   UNL A   1      42.889  23.100  27.124  1.00  0.00    -0.014 A 
BRANCH  39  40
ATOM     40  C   UNL A   1      43.275  24.483  27.501  1.00  0.00     0.031 A 
ATOM     41  C   UNL A   1      44.714  24.918  27.453  1.00  0.00     0.074 A 
ATOM     42  C   UNL A   1      42.322  25.343  27.908  1.00  0.00     0.049 A 
ATOM     43  N   UNL A   1      45.231  26.088  27.732  1.00  0.00    -0.248 NA
ATOM     44  C   UNL A   1      45.704  23.904  27.060  1.00  0.00     0.031 C 
ATOM     45  C   UNL A   1      40.900  25.021  28.054  1.00  0.00     0.029 A 
ATOM     46  N   UNL A   1      42.401  26.663  28.273  1.00  0.00    -0.354 N 
ATOM     47  C   UNL A   1      46.600  25.952  27.545  1.00  0.00     0.074 A 
ATOM     48  C   UNL A   1      46.842  24.571  27.189  1.00  0.00     0.031 C 
ATOM     49  C   UNL A   1      40.238  26.121  28.447  1.00  0.00     0.029 A 
ATOM     50  C   UNL A   1      41.189  27.215  28.610  1.00  0.00     0.049 A 
ATOM     51  H   UNL A   1      43.247  27.168  28.290  1.00  0.00     0.167 HD
ATOM     52  C   UNL A   1      47.564  26.899  27.633  1.00  0.00     0.037 A 
ATOM     53  C   UNL A   1      40.880  28.464  29.008  1.00  0.00     0.037 A 
ATOM     54  C   UNL A   1      47.320  28.275  27.978  1.00  0.00     0.049 A 
ATOM     55  C   UNL A   1      41.972  29.494  29.097  1.00  0.00     0.074 A 
ATOM     56  C   UNL A   1      48.226  29.319  28.057  1.00  0.00     0.029 A 
ATOM     57  N   UNL A   1      46.077  28.800  28.301  1.00  0.00    -0.354 N 
ATOM     58  N   UNL A   1      43.253  29.366  28.847  1.00  0.00    -0.248 NA
ATOM     59  C   UNL A   1      41.571  30.845  29.510  1.00  0.00     0.031 C 
ATOM     60  C   UNL A   1      47.539  30.467  28.467  1.00  0.00     0.029 A 
ATOM     61  C   UNL A   1      46.197  30.149  28.596  1.00  0.00     0.049 A 
ATOM     62  H   UNL A   1      45.236  28.290  28.319  1.00  0.00     0.167 HD
ATOM     63  C   UNL A   1      43.807  30.623  29.054  1.00  0.00     0.074 A 
ATOM     64  C   UNL A   1      42.718  31.504  29.418  1.00  0.00     0.031 C 
ATOM     65  C   UNL A   1      45.102  31.012  28.959  1.00  0.00     0.037 A 
BRANCH  52  66
ATOM     66  C   UNL A   1      48.976  26.483  27.334  1.00  0.00     0.057 A 
ATOM     67  C   UNL A   1      49.836  26.029  28.343  1.00  0.00     0.134 A 
ATOM     68  C   UNL A   1      49.464  26.481  26.021  1.00  0.00     0.134 A 
ATOM     69  F   UNL A   1      49.435  26.017  29.623  1.00  0.00    -0.206 F 
ATOM     70  C   UNL A   1      51.136  25.605  28.059  1.00  0.00     0.040 A 
ATOM     71  C   UNL A   1      50.751  26.034  25.721  1.00  0.00     0.040 A 
ATOM     72  F   UNL A   1      48.691  26.898  25.006  1.00  0.00    -0.206 F 
ATOM     73  C   UNL A   1      51.593  25.598  26.743  1.00  0.00     0.006 A 
ENDBRANCH  52  66
BRANCH  53  74
ATOM     74  C   UNL A   1      39.476  28.818  29.337  1.00  0.00     0.057 A 
ATOM     75  C   UNL A   1      38.622  29.374  28.376  1.00  0.00     0.134 A 
ATOM     76  C   UNL A   1      38.964  28.641  30.628  1.00  0.00     0.134 A 
ATOM     77  F   UNL A   1      39.059  29.586  27.127  1.00  0.00    -0.206 F 
ATOM     78  C   UNL A   1      37.321  29.768  28.694  1.00  0.00     0.040 A 
ATOM     79  C   UNL A   1      37.656  29.004  30.952  1.00  0.00     0.040 A 
ATOM     80  F   UNL A   1      39.728  28.106  31.592  1.00  0.00    -0.206 F 
ATOM     81  C   UNL A   1      36.834  29.579  29.986  1.00  0.00     0.006 A 
ENDBRANCH  53  74
BRANCH  65  82
ATOM     82  C   UNL A   1      45.397  32.459  29.231  1.00  0.00     0.057 A 
ATOM     83  C   UNL A   1      45.737  32.916  30.510  1.00  0.00     0.134 A 
ATOM     84  C   UNL A   1      45.344  33.404  28.198  1.00  0.00     0.134 A 
ATOM     85  F   UNL A   1      45.791  32.063  31.545  1.00  0.00    -0.206 F 
ATOM     86  C   UNL A   1      45.978  34.268  30.762  1.00  0.00     0.040 A 
ATOM     87  C   UNL A   1      45.614  34.753  28.432  1.00  0.00     0.040 A 
ATOM     88  F   UNL A   1      45.035  33.032  26.947  1.00  0.00    -0.206 F 
ATOM     89  C   UNL A   1      45.921  35.190  29.719  1.00  0.00     0.006 A 
ENDBRANCH  65  82
ENDBRANCH  39  40
ENDBRANCH  31  34
ENDBRANCH  29  30
ENDBRANCH  28  29
ENDBRANCH   1  28
TORSDOF 18
ENDMDL
