MODEL 1
REMARK VINA RESULT:     -11.4      0.000      0.000
REMARK SMILES [NH3+][C@H](Cc1ccc2nsnc2c1)C(=O)NCCCCNC(=O)c1ccc(-c2c3nc(c(-c4c(F)cccc4F)c4ccc([nH]4)c(-c4c(F)cccc4F)c4nc(c(-c5c(F)cccc5F)c5ccc2[nH]5)C=C4)C=C3)cc1
REMARK SMILES IDX 17 1 16 2 15 3 13 4 14 5 2 7 1 8 3 12 4 13 5 14 12 15 6 16
REMARK SMILES IDX 11 17 7 18 10 19 8 20 9 21 18 22 19 23 20 24 21 25 22 27
REMARK SMILES IDX 23 28 24 29 76 30 25 31 75 32 26 33 27 34 28 35 69 36 29 37
REMARK SMILES IDX 74 38 68 39 70 40 30 41 73 42 67 43 66 44 31 46 57 47 40 48
REMARK SMILES IDX 56 49 41 50 44 51 55 52 71 53 42 54 43 55 54 57 72 58 45 59
REMARK SMILES IDX 32 60 33 61 38 62 34 63 35 64 37 65 39 66 36 67 58 68 59 69
REMARK SMILES IDX 64 70 60 71 61 72 63 73 65 74 62 75 46 76 47 77 52 78 48 79
REMARK SMILES IDX 49 80 51 81 53 82 50 83
REMARK H PARENT 15 6 1 9 1 10 1 11 20 26 70 45 44 56
REMARK Flexibility Score: inf
ROOT
ATOM      1  C   UNL A   1      31.792  30.499  26.798  1.00  0.00     0.023 C 
ENDROOT
BRANCH   1   2
ATOM      2  C   UNL A   1      32.182  29.961  25.420  1.00  0.00     0.116 C 
BRANCH   2   3
ATOM      3  N   UNL A   1      31.068  30.062  24.500  1.00  0.00    -0.351 N 
ATOM      4  C   UNL A   1      30.607  29.200  23.549  1.00  0.00     0.278 C 
ATOM      5  O   UNL A   1      29.710  29.610  22.804  1.00  0.00    -0.268 OA
ATOM      6  H   UNL A   1      30.555  30.899  24.573  1.00  0.00     0.163 HD
BRANCH   4   7
ATOM      7  C   UNL A   1      31.163  27.768  23.406  1.00  0.00     0.275 C 
BRANCH   7   8
ATOM      8  N   UNL A   1      31.056  27.352  21.990  1.00  0.00    -0.347 N 
ATOM      9  H   UNL A   1      31.426  26.408  21.884  1.00  0.00     0.345 HD
ATOM     10  H   UNL A   1      31.593  27.995  21.406  1.00  0.00     0.345 HD
ATOM     11  H   UNL A   1      30.078  27.369  21.703  1.00  0.00     0.345 HD
ENDBRANCH   7   8
BRANCH   7  12
ATOM     12  C   UNL A   1      30.565  26.814  24.466  1.00  0.00     0.111 C 
BRANCH  12  13
ATOM     13  C   UNL A   1      31.555  25.870  25.129  1.00  0.00    -0.039 A 
ATOM     14  C   UNL A   1      32.945  25.987  24.835  1.00  0.00     0.006 A 
ATOM     15  C   UNL A   1      31.063  24.863  25.992  1.00  0.00     0.035 A 
ATOM     16  C   UNL A   1      33.944  25.177  25.408  1.00  0.00     0.032 A 
ATOM     17  C   UNL A   1      32.023  23.999  26.574  1.00  0.00     0.105 A 
ATOM     18  C   UNL A   1      33.490  24.168  26.286  1.00  0.00     0.104 A 
ATOM     19  N   UNL A   1      31.763  22.980  27.407  1.00  0.00    -0.173 NA
ATOM     20  N   UNL A   1      34.263  23.281  26.930  1.00  0.00    -0.173 NA
ATOM     21  S   UNL A   1      33.233  22.312  27.803  1.00  0.00     0.069 S 
ENDBRANCH  12  13
ENDBRANCH   7  12
ENDBRANCH   4   7
ENDBRANCH   2   3
ENDBRANCH   1   2
BRANCH   1  22
ATOM     22  C   UNL A   1      31.561  32.014  26.835  1.00  0.00     0.023 C 
BRANCH  22  23
ATOM     23  C   UNL A   1      32.758  32.832  27.306  1.00  0.00     0.116 C 
BRANCH  23  24
ATOM     24  N   UNL A   1      32.413  34.212  27.617  1.00  0.00    -0.352 N 
ATOM     25  C   UNL A   1      32.967  35.037  28.565  1.00  0.00     0.251 C 
ATOM     26  H   UNL A   1      31.688  34.603  27.079  1.00  0.00     0.163 HD
ATOM     27  O   UNL A   1      32.476  36.137  28.797  1.00  0.00    -0.269 OA
BRANCH  25  28
ATOM     28  C   UNL A   1      34.142  34.570  29.328  1.00  0.00     0.039 A 
ATOM     29  C   UNL A   1      33.947  34.020  30.596  1.00  0.00     0.014 A 
ATOM     30  C   UNL A   1      35.422  34.642  28.773  1.00  0.00     0.014 A 
ATOM     31  C   UNL A   1      35.034  33.478  31.285  1.00  0.00     0.010 A 
ATOM     32  C   UNL A   1      36.491  34.040  29.430  1.00  0.00     0.010 A 
ATOM     33  C   UNL A   1      36.307  33.452  30.691  1.00  0.00    -0.014 A 
BRANCH  33  34
ATOM     34  C   UNL A   1      37.458  32.809  31.371  1.00  0.00     0.031 A 
ATOM     35  C   UNL A   1      38.133  31.620  30.749  1.00  0.00     0.074 A 
ATOM     36  C   UNL A   1      37.851  33.256  32.580  1.00  0.00     0.049 A 
ATOM     37  N   UNL A   1      39.103  30.879  31.222  1.00  0.00    -0.248 NA
ATOM     38  C   UNL A   1      37.633  31.189  29.434  1.00  0.00     0.031 C 
ATOM     39  C   UNL A   1      37.243  34.368  33.312  1.00  0.00     0.029 A 
ATOM     40  N   UNL A   1      38.849  32.817  33.414  1.00  0.00    -0.354 N 
ATOM     41  C   UNL A   1      39.319  29.891  30.271  1.00  0.00     0.074 A 
ATOM     42  C   UNL A   1      38.344  30.092  29.221  1.00  0.00     0.031 C 
ATOM     43  C   UNL A   1      37.892  34.537  34.475  1.00  0.00     0.029 A 
ATOM     44  C   UNL A   1      38.937  33.524  34.589  1.00  0.00     0.049 A 
ATOM     45  H   UNL A   1      39.446  32.066  33.191  1.00  0.00     0.167 HD
ATOM     46  C   UNL A   1      40.262  28.919  30.259  1.00  0.00     0.037 A 
ATOM     47  C   UNL A   1      39.761  33.367  35.641  1.00  0.00     0.037 A 
ATOM     48  C   UNL A   1      41.244  28.734  31.295  1.00  0.00     0.049 A 
ATOM     49  C   UNL A   1      40.799  32.279  35.606  1.00  0.00     0.074 A 
ATOM     50  C   UNL A   1      42.275  27.811  31.351  1.00  0.00     0.029 A 
ATOM     51  N   UNL A   1      41.317  29.487  32.458  1.00  0.00    -0.354 N 
ATOM     52  N   UNL A   1      41.036  31.392  34.669  1.00  0.00    -0.248 NA
ATOM     53  C   UNL A   1      41.689  32.173  36.771  1.00  0.00     0.031 C 
ATOM     54  C   UNL A   1      42.947  27.980  32.565  1.00  0.00     0.029 A 
ATOM     55  C   UNL A   1      42.365  29.039  33.245  1.00  0.00     0.049 A 
ATOM     56  H   UNL A   1      40.714  30.229  32.689  1.00  0.00     0.167 HD
ATOM     57  C   UNL A   1      42.116  30.644  35.118  1.00  0.00     0.074 A 
ATOM     58  C   UNL A   1      42.497  31.189  36.405  1.00  0.00     0.031 C 
ATOM     59  C   UNL A   1      42.735  29.598  34.520  1.00  0.00     0.037 A 
BRANCH  46  60
ATOM     60  C   UNL A   1      40.279  27.986  29.084  1.00  0.00     0.057 A 
ATOM     61  C   UNL A   1      39.548  26.790  29.084  1.00  0.00     0.134 A 
ATOM     62  C   UNL A   1      41.008  28.297  27.931  1.00  0.00     0.134 A 
ATOM     63  F   UNL A   1      38.838  26.426  30.163  1.00  0.00    -0.206 F 
ATOM     64  C   UNL A   1      39.563  25.925  27.989  1.00  0.00     0.040 A 
ATOM     65  C   UNL A   1      41.010  27.453  26.818  1.00  0.00     0.040 A 
ATOM     66  F   UNL A   1      41.726  29.429  27.863  1.00  0.00    -0.206 F 
ATOM     67  C   UNL A   1      40.290  26.260  26.848  1.00  0.00     0.006 A 
ENDBRANCH  46  60
BRANCH  47  68
ATOM     68  C   UNL A   1      39.655  34.275  36.811  1.00  0.00     0.057 A 
ATOM     69  C   UNL A   1      40.309  35.512  36.826  1.00  0.00     0.134 A 
ATOM     70  C   UNL A   1      38.906  33.928  37.941  1.00  0.00     0.134 A 
ATOM     71  F   UNL A   1      41.057  35.892  35.778  1.00  0.00    -0.206 F 
ATOM     72  C   UNL A   1      40.241  36.363  37.930  1.00  0.00     0.040 A 
ATOM     73  C   UNL A   1      38.808  34.780  39.043  1.00  0.00     0.040 A 
ATOM     74  F   UNL A   1      38.249  32.760  37.984  1.00  0.00    -0.206 F 
ATOM     75  C   UNL A   1      39.484  35.999  39.041  1.00  0.00     0.006 A 
ENDBRANCH  47  68
BRANCH  59  76
ATOM     76  C   UNL A   1      43.911  28.998  35.232  1.00  0.00     0.057 A 
ATOM     77  C   UNL A   1      43.764  27.956  36.156  1.00  0.00     0.134 A 
ATOM     78  C   UNL A   1      45.211  29.443  34.960  1.00  0.00     0.134 A 
ATOM     79  F   UNL A   1      42.544  27.494  36.471  1.00  0.00    -0.206 F 
ATOM     80  C   UNL A   1      44.866  27.392  36.800  1.00  0.00     0.040 A 
ATOM     81  C   UNL A   1      46.323  28.869  35.578  1.00  0.00     0.040 A 
ATOM     82  F   UNL A   1      45.423  30.431  34.078  1.00  0.00    -0.206 F 
ATOM     83  C   UNL A   1      46.152  27.844  36.505  1.00  0.00     0.006 A 
ENDBRANCH  59  76
ENDBRANCH  33  34
ENDBRANCH  25  28
ENDBRANCH  23  24
ENDBRANCH  22  23
ENDBRANCH   1  22
TORSDOF 14
ENDMDL
MODEL 2
REMARK VINA RESULT:     -11.4      6.095     10.192
REMARK SMILES [NH3+][C@H](Cc1ccc2nsnc2c1)C(=O)NCCCCNC(=O)c1ccc(-c2c3nc(c(-c4c(F)cccc4F)c4ccc([nH]4)c(-c4c(F)cccc4F)c4nc(c(-c5c(F)cccc5F)c5ccc2[nH]5)C=C4)C=C3)cc1
REMARK SMILES IDX 17 1 16 2 15 3 13 4 14 5 2 7 1 8 3 12 4 13 5 14 12 15 6 16
REMARK SMILES IDX 11 17 7 18 10 19 8 20 9 21 18 22 19 23 20 24 21 25 22 27
REMARK SMILES IDX 23 28 24 29 76 30 25 31 75 32 26 33 27 34 28 35 69 36 29 37
REMARK SMILES IDX 74 38 68 39 70 40 30 41 73 42 67 43 66 44 31 46 57 47 40 48
REMARK SMILES IDX 56 49 41 50 44 51 55 52 71 53 42 54 43 55 54 57 72 58 45 59
REMARK SMILES IDX 32 60 33 61 38 62 34 63 35 64 37 65 39 66 36 67 58 68 59 69
REMARK SMILES IDX 64 70 60 71 61 72 63 73 65 74 62 75 46 76 47 77 52 78 48 79
REMARK SMILES IDX 49 80 51 81 53 82 50 83
REMARK H PARENT 15 6 1 9 1 10 1 11 20 26 70 45 44 56
REMARK Flexibility Score: inf
ROOT
ATOM      1  C   UNL A   1      36.924  20.712  24.818  1.00  0.00     0.023 C 
ENDROOT
BRANCH   1   2
ATOM      2  C   UNL A   1      35.526  20.127  25.029  1.00  0.00     0.116 C 
BRANCH   2   3
ATOM      3  N   UNL A   1      35.489  18.736  24.626  1.00  0.00    -0.351 N 
ATOM      4  C   UNL A   1      34.452  17.857  24.524  1.00  0.00     0.278 C 
ATOM      5  O   UNL A   1      34.734  16.678  24.286  1.00  0.00    -0.268 OA
ATOM      6  H   UNL A   1      36.367  18.360  24.384  1.00  0.00     0.163 HD
BRANCH   4   7
ATOM      7  C   UNL A   1      32.984  18.304  24.685  1.00  0.00     0.275 C 
BRANCH   7   8
ATOM      8  N   UNL A   1      32.153  17.118  24.987  1.00  0.00    -0.347 N 
ATOM      9  H   UNL A   1      32.757  16.309  25.136  1.00  0.00     0.345 HD
ATOM     10  H   UNL A   1      31.526  16.933  24.203  1.00  0.00     0.345 HD
ATOM     11  H   UNL A   1      31.603  17.292  25.828  1.00  0.00     0.345 HD
ENDBRANCH   7   8
BRANCH   7  12
ATOM     12  C   UNL A   1      32.528  19.202  23.512  1.00  0.00     0.111 C 
BRANCH  12  13
ATOM     13  C   UNL A   1      32.245  20.653  23.870  1.00  0.00    -0.039 A 
ATOM     14  C   UNL A   1      32.153  21.628  22.833  1.00  0.00     0.006 A 
ATOM     15  C   UNL A   1      32.125  21.008  25.232  1.00  0.00     0.035 A 
ATOM     16  C   UNL A   1      31.877  22.990  23.054  1.00  0.00     0.032 A 
ATOM     17  C   UNL A   1      31.875  22.374  25.515  1.00  0.00     0.105 A 
ATOM     18  C   UNL A   1      31.737  23.379  24.403  1.00  0.00     0.104 A 
ATOM     19  N   UNL A   1      31.739  22.914  26.735  1.00  0.00    -0.173 NA
ATOM     20  N   UNL A   1      31.485  24.622  24.841  1.00  0.00    -0.173 NA
ATOM     21  S   UNL A   1      31.446  24.533  26.500  1.00  0.00     0.069 S 
ENDBRANCH  12  13
ENDBRANCH   7  12
ENDBRANCH   4   7
ENDBRANCH   2   3
ENDBRANCH   1   2
BRANCH   1  22
ATOM     22  C   UNL A   1      38.050  19.674  24.870  1.00  0.00     0.023 C 
BRANCH  22  23
ATOM     23  C   UNL A   1      39.218  20.042  25.778  1.00  0.00     0.116 C 
BRANCH  23  24
ATOM     24  N   UNL A   1      40.231  18.999  25.848  1.00  0.00    -0.352 N 
ATOM     25  C   UNL A   1      41.578  19.132  26.075  1.00  0.00     0.251 C 
ATOM     26  H   UNL A   1      39.907  18.079  25.713  1.00  0.00     0.163 HD
ATOM     27  O   UNL A   1      42.326  18.165  25.973  1.00  0.00    -0.269 OA
BRANCH  25  28
ATOM     28  C   UNL A   1      42.124  20.462  26.411  1.00  0.00     0.039 A 
ATOM     29  C   UNL A   1      42.532  21.305  25.376  1.00  0.00     0.014 A 
ATOM     30  C   UNL A   1      42.194  20.886  27.741  1.00  0.00     0.014 A 
ATOM     31  C   UNL A   1      42.950  22.604  25.671  1.00  0.00     0.010 A 
ATOM     32  C   UNL A   1      42.544  22.202  28.027  1.00  0.00     0.010 A 
ATOM     33  C   UNL A   1      42.924  23.073  26.994  1.00  0.00    -0.014 A 
BRANCH  33  34
ATOM     34  C   UNL A   1      43.288  24.474  27.320  1.00  0.00     0.031 A 
ATOM     35  C   UNL A   1      44.726  24.908  27.281  1.00  0.00     0.074 A 
ATOM     36  C   UNL A   1      42.330  25.336  27.714  1.00  0.00     0.049 A 
ATOM     37  N   UNL A   1      45.249  26.064  27.602  1.00  0.00    -0.248 NA
ATOM     38  C   UNL A   1      45.709  23.901  26.853  1.00  0.00     0.031 C 
ATOM     39  C   UNL A   1      40.907  25.021  27.843  1.00  0.00     0.029 A 
ATOM     40  N   UNL A   1      42.414  26.652  28.095  1.00  0.00    -0.354 N 
ATOM     41  C   UNL A   1      46.618  25.919  27.426  1.00  0.00     0.074 A 
ATOM     42  C   UNL A   1      46.852  24.548  27.024  1.00  0.00     0.031 C 
ATOM     43  C   UNL A   1      40.249  26.117  28.253  1.00  0.00     0.029 A 
ATOM     44  C   UNL A   1      41.207  27.201  28.452  1.00  0.00     0.049 A 
ATOM     45  H   UNL A   1      43.261  27.155  28.111  1.00  0.00     0.167 HD
ATOM     46  C   UNL A   1      47.593  26.849  27.561  1.00  0.00     0.037 A 
ATOM     47  C   UNL A   1      40.907  28.436  28.896  1.00  0.00     0.037 A 
ATOM     48  C   UNL A   1      47.357  28.217  27.940  1.00  0.00     0.049 A 
ATOM     49  C   UNL A   1      42.007  29.451  29.040  1.00  0.00     0.074 A 
ATOM     50  C   UNL A   1      48.271  29.252  28.053  1.00  0.00     0.029 A 
ATOM     51  N   UNL A   1      46.115  28.743  28.268  1.00  0.00    -0.354 N 
ATOM     52  N   UNL A   1      43.290  29.319  28.806  1.00  0.00    -0.248 NA
ATOM     53  C   UNL A   1      41.616  30.791  29.503  1.00  0.00     0.031 C 
ATOM     54  C   UNL A   1      47.588  30.392  28.488  1.00  0.00     0.029 A 
ATOM     55  C   UNL A   1      46.242  30.081  28.600  1.00  0.00     0.049 A 
ATOM     56  H   UNL A   1      45.270  28.239  28.265  1.00  0.00     0.167 HD
ATOM     57  C   UNL A   1      43.854  30.561  29.066  1.00  0.00     0.074 A 
ATOM     58  C   UNL A   1      42.772  31.438  29.462  1.00  0.00     0.031 C 
ATOM     59  C   UNL A   1      45.153  30.941  28.985  1.00  0.00     0.037 A 
BRANCH  46  60
ATOM     60  C   UNL A   1      49.004  26.418  27.288  1.00  0.00     0.057 A 
ATOM     61  C   UNL A   1      49.555  26.475  26.001  1.00  0.00     0.134 A 
ATOM     62  C   UNL A   1      49.829  25.966  28.325  1.00  0.00     0.134 A 
ATOM     63  F   UNL A   1      48.814  26.886  24.961  1.00  0.00    -0.206 F 
ATOM     64  C   UNL A   1      50.869  26.075  25.751  1.00  0.00     0.040 A 
ATOM     65  C   UNL A   1      51.153  25.589  28.092  1.00  0.00     0.040 A 
ATOM     66  F   UNL A   1      49.366  25.891  29.582  1.00  0.00    -0.206 F 
ATOM     67  C   UNL A   1      51.675  25.637  26.800  1.00  0.00     0.006 A 
ENDBRANCH  46  60
BRANCH  47  68
ATOM     68  C   UNL A   1      39.502  28.789  29.219  1.00  0.00     0.057 A 
ATOM     69  C   UNL A   1      38.649  29.319  28.244  1.00  0.00     0.134 A 
ATOM     70  C   UNL A   1      38.980  28.614  30.506  1.00  0.00     0.134 A 
ATOM     71  F   UNL A   1      39.097  29.526  26.997  1.00  0.00    -0.206 F 
ATOM     72  C   UNL A   1      37.334  29.682  28.541  1.00  0.00     0.040 A 
ATOM     73  C   UNL A   1      37.661  28.950  30.812  1.00  0.00     0.040 A 
ATOM     74  F   UNL A   1      39.745  28.103  31.482  1.00  0.00    -0.206 F 
ATOM     75  C   UNL A   1      36.836  29.493  29.828  1.00  0.00     0.006 A 
ENDBRANCH  47  68
BRANCH  59  76
ATOM     76  C   UNL A   1      45.468  32.374  29.296  1.00  0.00     0.057 A 
ATOM     77  C   UNL A   1      45.845  32.786  30.581  1.00  0.00     0.134 A 
ATOM     78  C   UNL A   1      45.432  33.346  28.289  1.00  0.00     0.134 A 
ATOM     79  F   UNL A   1      45.885  31.907  31.593  1.00  0.00    -0.206 F 
ATOM     80  C   UNL A   1      46.155  34.119  30.857  1.00  0.00     0.040 A 
ATOM     81  C   UNL A   1      45.766  34.677  28.547  1.00  0.00     0.040 A 
ATOM     82  F   UNL A   1      45.089  33.017  27.035  1.00  0.00    -0.206 F 
ATOM     83  C   UNL A   1      46.123  35.067  29.835  1.00  0.00     0.006 A 
ENDBRANCH  59  76
ENDBRANCH  33  34
ENDBRANCH  25  28
ENDBRANCH  23  24
ENDBRANCH  22  23
ENDBRANCH   1  22
TORSDOF 14
ENDMDL
MODEL 3
REMARK VINA RESULT:     -11.4      5.787      9.994
REMARK SMILES [NH3+][C@H](Cc1ccc2nsnc2c1)C(=O)NCCCCNC(=O)c1ccc(-c2c3nc(c(-c4c(F)cccc4F)c4ccc([nH]4)c(-c4c(F)cccc4F)c4nc(c(-c5c(F)cccc5F)c5ccc2[nH]5)C=C4)C=C3)cc1
REMARK SMILES IDX 17 1 16 2 15 3 13 4 14 5 2 7 1 8 3 12 4 13 5 14 12 15 6 16
REMARK SMILES IDX 11 17 7 18 10 19 8 20 9 21 18 22 19 23 20 24 21 25 22 27
REMARK SMILES IDX 23 28 24 29 76 30 25 31 75 32 26 33 27 34 28 35 69 36 29 37
REMARK SMILES IDX 74 38 68 39 70 40 30 41 73 42 67 43 66 44 31 46 57 47 40 48
REMARK SMILES IDX 56 49 41 50 44 51 55 52 71 53 42 54 43 55 54 57 72 58 45 59
REMARK SMILES IDX 32 60 33 61 38 62 34 63 35 64 37 65 39 66 36 67 58 68 59 69
REMARK SMILES IDX 64 70 60 71 61 72 63 73 65 74 62 75 46 76 47 77 52 78 48 79
REMARK SMILES IDX 49 80 51 81 53 82 50 83
REMARK H PARENT 15 6 1 9 1 10 1 11 20 26 70 45 44 56
REMARK Flexibility Score: inf
ROOT
ATOM      1  C   UNL A   1      37.328  21.204  24.722  1.00  0.00     0.023 C 
ENDROOT
BRANCH   1   2
ATOM      2  C   UNL A   1      36.058  21.312  25.567  1.00  0.00     0.116 C 
BRANCH   2   3
ATOM      3  N   UNL A   1      35.138  20.240  25.246  1.00  0.00    -0.351 N 
ATOM      4  C   UNL A   1      33.780  20.227  25.126  1.00  0.00     0.278 C 
ATOM      5  O   UNL A   1      33.238  19.126  24.978  1.00  0.00    -0.268 OA
ATOM      6  H   UNL A   1      35.569  19.369  25.088  1.00  0.00     0.163 HD
BRANCH   4   7
ATOM      7  C   UNL A   1      32.945  21.524  25.158  1.00  0.00     0.275 C 
BRANCH   7   8
ATOM      8  N   UNL A   1      31.622  21.226  25.750  1.00  0.00    -0.347 N 
ATOM      9  H   UNL A   1      31.354  20.268  25.520  1.00  0.00     0.345 HD
ATOM     10  H   UNL A   1      30.927  21.871  25.373  1.00  0.00     0.345 HD
ATOM     11  H   UNL A   1      31.670  21.332  26.763  1.00  0.00     0.345 HD
ENDBRANCH   7   8
BRANCH   7  12
ATOM     12  C   UNL A   1      32.957  22.246  23.792  1.00  0.00     0.111 C 
BRANCH  12  13
ATOM     13  C   UNL A   1      33.228  23.741  23.843  1.00  0.00    -0.039 A 
ATOM     14  C   UNL A   1      33.345  24.392  25.107  1.00  0.00     0.006 A 
ATOM     15  C   UNL A   1      33.312  24.461  22.630  1.00  0.00     0.035 A 
ATOM     16  C   UNL A   1      33.613  25.764  25.265  1.00  0.00     0.032 A 
ATOM     17  C   UNL A   1      33.551  25.854  22.731  1.00  0.00     0.105 A 
ATOM     18  C   UNL A   1      33.716  26.513  24.073  1.00  0.00     0.104 A 
ATOM     19  N   UNL A   1      33.654  26.712  21.705  1.00  0.00    -0.173 NA
ATOM     20  N   UNL A   1      33.954  27.831  23.991  1.00  0.00    -0.173 NA
ATOM     21  S   UNL A   1      33.950  28.206  22.372  1.00  0.00     0.069 S 
ENDBRANCH  12  13
ENDBRANCH   7  12
ENDBRANCH   4   7
ENDBRANCH   2   3
ENDBRANCH   1   2
BRANCH   1  22
ATOM     22  C   UNL A   1      38.158  19.946  25.000  1.00  0.00     0.023 C 
BRANCH  22  23
ATOM     23  C   UNL A   1      39.207  20.101  26.095  1.00  0.00     0.116 C 
BRANCH  23  24
ATOM     24  N   UNL A   1      40.260  19.100  26.017  1.00  0.00    -0.352 N 
ATOM     25  C   UNL A   1      41.618  19.281  26.100  1.00  0.00     0.251 C 
ATOM     26  H   UNL A   1      39.959  18.172  25.886  1.00  0.00     0.163 HD
ATOM     27  O   UNL A   1      42.386  18.349  25.883  1.00  0.00    -0.269 OA
BRANCH  25  28
ATOM     28  C   UNL A   1      42.149  20.622  26.421  1.00  0.00     0.039 A 
ATOM     29  C   UNL A   1      42.446  21.497  25.375  1.00  0.00     0.014 A 
ATOM     30  C   UNL A   1      42.310  21.021  27.750  1.00  0.00     0.014 A 
ATOM     31  C   UNL A   1      42.846  22.803  25.665  1.00  0.00     0.010 A 
ATOM     32  C   UNL A   1      42.641  22.342  28.036  1.00  0.00     0.010 A 
ATOM     33  C   UNL A   1      42.911  23.245  26.996  1.00  0.00    -0.014 A 
BRANCH  33  34
ATOM     34  C   UNL A   1      43.256  24.651  27.322  1.00  0.00     0.031 A 
ATOM     35  C   UNL A   1      44.685  25.109  27.267  1.00  0.00     0.074 A 
ATOM     36  C   UNL A   1      42.289  25.496  27.733  1.00  0.00     0.049 A 
ATOM     37  N   UNL A   1      45.194  26.272  27.586  1.00  0.00    -0.248 NA
ATOM     38  C   UNL A   1      45.680  24.120  26.821  1.00  0.00     0.031 C 
ATOM     39  C   UNL A   1      40.873  25.157  27.879  1.00  0.00     0.029 A 
ATOM     40  N   UNL A   1      42.357  26.811  28.118  1.00  0.00    -0.354 N 
ATOM     41  C   UNL A   1      46.563  26.150  27.390  1.00  0.00     0.074 A 
ATOM     42  C   UNL A   1      46.814  24.785  26.980  1.00  0.00     0.031 C 
ATOM     43  C   UNL A   1      40.203  26.240  28.303  1.00  0.00     0.029 A 
ATOM     44  C   UNL A   1      41.145  27.339  28.493  1.00  0.00     0.049 A 
ATOM     45  H   UNL A   1      43.195  27.329  28.125  1.00  0.00     0.167 HD
ATOM     46  C   UNL A   1      47.524  27.096  27.516  1.00  0.00     0.037 A 
ATOM     47  C   UNL A   1      40.831  28.567  28.947  1.00  0.00     0.037 A 
ATOM     48  C   UNL A   1      47.270  28.459  27.904  1.00  0.00     0.049 A 
ATOM     49  C   UNL A   1      41.916  29.600  29.080  1.00  0.00     0.074 A 
ATOM     50  C   UNL A   1      48.168  29.508  28.009  1.00  0.00     0.029 A 
ATOM     51  N   UNL A   1      46.025  28.962  28.251  1.00  0.00    -0.354 N 
ATOM     52  N   UNL A   1      43.198  29.490  28.828  1.00  0.00    -0.248 NA
ATOM     53  C   UNL A   1      41.509  30.931  29.553  1.00  0.00     0.031 C 
ATOM     54  C   UNL A   1      47.473  30.635  28.458  1.00  0.00     0.029 A 
ATOM     55  C   UNL A   1      46.134  30.301  28.587  1.00  0.00     0.049 A 
ATOM     56  H   UNL A   1      45.188  28.444  28.257  1.00  0.00     0.167 HD
ATOM     57  C   UNL A   1      43.745  30.740  29.085  1.00  0.00     0.074 A 
ATOM     58  C   UNL A   1      42.653  31.597  29.500  1.00  0.00     0.031 C 
ATOM     59  C   UNL A   1      45.035  31.142  28.989  1.00  0.00     0.037 A 
BRANCH  46  60
ATOM     60  C   UNL A   1      48.938  26.689  27.224  1.00  0.00     0.057 A 
ATOM     61  C   UNL A   1      49.476  26.776  25.932  1.00  0.00     0.134 A 
ATOM     62  C   UNL A   1      49.779  26.232  28.245  1.00  0.00     0.134 A 
ATOM     63  F   UNL A   1      48.720  27.193  24.906  1.00  0.00    -0.206 F 
ATOM     64  C   UNL A   1      50.793  26.399  25.663  1.00  0.00     0.040 A 
ATOM     65  C   UNL A   1      51.106  25.877  27.993  1.00  0.00     0.040 A 
ATOM     66  F   UNL A   1      49.329  26.129  29.505  1.00  0.00    -0.206 F 
ATOM     67  C   UNL A   1      51.614  25.954  26.698  1.00  0.00     0.006 A 
ENDBRANCH  46  60
BRANCH  47  68
ATOM     68  C   UNL A   1      39.424  28.896  29.289  1.00  0.00     0.057 A 
ATOM     69  C   UNL A   1      38.926  28.678  30.578  1.00  0.00     0.134 A 
ATOM     70  C   UNL A   1      38.545  29.427  28.338  1.00  0.00     0.134 A 
ATOM     71  F   UNL A   1      39.716  28.154  31.527  1.00  0.00    -0.206 F 
ATOM     72  C   UNL A   1      37.597  28.955  30.906  1.00  0.00     0.040 A 
ATOM     73  C   UNL A   1      37.221  29.733  28.658  1.00  0.00     0.040 A 
ATOM     74  F   UNL A   1      38.965  29.667  27.088  1.00  0.00    -0.206 F 
ATOM     75  C   UNL A   1      36.743  29.489  29.944  1.00  0.00     0.006 A 
ENDBRANCH  47  68
BRANCH  59  76
ATOM     76  C   UNL A   1      45.331  32.579  29.302  1.00  0.00     0.057 A 
ATOM     77  C   UNL A   1      45.715  32.993  30.584  1.00  0.00     0.134 A 
ATOM     78  C   UNL A   1      45.270  33.553  28.298  1.00  0.00     0.134 A 
ATOM     79  F   UNL A   1      45.779  32.110  31.593  1.00  0.00    -0.206 F 
ATOM     80  C   UNL A   1      46.007  34.329  30.861  1.00  0.00     0.040 A 
ATOM     81  C   UNL A   1      45.585  34.888  28.557  1.00  0.00     0.040 A 
ATOM     82  F   UNL A   1      44.918  33.222  27.047  1.00  0.00    -0.206 F 
ATOM     83  C   UNL A   1      45.949  35.280  29.843  1.00  0.00     0.006 A 
ENDBRANCH  59  76
ENDBRANCH  33  34
ENDBRANCH  25  28
ENDBRANCH  23  24
ENDBRANCH  22  23
ENDBRANCH   1  22
TORSDOF 14
ENDMDL
