MODEL 1
REMARK VINA RESULT:     -12.1      0.000      0.000
REMARK SMILES CC[C@@H](C)c1ccccc1NC(=O)[C@@H]1[C@@H](C(=O)NCCCCNC(=O)c2ccc(-c3c4nc(c(-c5c(F)cccc5F)c5ccc([nH]5)c(-c5c(F)cccc5F)c5nc(c(-c6c(F)cccc6F)c6ccc3[nH]6)C=C5)C=C4)cc2)[C@@H]2C=C[C@H]1C2
REMARK SMILES IDX 19 1 18 2 16 3 17 4 15 6 14 7 83 8 80 9 82 10 84 11 81 12
REMARK SMILES IDX 12 13 11 14 13 16 10 17 5 18 6 19 7 20 9 21 8 22 3 23 4 24
REMARK SMILES IDX 2 25 1 26 20 27 21 28 22 29 23 30 24 31 25 33 26 34 27 35
REMARK SMILES IDX 79 36 28 37 78 38 29 39 30 40 31 41 72 42 32 43 77 44 71 45
REMARK SMILES IDX 73 46 33 47 76 48 70 49 69 50 34 52 60 53 43 54 59 55 44 56
REMARK SMILES IDX 47 57 58 58 74 59 45 60 46 61 57 63 75 64 48 65 35 66 36 67
REMARK SMILES IDX 41 68 37 69 38 70 40 71 42 72 39 73 61 74 62 75 67 76 63 77
REMARK SMILES IDX 64 78 66 79 68 80 65 81 49 82 50 83 55 84 51 85 52 86 54 87
REMARK SMILES IDX 56 88 53 89
REMARK H PARENT 18 5 11 15 23 32 73 51 47 62
REMARK Flexibility Score: inf
ROOT
ATOM      1  C   UNL A   1      36.869  22.439  25.560  1.00  0.00     0.116 C 
ENDROOT
BRANCH   1   2
ATOM      2  N   UNL A   1      35.903  22.069  26.585  1.00  0.00    -0.356 N 
ATOM      3  C   UNL A   1      34.548  22.142  26.684  1.00  0.00     0.224 C 
ATOM      4  O   UNL A   1      34.071  21.646  27.713  1.00  0.00    -0.275 OA
ATOM      5  H   UNL A   1      36.324  21.681  27.385  1.00  0.00     0.163 HD
BRANCH   3   6
ATOM      6  C   UNL A   1      33.601  22.831  25.686  1.00  0.00     0.098 C 
ATOM      7  C   UNL A   1      33.463  24.377  25.746  1.00  0.00     0.099 C 
ATOM      8  C   UNL A   1      31.949  24.508  26.171  1.00  0.00     0.025 C 
ATOM      9  C   UNL A   1      32.164  22.303  25.946  1.00  0.00     0.025 C 
ATOM     10  C   UNL A   1      31.101  24.092  24.983  1.00  0.00    -0.027 C 
ATOM     11  C   UNL A   1      31.674  23.263  27.023  1.00  0.00     0.017 C 
ATOM     12  C   UNL A   1      31.265  22.770  24.825  1.00  0.00    -0.027 C 
BRANCH   7  13
ATOM     13  C   UNL A   1      33.718  25.264  24.522  1.00  0.00     0.228 C 
ATOM     14  N   UNL A   1      33.482  26.592  24.407  1.00  0.00    -0.326 N 
ATOM     15  H   UNL A   1      33.803  26.943  23.545  1.00  0.00     0.169 HD
ATOM     16  O   UNL A   1      34.115  24.730  23.473  1.00  0.00    -0.274 OA
BRANCH  14  17
ATOM     17  C   UNL A   1      32.903  27.597  25.191  1.00  0.00     0.044 A 
ATOM     18  C   UNL A   1      31.837  28.372  24.679  1.00  0.00    -0.022 A 
ATOM     19  C   UNL A   1      31.507  29.568  25.362  1.00  0.00     0.006 A 
ATOM     20  C   UNL A   1      32.120  29.922  26.560  1.00  0.00     0.000 A 
ATOM     21  C   UNL A   1      33.367  27.870  26.477  1.00  0.00     0.026 A 
ATOM     22  C   UNL A   1      33.012  29.042  27.146  1.00  0.00     0.002 A 
BRANCH  18  23
ATOM     23  C   UNL A   1      30.968  28.068  23.452  1.00  0.00     0.018 C 
ATOM     24  C   UNL A   1      30.563  29.259  22.569  1.00  0.00     0.013 C 
BRANCH  23  25
ATOM     25  C   UNL A   1      29.774  27.164  23.814  1.00  0.00     0.005 C 
ATOM     26  C   UNL A   1      28.438  27.718  23.329  1.00  0.00     0.004 C 
ENDBRANCH  23  25
ENDBRANCH  18  23
ENDBRANCH  14  17
ENDBRANCH   7  13
ENDBRANCH   3   6
ENDBRANCH   1   2
BRANCH   1  27
ATOM     27  C   UNL A   1      37.020  21.389  24.466  1.00  0.00     0.023 C 
BRANCH  27  28
ATOM     28  C   UNL A   1      37.855  20.173  24.851  1.00  0.00     0.023 C 
BRANCH  28  29
ATOM     29  C   UNL A   1      38.973  20.452  25.849  1.00  0.00     0.116 C 
BRANCH  29  30
ATOM     30  N   UNL A   1      40.030  19.449  25.825  1.00  0.00    -0.352 N 
ATOM     31  C   UNL A   1      41.375  19.576  26.090  1.00  0.00     0.251 C 
ATOM     32  H   UNL A   1      39.738  18.541  25.584  1.00  0.00     0.163 HD
ATOM     33  O   UNL A   1      42.138  18.643  25.878  1.00  0.00    -0.269 OA
BRANCH  31  34
ATOM     34  C   UNL A   1      41.898  20.859  26.598  1.00  0.00     0.039 A 
ATOM     35  C   UNL A   1      42.333  21.824  25.687  1.00  0.00     0.014 A 
ATOM     36  C   UNL A   1      41.919  21.123  27.969  1.00  0.00     0.014 A 
ATOM     37  C   UNL A   1      42.697  23.091  26.149  1.00  0.00     0.010 A 
ATOM     38  C   UNL A   1      42.183  22.411  28.416  1.00  0.00     0.010 A 
ATOM     39  C   UNL A   1      42.574  23.409  27.511  1.00  0.00    -0.014 A 
BRANCH  39  40
ATOM     40  C   UNL A   1      42.843  24.779  28.016  1.00  0.00     0.031 A 
ATOM     41  C   UNL A   1      44.242  25.179  28.393  1.00  0.00     0.074 A 
ATOM     42  C   UNL A   1      41.820  25.634  28.209  1.00  0.00     0.049 A 
ATOM     43  N   UNL A   1      44.667  26.296  28.928  1.00  0.00    -0.248 NA
ATOM     44  C   UNL A   1      45.298  24.178  28.173  1.00  0.00     0.031 C 
ATOM     45  C   UNL A   1      40.411  25.348  27.932  1.00  0.00     0.029 A 
ATOM     46  N   UNL A   1      41.809  26.918  28.691  1.00  0.00    -0.354 N 
ATOM     47  C   UNL A   1      46.033  26.124  29.121  1.00  0.00     0.074 A 
ATOM     48  C   UNL A   1      46.352  24.775  28.709  1.00  0.00     0.031 C 
ATOM     49  C   UNL A   1      39.678  26.437  28.216  1.00  0.00     0.029 A 
ATOM     50  C   UNL A   1      40.557  27.481  28.731  1.00  0.00     0.049 A 
ATOM     51  H   UNL A   1      42.622  27.392  28.981  1.00  0.00     0.167 HD
ATOM     52  C   UNL A   1      46.944  27.017  29.572  1.00  0.00     0.037 A 
ATOM     53  C   UNL A   1      40.162  28.702  29.139  1.00  0.00     0.037 A 
ATOM     54  C   UNL A   1      46.628  28.367  29.959  1.00  0.00     0.049 A 
ATOM     55  C   UNL A   1      41.189  29.674  29.647  1.00  0.00     0.074 A 
ATOM     56  C   UNL A   1      47.486  29.369  30.376  1.00  0.00     0.029 A 
ATOM     57  N   UNL A   1      45.349  28.902  29.975  1.00  0.00    -0.354 N 
ATOM     58  N   UNL A   1      42.486  29.521  29.764  1.00  0.00    -0.248 NA
ATOM     59  C   UNL A   1      40.698  30.992  30.076  1.00  0.00     0.031 C 
ATOM     60  C   UNL A   1      46.721  30.498  30.685  1.00  0.00     0.029 A 
ATOM     61  C   UNL A   1      45.392  30.216  30.414  1.00  0.00     0.049 A 
ATOM     62  H   UNL A   1      44.531  28.421  29.712  1.00  0.00     0.167 HD
ATOM     63  C   UNL A   1      42.970  30.728  30.250  1.00  0.00     0.074 A 
ATOM     64  C   UNL A   1      41.827  31.607  30.396  1.00  0.00     0.031 C 
ATOM     65  C   UNL A   1      44.245  31.078  30.548  1.00  0.00     0.037 A 
BRANCH  52  66
ATOM     66  C   UNL A   1      48.370  26.555  29.665  1.00  0.00     0.057 A 
ATOM     67  C   UNL A   1      49.282  26.763  28.620  1.00  0.00     0.134 A 
ATOM     68  C   UNL A   1      48.837  25.895  30.808  1.00  0.00     0.134 A 
ATOM     69  F   UNL A   1      48.895  27.375  27.492  1.00  0.00    -0.206 F 
ATOM     70  C   UNL A   1      50.597  26.300  28.695  1.00  0.00     0.040 A 
ATOM     71  C   UNL A   1      50.159  25.454  30.906  1.00  0.00     0.040 A 
ATOM     72  F   UNL A   1      48.020  25.667  31.846  1.00  0.00    -0.206 F 
ATOM     73  C   UNL A   1      51.039  25.647  29.844  1.00  0.00     0.006 A 
ENDBRANCH  52  66
BRANCH  53  74
ATOM     74  C   UNL A   1      38.732  29.090  29.045  1.00  0.00     0.057 A 
ATOM     75  C   UNL A   1      38.189  29.535  27.834  1.00  0.00     0.134 A 
ATOM     76  C   UNL A   1      37.876  29.023  30.150  1.00  0.00     0.134 A 
ATOM     77  F   UNL A   1      38.964  29.635  26.745  1.00  0.00    -0.206 F 
ATOM     78  C   UNL A   1      36.850  29.915  27.728  1.00  0.00     0.040 A 
ATOM     79  C   UNL A   1      36.529  29.379  30.053  1.00  0.00     0.040 A 
ATOM     80  F   UNL A   1      38.334  28.597  31.337  1.00  0.00    -0.206 F 
ATOM     81  C   UNL A   1      36.015  29.832  28.840  1.00  0.00     0.006 A 
ENDBRANCH  53  74
BRANCH  65  82
ATOM     82  C   UNL A   1      44.477  32.481  31.025  1.00  0.00     0.057 A 
ATOM     83  C   UNL A   1      44.498  32.807  32.387  1.00  0.00     0.134 A 
ATOM     84  C   UNL A   1      44.718  33.513  30.110  1.00  0.00     0.134 A 
ATOM     85  F   UNL A   1      44.260  31.866  33.314  1.00  0.00    -0.206 F 
ATOM     86  C   UNL A   1      44.730  34.112  32.821  1.00  0.00     0.040 A 
ATOM     87  C   UNL A   1      44.978  34.818  30.531  1.00  0.00     0.040 A 
ATOM     88  F   UNL A   1      44.720  33.268  28.791  1.00  0.00    -0.206 F 
ATOM     89  C   UNL A   1      44.977  35.121  31.892  1.00  0.00     0.006 A 
ENDBRANCH  65  82
ENDBRANCH  39  40
ENDBRANCH  31  34
ENDBRANCH  29  30
ENDBRANCH  28  29
ENDBRANCH  27  28
ENDBRANCH   1  27
TORSDOF 15
ENDMDL
MODEL 2
REMARK VINA RESULT:     -11.9      4.019      9.280
REMARK SMILES CC[C@@H](C)c1ccccc1NC(=O)[C@@H]1[C@@H](C(=O)NCCCCNC(=O)c2ccc(-c3c4nc(c(-c5c(F)cccc5F)c5ccc([nH]5)c(-c5c(F)cccc5F)c5nc(c(-c6c(F)cccc6F)c6ccc3[nH]6)C=C5)C=C4)cc2)[C@@H]2C=C[C@H]1C2
REMARK SMILES IDX 19 1 18 2 16 3 17 4 15 6 14 7 83 8 80 9 82 10 84 11 81 12
REMARK SMILES IDX 12 13 11 14 13 16 10 17 5 18 6 19 7 20 9 21 8 22 3 23 4 24
REMARK SMILES IDX 2 25 1 26 20 27 21 28 22 29 23 30 24 31 25 33 26 34 27 35
REMARK SMILES IDX 79 36 28 37 78 38 29 39 30 40 31 41 72 42 32 43 77 44 71 45
REMARK SMILES IDX 73 46 33 47 76 48 70 49 69 50 34 52 60 53 43 54 59 55 44 56
REMARK SMILES IDX 47 57 58 58 74 59 45 60 46 61 57 63 75 64 48 65 35 66 36 67
REMARK SMILES IDX 41 68 37 69 38 70 40 71 42 72 39 73 61 74 62 75 67 76 63 77
REMARK SMILES IDX 64 78 66 79 68 80 65 81 49 82 50 83 55 84 51 85 52 86 54 87
REMARK SMILES IDX 56 88 53 89
REMARK H PARENT 18 5 11 15 23 32 73 51 47 62
REMARK Flexibility Score: inf
ROOT
ATOM      1  C   UNL A   1      33.006  30.134  26.471  1.00  0.00     0.116 C 
ENDROOT
BRANCH   1   2
ATOM      2  N   UNL A   1      33.208  29.845  25.058  1.00  0.00    -0.356 N 
ATOM      3  C   UNL A   1      32.732  28.900  24.205  1.00  0.00     0.224 C 
ATOM      4  O   UNL A   1      33.091  29.030  23.027  1.00  0.00    -0.275 OA
ATOM      5  H   UNL A   1      33.829  30.474  24.625  1.00  0.00     0.163 HD
BRANCH   3   6
ATOM      6  C   UNL A   1      31.869  27.685  24.585  1.00  0.00     0.098 C 
ATOM      7  C   UNL A   1      32.540  26.284  24.615  1.00  0.00     0.099 C 
ATOM      8  C   UNL A   1      31.755  25.570  23.448  1.00  0.00     0.025 C 
ATOM      9  C   UNL A   1      30.737  27.550  23.531  1.00  0.00     0.025 C 
ATOM     10  C   UNL A   1      30.336  25.328  23.931  1.00  0.00    -0.027 C 
ATOM     11  C   UNL A   1      31.412  26.696  22.464  1.00  0.00     0.017 C 
ATOM     12  C   UNL A   1      29.739  26.526  24.019  1.00  0.00    -0.027 C 
BRANCH   7  13
ATOM     13  C   UNL A   1      32.504  25.392  25.862  1.00  0.00     0.228 C 
ATOM     14  N   UNL A   1      33.305  24.336  26.140  1.00  0.00    -0.326 N 
ATOM     15  H   UNL A   1      33.131  23.976  27.039  1.00  0.00     0.169 HD
ATOM     16  O   UNL A   1      31.607  25.578  26.701  1.00  0.00    -0.274 OA
BRANCH  14  17
ATOM     17  C   UNL A   1      34.315  23.622  25.484  1.00  0.00     0.044 A 
ATOM     18  C   UNL A   1      34.025  22.382  24.870  1.00  0.00    -0.022 A 
ATOM     19  C   UNL A   1      35.117  21.555  24.513  1.00  0.00     0.006 A 
ATOM     20  C   UNL A   1      36.435  21.980  24.648  1.00  0.00     0.000 A 
ATOM     21  C   UNL A   1      35.625  24.099  25.436  1.00  0.00     0.026 A 
ATOM     22  C   UNL A   1      36.687  23.277  25.058  1.00  0.00     0.002 A 
BRANCH  18  23
ATOM     23  C   UNL A   1      32.644  21.812  24.526  1.00  0.00     0.018 C 
ATOM     24  C   UNL A   1      32.391  20.335  24.867  1.00  0.00     0.013 C 
BRANCH  23  25
ATOM     25  C   UNL A   1      32.227  22.169  23.086  1.00  0.00     0.005 C 
ATOM     26  C   UNL A   1      31.975  20.941  22.217  1.00  0.00     0.004 C 
ENDBRANCH  23  25
ENDBRANCH  18  23
ENDBRANCH  14  17
ENDBRANCH   7  13
ENDBRANCH   3   6
ENDBRANCH   1   2
BRANCH   1  27
ATOM     27  C   UNL A   1      31.604  30.642  26.789  1.00  0.00     0.023 C 
BRANCH  27  28
ATOM     28  C   UNL A   1      31.459  32.159  26.809  1.00  0.00     0.023 C 
BRANCH  28  29
ATOM     29  C   UNL A   1      32.693  32.917  27.284  1.00  0.00     0.116 C 
BRANCH  29  30
ATOM     30  N   UNL A   1      32.406  34.286  27.693  1.00  0.00    -0.352 N 
ATOM     31  C   UNL A   1      33.007  35.065  28.656  1.00  0.00     0.251 C 
ATOM     32  H   UNL A   1      31.671  34.722  27.205  1.00  0.00     0.163 HD
ATOM     33  O   UNL A   1      32.532  36.152  28.958  1.00  0.00    -0.269 OA
BRANCH  31  34
ATOM     34  C   UNL A   1      34.209  34.564  29.351  1.00  0.00     0.039 A 
ATOM     35  C   UNL A   1      34.067  33.940  30.592  1.00  0.00     0.014 A 
ATOM     36  C   UNL A   1      35.468  34.674  28.756  1.00  0.00     0.014 A 
ATOM     37  C   UNL A   1      35.175  33.339  31.191  1.00  0.00     0.010 A 
ATOM     38  C   UNL A   1      36.546  33.991  29.303  1.00  0.00     0.010 A 
ATOM     39  C   UNL A   1      36.412  33.315  30.525  1.00  0.00    -0.014 A 
BRANCH  39  40
ATOM     40  C   UNL A   1      37.579  32.587  31.082  1.00  0.00     0.031 A 
ATOM     41  C   UNL A   1      38.245  33.080  32.336  1.00  0.00     0.074 A 
ATOM     42  C   UNL A   1      38.087  31.530  30.418  1.00  0.00     0.049 A 
ATOM     43  N   UNL A   1      39.322  32.634  32.932  1.00  0.00    -0.248 NA
ATOM     44  C   UNL A   1      37.640  34.254  32.986  1.00  0.00     0.031 C 
ATOM     45  C   UNL A   1      37.566  30.985  29.163  1.00  0.00     0.029 A 
ATOM     46  N   UNL A   1      39.164  30.730  30.704  1.00  0.00    -0.354 N 
ATOM     47  C   UNL A   1      39.529  33.480  34.014  1.00  0.00     0.074 A 
ATOM     48  C   UNL A   1      38.509  34.503  33.954  1.00  0.00     0.031 C 
ATOM     49  C   UNL A   1      38.301  29.919  28.808  1.00  0.00     0.029 A 
ATOM     50  C   UNL A   1      39.368  29.730  29.785  1.00  0.00     0.049 A 
ATOM     51  H   UNL A   1      39.737  30.859  31.495  1.00  0.00     0.167 HD
ATOM     52  C   UNL A   1      40.467  33.396  34.987  1.00  0.00     0.037 A 
ATOM     53  C   UNL A   1      40.311  28.770  29.734  1.00  0.00     0.037 A 
ATOM     54  C   UNL A   1      41.466  32.364  35.059  1.00  0.00     0.049 A 
ATOM     55  C   UNL A   1      41.348  28.702  30.820  1.00  0.00     0.074 A 
ATOM     56  C   UNL A   1      42.425  32.156  36.034  1.00  0.00     0.029 A 
ATOM     57  N   UNL A   1      41.633  31.363  34.113  1.00  0.00    -0.354 N 
ATOM     58  N   UNL A   1      41.495  29.470  31.872  1.00  0.00    -0.248 NA
ATOM     59  C   UNL A   1      42.350  27.632  30.712  1.00  0.00     0.031 C 
ATOM     60  C   UNL A   1      43.200  31.054  35.656  1.00  0.00     0.029 A 
ATOM     61  C   UNL A   1      42.693  30.546  34.472  1.00  0.00     0.049 A 
ATOM     62  H   UNL A   1      41.079  31.249  33.307  1.00  0.00     0.167 HD
ATOM     63  C   UNL A   1      42.583  28.959  32.567  1.00  0.00     0.074 A 
ATOM     64  C   UNL A   1      43.052  27.809  31.821  1.00  0.00     0.031 C 
ATOM     65  C   UNL A   1      43.143  29.401  33.720  1.00  0.00     0.037 A 
BRANCH  52  66
ATOM     66  C   UNL A   1      40.444  34.454  36.054  1.00  0.00     0.057 A 
ATOM     67  C   UNL A   1      41.237  35.607  35.966  1.00  0.00     0.134 A 
ATOM     68  C   UNL A   1      39.622  34.320  37.179  1.00  0.00     0.134 A 
ATOM     69  F   UNL A   1      42.058  35.789  34.921  1.00  0.00    -0.206 F 
ATOM     70  C   UNL A   1      41.240  36.571  36.976  1.00  0.00     0.040 A 
ATOM     71  C   UNL A   1      39.594  35.292  38.181  1.00  0.00     0.040 A 
ATOM     72  F   UNL A   1      38.834  33.245  37.325  1.00  0.00    -0.206 F 
ATOM     73  C   UNL A   1      40.412  36.416  38.085  1.00  0.00     0.006 A 
ENDBRANCH  52  66
BRANCH  53  74
ATOM     74  C   UNL A   1      40.292  27.768  28.639  1.00  0.00     0.057 A 
ATOM     75  C   UNL A   1      40.986  27.999  27.446  1.00  0.00     0.134 A 
ATOM     76  C   UNL A   1      39.589  26.563  28.754  1.00  0.00     0.134 A 
ATOM     77  F   UNL A   1      41.664  29.143  27.271  1.00  0.00    -0.206 F 
ATOM     78  C   UNL A   1      40.972  27.075  26.400  1.00  0.00     0.040 A 
ATOM     79  C   UNL A   1      39.584  25.620  27.725  1.00  0.00     0.040 A 
ATOM     80  F   UNL A   1      38.910  26.279  29.875  1.00  0.00    -0.206 F 
ATOM     81  C   UNL A   1      40.272  25.878  26.540  1.00  0.00     0.006 A 
ENDBRANCH  53  74
BRANCH  65  82
ATOM     82  C   UNL A   1      44.301  28.618  34.264  1.00  0.00     0.057 A 
ATOM     83  C   UNL A   1      44.118  27.522  35.117  1.00  0.00     0.134 A 
ATOM     84  C   UNL A   1      45.613  28.944  33.900  1.00  0.00     0.134 A 
ATOM     85  F   UNL A   1      42.887  27.167  35.514  1.00  0.00    -0.206 F 
ATOM     86  C   UNL A   1      45.202  26.791  35.605  1.00  0.00     0.040 A 
ATOM     87  C   UNL A   1      46.703  28.205  34.361  1.00  0.00     0.040 A 
ATOM     88  F   UNL A   1      45.857  29.977  33.081  1.00  0.00    -0.206 F 
ATOM     89  C   UNL A   1      46.499  27.128  35.222  1.00  0.00     0.006 A 
ENDBRANCH  65  82
ENDBRANCH  39  40
ENDBRANCH  31  34
ENDBRANCH  29  30
ENDBRANCH  28  29
ENDBRANCH  27  28
ENDBRANCH   1  27
TORSDOF 15
ENDMDL
MODEL 3
REMARK VINA RESULT:     -11.8      0.642      6.167
REMARK SMILES CC[C@@H](C)c1ccccc1NC(=O)[C@@H]1[C@@H](C(=O)NCCCCNC(=O)c2ccc(-c3c4nc(c(-c5c(F)cccc5F)c5ccc([nH]5)c(-c5c(F)cccc5F)c5nc(c(-c6c(F)cccc6F)c6ccc3[nH]6)C=C5)C=C4)cc2)[C@@H]2C=C[C@H]1C2
REMARK SMILES IDX 19 1 18 2 16 3 17 4 15 6 14 7 83 8 80 9 82 10 84 11 81 12
REMARK SMILES IDX 12 13 11 14 13 16 10 17 5 18 6 19 7 20 9 21 8 22 3 23 4 24
REMARK SMILES IDX 2 25 1 26 20 27 21 28 22 29 23 30 24 31 25 33 26 34 27 35
REMARK SMILES IDX 79 36 28 37 78 38 29 39 30 40 31 41 72 42 32 43 77 44 71 45
REMARK SMILES IDX 73 46 33 47 76 48 70 49 69 50 34 52 60 53 43 54 59 55 44 56
REMARK SMILES IDX 47 57 58 58 74 59 45 60 46 61 57 63 75 64 48 65 35 66 36 67
REMARK SMILES IDX 41 68 37 69 38 70 40 71 42 72 39 73 61 74 62 75 67 76 63 77
REMARK SMILES IDX 64 78 66 79 68 80 65 81 49 82 50 83 55 84 51 85 52 86 54 87
REMARK SMILES IDX 56 88 53 89
REMARK H PARENT 18 5 11 15 23 32 73 51 47 62
REMARK Flexibility Score: inf
ROOT
ATOM      1  C   UNL A   1      35.248  19.740  24.997  1.00  0.00     0.116 C 
ENDROOT
BRANCH   1   2
ATOM      2  N   UNL A   1      34.969  20.753  26.006  1.00  0.00    -0.356 N 
ATOM      3  C   UNL A   1      34.265  21.917  26.014  1.00  0.00     0.224 C 
ATOM      4  O   UNL A   1      34.197  22.480  27.114  1.00  0.00    -0.275 OA
ATOM      5  H   UNL A   1      35.382  20.550  26.875  1.00  0.00     0.163 HD
BRANCH   3   6
ATOM      6  C   UNL A   1      33.628  22.601  24.792  1.00  0.00     0.098 C 
ATOM      7  C   UNL A   1      33.212  24.092  24.914  1.00  0.00     0.099 C 
ATOM      8  C   UNL A   1      31.647  23.962  24.756  1.00  0.00     0.025 C 
ATOM      9  C   UNL A   1      32.307  21.856  24.459  1.00  0.00     0.025 C 
ATOM     10  C   UNL A   1      31.361  23.600  23.310  1.00  0.00    -0.027 C 
ATOM     11  C   UNL A   1      31.309  22.588  25.348  1.00  0.00     0.017 C 
ATOM     12  C   UNL A   1      31.796  22.345  23.124  1.00  0.00    -0.027 C 
BRANCH   7  13
ATOM     13  C   UNL A   1      33.726  25.162  23.943  1.00  0.00     0.228 C 
ATOM     14  N   UNL A   1      33.588  26.504  24.052  1.00  0.00    -0.326 N 
ATOM     15  H   UNL A   1      34.073  26.977  23.339  1.00  0.00     0.169 HD
ATOM     16  O   UNL A   1      34.271  24.795  22.889  1.00  0.00    -0.274 OA
BRANCH  14  17
ATOM     17  C   UNL A   1      32.936  27.396  24.913  1.00  0.00     0.044 A 
ATOM     18  C   UNL A   1      31.954  28.280  24.410  1.00  0.00    -0.022 A 
ATOM     19  C   UNL A   1      31.566  29.367  25.230  1.00  0.00     0.006 A 
ATOM     20  C   UNL A   1      32.036  29.508  26.532  1.00  0.00     0.000 A 
ATOM     21  C   UNL A   1      33.246  27.449  26.271  1.00  0.00     0.026 A 
ATOM     22  C   UNL A   1      32.834  28.515  27.072  1.00  0.00     0.002 A 
BRANCH  18  23
ATOM     23  C   UNL A   1      31.236  28.204  23.057  1.00  0.00     0.018 C 
ATOM     24  C   UNL A   1      30.458  29.450  22.606  1.00  0.00     0.013 C 
BRANCH  23  25
ATOM     25  C   UNL A   1      30.409  26.909  22.928  1.00  0.00     0.005 C 
ATOM     26  C   UNL A   1      29.298  26.806  23.966  1.00  0.00     0.004 C 
ENDBRANCH  23  25
ENDBRANCH  18  23
ENDBRANCH  14  17
ENDBRANCH   7  13
ENDBRANCH   3   6
ENDBRANCH   1   2
BRANCH   1  27
ATOM     27  C   UNL A   1      36.736  19.553  24.726  1.00  0.00     0.023 C 
BRANCH  27  28
ATOM     28  C   UNL A   1      37.546  20.842  24.658  1.00  0.00     0.023 C 
BRANCH  28  29
ATOM     29  C   UNL A   1      38.634  20.974  25.716  1.00  0.00     0.116 C 
BRANCH  29  30
ATOM     30  N   UNL A   1      39.590  19.873  25.700  1.00  0.00    -0.352 N 
ATOM     31  C   UNL A   1      40.927  19.859  26.026  1.00  0.00     0.251 C 
ATOM     32  H   UNL A   1      39.223  19.007  25.412  1.00  0.00     0.163 HD
ATOM     33  O   UNL A   1      41.606  18.865  25.812  1.00  0.00    -0.269 OA
BRANCH  31  34
ATOM     34  C   UNL A   1      41.548  21.069  26.604  1.00  0.00     0.039 A 
ATOM     35  C   UNL A   1      42.089  22.029  25.748  1.00  0.00     0.014 A 
ATOM     36  C   UNL A   1      41.555  21.269  27.986  1.00  0.00     0.014 A 
ATOM     37  C   UNL A   1      42.550  23.237  26.274  1.00  0.00     0.010 A 
ATOM     38  C   UNL A   1      41.920  22.508  28.496  1.00  0.00     0.010 A 
ATOM     39  C   UNL A   1      42.420  23.506  27.647  1.00  0.00    -0.014 A 
BRANCH  39  40
ATOM     40  C   UNL A   1      42.795  24.823  28.220  1.00  0.00     0.031 A 
ATOM     41  C   UNL A   1      41.745  25.878  28.430  1.00  0.00     0.074 A 
ATOM     42  C   UNL A   1      44.089  25.097  28.477  1.00  0.00     0.049 A 
ATOM     43  N   UNL A   1      41.884  27.114  28.839  1.00  0.00    -0.248 NA
ATOM     44  C   UNL A   1      40.360  25.505  28.102  1.00  0.00     0.031 C 
ATOM     45  C   UNL A   1      45.209  24.178  28.267  1.00  0.00     0.029 A 
ATOM     46  N   UNL A   1      44.681  26.234  28.965  1.00  0.00    -0.354 N 
ATOM     47  C   UNL A   1      40.609  27.666  28.802  1.00  0.00     0.074 A 
ATOM     48  C   UNL A   1      39.724  26.655  28.269  1.00  0.00     0.031 C 
ATOM     49  C   UNL A   1      46.347  24.775  28.658  1.00  0.00     0.029 A 
ATOM     50  C   UNL A   1      46.043  26.130  29.106  1.00  0.00     0.049 A 
ATOM     51  H   UNL A   1      44.177  27.049  29.194  1.00  0.00     0.167 HD
ATOM     52  C   UNL A   1      40.207  28.895  29.204  1.00  0.00     0.037 A 
ATOM     53  C   UNL A   1      46.946  27.027  29.546  1.00  0.00     0.037 A 
ATOM     54  C   UNL A   1      41.085  29.891  29.756  1.00  0.00     0.049 A 
ATOM     55  C   UNL A   1      46.478  28.388  29.977  1.00  0.00     0.074 A 
ATOM     56  C   UNL A   1      40.768  31.146  30.246  1.00  0.00     0.029 A 
ATOM     57  N   UNL A   1      42.457  29.743  29.893  1.00  0.00    -0.354 N 
ATOM     58  N   UNL A   1      45.261  28.876  29.997  1.00  0.00    -0.248 NA
ATOM     59  C   UNL A   1      47.509  29.324  30.450  1.00  0.00     0.031 C 
ATOM     60  C   UNL A   1      41.955  31.773  30.640  1.00  0.00     0.029 A 
ATOM     61  C   UNL A   1      43.005  30.892  30.441  1.00  0.00     0.049 A 
ATOM     62  H   UNL A   1      42.967  28.940  29.638  1.00  0.00     0.167 HD
ATOM     63  C   UNL A   1      45.375  30.161  30.511  1.00  0.00     0.074 A 
ATOM     64  C   UNL A   1      46.779  30.372  30.799  1.00  0.00     0.031 C 
ATOM     65  C   UNL A   1      44.404  31.083  30.727  1.00  0.00     0.037 A 
BRANCH  52  66
ATOM     66  C   UNL A   1      38.747  29.219  29.060  1.00  0.00     0.057 A 
ATOM     67  C   UNL A   1      37.862  29.134  30.144  1.00  0.00     0.134 A 
ATOM     68  C   UNL A   1      38.220  29.619  27.826  1.00  0.00     0.134 A 
ATOM     69  F   UNL A   1      38.299  28.742  31.349  1.00  0.00    -0.206 F 
ATOM     70  C   UNL A   1      36.499  29.402  29.998  1.00  0.00     0.040 A 
ATOM     71  C   UNL A   1      36.864  29.918  27.675  1.00  0.00     0.040 A 
ATOM     72  F   UNL A   1      39.010  29.725  26.748  1.00  0.00    -0.206 F 
ATOM     73  C   UNL A   1      35.999  29.800  28.761  1.00  0.00     0.006 A 
ENDBRANCH  52  66
BRANCH  53  74
ATOM     74  C   UNL A   1      48.379  26.652  29.642  1.00  0.00     0.057 A 
ATOM     75  C   UNL A   1      49.269  26.956  28.605  1.00  0.00     0.134 A 
ATOM     76  C   UNL A   1      48.894  25.988  30.761  1.00  0.00     0.134 A 
ATOM     77  F   UNL A   1      48.830  27.576  27.501  1.00  0.00    -0.206 F 
ATOM     78  C   UNL A   1      50.617  26.601  28.671  1.00  0.00     0.040 A 
ATOM     79  C   UNL A   1      50.245  25.647  30.850  1.00  0.00     0.040 A 
ATOM     80  F   UNL A   1      48.093  25.675  31.792  1.00  0.00    -0.206 F 
ATOM     81  C   UNL A   1      51.110  25.949  29.800  1.00  0.00     0.006 A 
ENDBRANCH  53  74
BRANCH  65  82
ATOM     82  C   UNL A   1      44.822  32.389  31.336  1.00  0.00     0.057 A 
ATOM     83  C   UNL A   1      45.208  33.483  30.551  1.00  0.00     0.134 A 
ATOM     84  C   UNL A   1      44.803  32.563  32.725  1.00  0.00     0.134 A 
ATOM     85  F   UNL A   1      45.259  33.375  29.214  1.00  0.00    -0.206 F 
ATOM     86  C   UNL A   1      45.579  34.698  31.127  1.00  0.00     0.040 A 
ATOM     87  C   UNL A   1      45.147  33.782  33.312  1.00  0.00     0.040 A 
ATOM     88  F   UNL A   1      44.436  31.558  33.534  1.00  0.00    -0.206 F 
ATOM     89  C   UNL A   1      45.543  34.851  32.512  1.00  0.00     0.006 A 
ENDBRANCH  65  82
ENDBRANCH  39  40
ENDBRANCH  31  34
ENDBRANCH  29  30
ENDBRANCH  28  29
ENDBRANCH  27  28
ENDBRANCH   1  27
TORSDOF 15
ENDMDL
