MODEL 1
REMARK VINA RESULT:     -11.8      0.000      0.000
REMARK SMILES Cc1cc(F)ccc1S(=O)(=O)N1CCO[C@H](CC(=O)NCCCCNC(=O)c2ccc(-c3c4nc(c(-c5c(F)cccc5F)c5ccc([nH]5)c(-c5c(F)cccc5F)c5nc(c(-c6c(F)cccc6F)c6ccc3[nH]6)C=C5)C=C4)cc2)C1
REMARK SMILES IDX 22 1 21 2 20 3 18 4 19 5 17 7 16 8 12 9 13 10 82 11 14 12
REMARK SMILES IDX 15 13 9 14 10 15 11 16 8 17 1 18 2 19 3 20 4 21 7 22 5 23
REMARK SMILES IDX 6 24 23 25 24 26 25 27 26 28 27 30 28 31 29 32 81 33 30 34
REMARK SMILES IDX 80 35 31 36 32 37 33 38 74 39 34 40 79 41 73 42 75 43 35 44
REMARK SMILES IDX 78 45 72 46 71 47 36 49 62 50 45 51 61 52 46 53 49 54 60 55
REMARK SMILES IDX 76 56 47 57 48 58 59 60 77 61 50 62 37 63 38 64 43 65 39 66
REMARK SMILES IDX 40 67 42 68 44 69 41 70 63 71 64 72 69 73 65 74 66 75 68 76
REMARK SMILES IDX 70 77 67 78 51 79 52 80 57 81 53 82 54 83 56 84 58 85 55 86
REMARK H PARENT 20 6 25 29 75 48 49 59
REMARK Flexibility Score: inf
ROOT
ATOM      1  C   UNL A   1      31.179  30.935  25.496  1.00  0.00     0.023 C 
ENDROOT
BRANCH   1   2
ATOM      2  C   UNL A   1      32.383  30.050  25.803  1.00  0.00     0.116 C 
BRANCH   2   3
ATOM      3  N   UNL A   1      32.215  29.406  27.090  1.00  0.00    -0.356 N 
ATOM      4  C   UNL A   1      31.750  28.149  27.323  1.00  0.00     0.222 C 
ATOM      5  O   UNL A   1      31.403  27.825  28.457  1.00  0.00    -0.275 OA
ATOM      6  H   UNL A   1      32.465  29.934  27.882  1.00  0.00     0.163 HD
BRANCH   4   7
ATOM      7  C   UNL A   1      31.727  27.175  26.179  1.00  0.00     0.133 C 
BRANCH   7   8
ATOM      8  C   UNL A   1      33.049  26.417  26.006  1.00  0.00     0.142 C 
ATOM      9  N   UNL A   1      32.630  26.127  23.654  1.00  0.00    -0.193 NA
ATOM     10  C   UNL A   1      32.687  24.654  23.708  1.00  0.00     0.131 C 
ATOM     11  C   UNL A   1      33.599  26.716  24.608  1.00  0.00     0.135 C 
ATOM     12  C   UNL A   1      32.427  24.180  25.157  1.00  0.00     0.177 C 
ATOM     13  O   UNL A   1      32.968  24.987  26.220  1.00  0.00    -0.375 OA
BRANCH   9  14
ATOM     14  S   UNL A   1      32.190  26.935  22.256  1.00  0.00     0.243 S 
ATOM     15  O   UNL A   1      31.807  25.953  21.262  1.00  0.00    -0.207 OA
ATOM     16  O   UNL A   1      33.232  27.904  21.993  1.00  0.00    -0.207 OA
BRANCH  14  17
ATOM     17  C   UNL A   1      30.693  27.902  22.595  1.00  0.00     0.085 A 
ATOM     18  C   UNL A   1      29.276  26.068  23.743  1.00  0.00     0.046 C 
ATOM     19  C   UNL A   1      29.528  27.453  23.254  1.00  0.00    -0.028 A 
ATOM     20  C   UNL A   1      28.443  28.345  23.399  1.00  0.00     0.044 A 
ATOM     21  C   UNL A   1      28.493  29.629  22.878  1.00  0.00     0.123 A 
ATOM     22  C   UNL A   1      30.717  29.215  22.076  1.00  0.00     0.025 A 
ATOM     23  F   UNL A   1      27.432  30.434  23.007  1.00  0.00    -0.207 F 
ATOM     24  C   UNL A   1      29.618  30.068  22.205  1.00  0.00     0.040 A 
ENDBRANCH  14  17
ENDBRANCH   9  14
ENDBRANCH   7   8
ENDBRANCH   4   7
ENDBRANCH   2   3
ENDBRANCH   1   2
BRANCH   1  25
ATOM     25  C   UNL A   1      31.029  32.112  26.460  1.00  0.00     0.023 C 
BRANCH  25  26
ATOM     26  C   UNL A   1      32.347  32.745  26.881  1.00  0.00     0.116 C 
BRANCH  26  27
ATOM     27  N   UNL A   1      32.168  34.052  27.498  1.00  0.00    -0.352 N 
ATOM     28  C   UNL A   1      32.917  34.616  28.503  1.00  0.00     0.251 C 
ATOM     29  H   UNL A   1      31.422  34.594  27.156  1.00  0.00     0.163 HD
ATOM     30  O   UNL A   1      32.571  35.661  29.040  1.00  0.00    -0.269 OA
BRANCH  28  31
ATOM     31  C   UNL A   1      34.134  33.910  28.943  1.00  0.00     0.039 A 
ATOM     32  C   UNL A   1      35.383  34.402  28.560  1.00  0.00     0.014 A 
ATOM     33  C   UNL A   1      34.027  32.820  29.810  1.00  0.00     0.014 A 
ATOM     34  C   UNL A   1      36.536  33.841  29.111  1.00  0.00     0.010 A 
ATOM     35  C   UNL A   1      35.171  32.315  30.414  1.00  0.00     0.010 A 
ATOM     36  C   UNL A   1      36.436  32.822  30.072  1.00  0.00    -0.014 A 
BRANCH  36  37
ATOM     37  C   UNL A   1      37.631  32.255  30.742  1.00  0.00     0.031 A 
ATOM     38  C   UNL A   1      38.373  31.121  30.096  1.00  0.00     0.074 A 
ATOM     39  C   UNL A   1      37.984  32.686  31.969  1.00  0.00     0.049 A 
ATOM     40  N   UNL A   1      39.331  30.374  30.580  1.00  0.00    -0.248 NA
ATOM     41  C   UNL A   1      37.956  30.756  28.732  1.00  0.00     0.031 C 
ATOM     42  C   UNL A   1      37.326  33.760  32.715  1.00  0.00     0.029 A 
ATOM     43  N   UNL A   1      38.973  32.251  32.818  1.00  0.00    -0.354 N 
ATOM     44  C   UNL A   1      39.614  29.440  29.592  1.00  0.00     0.074 A 
ATOM     45  C   UNL A   1      38.695  29.681  28.503  1.00  0.00     0.031 C 
ATOM     46  C   UNL A   1      37.935  33.906  33.903  1.00  0.00     0.029 A 
ATOM     47  C   UNL A   1      38.989  32.905  34.026  1.00  0.00     0.049 A 
ATOM     48  H   UNL A   1      39.610  31.538  32.582  1.00  0.00     0.167 HD
ATOM     49  C   UNL A   1      40.569  28.480  29.587  1.00  0.00     0.037 A 
ATOM     50  C   UNL A   1      39.752  32.702  35.118  1.00  0.00     0.037 A 
ATOM     51  C   UNL A   1      41.497  28.262  30.665  1.00  0.00     0.049 A 
ATOM     52  C   UNL A   1      40.784  31.609  35.100  1.00  0.00     0.074 A 
ATOM     53  C   UNL A   1      42.535  27.351  30.733  1.00  0.00     0.029 A 
ATOM     54  N   UNL A   1      41.494  28.961  31.862  1.00  0.00    -0.354 N 
ATOM     55  N   UNL A   1      41.081  30.766  34.140  1.00  0.00    -0.248 NA
ATOM     56  C   UNL A   1      41.591  31.435  36.317  1.00  0.00     0.031 C 
ATOM     57  C   UNL A   1      43.129  27.462  31.994  1.00  0.00     0.029 A 
ATOM     58  C   UNL A   1      42.499  28.484  32.686  1.00  0.00     0.049 A 
ATOM     59  H   UNL A   1      40.871  29.687  32.092  1.00  0.00     0.167 HD
ATOM     60  C   UNL A   1      42.128  29.992  34.620  1.00  0.00     0.074 A 
ATOM     61  C   UNL A   1      42.420  30.464  35.957  1.00  0.00     0.031 C 
ATOM     62  C   UNL A   1      42.792  28.983  34.006  1.00  0.00     0.037 A 
BRANCH  49  63
ATOM     63  C   UNL A   1      40.653  27.592  28.380  1.00  0.00     0.057 A 
ATOM     64  C   UNL A   1      39.954  26.380  28.302  1.00  0.00     0.134 A 
ATOM     65  C   UNL A   1      41.416  27.970  27.268  1.00  0.00     0.134 A 
ATOM     66  F   UNL A   1      39.216  25.953  29.337  1.00  0.00    -0.206 F 
ATOM     67  C   UNL A   1      40.034  25.562  27.174  1.00  0.00     0.040 A 
ATOM     68  C   UNL A   1      41.478  27.176  26.122  1.00  0.00     0.040 A 
ATOM     69  F   UNL A   1      42.104  29.121  27.272  1.00  0.00    -0.206 F 
ATOM     70  C   UNL A   1      40.792  25.964  26.076  1.00  0.00     0.006 A 
ENDBRANCH  49  63
BRANCH  50  71
ATOM     71  C   UNL A   1      39.573  33.556  36.321  1.00  0.00     0.057 A 
ATOM     72  C   UNL A   1      40.291  34.749  36.471  1.00  0.00     0.134 A 
ATOM     73  C   UNL A   1      38.695  33.200  37.351  1.00  0.00     0.134 A 
ATOM     74  F   UNL A   1      41.162  35.135  35.527  1.00  0.00    -0.206 F 
ATOM     75  C   UNL A   1      40.160  35.544  37.611  1.00  0.00     0.040 A 
ATOM     76  C   UNL A   1      38.533  33.999  38.484  1.00  0.00     0.040 A 
ATOM     77  F   UNL A   1      37.972  32.073  37.266  1.00  0.00    -0.206 F 
ATOM     78  C   UNL A   1      39.274  35.172  38.620  1.00  0.00     0.006 A 
ENDBRANCH  50  71
BRANCH  62  79
ATOM     79  C   UNL A   1      43.939  28.354  34.741  1.00  0.00     0.057 A 
ATOM     80  C   UNL A   1      43.780  27.203  35.523  1.00  0.00     0.134 A 
ATOM     81  C   UNL A   1      45.236  28.864  34.596  1.00  0.00     0.134 A 
ATOM     82  F   UNL A   1      42.563  26.672  35.712  1.00  0.00    -0.206 F 
ATOM     83  C   UNL A   1      44.870  26.588  36.142  1.00  0.00     0.040 A 
ATOM     84  C   UNL A   1      46.337  28.243  35.186  1.00  0.00     0.040 A 
ATOM     85  F   UNL A   1      45.458  29.959  33.852  1.00  0.00    -0.206 F 
ATOM     86  C   UNL A   1      46.154  27.102  35.965  1.00  0.00     0.006 A 
ENDBRANCH  62  79
ENDBRANCH  36  37
ENDBRANCH  28  31
ENDBRANCH  26  27
ENDBRANCH  25  26
ENDBRANCH   1  25
TORSDOF 14
ENDMDL
MODEL 2
REMARK VINA RESULT:     -11.7      2.061      6.989
REMARK SMILES Cc1cc(F)ccc1S(=O)(=O)N1CCO[C@H](CC(=O)NCCCCNC(=O)c2ccc(-c3c4nc(c(-c5c(F)cccc5F)c5ccc([nH]5)c(-c5c(F)cccc5F)c5nc(c(-c6c(F)cccc6F)c6ccc3[nH]6)C=C5)C=C4)cc2)C1
REMARK SMILES IDX 22 1 21 2 20 3 18 4 19 5 17 7 16 8 12 9 13 10 82 11 14 12
REMARK SMILES IDX 15 13 9 14 10 15 11 16 8 17 1 18 2 19 3 20 4 21 7 22 5 23
REMARK SMILES IDX 6 24 23 25 24 26 25 27 26 28 27 30 28 31 29 32 81 33 30 34
REMARK SMILES IDX 80 35 31 36 32 37 33 38 74 39 34 40 79 41 73 42 75 43 35 44
REMARK SMILES IDX 78 45 72 46 71 47 36 49 62 50 45 51 61 52 46 53 49 54 60 55
REMARK SMILES IDX 76 56 47 57 48 58 59 60 77 61 50 62 37 63 38 64 43 65 39 66
REMARK SMILES IDX 40 67 42 68 44 69 41 70 63 71 64 72 69 73 65 74 66 75 68 76
REMARK SMILES IDX 70 77 67 78 51 79 52 80 57 81 53 82 54 83 56 84 58 85 55 86
REMARK H PARENT 20 6 25 29 75 48 49 59
REMARK Flexibility Score: inf
ROOT
ATOM      1  C   UNL A   1      31.575  30.730  26.591  1.00  0.00     0.023 C 
ENDROOT
BRANCH   1   2
ATOM      2  C   UNL A   1      32.993  30.168  26.587  1.00  0.00     0.116 C 
BRANCH   2   3
ATOM      3  N   UNL A   1      33.352  29.724  25.254  1.00  0.00    -0.356 N 
ATOM      4  C   UNL A   1      33.367  28.445  24.792  1.00  0.00     0.222 C 
ATOM      5  O   UNL A   1      33.944  28.182  23.740  1.00  0.00    -0.275 OA
ATOM      6  H   UNL A   1      33.611  30.425  24.613  1.00  0.00     0.163 HD
BRANCH   4   7
ATOM      7  C   UNL A   1      32.624  27.398  25.572  1.00  0.00     0.133 C 
BRANCH   7   8
ATOM      8  C   UNL A   1      31.129  27.341  25.232  1.00  0.00     0.142 C 
ATOM      9  N   UNL A   1      31.184  24.936  25.177  1.00  0.00    -0.193 NA
ATOM     10  C   UNL A   1      30.713  24.843  23.781  1.00  0.00     0.131 C 
ATOM     11  C   UNL A   1      30.537  26.078  25.864  1.00  0.00     0.135 C 
ATOM     12  C   UNL A   1      30.985  26.181  23.055  1.00  0.00     0.177 C 
ATOM     13  O   UNL A   1      30.819  27.390  23.819  1.00  0.00    -0.375 OA
BRANCH   9  14
ATOM     14  S   UNL A   1      31.680  23.581  26.025  1.00  0.00     0.243 S 
ATOM     15  O   UNL A   1      31.132  22.408  25.375  1.00  0.00    -0.207 OA
ATOM     16  O   UNL A   1      31.426  23.853  27.423  1.00  0.00    -0.207 OA
BRANCH  14  17
ATOM     17  C   UNL A   1      33.482  23.432  25.872  1.00  0.00     0.085 A 
ATOM     18  C   UNL A   1      33.877  21.522  27.571  1.00  0.00     0.046 C 
ATOM     19  C   UNL A   1      34.314  22.513  26.546  1.00  0.00    -0.028 A 
ATOM     20  C   UNL A   1      35.707  22.567  26.323  1.00  0.00     0.044 A 
ATOM     21  C   UNL A   1      36.265  23.525  25.490  1.00  0.00     0.123 A 
ATOM     22  C   UNL A   1      34.076  24.395  25.028  1.00  0.00     0.025 A 
ATOM     23  F   UNL A   1      37.593  23.565  25.329  1.00  0.00    -0.207 F 
ATOM     24  C   UNL A   1      35.461  24.449  24.849  1.00  0.00     0.040 A 
ENDBRANCH  14  17
ENDBRANCH   9  14
ENDBRANCH   7   8
ENDBRANCH   4   7
ENDBRANCH   2   3
ENDBRANCH   1   2
BRANCH   1  25
ATOM     25  C   UNL A   1      31.527  32.258  26.595  1.00  0.00     0.023 C 
BRANCH  25  26
ATOM     26  C   UNL A   1      32.640  32.913  27.400  1.00  0.00     0.116 C 
BRANCH  26  27
ATOM     27  N   UNL A   1      32.376  34.318  27.679  1.00  0.00    -0.352 N 
ATOM     28  C   UNL A   1      32.987  35.119  28.613  1.00  0.00     0.251 C 
ATOM     29  H   UNL A   1      31.675  34.743  27.134  1.00  0.00     0.163 HD
ATOM     30  O   UNL A   1      32.569  36.245  28.854  1.00  0.00    -0.269 OA
BRANCH  28  31
ATOM     31  C   UNL A   1      34.143  34.572  29.347  1.00  0.00     0.039 A 
ATOM     32  C   UNL A   1      33.938  33.970  30.590  1.00  0.00     0.014 A 
ATOM     33  C   UNL A   1      35.407  34.578  28.751  1.00  0.00     0.014 A 
ATOM     34  C   UNL A   1      34.997  33.303  31.208  1.00  0.00     0.010 A 
ATOM     35  C   UNL A   1      36.436  33.850  29.332  1.00  0.00     0.010 A 
ATOM     36  C   UNL A   1      36.241  33.203  30.564  1.00  0.00    -0.014 A 
BRANCH  36  37
ATOM     37  C   UNL A   1      37.367  32.434  31.147  1.00  0.00     0.031 A 
ATOM     38  C   UNL A   1      38.035  32.934  32.396  1.00  0.00     0.074 A 
ATOM     39  C   UNL A   1      37.852  31.355  30.503  1.00  0.00     0.049 A 
ATOM     40  N   UNL A   1      39.130  32.514  32.975  1.00  0.00    -0.248 NA
ATOM     41  C   UNL A   1      37.403  34.083  33.064  1.00  0.00     0.031 C 
ATOM     42  C   UNL A   1      37.309  30.788  29.267  1.00  0.00     0.029 A 
ATOM     43  N   UNL A   1      38.932  30.555  30.788  1.00  0.00    -0.354 N 
ATOM     44  C   UNL A   1      39.329  33.360  34.057  1.00  0.00     0.074 A 
ATOM     45  C   UNL A   1      38.273  34.346  34.028  1.00  0.00     0.031 C 
ATOM     46  C   UNL A   1      38.052  29.728  28.907  1.00  0.00     0.029 A 
ATOM     47  C   UNL A   1      39.151  29.572  29.854  1.00  0.00     0.049 A 
ATOM     48  H   UNL A   1      39.494  30.675  31.587  1.00  0.00     0.167 HD
ATOM     49  C   UNL A   1      40.297  33.307  35.004  1.00  0.00     0.037 A 
ATOM     50  C   UNL A   1      40.142  28.664  29.759  1.00  0.00     0.037 A 
ATOM     51  C   UNL A   1      41.332  32.308  35.041  1.00  0.00     0.049 A 
ATOM     52  C   UNL A   1      41.224  28.645  30.804  1.00  0.00     0.074 A 
ATOM     53  C   UNL A   1      42.326  32.135  35.987  1.00  0.00     0.029 A 
ATOM     54  N   UNL A   1      41.506  31.316  34.088  1.00  0.00    -0.354 N 
ATOM     55  N   UNL A   1      41.372  29.415  31.855  1.00  0.00    -0.248 NA
ATOM     56  C   UNL A   1      42.277  27.631  30.653  1.00  0.00     0.031 C 
ATOM     57  C   UNL A   1      43.135  31.071  35.579  1.00  0.00     0.029 A 
ATOM     58  C   UNL A   1      42.608  30.542  34.412  1.00  0.00     0.049 A 
ATOM     59  H   UNL A   1      40.932  31.182  33.299  1.00  0.00     0.167 HD
ATOM     60  C   UNL A   1      42.508  28.956  32.508  1.00  0.00     0.074 A 
ATOM     61  C   UNL A   1      43.011  27.838  31.737  1.00  0.00     0.031 C 
ATOM     62  C   UNL A   1      43.081  29.417  33.646  1.00  0.00     0.037 A 
BRANCH  49  63
ATOM     63  C   UNL A   1      40.282  34.361  36.071  1.00  0.00     0.057 A 
ATOM     64  C   UNL A   1      40.956  35.581  35.918  1.00  0.00     0.134 A 
ATOM     65  C   UNL A   1      39.557  34.169  37.253  1.00  0.00     0.134 A 
ATOM     66  F   UNL A   1      41.679  35.823  34.815  1.00  0.00    -0.206 F 
ATOM     67  C   UNL A   1      40.933  36.558  36.914  1.00  0.00     0.040 A 
ATOM     68  C   UNL A   1      39.500  35.151  38.243  1.00  0.00     0.040 A 
ATOM     69  F   UNL A   1      38.883  33.028  37.463  1.00  0.00    -0.206 F 
ATOM     70  C   UNL A   1      40.197  36.347  38.078  1.00  0.00     0.006 A 
ENDBRANCH  49  63
BRANCH  50  71
ATOM     71  C   UNL A   1      40.158  27.693  28.634  1.00  0.00     0.057 A 
ATOM     72  C   UNL A   1      39.516  26.453  28.744  1.00  0.00     0.134 A 
ATOM     73  C   UNL A   1      40.820  27.970  27.432  1.00  0.00     0.134 A 
ATOM     74  F   UNL A   1      38.880  26.121  29.877  1.00  0.00    -0.206 F 
ATOM     75  C   UNL A   1      39.550  25.516  27.710  1.00  0.00     0.040 A 
ATOM     76  C   UNL A   1      40.840  27.054  26.380  1.00  0.00     0.040 A 
ATOM     77  F   UNL A   1      41.449  29.142  27.260  1.00  0.00    -0.206 F 
ATOM     78  C   UNL A   1      40.210  25.818  26.520  1.00  0.00     0.006 A 
ENDBRANCH  50  71
BRANCH  62  79
ATOM     79  C   UNL A   1      44.281  28.684  34.169  1.00  0.00     0.057 A 
ATOM     80  C   UNL A   1      44.165  27.570  35.011  1.00  0.00     0.134 A 
ATOM     81  C   UNL A   1      45.568  29.052  33.755  1.00  0.00     0.134 A 
ATOM     82  F   UNL A   1      42.962  27.175  35.452  1.00  0.00    -0.206 F 
ATOM     83  C   UNL A   1      45.288  26.856  35.430  1.00  0.00     0.040 A 
ATOM     84  C   UNL A   1      46.696  28.328  34.145  1.00  0.00     0.040 A 
ATOM     85  F   UNL A   1      45.748  30.103  32.941  1.00  0.00    -0.206 F 
ATOM     86  C   UNL A   1      46.557  27.228  34.988  1.00  0.00     0.006 A 
ENDBRANCH  62  79
ENDBRANCH  36  37
ENDBRANCH  28  31
ENDBRANCH  26  27
ENDBRANCH  25  26
ENDBRANCH   1  25
TORSDOF 14
ENDMDL
MODEL 3
REMARK VINA RESULT:     -11.7      2.064      3.414
REMARK SMILES Cc1cc(F)ccc1S(=O)(=O)N1CCO[C@H](CC(=O)NCCCCNC(=O)c2ccc(-c3c4nc(c(-c5c(F)cccc5F)c5ccc([nH]5)c(-c5c(F)cccc5F)c5nc(c(-c6c(F)cccc6F)c6ccc3[nH]6)C=C5)C=C4)cc2)C1
REMARK SMILES IDX 22 1 21 2 20 3 18 4 19 5 17 7 16 8 12 9 13 10 82 11 14 12
REMARK SMILES IDX 15 13 9 14 10 15 11 16 8 17 1 18 2 19 3 20 4 21 7 22 5 23
REMARK SMILES IDX 6 24 23 25 24 26 25 27 26 28 27 30 28 31 29 32 81 33 30 34
REMARK SMILES IDX 80 35 31 36 32 37 33 38 74 39 34 40 79 41 73 42 75 43 35 44
REMARK SMILES IDX 78 45 72 46 71 47 36 49 62 50 45 51 61 52 46 53 49 54 60 55
REMARK SMILES IDX 76 56 47 57 48 58 59 60 77 61 50 62 37 63 38 64 43 65 39 66
REMARK SMILES IDX 40 67 42 68 44 69 41 70 63 71 64 72 69 73 65 74 66 75 68 76
REMARK SMILES IDX 70 77 67 78 51 79 52 80 57 81 53 82 54 83 56 84 58 85 55 86
REMARK H PARENT 20 6 25 29 75 48 49 59
REMARK Flexibility Score: inf
ROOT
ATOM      1  C   UNL A   1      31.394  30.666  25.797  1.00  0.00     0.023 C 
ENDROOT
BRANCH   1   2
ATOM      2  C   UNL A   1      32.683  29.928  26.147  1.00  0.00     0.116 C 
BRANCH   2   3
ATOM      3  N   UNL A   1      33.277  29.365  24.951  1.00  0.00    -0.356 N 
ATOM      4  C   UNL A   1      33.325  28.052  24.600  1.00  0.00     0.222 C 
ATOM      5  O   UNL A   1      34.085  27.685  23.708  1.00  0.00    -0.275 OA
ATOM      6  H   UNL A   1      33.691  30.001  24.325  1.00  0.00     0.163 HD
BRANCH   4   7
ATOM      7  C   UNL A   1      32.393  27.096  25.290  1.00  0.00     0.133 C 
BRANCH   7   8
ATOM      8  C   UNL A   1      31.057  26.921  24.557  1.00  0.00     0.142 C 
ATOM      9  N   UNL A   1      31.071  24.555  24.998  1.00  0.00    -0.193 NA
ATOM     10  C   UNL A   1      31.017  24.173  23.574  1.00  0.00     0.131 C 
ATOM     11  C   UNL A   1      30.281  25.786  25.232  1.00  0.00     0.135 C 
ATOM     12  C   UNL A   1      31.515  25.351  22.704  1.00  0.00     0.177 C 
ATOM     13  O   UNL A   1      31.165  26.680  23.134  1.00  0.00    -0.375 OA
BRANCH   9  14
ATOM     14  S   UNL A   1      31.274  23.412  26.203  1.00  0.00     0.243 S 
ATOM     15  O   UNL A   1      30.120  22.535  26.200  1.00  0.00    -0.207 OA
ATOM     16  O   UNL A   1      31.665  24.132  27.395  1.00  0.00    -0.207 OA
BRANCH  14  17
ATOM     17  C   UNL A   1      32.691  22.364  25.773  1.00  0.00     0.085 A 
ATOM     18  C   UNL A   1      34.541  24.172  25.750  1.00  0.00     0.046 C 
ATOM     19  C   UNL A   1      34.034  22.774  25.634  1.00  0.00    -0.028 A 
ATOM     20  C   UNL A   1      35.002  21.817  25.260  1.00  0.00     0.044 A 
ATOM     21  C   UNL A   1      34.648  20.503  24.996  1.00  0.00     0.123 A 
ATOM     22  C   UNL A   1      32.358  21.019  25.500  1.00  0.00     0.025 A 
ATOM     23  F   UNL A   1      35.589  19.631  24.612  1.00  0.00    -0.207 F 
ATOM     24  C   UNL A   1      33.330  20.097  25.100  1.00  0.00     0.040 A 
ENDBRANCH  14  17
ENDBRANCH   9  14
ENDBRANCH   7   8
ENDBRANCH   4   7
ENDBRANCH   2   3
ENDBRANCH   1   2
BRANCH   1  25
ATOM     25  C   UNL A   1      31.256  32.015  26.501  1.00  0.00     0.023 C 
BRANCH  25  26
ATOM     26  C   UNL A   1      32.573  32.601  26.988  1.00  0.00     0.116 C 
BRANCH  26  27
ATOM     27  N   UNL A   1      32.408  33.905  27.615  1.00  0.00    -0.352 N 
ATOM     28  C   UNL A   1      33.178  34.467  28.604  1.00  0.00     0.251 C 
ATOM     29  H   UNL A   1      31.653  34.448  27.292  1.00  0.00     0.163 HD
ATOM     30  O   UNL A   1      32.845  35.509  29.154  1.00  0.00    -0.269 OA
BRANCH  28  31
ATOM     31  C   UNL A   1      34.407  33.760  29.013  1.00  0.00     0.039 A 
ATOM     32  C   UNL A   1      35.649  34.315  28.698  1.00  0.00     0.014 A 
ATOM     33  C   UNL A   1      34.313  32.602  29.788  1.00  0.00     0.014 A 
ATOM     34  C   UNL A   1      36.806  33.742  29.227  1.00  0.00     0.010 A 
ATOM     35  C   UNL A   1      35.460  32.081  30.374  1.00  0.00     0.010 A 
ATOM     36  C   UNL A   1      36.716  32.647  30.101  1.00  0.00    -0.014 A 
BRANCH  36  37
ATOM     37  C   UNL A   1      37.914  32.060  30.750  1.00  0.00     0.031 A 
ATOM     38  C   UNL A   1      38.670  30.964  30.054  1.00  0.00     0.074 A 
ATOM     39  C   UNL A   1      38.257  32.436  31.997  1.00  0.00     0.049 A 
ATOM     40  N   UNL A   1      39.632  30.205  30.507  1.00  0.00    -0.248 NA
ATOM     41  C   UNL A   1      38.262  30.661  28.673  1.00  0.00     0.031 C 
ATOM     42  C   UNL A   1      37.585  33.467  32.790  1.00  0.00     0.029 A 
ATOM     43  N   UNL A   1      39.245  31.970  32.830  1.00  0.00    -0.354 N 
ATOM     44  C   UNL A   1      39.929  29.322  29.478  1.00  0.00     0.074 A 
ATOM     45  C   UNL A   1      39.012  29.605  28.396  1.00  0.00     0.031 C 
ATOM     46  C   UNL A   1      38.186  33.562  33.987  1.00  0.00     0.029 A 
ATOM     47  C   UNL A   1      39.250  32.566  34.068  1.00  0.00     0.049 A 
ATOM     48  H   UNL A   1      39.891  31.275  32.563  1.00  0.00     0.167 HD
ATOM     49  C   UNL A   1      40.892  28.372  29.431  1.00  0.00     0.037 A 
ATOM     50  C   UNL A   1      40.010  32.319  35.153  1.00  0.00     0.037 A 
ATOM     51  C   UNL A   1      41.818  28.111  30.503  1.00  0.00     0.049 A 
ATOM     52  C   UNL A   1      41.053  31.237  35.088  1.00  0.00     0.074 A 
ATOM     53  C   UNL A   1      42.865  27.208  30.533  1.00  0.00     0.029 A 
ATOM     54  N   UNL A   1      41.803  28.753  31.732  1.00  0.00    -0.354 N 
ATOM     55  N   UNL A   1      41.361  30.444  34.090  1.00  0.00    -0.248 NA
ATOM     56  C   UNL A   1      41.855  31.013  36.299  1.00  0.00     0.031 C 
ATOM     57  C   UNL A   1      43.452  27.265  31.801  1.00  0.00     0.029 A 
ATOM     58  C   UNL A   1      42.809  28.246  32.538  1.00  0.00     0.049 A 
ATOM     59  H   UNL A   1      41.172  29.461  31.992  1.00  0.00     0.167 HD
ATOM     60  C   UNL A   1      42.414  29.658  34.539  1.00  0.00     0.074 A 
ATOM     61  C   UNL A   1      42.695  30.069  35.898  1.00  0.00     0.031 C 
ATOM     62  C   UNL A   1      43.090  28.685  33.881  1.00  0.00     0.037 A 
BRANCH  49  63
ATOM     63  C   UNL A   1      40.991  27.543  28.184  1.00  0.00     0.057 A 
ATOM     64  C   UNL A   1      40.289  26.338  28.038  1.00  0.00     0.134 A 
ATOM     65  C   UNL A   1      41.770  27.971  27.103  1.00  0.00     0.134 A 
ATOM     66  F   UNL A   1      39.535  25.865  29.041  1.00  0.00    -0.206 F 
ATOM     67  C   UNL A   1      40.382  25.576  26.873  1.00  0.00     0.040 A 
ATOM     68  C   UNL A   1      41.846  27.234  25.920  1.00  0.00     0.040 A 
ATOM     69  F   UNL A   1      42.462  29.118  27.172  1.00  0.00    -0.206 F 
ATOM     70  C   UNL A   1      41.157  26.028  25.807  1.00  0.00     0.006 A 
ENDBRANCH  49  63
BRANCH  50  71
ATOM     71  C   UNL A   1      39.817  33.113  36.394  1.00  0.00     0.057 A 
ATOM     72  C   UNL A   1      40.604  34.241  36.657  1.00  0.00     0.134 A 
ATOM     73  C   UNL A   1      38.857  32.762  37.349  1.00  0.00     0.134 A 
ATOM     74  F   UNL A   1      41.554  34.618  35.788  1.00  0.00    -0.206 F 
ATOM     75  C   UNL A   1      40.459  34.977  37.833  1.00  0.00     0.040 A 
ATOM     76  C   UNL A   1      38.682  33.504  38.518  1.00  0.00     0.040 A 
ATOM     77  F   UNL A   1      38.065  31.696  37.156  1.00  0.00    -0.206 F 
ATOM     78  C   UNL A   1      39.490  34.612  38.767  1.00  0.00     0.006 A 
ENDBRANCH  50  71
BRANCH  62  79
ATOM     79  C   UNL A   1      44.240  28.033  34.592  1.00  0.00     0.057 A 
ATOM     80  C   UNL A   1      44.093  26.834  35.300  1.00  0.00     0.134 A 
ATOM     81  C   UNL A   1      45.529  28.574  34.494  1.00  0.00     0.134 A 
ATOM     82  F   UNL A   1      42.883  26.271  35.441  1.00  0.00    -0.206 F 
ATOM     83  C   UNL A   1      45.186  26.202  35.894  1.00  0.00     0.040 A 
ATOM     84  C   UNL A   1      46.634  27.937  35.060  1.00  0.00     0.040 A 
ATOM     85  F   UNL A   1      45.740  29.715  33.820  1.00  0.00    -0.206 F 
ATOM     86  C   UNL A   1      46.463  26.748  35.765  1.00  0.00     0.006 A 
ENDBRANCH  62  79
ENDBRANCH  36  37
ENDBRANCH  28  31
ENDBRANCH  26  27
ENDBRANCH  25  26
ENDBRANCH   1  25
TORSDOF 14
ENDMDL
