MODEL 1
REMARK VINA RESULT:     -12.2      0.000      0.000
REMARK SMILES CCn1cc(S(=O)(=O)N2CCC(CCc3ccc(C(=O)NCCCCNC(=O)c4ccc(-c5c6nc(c(-c7c(F)cccc7F)c7ccc([nH]7)c(-c7c(F)cccc7F)c7nc(c(-c8c(F)cccc8F)c8ccc5[nH]8)C=C7)C=C6)cc4)cc3)CC2)cn1
REMARK SMILES IDX 19 1 20 2 21 3 18 5 15 6 16 7 84 8 17 9 83 10 14 11 13 12
REMARK SMILES IDX 12 13 9 14 10 15 86 16 11 17 85 18 6 19 7 20 8 21 5 22 3 23
REMARK SMILES IDX 4 24 88 25 87 26 2 27 1 28 22 29 23 30 24 31 25 32 26 33
REMARK SMILES IDX 27 34 28 36 29 37 30 38 82 39 31 40 81 41 32 42 33 43 34 44
REMARK SMILES IDX 75 45 35 46 80 47 74 48 76 49 36 50 79 51 73 52 72 53 37 55
REMARK SMILES IDX 63 56 46 57 62 58 47 59 50 60 61 61 77 62 48 63 49 64 60 66
REMARK SMILES IDX 78 67 51 68 38 69 39 70 44 71 40 72 41 73 43 74 45 75 42 76
REMARK SMILES IDX 64 77 65 78 70 79 66 80 67 81 69 82 71 83 68 84 52 85 53 86
REMARK SMILES IDX 58 87 54 88 55 89 57 90 59 91 56 92
REMARK H PARENT 21 4 26 35 76 54 50 65
REMARK Flexibility Score: inf
ROOT
ATOM      1  C   UNL A   1      36.659  22.704  23.747  1.00  0.00     0.251 C 
ATOM      2  O   UNL A   1      36.874  23.196  22.638  1.00  0.00    -0.269 OA
ATOM      3  N   UNL A   1      37.764  22.450  24.523  1.00  0.00    -0.352 N 
ATOM      4  H   UNL A   1      38.598  22.774  24.113  1.00  0.00     0.163 HD
ENDROOT
BRANCH   1   5
ATOM      5  C   UNL A   1      35.244  22.455  24.158  1.00  0.00     0.039 A 
ATOM      6  C   UNL A   1      32.598  21.943  25.069  1.00  0.00    -0.048 A 
ATOM      7  C   UNL A   1      33.695  21.633  25.874  1.00  0.00     0.004 A 
ATOM      8  C   UNL A   1      32.861  22.371  23.772  1.00  0.00     0.004 A 
ATOM      9  C   UNL A   1      35.004  21.854  25.408  1.00  0.00     0.014 A 
ATOM     10  C   UNL A   1      34.137  22.744  23.376  1.00  0.00     0.014 A 
BRANCH   6  11
ATOM     11  C   UNL A   1      31.171  21.872  25.565  1.00  0.00     0.036 C 
BRANCH  11  12
ATOM     12  C   UNL A   1      30.706  23.128  26.364  1.00  0.00     0.008 C 
BRANCH  12  13
ATOM     13  C   UNL A   1      31.113  24.506  25.789  1.00  0.00    -0.008 C 
ATOM     14  N   UNL A   1      31.697  27.344  25.593  1.00  0.00    -0.198 NA
ATOM     15  C   UNL A   1      30.361  26.839  25.203  1.00  0.00     0.103 C 
ATOM     16  C   UNL A   1      32.800  26.347  25.599  1.00  0.00     0.103 C 
ATOM     17  C   UNL A   1      30.008  25.556  25.940  1.00  0.00     0.020 C 
ATOM     18  C   UNL A   1      32.404  25.083  26.377  1.00  0.00     0.020 C 
BRANCH  14  19
ATOM     19  S   UNL A   1      32.092  28.876  24.933  1.00  0.00     0.246 S 
ATOM     20  O   UNL A   1      33.326  28.768  24.202  1.00  0.00    -0.207 OA
ATOM     21  O   UNL A   1      31.886  29.879  25.965  1.00  0.00    -0.207 OA
BRANCH  19  22
ATOM     22  C   UNL A   1      30.947  29.317  23.738  1.00  0.00     0.120 A 
ATOM     23  N   UNL A   1      29.254  30.104  22.620  1.00  0.00    -0.272 N 
ATOM     24  C   UNL A   1      29.903  30.210  23.816  1.00  0.00     0.130 A 
ATOM     25  N   UNL A   1      29.852  29.278  21.748  1.00  0.00    -0.180 NA
ATOM     26  C   UNL A   1      30.875  28.774  22.446  1.00  0.00     0.156 A 
BRANCH  23  27
ATOM     27  C   UNL A   1      27.908  30.580  22.364  1.00  0.00     0.141 C 
ATOM     28  C   UNL A   1      27.431  31.373  23.575  1.00  0.00     0.029 C 
ENDBRANCH  23  27
ENDBRANCH  19  22
ENDBRANCH  14  19
ENDBRANCH  12  13
ENDBRANCH  11  12
ENDBRANCH   6  11
ENDBRANCH   1   5
BRANCH   3  29
ATOM     29  C   UNL A   1      37.984  21.816  25.807  1.00  0.00     0.116 C 
BRANCH  29  30
ATOM     30  C   UNL A   1      39.475  21.546  26.036  1.00  0.00     0.023 C 
BRANCH  30  31
ATOM     31  C   UNL A   1      40.098  22.350  27.196  1.00  0.00     0.023 C 
BRANCH  31  32
ATOM     32  C   UNL A   1      41.505  21.908  27.608  1.00  0.00     0.116 C 
BRANCH  32  33
ATOM     33  N   UNL A   1      42.511  22.397  26.663  1.00  0.00    -0.352 N 
ATOM     34  C   UNL A   1      42.591  23.547  25.902  1.00  0.00     0.251 C 
ATOM     35  H   UNL A   1      43.278  21.790  26.548  1.00  0.00     0.163 HD
ATOM     36  O   UNL A   1      43.231  23.606  24.863  1.00  0.00    -0.269 OA
BRANCH  34  37
ATOM     37  C   UNL A   1      42.080  24.762  26.515  1.00  0.00     0.039 A 
ATOM     38  C   UNL A   1      41.021  25.550  26.057  1.00  0.00     0.014 A 
ATOM     39  C   UNL A   1      42.853  25.206  27.561  1.00  0.00     0.014 A 
ATOM     40  C   UNL A   1      40.781  26.751  26.727  1.00  0.00     0.010 A 
ATOM     41  C   UNL A   1      42.212  25.945  28.473  1.00  0.00     0.010 A 
ATOM     42  C   UNL A   1      41.478  26.960  27.913  1.00  0.00    -0.014 A 
BRANCH  42  43
ATOM     43  C   UNL A   1      41.452  28.101  28.790  1.00  0.00     0.031 A 
ATOM     44  C   UNL A   1      42.505  29.087  28.466  1.00  0.00     0.074 A 
ATOM     45  C   UNL A   1      40.310  28.407  29.444  1.00  0.00     0.049 A 
ATOM     46  N   UNL A   1      43.634  29.220  29.077  1.00  0.00    -0.248 NA
ATOM     47  C   UNL A   1      42.452  29.791  27.168  1.00  0.00     0.031 C 
ATOM     48  C   UNL A   1      39.023  27.698  29.485  1.00  0.00     0.029 A 
ATOM     49  N   UNL A   1      40.051  29.532  30.154  1.00  0.00    -0.354 N 
ATOM     50  C   UNL A   1      44.307  30.206  28.371  1.00  0.00     0.074 A 
ATOM     51  C   UNL A   1      43.708  30.233  27.069  1.00  0.00     0.031 C 
ATOM     52  C   UNL A   1      38.077  28.504  30.023  1.00  0.00     0.029 A 
ATOM     53  C   UNL A   1      38.711  29.728  30.474  1.00  0.00     0.049 A 
ATOM     54  H   UNL A   1      40.757  30.163  30.423  1.00  0.00     0.167 HD
ATOM     55  C   UNL A   1      45.057  31.146  29.008  1.00  0.00     0.037 A 
ATOM     56  C   UNL A   1      38.214  30.870  31.012  1.00  0.00     0.037 A 
ATOM     57  C   UNL A   1      45.163  30.823  30.414  1.00  0.00     0.049 A 
ATOM     58  C   UNL A   1      39.383  31.610  31.585  1.00  0.00     0.074 A 
ATOM     59  C   UNL A   1      45.666  29.745  31.115  1.00  0.00     0.029 A 
ATOM     60  N   UNL A   1      44.283  31.457  31.267  1.00  0.00    -0.354 N 
ATOM     61  N   UNL A   1      40.088  31.163  32.592  1.00  0.00    -0.248 NA
ATOM     62  C   UNL A   1      40.088  32.537  30.705  1.00  0.00     0.031 C 
ATOM     63  C   UNL A   1      44.718  29.508  32.155  1.00  0.00     0.029 A 
ATOM     64  C   UNL A   1      43.745  30.510  32.105  1.00  0.00     0.049 A 
ATOM     65  H   UNL A   1      44.076  32.420  31.273  1.00  0.00     0.167 HD
ATOM     66  C   UNL A   1      41.415  31.405  32.246  1.00  0.00     0.074 A 
ATOM     67  C   UNL A   1      41.346  32.312  31.099  1.00  0.00     0.031 C 
ATOM     68  C   UNL A   1      42.427  30.604  32.700  1.00  0.00     0.037 A 
BRANCH  55  69
ATOM     69  C   UNL A   1      45.376  32.522  28.484  1.00  0.00     0.057 A 
ATOM     70  C   UNL A   1      44.315  33.427  28.307  1.00  0.00     0.134 A 
ATOM     71  C   UNL A   1      46.607  32.935  27.934  1.00  0.00     0.134 A 
ATOM     72  F   UNL A   1      43.093  33.158  28.792  1.00  0.00    -0.206 F 
ATOM     73  C   UNL A   1      44.449  34.609  27.570  1.00  0.00     0.040 A 
ATOM     74  C   UNL A   1      46.766  34.139  27.244  1.00  0.00     0.040 A 
ATOM     75  F   UNL A   1      47.704  32.170  27.941  1.00  0.00    -0.206 F 
ATOM     76  C   UNL A   1      45.677  34.965  27.029  1.00  0.00     0.006 A 
ENDBRANCH  55  69
BRANCH  56  77
ATOM     77  C   UNL A   1      36.887  31.492  30.783  1.00  0.00     0.057 A 
ATOM     78  C   UNL A   1      35.999  31.741  31.838  1.00  0.00     0.134 A 
ATOM     79  C   UNL A   1      36.555  32.088  29.552  1.00  0.00     0.134 A 
ATOM     80  F   UNL A   1      36.243  31.253  33.063  1.00  0.00    -0.206 F 
ATOM     81  C   UNL A   1      34.859  32.546  31.683  1.00  0.00     0.040 A 
ATOM     82  C   UNL A   1      35.421  32.889  29.381  1.00  0.00     0.040 A 
ATOM     83  F   UNL A   1      37.367  31.982  28.489  1.00  0.00    -0.206 F 
ATOM     84  C   UNL A   1      34.573  33.132  30.453  1.00  0.00     0.006 A 
ENDBRANCH  56  77
BRANCH  68  85
ATOM     85  C   UNL A   1      42.098  29.565  33.747  1.00  0.00     0.057 A 
ATOM     86  C   UNL A   1      41.817  28.218  33.465  1.00  0.00     0.134 A 
ATOM     87  C   UNL A   1      42.266  29.893  35.096  1.00  0.00     0.134 A 
ATOM     88  F   UNL A   1      41.739  27.775  32.208  1.00  0.00    -0.206 F 
ATOM     89  C   UNL A   1      41.675  27.256  34.470  1.00  0.00     0.040 A 
ATOM     90  C   UNL A   1      42.159  28.937  36.109  1.00  0.00     0.040 A 
ATOM     91  F   UNL A   1      42.599  31.145  35.447  1.00  0.00    -0.206 F 
ATOM     92  C   UNL A   1      41.856  27.614  35.799  1.00  0.00     0.006 A 
ENDBRANCH  68  85
ENDBRANCH  42  43
ENDBRANCH  34  37
ENDBRANCH  32  33
ENDBRANCH  31  32
ENDBRANCH  30  31
ENDBRANCH  29  30
ENDBRANCH   3  29
TORSDOF 17
ENDMDL
MODEL 2
REMARK VINA RESULT:     -11.9      3.557      8.702
REMARK SMILES CCn1cc(S(=O)(=O)N2CCC(CCc3ccc(C(=O)NCCCCNC(=O)c4ccc(-c5c6nc(c(-c7c(F)cccc7F)c7ccc([nH]7)c(-c7c(F)cccc7F)c7nc(c(-c8c(F)cccc8F)c8ccc5[nH]8)C=C7)C=C6)cc4)cc3)CC2)cn1
REMARK SMILES IDX 19 1 20 2 21 3 18 5 15 6 16 7 84 8 17 9 83 10 14 11 13 12
REMARK SMILES IDX 12 13 9 14 10 15 86 16 11 17 85 18 6 19 7 20 8 21 5 22 3 23
REMARK SMILES IDX 4 24 88 25 87 26 2 27 1 28 22 29 23 30 24 31 25 32 26 33
REMARK SMILES IDX 27 34 28 36 29 37 30 38 82 39 31 40 81 41 32 42 33 43 34 44
REMARK SMILES IDX 75 45 35 46 80 47 74 48 76 49 36 50 79 51 73 52 72 53 37 55
REMARK SMILES IDX 63 56 46 57 62 58 47 59 50 60 61 61 77 62 48 63 49 64 60 66
REMARK SMILES IDX 78 67 51 68 38 69 39 70 44 71 40 72 41 73 43 74 45 75 42 76
REMARK SMILES IDX 64 77 65 78 70 79 66 80 67 81 69 82 71 83 68 84 52 85 53 86
REMARK SMILES IDX 58 87 54 88 55 89 57 90 59 91 56 92
REMARK H PARENT 21 4 26 35 76 54 50 65
REMARK Flexibility Score: inf
ROOT
ATOM      1  C   UNL A   1      37.845  28.730  32.797  1.00  0.00     0.251 C 
ATOM      2  O   UNL A   1      37.885  27.513  32.990  1.00  0.00    -0.269 OA
ATOM      3  N   UNL A   1      38.289  29.522  33.828  1.00  0.00    -0.352 N 
ATOM      4  H   UNL A   1      38.664  29.000  34.574  1.00  0.00     0.163 HD
ENDROOT
BRANCH   1   5
ATOM      5  C   UNL A   1      37.352  29.230  31.479  1.00  0.00     0.039 A 
ATOM      6  C   UNL A   1      36.476  30.069  28.906  1.00  0.00    -0.048 A 
ATOM      7  C   UNL A   1      37.320  28.965  29.039  1.00  0.00     0.004 A 
ATOM      8  C   UNL A   1      36.207  30.807  30.052  1.00  0.00     0.004 A 
ATOM      9  C   UNL A   1      37.781  28.574  30.310  1.00  0.00     0.014 A 
ATOM     10  C   UNL A   1      36.522  30.327  31.315  1.00  0.00     0.014 A 
BRANCH   6  11
ATOM     11  C   UNL A   1      35.826  30.449  27.594  1.00  0.00     0.036 C 
BRANCH  11  12
ATOM     12  C   UNL A   1      34.267  30.471  27.632  1.00  0.00     0.008 C 
BRANCH  12  13
ATOM     13  C   UNL A   1      33.535  29.568  26.611  1.00  0.00    -0.008 C 
ATOM     14  N   UNL A   1      31.465  28.007  25.303  1.00  0.00    -0.198 NA
ATOM     15  C   UNL A   1      32.443  27.336  26.189  1.00  0.00     0.103 C 
ATOM     16  C   UNL A   1      31.873  29.326  24.754  1.00  0.00     0.103 C 
ATOM     17  C   UNL A   1      32.989  28.285  27.245  1.00  0.00     0.020 C 
ATOM     18  C   UNL A   1      32.390  30.256  25.862  1.00  0.00     0.020 C 
BRANCH  14  19
ATOM     19  S   UNL A   1      30.680  26.959  24.198  1.00  0.00     0.246 S 
ATOM     20  O   UNL A   1      30.157  27.734  23.106  1.00  0.00    -0.207 OA
ATOM     21  O   UNL A   1      29.854  26.035  24.959  1.00  0.00    -0.207 OA
BRANCH  19  22
ATOM     22  C   UNL A   1      31.824  25.924  23.452  1.00  0.00     0.120 A 
ATOM     23  N   UNL A   1      33.080  24.258  22.834  1.00  0.00    -0.272 N 
ATOM     24  C   UNL A   1      31.951  24.557  23.540  1.00  0.00     0.130 A 
ATOM     25  N   UNL A   1      33.636  25.317  22.226  1.00  0.00    -0.180 NA
ATOM     26  C   UNL A   1      32.880  26.344  22.630  1.00  0.00     0.156 A 
BRANCH  23  27
ATOM     27  C   UNL A   1      33.811  23.009  22.929  1.00  0.00     0.141 C 
ATOM     28  C   UNL A   1      35.273  23.319  23.225  1.00  0.00     0.029 C 
ENDBRANCH  23  27
ENDBRANCH  19  22
ENDBRANCH  14  19
ENDBRANCH  12  13
ENDBRANCH  11  12
ENDBRANCH   6  11
ENDBRANCH   1   5
BRANCH   3  29
ATOM     29  C   UNL A   1      38.335  30.950  34.069  1.00  0.00     0.116 C 
BRANCH  29  30
ATOM     30  C   UNL A   1      39.718  31.518  33.736  1.00  0.00     0.023 C 
BRANCH  30  31
ATOM     31  C   UNL A   1      39.733  33.034  33.447  1.00  0.00     0.023 C 
BRANCH  31  32
ATOM     32  C   UNL A   1      41.097  33.604  33.048  1.00  0.00     0.116 C 
BRANCH  32  33
ATOM     33  N   UNL A   1      41.047  34.212  31.716  1.00  0.00    -0.352 N 
ATOM     34  C   UNL A   1      41.549  33.814  30.493  1.00  0.00     0.251 C 
ATOM     35  H   UNL A   1      40.561  35.068  31.688  1.00  0.00     0.163 HD
ATOM     36  O   UNL A   1      41.815  34.606  29.601  1.00  0.00    -0.269 OA
BRANCH  34  37
ATOM     37  C   UNL A   1      41.521  32.387  30.217  1.00  0.00     0.039 A 
ATOM     38  C   UNL A   1      40.392  31.565  30.171  1.00  0.00     0.014 A 
ATOM     39  C   UNL A   1      42.773  31.824  30.151  1.00  0.00     0.014 A 
ATOM     40  C   UNL A   1      40.605  30.194  30.019  1.00  0.00     0.010 A 
ATOM     41  C   UNL A   1      42.863  30.716  29.409  1.00  0.00     0.010 A 
ATOM     42  C   UNL A   1      41.902  29.788  29.721  1.00  0.00    -0.014 A 
BRANCH  42  43
ATOM     43  C   UNL A   1      42.414  28.456  29.538  1.00  0.00     0.031 A 
ATOM     44  C   UNL A   1      43.029  27.913  30.768  1.00  0.00     0.074 A 
ATOM     45  C   UNL A   1      41.922  27.688  28.541  1.00  0.00     0.049 A 
ATOM     46  N   UNL A   1      44.292  27.868  31.029  1.00  0.00    -0.248 NA
ATOM     47  C   UNL A   1      42.175  27.672  31.950  1.00  0.00     0.031 C 
ATOM     48  C   UNL A   1      40.945  28.012  27.491  1.00  0.00     0.029 A 
ATOM     49  N   UNL A   1      42.147  26.367  28.338  1.00  0.00    -0.354 N 
ATOM     50  C   UNL A   1      44.372  27.356  32.316  1.00  0.00     0.074 A 
ATOM     51  C   UNL A   1      43.094  27.604  32.915  1.00  0.00     0.031 C 
ATOM     52  C   UNL A   1      40.529  26.871  26.890  1.00  0.00     0.029 A 
ATOM     53  C   UNL A   1      41.294  25.760  27.423  1.00  0.00     0.049 A 
ATOM     54  H   UNL A   1      42.862  25.874  28.803  1.00  0.00     0.167 HD
ATOM     55  C   UNL A   1      45.346  26.473  32.667  1.00  0.00     0.037 A 
ATOM     56  C   UNL A   1      41.227  24.420  27.213  1.00  0.00     0.037 A 
ATOM     57  C   UNL A   1      46.304  26.342  31.592  1.00  0.00     0.049 A 
ATOM     58  C   UNL A   1      42.491  23.843  27.770  1.00  0.00     0.074 A 
ATOM     59  C   UNL A   1      47.145  27.226  30.944  1.00  0.00     0.029 A 
ATOM     60  N   UNL A   1      46.137  25.274  30.735  1.00  0.00    -0.354 N 
ATOM     61  N   UNL A   1      43.674  24.100  27.272  1.00  0.00    -0.248 NA
ATOM     62  C   UNL A   1      42.488  23.448  29.175  1.00  0.00     0.031 C 
ATOM     63  C   UNL A   1      47.049  26.879  29.563  1.00  0.00     0.029 A 
ATOM     64  C   UNL A   1      46.245  25.741  29.447  1.00  0.00     0.049 A 
ATOM     65  H   UNL A   1      45.970  24.341  30.999  1.00  0.00     0.167 HD
ATOM     66  C   UNL A   1      44.497  24.311  28.375  1.00  0.00     0.074 A 
ATOM     67  C   UNL A   1      43.722  23.833  29.521  1.00  0.00     0.031 C 
ATOM     68  C   UNL A   1      45.580  25.145  28.306  1.00  0.00     0.037 A 
BRANCH  55  69
ATOM     69  C   UNL A   1      45.257  25.459  33.779  1.00  0.00     0.057 A 
ATOM     70  C   UNL A   1      44.367  24.382  33.624  1.00  0.00     0.134 A 
ATOM     71  C   UNL A   1      45.811  25.593  35.068  1.00  0.00     0.134 A 
ATOM     72  F   UNL A   1      43.780  24.138  32.442  1.00  0.00    -0.206 F 
ATOM     73  C   UNL A   1      43.995  23.555  34.689  1.00  0.00     0.040 A 
ATOM     74  C   UNL A   1      45.488  24.738  36.126  1.00  0.00     0.040 A 
ATOM     75  F   UNL A   1      46.616  26.601  35.417  1.00  0.00    -0.206 F 
ATOM     76  C   UNL A   1      44.551  23.736  35.948  1.00  0.00     0.006 A 
ENDBRANCH  55  69
BRANCH  56  77
ATOM     77  C   UNL A   1      40.038  23.604  26.870  1.00  0.00     0.057 A 
ATOM     78  C   UNL A   1      38.747  24.151  26.860  1.00  0.00     0.134 A 
ATOM     79  C   UNL A   1      40.162  22.324  26.299  1.00  0.00     0.134 A 
ATOM     80  F   UNL A   1      38.526  25.382  27.345  1.00  0.00    -0.206 F 
ATOM     81  C   UNL A   1      37.651  23.474  26.302  1.00  0.00     0.040 A 
ATOM     82  C   UNL A   1      39.079  21.635  25.742  1.00  0.00     0.040 A 
ATOM     83  F   UNL A   1      41.359  21.729  26.184  1.00  0.00    -0.206 F 
ATOM     84  C   UNL A   1      37.817  22.215  25.732  1.00  0.00     0.006 A 
ENDBRANCH  56  77
BRANCH  68  85
ATOM     85  C   UNL A   1      45.982  25.679  26.951  1.00  0.00     0.057 A 
ATOM     86  C   UNL A   1      45.563  26.915  26.430  1.00  0.00     0.134 A 
ATOM     87  C   UNL A   1      46.982  25.013  26.235  1.00  0.00     0.134 A 
ATOM     88  F   UNL A   1      44.690  27.682  27.087  1.00  0.00    -0.206 F 
ATOM     89  C   UNL A   1      46.083  27.445  25.245  1.00  0.00     0.040 A 
ATOM     90  C   UNL A   1      47.534  25.545  25.066  1.00  0.00     0.040 A 
ATOM     91  F   UNL A   1      47.484  23.858  26.697  1.00  0.00    -0.206 F 
ATOM     92  C   UNL A   1      47.081  26.761  24.563  1.00  0.00     0.006 A 
ENDBRANCH  68  85
ENDBRANCH  42  43
ENDBRANCH  34  37
ENDBRANCH  32  33
ENDBRANCH  31  32
ENDBRANCH  30  31
ENDBRANCH  29  30
ENDBRANCH   3  29
TORSDOF 17
ENDMDL
MODEL 3
REMARK VINA RESULT:     -11.8      3.469      8.439
REMARK SMILES CCn1cc(S(=O)(=O)N2CCC(CCc3ccc(C(=O)NCCCCNC(=O)c4ccc(-c5c6nc(c(-c7c(F)cccc7F)c7ccc([nH]7)c(-c7c(F)cccc7F)c7nc(c(-c8c(F)cccc8F)c8ccc5[nH]8)C=C7)C=C6)cc4)cc3)CC2)cn1
REMARK SMILES IDX 19 1 20 2 21 3 18 5 15 6 16 7 84 8 17 9 83 10 14 11 13 12
REMARK SMILES IDX 12 13 9 14 10 15 86 16 11 17 85 18 6 19 7 20 8 21 5 22 3 23
REMARK SMILES IDX 4 24 88 25 87 26 2 27 1 28 22 29 23 30 24 31 25 32 26 33
REMARK SMILES IDX 27 34 28 36 29 37 30 38 82 39 31 40 81 41 32 42 33 43 34 44
REMARK SMILES IDX 75 45 35 46 80 47 74 48 76 49 36 50 79 51 73 52 72 53 37 55
REMARK SMILES IDX 63 56 46 57 62 58 47 59 50 60 61 61 77 62 48 63 49 64 60 66
REMARK SMILES IDX 78 67 51 68 38 69 39 70 44 71 40 72 41 73 43 74 45 75 42 76
REMARK SMILES IDX 64 77 65 78 70 79 66 80 67 81 69 82 71 83 68 84 52 85 53 86
REMARK SMILES IDX 58 87 54 88 55 89 57 90 59 91 56 92
REMARK H PARENT 21 4 26 35 76 54 50 65
REMARK Flexibility Score: inf
ROOT
ATOM      1  C   UNL A   1      38.392  28.585  32.619  1.00  0.00     0.251 C 
ATOM      2  O   UNL A   1      38.650  27.402  32.850  1.00  0.00    -0.269 OA
ATOM      3  N   UNL A   1      38.738  29.485  33.598  1.00  0.00    -0.352 N 
ATOM      4  H   UNL A   1      39.230  29.066  34.341  1.00  0.00     0.163 HD
ENDROOT
BRANCH   1   5
ATOM      5  C   UNL A   1      37.763  28.938  31.310  1.00  0.00     0.039 A 
ATOM      6  C   UNL A   1      36.645  29.507  28.758  1.00  0.00    -0.048 A 
ATOM      7  C   UNL A   1      37.691  28.592  28.882  1.00  0.00     0.004 A 
ATOM      8  C   UNL A   1      36.281  30.218  29.896  1.00  0.00     0.004 A 
ATOM      9  C   UNL A   1      38.266  28.339  30.141  1.00  0.00     0.014 A 
ATOM     10  C   UNL A   1      36.730  29.848  31.156  1.00  0.00     0.014 A 
BRANCH   6  11
ATOM     11  C   UNL A   1      35.884  29.713  27.466  1.00  0.00     0.036 C 
BRANCH  11  12
ATOM     12  C   UNL A   1      34.333  29.668  27.620  1.00  0.00     0.008 C 
BRANCH  12  13
ATOM     13  C   UNL A   1      33.531  29.141  26.407  1.00  0.00    -0.008 C 
ATOM     14  N   UNL A   1      31.346  28.141  24.775  1.00  0.00    -0.198 NA
ATOM     15  C   UNL A   1      32.296  27.190  25.396  1.00  0.00     0.103 C 
ATOM     16  C   UNL A   1      31.826  29.539  24.616  1.00  0.00     0.103 C 
ATOM     17  C   UNL A   1      32.917  27.761  26.662  1.00  0.00     0.020 C 
ATOM     18  C   UNL A   1      32.418  30.078  25.927  1.00  0.00     0.020 C 
BRANCH  14  19
ATOM     19  S   UNL A   1      30.480  27.502  23.441  1.00  0.00     0.246 S 
ATOM     20  O   UNL A   1      29.657  26.414  23.894  1.00  0.00    -0.207 OA
ATOM     21  O   UNL A   1      31.402  27.366  22.326  1.00  0.00    -0.207 OA
BRANCH  19  22
ATOM     22  C   UNL A   1      29.351  28.655  22.864  1.00  0.00     0.120 A 
ATOM     23  N   UNL A   1      28.346  30.385  22.008  1.00  0.00    -0.272 N 
ATOM     24  C   UNL A   1      29.563  29.773  22.091  1.00  0.00     0.130 A 
ATOM     25  N   UNL A   1      27.353  29.699  22.593  1.00  0.00    -0.180 NA
ATOM     26  C   UNL A   1      27.976  28.652  23.143  1.00  0.00     0.156 A 
BRANCH  23  27
ATOM     27  C   UNL A   1      28.137  31.761  21.600  1.00  0.00     0.141 C 
ATOM     28  C   UNL A   1      28.775  32.680  22.634  1.00  0.00     0.029 C 
ENDBRANCH  23  27
ENDBRANCH  19  22
ENDBRANCH  14  19
ENDBRANCH  12  13
ENDBRANCH  11  12
ENDBRANCH   6  11
ENDBRANCH   1   5
BRANCH   3  29
ATOM     29  C   UNL A   1      38.547  30.908  33.788  1.00  0.00     0.116 C 
BRANCH  29  30
ATOM     30  C   UNL A   1      39.893  31.637  33.860  1.00  0.00     0.023 C 
BRANCH  30  31
ATOM     31  C   UNL A   1      39.827  33.138  33.506  1.00  0.00     0.023 C 
BRANCH  31  32
ATOM     32  C   UNL A   1      41.169  33.778  33.142  1.00  0.00     0.116 C 
BRANCH  32  33
ATOM     33  N   UNL A   1      41.111  34.412  31.823  1.00  0.00    -0.352 N 
ATOM     34  C   UNL A   1      41.609  34.040  30.590  1.00  0.00     0.251 C 
ATOM     35  H   UNL A   1      40.623  35.268  31.814  1.00  0.00     0.163 HD
ATOM     36  O   UNL A   1      41.869  34.850  29.713  1.00  0.00    -0.269 OA
BRANCH  34  37
ATOM     37  C   UNL A   1      41.582  32.618  30.286  1.00  0.00     0.039 A 
ATOM     38  C   UNL A   1      40.453  31.799  30.210  1.00  0.00     0.014 A 
ATOM     39  C   UNL A   1      42.835  32.056  30.223  1.00  0.00     0.014 A 
ATOM     40  C   UNL A   1      40.666  30.431  30.034  1.00  0.00     0.010 A 
ATOM     41  C   UNL A   1      42.932  30.962  29.461  1.00  0.00     0.010 A 
ATOM     42  C   UNL A   1      41.966  30.029  29.744  1.00  0.00    -0.014 A 
BRANCH  42  43
ATOM     43  C   UNL A   1      42.479  28.700  29.540  1.00  0.00     0.031 A 
ATOM     44  C   UNL A   1      43.004  28.100  30.786  1.00  0.00     0.074 A 
ATOM     45  C   UNL A   1      42.051  27.979  28.481  1.00  0.00     0.049 A 
ATOM     46  N   UNL A   1      44.246  28.032  31.131  1.00  0.00    -0.248 NA
ATOM     47  C   UNL A   1      42.068  27.820  31.895  1.00  0.00     0.031 C 
ATOM     48  C   UNL A   1      41.151  28.357  27.381  1.00  0.00     0.029 A 
ATOM     49  N   UNL A   1      42.279  26.665  28.239  1.00  0.00    -0.354 N 
ATOM     50  C   UNL A   1      44.233  27.466  32.397  1.00  0.00     0.074 A 
ATOM     51  C   UNL A   1      42.918  27.703  32.917  1.00  0.00     0.031 C 
ATOM     52  C   UNL A   1      40.769  27.247  26.706  1.00  0.00     0.029 A 
ATOM     53  C   UNL A   1      41.486  26.106  27.242  1.00  0.00     0.049 A 
ATOM     54  H   UNL A   1      42.957  26.147  28.730  1.00  0.00     0.167 HD
ATOM     55  C   UNL A   1      45.173  26.559  32.777  1.00  0.00     0.037 A 
ATOM     56  C   UNL A   1      41.423  24.777  26.973  1.00  0.00     0.037 A 
ATOM     57  C   UNL A   1      46.202  26.462  31.765  1.00  0.00     0.049 A 
ATOM     58  C   UNL A   1      42.641  24.163  27.590  1.00  0.00     0.074 A 
ATOM     59  C   UNL A   1      47.092  27.362  31.214  1.00  0.00     0.029 A 
ATOM     60  N   UNL A   1      46.086  25.432  30.855  1.00  0.00    -0.354 N 
ATOM     61  N   UNL A   1      43.857  24.428  27.185  1.00  0.00    -0.248 NA
ATOM     62  C   UNL A   1      42.539  23.712  28.974  1.00  0.00     0.031 C 
ATOM     63  C   UNL A   1      47.089  27.073  29.817  1.00  0.00     0.029 A 
ATOM     64  C   UNL A   1      46.286  25.950  29.598  1.00  0.00     0.049 A 
ATOM     65  H   UNL A   1      45.893  24.490  31.068  1.00  0.00     0.167 HD
ATOM     66  C   UNL A   1      44.604  24.585  28.350  1.00  0.00     0.074 A 
ATOM     67  C   UNL A   1      43.749  24.068  29.419  1.00  0.00     0.031 C 
ATOM     68  C   UNL A   1      45.696  25.408  28.390  1.00  0.00     0.037 A 
BRANCH  55  69
ATOM     69  C   UNL A   1      45.000  25.501  33.836  1.00  0.00     0.057 A 
ATOM     70  C   UNL A   1      44.170  24.403  33.548  1.00  0.00     0.134 A 
ATOM     71  C   UNL A   1      45.405  25.602  35.183  1.00  0.00     0.134 A 
ATOM     72  F   UNL A   1      43.724  24.187  32.301  1.00  0.00    -0.206 F 
ATOM     73  C   UNL A   1      43.714  23.525  34.537  1.00  0.00     0.040 A 
ATOM     74  C   UNL A   1      45.000  24.698  36.168  1.00  0.00     0.040 A 
ATOM     75  F   UNL A   1      46.132  26.621  35.652  1.00  0.00    -0.206 F 
ATOM     76  C   UNL A   1      44.124  23.675  35.854  1.00  0.00     0.006 A 
ENDBRANCH  55  69
BRANCH  56  77
ATOM     77  C   UNL A   1      40.254  23.988  26.515  1.00  0.00     0.057 A 
ATOM     78  C   UNL A   1      40.387  22.665  26.071  1.00  0.00     0.134 A 
ATOM     79  C   UNL A   1      38.935  24.427  26.737  1.00  0.00     0.134 A 
ATOM     80  F   UNL A   1      41.603  22.136  25.867  1.00  0.00    -0.206 F 
ATOM     81  C   UNL A   1      39.279  21.826  25.874  1.00  0.00     0.040 A 
ATOM     82  C   UNL A   1      37.821  23.603  26.542  1.00  0.00     0.040 A 
ATOM     83  F   UNL A   1      38.685  25.647  27.233  1.00  0.00    -0.206 F 
ATOM     84  C   UNL A   1      37.991  22.291  26.120  1.00  0.00     0.006 A 
ENDBRANCH  56  77
BRANCH  68  85
ATOM     85  C   UNL A   1      46.195  25.994  27.089  1.00  0.00     0.057 A 
ATOM     86  C   UNL A   1      45.889  27.287  26.633  1.00  0.00     0.134 A 
ATOM     87  C   UNL A   1      47.175  25.301  26.371  1.00  0.00     0.134 A 
ATOM     88  F   UNL A   1      45.045  28.076  27.303  1.00  0.00    -0.206 F 
ATOM     89  C   UNL A   1      46.497  27.849  25.507  1.00  0.00     0.040 A 
ATOM     90  C   UNL A   1      47.815  25.861  25.262  1.00  0.00     0.040 A 
ATOM     91  F   UNL A   1      47.572  24.085  26.778  1.00  0.00    -0.206 F 
ATOM     92  C   UNL A   1      47.472  27.136  24.821  1.00  0.00     0.006 A 
ENDBRANCH  68  85
ENDBRANCH  42  43
ENDBRANCH  34  37
ENDBRANCH  32  33
ENDBRANCH  31  32
ENDBRANCH  30  31
ENDBRANCH  29  30
ENDBRANCH   3  29
TORSDOF 17
ENDMDL
