MODEL 1
REMARK VINA RESULT:     -12.7      0.000      0.000
REMARK SMILES CC1=C(C(=O)NCCCCNC(=O)c2ccc(-c3c4nc(c(-c5c(F)cccc5F)c5ccc([nH]5)c(-c5c(F)cccc5F)c5nc(c(-c6c(F)cccc6F)c6ccc3[nH]6)C=C5)C=C4)cc2)[C@H](c2ccc(Cl)cc2)n2ncnc2N1
REMARK SMILES IDX 9 1 8 2 7 3 6 4 4 5 5 6 3 8 1 9 2 10 81 11 68 12 80 13 76 15
REMARK SMILES IDX 79 16 77 17 78 18 69 19 70 20 75 21 71 22 74 23 72 24 73 25
REMARK SMILES IDX 10 26 11 27 12 28 13 30 14 31 15 32 67 33 16 34 66 35 17 36
REMARK SMILES IDX 18 37 19 38 60 39 20 40 65 41 59 42 61 43 21 44 64 45 58 46
REMARK SMILES IDX 57 47 22 49 48 50 31 51 47 52 32 53 35 54 46 55 62 56 33 57
REMARK SMILES IDX 34 58 45 60 63 61 36 62 23 63 24 64 29 65 25 66 26 67 28 68
REMARK SMILES IDX 30 69 27 70 49 71 50 72 55 73 51 74 52 75 54 76 56 77 53 78
REMARK SMILES IDX 37 79 38 80 43 81 39 82 40 83 42 84 44 85 41 86
REMARK H PARENT 6 7 81 14 11 29 61 48 35 59
REMARK Flexibility Score: inf
ROOT
ATOM      1  C   UNL A   1      33.530  28.705  26.973  1.00  0.00     0.023 C 
ENDROOT
BRANCH   1   2
ATOM      2  C   UNL A   1      33.239  27.292  26.439  1.00  0.00     0.023 C 
BRANCH   2   3
ATOM      3  C   UNL A   1      31.748  26.966  26.279  1.00  0.00     0.116 C 
BRANCH   3   4
ATOM      4  N   UNL A   1      31.452  25.661  26.822  1.00  0.00    -0.352 N 
ATOM      5  C   UNL A   1      31.356  24.393  26.385  1.00  0.00     0.251 C 
ATOM      6  O   UNL A   1      30.900  23.637  27.256  1.00  0.00    -0.270 OA
ATOM      7  H   UNL A   1      31.268  25.716  27.787  1.00  0.00     0.163 HD
BRANCH   5   8
ATOM      8  C   UNL A   1      31.737  23.784  25.056  1.00  0.00     0.065 C 
ATOM      9  C   UNL A   1      30.778  25.323  23.219  1.00  0.00     0.065 C 
ATOM     10  C   UNL A   1      31.466  24.102  23.754  1.00  0.00     0.026 C 
ATOM     11  N   UNL A   1      31.745  23.180  22.736  1.00  0.00    -0.328 N 
ATOM     12  C   UNL A   1      32.517  22.442  25.319  1.00  0.00     0.179 C 
ATOM     13  C   UNL A   1      31.958  21.876  22.968  1.00  0.00     0.226 A 
ATOM     14  H   UNL A   1      31.787  23.505  21.807  1.00  0.00     0.169 HD
ATOM     15  N   UNL A   1      32.245  21.485  24.239  1.00  0.00    -0.219 N 
ATOM     16  N   UNL A   1      31.924  20.831  22.182  1.00  0.00    -0.200 NA
ATOM     17  N   UNL A   1      32.354  20.143  24.332  1.00  0.00    -0.157 NA
ATOM     18  C   UNL A   1      32.147  19.796  23.055  1.00  0.00     0.248 A 
BRANCH  12  19
ATOM     19  C   UNL A   1      34.041  22.662  25.503  1.00  0.00    -0.018 A 
ATOM     20  C   UNL A   1      34.936  21.612  25.796  1.00  0.00     0.008 A 
ATOM     21  C   UNL A   1      34.580  23.958  25.406  1.00  0.00     0.008 A 
ATOM     22  C   UNL A   1      36.302  21.849  25.993  1.00  0.00     0.021 A 
ATOM     23  C   UNL A   1      35.949  24.195  25.585  1.00  0.00     0.021 A 
ATOM     24  C   UNL A   1      36.804  23.140  25.883  1.00  0.00     0.041 A 
ATOM     25  Cl  UNL A   1      38.481  23.431  26.126  1.00  0.00    -0.084 Cl
ENDBRANCH  12  19
ENDBRANCH   5   8
ENDBRANCH   3   4
ENDBRANCH   2   3
ENDBRANCH   1   2
BRANCH   1  26
ATOM     26  C   UNL A   1      35.001  28.966  27.281  1.00  0.00     0.116 C 
BRANCH  26  27
ATOM     27  N   UNL A   1      35.192  29.981  28.312  1.00  0.00    -0.352 N 
ATOM     28  C   UNL A   1      36.248  30.095  29.189  1.00  0.00     0.251 C 
ATOM     29  H   UNL A   1      34.486  30.662  28.389  1.00  0.00     0.163 HD
ATOM     30  O   UNL A   1      36.158  30.762  30.215  1.00  0.00    -0.269 OA
BRANCH  28  31
ATOM     31  C   UNL A   1      37.495  29.388  28.869  1.00  0.00     0.039 A 
ATOM     32  C   UNL A   1      38.263  29.775  27.769  1.00  0.00     0.014 A 
ATOM     33  C   UNL A   1      37.930  28.389  29.740  1.00  0.00     0.014 A 
ATOM     34  C   UNL A   1      39.525  29.213  27.601  1.00  0.00     0.010 A 
ATOM     35  C   UNL A   1      39.215  27.902  29.623  1.00  0.00     0.010 A 
ATOM     36  C   UNL A   1      40.014  28.298  28.549  1.00  0.00    -0.014 A 
BRANCH  36  37
ATOM     37  C   UNL A   1      41.415  27.877  28.487  1.00  0.00     0.031 A 
ATOM     38  C   UNL A   1      41.679  26.616  27.729  1.00  0.00     0.074 A 
ATOM     39  C   UNL A   1      42.448  28.658  28.869  1.00  0.00     0.049 A 
ATOM     40  N   UNL A   1      42.217  25.521  28.163  1.00  0.00    -0.248 NA
ATOM     41  C   UNL A   1      41.220  26.535  26.332  1.00  0.00     0.031 C 
ATOM     42  C   UNL A   1      42.411  30.050  29.326  1.00  0.00     0.029 A 
ATOM     43  N   UNL A   1      43.784  28.395  28.808  1.00  0.00    -0.354 N 
ATOM     44  C   UNL A   1      42.330  24.674  27.060  1.00  0.00     0.074 A 
ATOM     45  C   UNL A   1      41.579  25.293  25.999  1.00  0.00     0.031 C 
ATOM     46  C   UNL A   1      43.655  30.575  29.269  1.00  0.00     0.029 A 
ATOM     47  C   UNL A   1      44.591  29.517  28.938  1.00  0.00     0.049 A 
ATOM     48  H   UNL A   1      44.146  27.488  28.684  1.00  0.00     0.167 HD
ATOM     49  C   UNL A   1      43.208  23.631  27.049  1.00  0.00     0.037 A 
ATOM     50  C   UNL A   1      45.931  29.586  28.751  1.00  0.00     0.037 A 
ATOM     51  C   UNL A   1      43.639  23.294  28.382  1.00  0.00     0.049 A 
ATOM     52  C   UNL A   1      46.472  28.210  28.858  1.00  0.00     0.074 A 
ATOM     53  C   UNL A   1      43.004  22.906  29.546  1.00  0.00     0.029 A 
ATOM     54  N   UNL A   1      44.902  23.667  28.765  1.00  0.00    -0.354 N 
ATOM     55  N   UNL A   1      46.513  27.525  29.964  1.00  0.00    -0.248 NA
ATOM     56  C   UNL A   1      46.595  27.431  27.637  1.00  0.00     0.031 C 
ATOM     57  C   UNL A   1      43.729  23.551  30.591  1.00  0.00     0.029 A 
ATOM     58  C   UNL A   1      44.791  24.240  30.004  1.00  0.00     0.049 A 
ATOM     59  H   UNL A   1      45.732  23.547  28.248  1.00  0.00     0.167 HD
ATOM     60  C   UNL A   1      46.213  26.227  29.582  1.00  0.00     0.074 A 
ATOM     61  C   UNL A   1      46.390  26.209  28.132  1.00  0.00     0.031 C 
ATOM     62  C   UNL A   1      45.576  25.371  30.435  1.00  0.00     0.037 A 
BRANCH  49  63
ATOM     63  C   UNL A   1      43.964  23.150  25.827  1.00  0.00     0.057 A 
ATOM     64  C   UNL A   1      43.966  21.775  25.517  1.00  0.00     0.134 A 
ATOM     65  C   UNL A   1      44.928  23.914  25.141  1.00  0.00     0.134 A 
ATOM     66  F   UNL A   1      43.099  20.935  26.101  1.00  0.00    -0.206 F 
ATOM     67  C   UNL A   1      44.917  21.194  24.669  1.00  0.00     0.040 A 
ATOM     68  C   UNL A   1      45.851  23.351  24.253  1.00  0.00     0.040 A 
ATOM     69  F   UNL A   1      45.101  25.222  25.365  1.00  0.00    -0.206 F 
ATOM     70  C   UNL A   1      45.873  21.983  24.042  1.00  0.00     0.006 A 
ENDBRANCH  49  63
BRANCH  50  71
ATOM     71  C   UNL A   1      46.740  30.713  28.241  1.00  0.00     0.057 A 
ATOM     72  C   UNL A   1      46.597  31.169  26.924  1.00  0.00     0.134 A 
ATOM     73  C   UNL A   1      47.469  31.546  29.109  1.00  0.00     0.134 A 
ATOM     74  F   UNL A   1      45.889  30.462  26.031  1.00  0.00    -0.206 F 
ATOM     75  C   UNL A   1      47.120  32.398  26.501  1.00  0.00     0.040 A 
ATOM     76  C   UNL A   1      48.003  32.770  28.699  1.00  0.00     0.040 A 
ATOM     77  F   UNL A   1      47.607  31.241  30.409  1.00  0.00    -0.206 F 
ATOM     78  C   UNL A   1      47.815  33.209  27.394  1.00  0.00     0.006 A 
ENDBRANCH  50  71
BRANCH  62  79
ATOM     79  C   UNL A   1      45.471  25.764  31.883  1.00  0.00     0.057 A 
ATOM     80  C   UNL A   1      46.497  25.596  32.826  1.00  0.00     0.134 A 
ATOM     81  C   UNL A   1      44.332  26.455  32.309  1.00  0.00     0.134 A 
ATOM     82  F   UNL A   1      47.670  25.046  32.490  1.00  0.00    -0.206 F 
ATOM     83  C   UNL A   1      46.367  26.040  34.146  1.00  0.00     0.040 A 
ATOM     84  C   UNL A   1      44.205  26.938  33.614  1.00  0.00     0.040 A 
ATOM     85  F   UNL A   1      43.333  26.708  31.449  1.00  0.00    -0.206 F 
ATOM     86  C   UNL A   1      45.219  26.718  34.542  1.00  0.00     0.006 A 
ENDBRANCH  62  79
ENDBRANCH  36  37
ENDBRANCH  28  31
ENDBRANCH  26  27
ENDBRANCH   1  26
TORSDOF 12
ENDMDL
MODEL 2
REMARK VINA RESULT:     -12.3      3.066      7.042
REMARK SMILES CC1=C(C(=O)NCCCCNC(=O)c2ccc(-c3c4nc(c(-c5c(F)cccc5F)c5ccc([nH]5)c(-c5c(F)cccc5F)c5nc(c(-c6c(F)cccc6F)c6ccc3[nH]6)C=C5)C=C4)cc2)[C@H](c2ccc(Cl)cc2)n2ncnc2N1
REMARK SMILES IDX 9 1 8 2 7 3 6 4 4 5 5 6 3 8 1 9 2 10 81 11 68 12 80 13 76 15
REMARK SMILES IDX 79 16 77 17 78 18 69 19 70 20 75 21 71 22 74 23 72 24 73 25
REMARK SMILES IDX 10 26 11 27 12 28 13 30 14 31 15 32 67 33 16 34 66 35 17 36
REMARK SMILES IDX 18 37 19 38 60 39 20 40 65 41 59 42 61 43 21 44 64 45 58 46
REMARK SMILES IDX 57 47 22 49 48 50 31 51 47 52 32 53 35 54 46 55 62 56 33 57
REMARK SMILES IDX 34 58 45 60 63 61 36 62 23 63 24 64 29 65 25 66 26 67 28 68
REMARK SMILES IDX 30 69 27 70 49 71 50 72 55 73 51 74 52 75 54 76 56 77 53 78
REMARK SMILES IDX 37 79 38 80 43 81 39 82 40 83 42 84 44 85 41 86
REMARK H PARENT 6 7 81 14 11 29 61 48 35 59
REMARK Flexibility Score: inf
ROOT
ATOM      1  C   UNL A   1      33.611  31.178  27.624  1.00  0.00     0.023 C 
ENDROOT
BRANCH   1   2
ATOM      2  C   UNL A   1      34.338  30.209  26.678  1.00  0.00     0.023 C 
BRANCH   2   3
ATOM      3  C   UNL A   1      34.345  28.747  27.147  1.00  0.00     0.116 C 
BRANCH   3   4
ATOM      4  N   UNL A   1      33.043  28.366  27.643  1.00  0.00    -0.352 N 
ATOM      5  C   UNL A   1      31.932  27.766  27.182  1.00  0.00     0.251 C 
ATOM      6  O   UNL A   1      31.001  27.827  27.998  1.00  0.00    -0.270 OA
ATOM      7  H   UNL A   1      32.941  28.618  28.589  1.00  0.00     0.163 HD
BRANCH   5   8
ATOM      8  C   UNL A   1      31.681  27.035  25.884  1.00  0.00     0.065 C 
ATOM      9  C   UNL A   1      30.813  24.682  26.498  1.00  0.00     0.065 C 
ATOM     10  C   UNL A   1      31.287  25.764  25.571  1.00  0.00     0.026 C 
ATOM     11  N   UNL A   1      31.403  25.299  24.254  1.00  0.00    -0.328 N 
ATOM     12  C   UNL A   1      32.092  27.973  24.687  1.00  0.00     0.179 C 
ATOM     13  C   UNL A   1      32.176  25.894  23.333  1.00  0.00     0.226 A 
ATOM     14  H   UNL A   1      30.893  24.497  23.993  1.00  0.00     0.169 HD
ATOM     15  N   UNL A   1      32.598  27.166  23.569  1.00  0.00    -0.219 N 
ATOM     16  N   UNL A   1      32.658  25.474  22.193  1.00  0.00    -0.200 NA
ATOM     17  N   UNL A   1      33.428  27.601  22.599  1.00  0.00    -0.157 NA
ATOM     18  C   UNL A   1      33.432  26.533  21.789  1.00  0.00     0.248 A 
BRANCH  12  19
ATOM     19  C   UNL A   1      30.937  28.901  24.232  1.00  0.00    -0.018 A 
ATOM     20  C   UNL A   1      29.919  28.481  23.350  1.00  0.00     0.008 A 
ATOM     21  C   UNL A   1      30.891  30.235  24.680  1.00  0.00     0.008 A 
ATOM     22  C   UNL A   1      28.910  29.355  22.929  1.00  0.00     0.021 A 
ATOM     23  C   UNL A   1      29.871  31.106  24.274  1.00  0.00     0.021 A 
ATOM     24  C   UNL A   1      28.888  30.664  23.396  1.00  0.00     0.041 A 
ATOM     25  Cl  UNL A   1      27.649  31.738  22.878  1.00  0.00    -0.084 Cl
ENDBRANCH  12  19
ENDBRANCH   5   8
ENDBRANCH   3   4
ENDBRANCH   2   3
ENDBRANCH   1   2
BRANCH   1  26
ATOM     26  C   UNL A   1      34.423  32.414  27.999  1.00  0.00     0.116 C 
BRANCH  26  27
ATOM     27  N   UNL A   1      34.363  32.722  29.424  1.00  0.00    -0.352 N 
ATOM     28  C   UNL A   1      35.094  32.143  30.437  1.00  0.00     0.251 C 
ATOM     29  H   UNL A   1      33.726  33.423  29.692  1.00  0.00     0.163 HD
ATOM     30  O   UNL A   1      34.741  32.226  31.609  1.00  0.00    -0.269 OA
BRANCH  28  31
ATOM     31  C   UNL A   1      36.318  31.412  30.080  1.00  0.00     0.039 A 
ATOM     32  C   UNL A   1      37.504  32.103  29.829  1.00  0.00     0.014 A 
ATOM     33  C   UNL A   1      36.278  30.018  30.086  1.00  0.00     0.014 A 
ATOM     34  C   UNL A   1      38.683  31.379  29.677  1.00  0.00     0.010 A 
ATOM     35  C   UNL A   1      37.460  29.308  30.026  1.00  0.00     0.010 A 
ATOM     36  C   UNL A   1      38.664  29.980  29.808  1.00  0.00    -0.014 A 
BRANCH  36  37
ATOM     37  C   UNL A   1      39.930  29.245  29.863  1.00  0.00     0.031 A 
ATOM     38  C   UNL A   1      40.498  29.034  31.229  1.00  0.00     0.074 A 
ATOM     39  C   UNL A   1      40.460  28.589  28.808  1.00  0.00     0.049 A 
ATOM     40  N   UNL A   1      41.643  29.426  31.687  1.00  0.00    -0.248 NA
ATOM     41  C   UNL A   1      39.655  28.367  32.237  1.00  0.00     0.031 C 
ATOM     42  C   UNL A   1      39.883  28.402  27.473  1.00  0.00     0.029 A 
ATOM     43  N   UNL A   1      41.594  27.836  28.755  1.00  0.00    -0.354 N 
ATOM     44  C   UNL A   1      41.749  28.908  32.979  1.00  0.00     0.074 A 
ATOM     45  C   UNL A   1      40.448  28.387  33.311  1.00  0.00     0.031 C 
ATOM     46  C   UNL A   1      40.539  27.409  26.835  1.00  0.00     0.029 A 
ATOM     47  C   UNL A   1      41.677  27.011  27.641  1.00  0.00     0.049 A 
ATOM     48  H   UNL A   1      42.295  27.873  29.446  1.00  0.00     0.167 HD
ATOM     49  C   UNL A   1      42.957  28.762  33.592  1.00  0.00     0.037 A 
ATOM     50  C   UNL A   1      42.595  26.041  27.409  1.00  0.00     0.037 A 
ATOM     51  C   UNL A   1      43.971  29.560  32.950  1.00  0.00     0.049 A 
ATOM     52  C   UNL A   1      43.764  26.309  28.280  1.00  0.00     0.074 A 
ATOM     53  C   UNL A   1      44.132  30.905  32.681  1.00  0.00     0.029 A 
ATOM     54  N   UNL A   1      44.889  28.919  32.157  1.00  0.00    -0.354 N 
ATOM     55  N   UNL A   1      44.574  27.317  28.126  1.00  0.00    -0.248 NA
ATOM     56  C   UNL A   1      43.796  25.677  29.589  1.00  0.00     0.031 C 
ATOM     57  C   UNL A   1      44.751  30.951  31.396  1.00  0.00     0.029 A 
ATOM     58  C   UNL A   1      44.979  29.635  30.993  1.00  0.00     0.049 A 
ATOM     59  H   UNL A   1      45.388  28.100  32.381  1.00  0.00     0.167 HD
ATOM     60  C   UNL A   1      44.873  27.724  29.416  1.00  0.00     0.074 A 
ATOM     61  C   UNL A   1      44.464  26.611  30.269  1.00  0.00     0.031 C 
ATOM     62  C   UNL A   1      45.157  29.031  29.695  1.00  0.00     0.037 A 
BRANCH  49  63
ATOM     63  C   UNL A   1      43.318  27.633  34.535  1.00  0.00     0.057 A 
ATOM     64  C   UNL A   1      43.382  26.316  34.039  1.00  0.00     0.134 A 
ATOM     65  C   UNL A   1      43.294  27.737  35.940  1.00  0.00     0.134 A 
ATOM     66  F   UNL A   1      43.409  26.076  32.719  1.00  0.00    -0.206 F 
ATOM     67  C   UNL A   1      43.324  25.191  34.872  1.00  0.00     0.040 A 
ATOM     68  C   UNL A   1      43.287  26.621  36.783  1.00  0.00     0.040 A 
ATOM     69  F   UNL A   1      43.173  28.910  36.572  1.00  0.00    -0.206 F 
ATOM     70  C   UNL A   1      43.264  25.343  36.251  1.00  0.00     0.006 A 
ENDBRANCH  49  63
BRANCH  50  71
ATOM     71  C   UNL A   1      42.432  24.767  26.678  1.00  0.00     0.057 A 
ATOM     72  C   UNL A   1      43.186  24.488  25.530  1.00  0.00     0.134 A 
ATOM     73  C   UNL A   1      41.737  23.681  27.241  1.00  0.00     0.134 A 
ATOM     74  F   UNL A   1      43.911  25.450  24.942  1.00  0.00    -0.206 F 
ATOM     75  C   UNL A   1      43.272  23.198  24.991  1.00  0.00     0.040 A 
ATOM     76  C   UNL A   1      41.807  22.391  26.709  1.00  0.00     0.040 A 
ATOM     77  F   UNL A   1      41.041  23.819  28.380  1.00  0.00    -0.206 F 
ATOM     78  C   UNL A   1      42.590  22.141  25.590  1.00  0.00     0.006 A 
ENDBRANCH  50  71
BRANCH  62  79
ATOM     79  C   UNL A   1      45.425  29.957  28.540  1.00  0.00     0.057 A 
ATOM     80  C   UNL A   1      44.433  30.664  27.845  1.00  0.00     0.134 A 
ATOM     81  C   UNL A   1      46.753  30.238  28.201  1.00  0.00     0.134 A 
ATOM     82  F   UNL A   1      43.139  30.549  28.168  1.00  0.00    -0.206 F 
ATOM     83  C   UNL A   1      44.746  31.562  26.820  1.00  0.00     0.040 A 
ATOM     84  C   UNL A   1      47.082  31.161  27.205  1.00  0.00     0.040 A 
ATOM     85  F   UNL A   1      47.760  29.646  28.862  1.00  0.00    -0.206 F 
ATOM     86  C   UNL A   1      46.076  31.816  26.500  1.00  0.00     0.006 A 
ENDBRANCH  62  79
ENDBRANCH  36  37
ENDBRANCH  28  31
ENDBRANCH  26  27
ENDBRANCH   1  26
TORSDOF 12
ENDMDL
MODEL 3
REMARK VINA RESULT:     -12.2      1.944      6.058
REMARK SMILES CC1=C(C(=O)NCCCCNC(=O)c2ccc(-c3c4nc(c(-c5c(F)cccc5F)c5ccc([nH]5)c(-c5c(F)cccc5F)c5nc(c(-c6c(F)cccc6F)c6ccc3[nH]6)C=C5)C=C4)cc2)[C@H](c2ccc(Cl)cc2)n2ncnc2N1
REMARK SMILES IDX 9 1 8 2 7 3 6 4 4 5 5 6 3 8 1 9 2 10 81 11 68 12 80 13 76 15
REMARK SMILES IDX 79 16 77 17 78 18 69 19 70 20 75 21 71 22 74 23 72 24 73 25
REMARK SMILES IDX 10 26 11 27 12 28 13 30 14 31 15 32 67 33 16 34 66 35 17 36
REMARK SMILES IDX 18 37 19 38 60 39 20 40 65 41 59 42 61 43 21 44 64 45 58 46
REMARK SMILES IDX 57 47 22 49 48 50 31 51 47 52 32 53 35 54 46 55 62 56 33 57
REMARK SMILES IDX 34 58 45 60 63 61 36 62 23 63 24 64 29 65 25 66 26 67 28 68
REMARK SMILES IDX 30 69 27 70 49 71 50 72 55 73 51 74 52 75 54 76 56 77 53 78
REMARK SMILES IDX 37 79 38 80 43 81 39 82 40 83 42 84 44 85 41 86
REMARK H PARENT 6 7 81 14 11 29 61 48 35 59
REMARK Flexibility Score: inf
ROOT
ATOM      1  C   UNL A   1      32.644  28.672  27.263  1.00  0.00     0.023 C 
ENDROOT
BRANCH   1   2
ATOM      2  C   UNL A   1      32.731  27.331  26.514  1.00  0.00     0.023 C 
BRANCH   2   3
ATOM      3  C   UNL A   1      31.377  26.762  26.068  1.00  0.00     0.116 C 
BRANCH   3   4
ATOM      4  N   UNL A   1      31.120  25.497  26.714  1.00  0.00    -0.352 N 
ATOM      5  C   UNL A   1      31.097  24.192  26.388  1.00  0.00     0.251 C 
ATOM      6  O   UNL A   1      30.643  23.494  27.307  1.00  0.00    -0.270 OA
ATOM      7  H   UNL A   1      30.898  25.626  27.664  1.00  0.00     0.163 HD
BRANCH   5   8
ATOM      8  C   UNL A   1      31.554  23.489  25.132  1.00  0.00     0.065 C 
ATOM      9  C   UNL A   1      30.401  24.668  23.146  1.00  0.00     0.065 C 
ATOM     10  C   UNL A   1      31.244  23.616  23.807  1.00  0.00     0.026 C 
ATOM     11  N   UNL A   1      31.641  22.627  22.896  1.00  0.00    -0.328 N 
ATOM     12  C   UNL A   1      32.504  22.299  25.535  1.00  0.00     0.179 C 
ATOM     13  C   UNL A   1      32.022  21.397  23.272  1.00  0.00     0.226 A 
ATOM     14  H   UNL A   1      31.639  22.846  21.936  1.00  0.00     0.169 HD
ATOM     15  N   UNL A   1      32.359  21.196  24.575  1.00  0.00    -0.219 N 
ATOM     16  N   UNL A   1      32.125  20.274  22.612  1.00  0.00    -0.200 NA
ATOM     17  N   UNL A   1      32.642  19.900  24.819  1.00  0.00    -0.157 NA
ATOM     18  C   UNL A   1      32.482  19.384  23.594  1.00  0.00     0.248 A 
BRANCH  12  19
ATOM     19  C   UNL A   1      33.985  22.735  25.669  1.00  0.00    -0.018 A 
ATOM     20  C   UNL A   1      34.433  24.034  25.350  1.00  0.00     0.008 A 
ATOM     21  C   UNL A   1      34.953  21.809  26.102  1.00  0.00     0.008 A 
ATOM     22  C   UNL A   1      35.784  24.386  25.447  1.00  0.00     0.021 A 
ATOM     23  C   UNL A   1      36.303  22.165  26.218  1.00  0.00     0.021 A 
ATOM     24  C   UNL A   1      36.714  23.451  25.885  1.00  0.00     0.041 A 
ATOM     25  Cl  UNL A   1      38.374  23.882  26.005  1.00  0.00    -0.084 Cl
ENDBRANCH  12  19
ENDBRANCH   5   8
ENDBRANCH   3   4
ENDBRANCH   2   3
ENDBRANCH   1   2
BRANCH   1  26
ATOM     26  C   UNL A   1      33.752  29.659  26.908  1.00  0.00     0.116 C 
BRANCH  26  27
ATOM     27  N   UNL A   1      33.639  30.921  27.631  1.00  0.00    -0.352 N 
ATOM     28  C   UNL A   1      34.556  31.476  28.495  1.00  0.00     0.251 C 
ATOM     29  H   UNL A   1      32.812  31.435  27.484  1.00  0.00     0.163 HD
ATOM     30  O   UNL A   1      34.235  32.350  29.295  1.00  0.00    -0.269 OA
BRANCH  28  31
ATOM     31  C   UNL A   1      35.942  30.989  28.443  1.00  0.00     0.039 A 
ATOM     32  C   UNL A   1      37.001  31.844  28.751  1.00  0.00     0.014 A 
ATOM     33  C   UNL A   1      36.157  29.639  28.166  1.00  0.00     0.014 A 
ATOM     34  C   UNL A   1      38.280  31.310  28.874  1.00  0.00     0.010 A 
ATOM     35  C   UNL A   1      37.408  29.097  28.377  1.00  0.00     0.010 A 
ATOM     36  C   UNL A   1      38.477  29.927  28.717  1.00  0.00    -0.014 A 
BRANCH  36  37
ATOM     37  C   UNL A   1      39.776  29.342  29.058  1.00  0.00     0.031 A 
ATOM     38  C   UNL A   1      40.078  29.241  30.518  1.00  0.00     0.074 A 
ATOM     39  C   UNL A   1      40.571  28.716  28.164  1.00  0.00     0.049 A 
ATOM     40  N   UNL A   1      41.061  29.774  31.169  1.00  0.00    -0.248 NA
ATOM     41  C   UNL A   1      39.125  28.517  31.377  1.00  0.00     0.031 C 
ATOM     42  C   UNL A   1      40.295  28.422  26.754  1.00  0.00     0.029 A 
ATOM     43  N   UNL A   1      41.765  28.094  28.374  1.00  0.00    -0.354 N 
ATOM     44  C   UNL A   1      40.960  29.314  32.483  1.00  0.00     0.074 A 
ATOM     45  C   UNL A   1      39.680  28.661  32.582  1.00  0.00     0.031 C 
ATOM     46  C   UNL A   1      41.165  27.489  26.312  1.00  0.00     0.029 A 
ATOM     47  C   UNL A   1      42.155  27.248  27.345  1.00  0.00     0.049 A 
ATOM     48  H   UNL A   1      42.306  28.233  29.185  1.00  0.00     0.167 HD
ATOM     49  C   UNL A   1      42.030  29.326  33.327  1.00  0.00     0.037 A 
ATOM     50  C   UNL A   1      43.196  26.381  27.349  1.00  0.00     0.037 A 
ATOM     51  C   UNL A   1      43.063  30.212  32.852  1.00  0.00     0.049 A 
ATOM     52  C   UNL A   1      44.133  26.807  28.415  1.00  0.00     0.074 A 
ATOM     53  C   UNL A   1      43.133  31.557  32.547  1.00  0.00     0.029 A 
ATOM     54  N   UNL A   1      44.182  29.653  32.290  1.00  0.00    -0.354 N 
ATOM     55  N   UNL A   1      44.848  27.894  28.368  1.00  0.00    -0.248 NA
ATOM     56  C   UNL A   1      43.969  26.226  29.738  1.00  0.00     0.031 C 
ATOM     57  C   UNL A   1      43.988  31.630  31.408  1.00  0.00     0.029 A 
ATOM     58  C   UNL A   1      44.429  30.336  31.129  1.00  0.00     0.049 A 
ATOM     59  H   UNL A   1      44.709  28.903  32.651  1.00  0.00     0.167 HD
ATOM     60  C   UNL A   1      44.839  28.374  29.668  1.00  0.00     0.074 A 
ATOM     61  C   UNL A   1      44.386  27.251  30.484  1.00  0.00     0.031 C 
ATOM     62  C   UNL A   1      44.924  29.713  29.925  1.00  0.00     0.037 A 
BRANCH  49  63
ATOM     63  C   UNL A   1      42.311  28.276  34.382  1.00  0.00     0.057 A 
ATOM     64  C   UNL A   1      42.673  26.975  33.980  1.00  0.00     0.134 A 
ATOM     65  C   UNL A   1      41.940  28.396  35.736  1.00  0.00     0.134 A 
ATOM     66  F   UNL A   1      43.045  26.722  32.716  1.00  0.00    -0.206 F 
ATOM     67  C   UNL A   1      42.575  25.867  34.830  1.00  0.00     0.040 A 
ATOM     68  C   UNL A   1      41.889  27.304  36.609  1.00  0.00     0.040 A 
ATOM     69  F   UNL A   1      41.510  29.548  36.265  1.00  0.00    -0.206 F 
ATOM     70  C   UNL A   1      42.170  26.028  36.149  1.00  0.00     0.006 A 
ENDBRANCH  49  63
BRANCH  50  71
ATOM     71  C   UNL A   1      43.316  25.073  26.671  1.00  0.00     0.057 A 
ATOM     72  C   UNL A   1      42.486  23.998  27.016  1.00  0.00     0.134 A 
ATOM     73  C   UNL A   1      44.056  24.927  25.483  1.00  0.00     0.134 A 
ATOM     74  F   UNL A   1      41.715  24.059  28.112  1.00  0.00    -0.206 F 
ATOM     75  C   UNL A   1      42.370  22.858  26.212  1.00  0.00     0.040 A 
ATOM     76  C   UNL A   1      43.958  23.791  24.676  1.00  0.00     0.040 A 
ATOM     77  F   UNL A   1      44.829  25.921  25.022  1.00  0.00    -0.206 F 
ATOM     78  C   UNL A   1      43.099  22.757  25.029  1.00  0.00     0.006 A 
ENDBRANCH  50  71
BRANCH  62  79
ATOM     79  C   UNL A   1      45.320  30.625  28.797  1.00  0.00     0.057 A 
ATOM     80  C   UNL A   1      46.646  30.894  28.422  1.00  0.00     0.134 A 
ATOM     81  C   UNL A   1      44.316  31.154  27.978  1.00  0.00     0.134 A 
ATOM     82  F   UNL A   1      47.679  30.346  29.074  1.00  0.00    -0.206 F 
ATOM     83  C   UNL A   1      46.954  31.700  27.322  1.00  0.00     0.040 A 
ATOM     84  C   UNL A   1      44.610  31.929  26.854  1.00  0.00     0.040 A 
ATOM     85  F   UNL A   1      43.025  30.892  28.235  1.00  0.00    -0.206 F 
ATOM     86  C   UNL A   1      45.934  32.217  26.531  1.00  0.00     0.006 A 
ENDBRANCH  62  79
ENDBRANCH  36  37
ENDBRANCH  28  31
ENDBRANCH  26  27
ENDBRANCH   1  26
TORSDOF 12
ENDMDL
