MODEL 1
REMARK VINA RESULT:     -11.7      0.000      0.000
REMARK SMILES C[C@@H]1CN(C(=O)N2CC(CC(=O)NCCCCNC(=O)c3ccc(-c4c5nc(c(-c6c(F)cccc6F)c6ccc([nH]6)c(-c6c(F)cccc6F)c6nc(c(-c7c(F)cccc7F)c7ccc4[nH]7)C=C6)C=C5)cc3)C2)C[C@H]1C
REMARK SMILES IDX 16 1 15 2 14 3 13 4 11 5 12 6 10 8 9 9 1 10 2 11 3 12 77 13
REMARK SMILES IDX 4 14 76 15 78 16 5 17 6 18 7 19 8 20 75 21 17 22 18 23 19 24
REMARK SMILES IDX 20 26 21 27 22 28 74 29 23 30 73 31 24 32 25 33 26 34 67 35
REMARK SMILES IDX 27 36 72 37 66 38 68 39 28 40 71 41 65 42 64 43 29 45 55 46
REMARK SMILES IDX 38 47 54 48 39 49 42 50 53 51 69 52 40 53 41 54 52 56 70 57
REMARK SMILES IDX 43 58 30 59 31 60 36 61 32 62 33 63 35 64 37 65 34 66 56 67
REMARK SMILES IDX 57 68 62 69 58 70 59 71 61 72 63 73 60 74 44 75 45 76 50 77
REMARK SMILES IDX 46 78 47 79 49 80 51 81 48 82
REMARK H PARENT 13 7 18 25 68 44 42 55
REMARK Flexibility Score: inf
ROOT
ATOM      1  C   UNL A   1      38.063  20.664  24.853  1.00  0.00     0.023 C 
ENDROOT
BRANCH   1   2
ATOM      2  C   UNL A   1      36.818  19.790  24.919  1.00  0.00     0.023 C 
BRANCH   2   3
ATOM      3  C   UNL A   1      35.486  20.540  24.948  1.00  0.00     0.116 C 
BRANCH   3   4
ATOM      4  N   UNL A   1      34.379  19.615  25.064  1.00  0.00    -0.356 N 
ATOM      5  C   UNL A   1      33.044  19.833  24.897  1.00  0.00     0.220 C 
ATOM      6  O   UNL A   1      32.265  18.928  25.195  1.00  0.00    -0.275 OA
ATOM      7  H   UNL A   1      34.626  18.691  25.298  1.00  0.00     0.163 HD
BRANCH   5   8
ATOM      8  C   UNL A   1      32.533  21.155  24.356  1.00  0.00     0.107 C 
BRANCH   8   9
ATOM      9  C   UNL A   1      32.038  22.122  25.427  1.00  0.00     0.037 C 
ATOM     10  C   UNL A   1      33.937  28.610  24.285  1.00  0.00     0.010 C 
ATOM     11  C   UNL A   1      33.516  27.942  25.587  1.00  0.00     0.010 C 
ATOM     12  C   UNL A   1      33.117  26.476  25.385  1.00  0.00     0.125 C 
ATOM     13  C   UNL A   1      32.261  28.573  26.214  1.00  0.00     0.010 C 
ATOM     14  N   UNL A   1      31.973  26.252  26.260  1.00  0.00    -0.324 N 
ATOM     15  C   UNL A   1      31.701  27.432  27.058  1.00  0.00     0.125 C 
ATOM     16  C   UNL A   1      32.558  29.823  27.026  1.00  0.00     0.010 C 
ATOM     17  C   UNL A   1      31.051  25.228  26.146  1.00  0.00     0.320 C 
ATOM     18  O   UNL A   1      29.917  25.307  26.615  1.00  0.00    -0.248 OA
ATOM     19  N   UNL A   1      31.470  24.113  25.474  1.00  0.00    -0.324 N 
ATOM     20  C   UNL A   1      30.745  22.906  25.121  1.00  0.00     0.127 C 
ATOM     21  C   UNL A   1      32.762  23.475  25.484  1.00  0.00     0.127 C 
ENDBRANCH   8   9
ENDBRANCH   5   8
ENDBRANCH   3   4
ENDBRANCH   2   3
ENDBRANCH   1   2
BRANCH   1  22
ATOM     22  C   UNL A   1      38.997  20.544  26.047  1.00  0.00     0.116 C 
BRANCH  22  23
ATOM     23  N   UNL A   1      40.026  19.525  25.892  1.00  0.00    -0.352 N 
ATOM     24  C   UNL A   1      41.379  19.640  26.117  1.00  0.00     0.251 C 
ATOM     25  H   UNL A   1      39.714  18.642  25.590  1.00  0.00     0.163 HD
ATOM     26  O   UNL A   1      42.136  18.706  25.868  1.00  0.00    -0.269 OA
BRANCH  24  27
ATOM     27  C   UNL A   1      41.911  20.924  26.614  1.00  0.00     0.039 A 
ATOM     28  C   UNL A   1      42.335  21.884  25.692  1.00  0.00     0.014 A 
ATOM     29  C   UNL A   1      41.909  21.204  27.982  1.00  0.00     0.014 A 
ATOM     30  C   UNL A   1      42.671  23.163  26.140  1.00  0.00     0.010 A 
ATOM     31  C   UNL A   1      42.161  22.499  28.415  1.00  0.00     0.010 A 
ATOM     32  C   UNL A   1      42.539  23.492  27.497  1.00  0.00    -0.014 A 
BRANCH  32  33
ATOM     33  C   UNL A   1      42.792  24.866  27.996  1.00  0.00     0.031 A 
ATOM     34  C   UNL A   1      44.177  25.256  28.430  1.00  0.00     0.074 A 
ATOM     35  C   UNL A   1      41.766  25.723  28.153  1.00  0.00     0.049 A 
ATOM     36  N   UNL A   1      44.581  26.350  29.021  1.00  0.00    -0.248 NA
ATOM     37  C   UNL A   1      45.241  24.265  28.204  1.00  0.00     0.031 C 
ATOM     38  C   UNL A   1      40.366  25.445  27.822  1.00  0.00     0.029 A 
ATOM     39  N   UNL A   1      41.740  27.002  28.650  1.00  0.00    -0.354 N 
ATOM     40  C   UNL A   1      45.935  26.165  29.267  1.00  0.00     0.074 A 
ATOM     41  C   UNL A   1      46.274  24.837  28.803  1.00  0.00     0.031 C 
ATOM     42  C   UNL A   1      39.623  26.528  28.106  1.00  0.00     0.029 A 
ATOM     43  C   UNL A   1      40.485  27.561  28.671  1.00  0.00     0.049 A 
ATOM     44  H   UNL A   1      42.545  27.475  28.961  1.00  0.00     0.167 HD
ATOM     45  C   UNL A   1      46.821  27.031  29.811  1.00  0.00     0.037 A 
ATOM     46  C   UNL A   1      40.077  28.768  29.104  1.00  0.00     0.037 A 
ATOM     47  C   UNL A   1      46.493  28.369  30.224  1.00  0.00     0.049 A 
ATOM     48  C   UNL A   1      41.086  29.727  29.669  1.00  0.00     0.074 A 
ATOM     49  C   UNL A   1      47.335  29.350  30.716  1.00  0.00     0.029 A 
ATOM     50  N   UNL A   1      45.220  28.914  30.182  1.00  0.00    -0.354 N 
ATOM     51  N   UNL A   1      42.375  29.560  29.844  1.00  0.00    -0.248 NA
ATOM     52  C   UNL A   1      40.587  31.042  30.095  1.00  0.00     0.031 C 
ATOM     53  C   UNL A   1      46.566  30.484  30.996  1.00  0.00     0.029 A 
ATOM     54  C   UNL A   1      45.250  30.218  30.648  1.00  0.00     0.049 A 
ATOM     55  H   UNL A   1      44.414  28.446  29.868  1.00  0.00     0.167 HD
ATOM     56  C   UNL A   1      42.844  30.754  30.374  1.00  0.00     0.074 A 
ATOM     57  C   UNL A   1      41.704  31.641  30.485  1.00  0.00     0.031 C 
ATOM     58  C   UNL A   1      44.107  31.087  30.736  1.00  0.00     0.037 A 
BRANCH  45  59
ATOM     59  C   UNL A   1      48.233  26.555  29.976  1.00  0.00     0.057 A 
ATOM     60  C   UNL A   1      49.199  26.756  28.981  1.00  0.00     0.134 A 
ATOM     61  C   UNL A   1      48.636  25.904  31.147  1.00  0.00     0.134 A 
ATOM     62  F   UNL A   1      48.872  27.359  27.828  1.00  0.00    -0.206 F 
ATOM     63  C   UNL A   1      50.509  26.299  29.134  1.00  0.00     0.040 A 
ATOM     64  C   UNL A   1      49.949  25.464  31.322  1.00  0.00     0.040 A 
ATOM     65  F   UNL A   1      47.760  25.682  32.140  1.00  0.00    -0.206 F 
ATOM     66  C   UNL A   1      50.889  25.656  30.310  1.00  0.00     0.006 A 
ENDBRANCH  45  59
BRANCH  46  67
ATOM     67  C   UNL A   1      38.648  29.153  28.991  1.00  0.00     0.057 A 
ATOM     68  C   UNL A   1      38.115  29.580  27.770  1.00  0.00     0.134 A 
ATOM     69  C   UNL A   1      37.787  29.107  30.093  1.00  0.00     0.134 A 
ATOM     70  F   UNL A   1      38.899  29.662  26.684  1.00  0.00    -0.206 F 
ATOM     71  C   UNL A   1      36.778  29.961  27.649  1.00  0.00     0.040 A 
ATOM     72  C   UNL A   1      36.442  29.466  29.981  1.00  0.00     0.040 A 
ATOM     73  F   UNL A   1      38.237  28.700  31.288  1.00  0.00    -0.206 F 
ATOM     74  C   UNL A   1      35.936  29.901  28.757  1.00  0.00     0.006 A 
ENDBRANCH  46  67
BRANCH  58  75
ATOM     75  C   UNL A   1      44.328  32.477  31.250  1.00  0.00     0.057 A 
ATOM     76  C   UNL A   1      44.608  33.544  30.389  1.00  0.00     0.134 A 
ATOM     77  C   UNL A   1      44.207  32.757  32.617  1.00  0.00     0.134 A 
ATOM     78  F   UNL A   1      44.749  33.335  29.071  1.00  0.00    -0.206 F 
ATOM     79  C   UNL A   1      44.774  34.843  30.872  1.00  0.00     0.040 A 
ATOM     80  C   UNL A   1      44.350  34.054  33.110  1.00  0.00     0.040 A 
ATOM     81  F   UNL A   1      43.932  31.777  33.491  1.00  0.00    -0.206 F 
ATOM     82  C   UNL A   1      44.637  35.101  32.235  1.00  0.00     0.006 A 
ENDBRANCH  58  75
ENDBRANCH  32  33
ENDBRANCH  24  27
ENDBRANCH  22  23
ENDBRANCH   1  22
TORSDOF 12
ENDMDL
MODEL 2
REMARK VINA RESULT:     -11.7      0.402      6.219
REMARK SMILES C[C@@H]1CN(C(=O)N2CC(CC(=O)NCCCCNC(=O)c3ccc(-c4c5nc(c(-c6c(F)cccc6F)c6ccc([nH]6)c(-c6c(F)cccc6F)c6nc(c(-c7c(F)cccc7F)c7ccc4[nH]7)C=C6)C=C5)cc3)C2)C[C@H]1C
REMARK SMILES IDX 16 1 15 2 14 3 13 4 11 5 12 6 10 8 9 9 1 10 2 11 3 12 77 13
REMARK SMILES IDX 4 14 76 15 78 16 5 17 6 18 7 19 8 20 75 21 17 22 18 23 19 24
REMARK SMILES IDX 20 26 21 27 22 28 74 29 23 30 73 31 24 32 25 33 26 34 67 35
REMARK SMILES IDX 27 36 72 37 66 38 68 39 28 40 71 41 65 42 64 43 29 45 55 46
REMARK SMILES IDX 38 47 54 48 39 49 42 50 53 51 69 52 40 53 41 54 52 56 70 57
REMARK SMILES IDX 43 58 30 59 31 60 36 61 32 62 33 63 35 64 37 65 34 66 56 67
REMARK SMILES IDX 57 68 62 69 58 70 59 71 61 72 63 73 60 74 44 75 45 76 50 77
REMARK SMILES IDX 46 78 47 79 49 80 51 81 48 82
REMARK H PARENT 13 7 18 25 68 44 42 55
REMARK Flexibility Score: inf
ROOT
ATOM      1  C   UNL A   1      37.706  21.112  24.732  1.00  0.00     0.023 C 
ENDROOT
BRANCH   1   2
ATOM      2  C   UNL A   1      36.551  20.136  24.917  1.00  0.00     0.023 C 
BRANCH   2   3
ATOM      3  C   UNL A   1      35.225  20.759  25.355  1.00  0.00     0.116 C 
BRANCH   3   4
ATOM      4  N   UNL A   1      34.163  19.775  25.330  1.00  0.00    -0.356 N 
ATOM      5  C   UNL A   1      32.844  19.931  25.028  1.00  0.00     0.220 C 
ATOM      6  O   UNL A   1      32.088  18.978  25.219  1.00  0.00    -0.275 OA
ATOM      7  H   UNL A   1      34.435  18.859  25.566  1.00  0.00     0.163 HD
BRANCH   5   8
ATOM      8  C   UNL A   1      32.322  21.240  24.469  1.00  0.00     0.107 C 
BRANCH   8   9
ATOM      9  C   UNL A   1      31.857  22.234  25.529  1.00  0.00     0.037 C 
ATOM     10  C   UNL A   1      34.027  28.632  24.359  1.00  0.00     0.010 C 
ATOM     11  C   UNL A   1      33.567  27.991  25.662  1.00  0.00     0.010 C 
ATOM     12  C   UNL A   1      33.112  26.541  25.467  1.00  0.00     0.125 C 
ATOM     13  C   UNL A   1      32.334  28.677  26.274  1.00  0.00     0.010 C 
ATOM     14  N   UNL A   1      31.951  26.370  26.333  1.00  0.00    -0.324 N 
ATOM     15  C   UNL A   1      31.721  27.565  27.121  1.00  0.00     0.125 C 
ATOM     16  C   UNL A   1      32.673  29.919  27.080  1.00  0.00     0.010 C 
ATOM     17  C   UNL A   1      30.990  25.383  26.217  1.00  0.00     0.320 C 
ATOM     18  O   UNL A   1      29.856  25.511  26.676  1.00  0.00    -0.248 OA
ATOM     19  N   UNL A   1      31.369  24.247  25.557  1.00  0.00    -0.324 N 
ATOM     20  C   UNL A   1      30.599  23.068  25.206  1.00  0.00     0.127 C 
ATOM     21  C   UNL A   1      32.635  23.558  25.583  1.00  0.00     0.127 C 
ENDBRANCH   8   9
ENDBRANCH   5   8
ENDBRANCH   3   4
ENDBRANCH   2   3
ENDBRANCH   1   2
BRANCH   1  22
ATOM     22  C   UNL A   1      38.770  21.062  25.817  1.00  0.00     0.116 C 
BRANCH  22  23
ATOM     23  N   UNL A   1      39.681  19.931  25.699  1.00  0.00    -0.352 N 
ATOM     24  C   UNL A   1      41.018  19.878  26.022  1.00  0.00     0.251 C 
ATOM     25  H   UNL A   1      39.291  19.100  25.345  1.00  0.00     0.163 HD
ATOM     26  O   UNL A   1      41.676  18.867  25.796  1.00  0.00    -0.269 OA
BRANCH  24  27
ATOM     27  C   UNL A   1      41.659  21.076  26.599  1.00  0.00     0.039 A 
ATOM     28  C   UNL A   1      42.123  22.076  25.742  1.00  0.00     0.014 A 
ATOM     29  C   UNL A   1      41.721  21.242  27.985  1.00  0.00     0.014 A 
ATOM     30  C   UNL A   1      42.566  23.287  26.276  1.00  0.00     0.010 A 
ATOM     31  C   UNL A   1      42.082  22.476  28.509  1.00  0.00     0.010 A 
ATOM     32  C   UNL A   1      42.502  23.512  27.660  1.00  0.00    -0.014 A 
BRANCH  32  33
ATOM     33  C   UNL A   1      42.872  24.819  28.256  1.00  0.00     0.031 A 
ATOM     34  C   UNL A   1      41.811  25.860  28.479  1.00  0.00     0.074 A 
ATOM     35  C   UNL A   1      44.165  25.105  28.500  1.00  0.00     0.049 A 
ATOM     36  N   UNL A   1      41.941  27.106  28.854  1.00  0.00    -0.248 NA
ATOM     37  C   UNL A   1      40.423  25.454  28.204  1.00  0.00     0.031 C 
ATOM     38  C   UNL A   1      45.294  24.201  28.273  1.00  0.00     0.029 A 
ATOM     39  N   UNL A   1      44.749  26.251  28.978  1.00  0.00    -0.354 N 
ATOM     40  C   UNL A   1      40.660  27.640  28.828  1.00  0.00     0.074 A 
ATOM     41  C   UNL A   1      39.773  26.598  28.357  1.00  0.00     0.031 C 
ATOM     42  C   UNL A   1      46.432  24.819  28.630  1.00  0.00     0.029 A 
ATOM     43  C   UNL A   1      46.118  26.172  29.077  1.00  0.00     0.049 A 
ATOM     44  H   UNL A   1      44.237  27.053  29.227  1.00  0.00     0.167 HD
ATOM     45  C   UNL A   1      40.254  28.881  29.184  1.00  0.00     0.037 A 
ATOM     46  C   UNL A   1      47.016  27.091  29.477  1.00  0.00     0.037 A 
ATOM     47  C   UNL A   1      41.129  29.899  29.701  1.00  0.00     0.049 A 
ATOM     48  C   UNL A   1      46.537  28.451  29.904  1.00  0.00     0.074 A 
ATOM     49  C   UNL A   1      40.805  31.162  30.162  1.00  0.00     0.029 A 
ATOM     50  N   UNL A   1      42.502  29.762  29.833  1.00  0.00    -0.354 N 
ATOM     51  N   UNL A   1      45.315  28.925  29.928  1.00  0.00    -0.248 NA
ATOM     52  C   UNL A   1      47.560  29.401  30.361  1.00  0.00     0.031 C 
ATOM     53  C   UNL A   1      41.986  31.801  30.551  1.00  0.00     0.029 A 
ATOM     54  C   UNL A   1      43.042  30.923  30.361  1.00  0.00     0.049 A 
ATOM     55  H   UNL A   1      43.017  28.961  29.589  1.00  0.00     0.167 HD
ATOM     56  C   UNL A   1      45.419  30.216  30.427  1.00  0.00     0.074 A 
ATOM     57  C   UNL A   1      46.822  30.449  30.700  1.00  0.00     0.031 C 
ATOM     58  C   UNL A   1      44.439  31.128  30.639  1.00  0.00     0.037 A 
BRANCH  45  59
ATOM     59  C   UNL A   1      38.796  29.196  29.037  1.00  0.00     0.057 A 
ATOM     60  C   UNL A   1      38.243  29.562  27.803  1.00  0.00     0.134 A 
ATOM     61  C   UNL A   1      37.933  29.117  30.135  1.00  0.00     0.134 A 
ATOM     62  F   UNL A   1      39.021  29.672  26.715  1.00  0.00    -0.206 F 
ATOM     63  C   UNL A   1      36.887  29.867  27.673  1.00  0.00     0.040 A 
ATOM     64  C   UNL A   1      36.570  29.395  30.013  1.00  0.00     0.040 A 
ATOM     65  F   UNL A   1      38.398  28.770  31.345  1.00  0.00    -0.206 F 
ATOM     66  C   UNL A   1      36.045  29.778  28.780  1.00  0.00     0.006 A 
ENDBRANCH  45  59
BRANCH  46  67
ATOM     67  C   UNL A   1      48.458  26.748  29.523  1.00  0.00     0.057 A 
ATOM     68  C   UNL A   1      49.304  27.062  28.454  1.00  0.00     0.134 A 
ATOM     69  C   UNL A   1      49.024  26.101  30.628  1.00  0.00     0.134 A 
ATOM     70  F   UNL A   1      48.814  27.666  27.361  1.00  0.00    -0.206 F 
ATOM     71  C   UNL A   1      50.660  26.733  28.473  1.00  0.00     0.040 A 
ATOM     72  C   UNL A   1      50.383  25.784  30.669  1.00  0.00     0.040 A 
ATOM     73  F   UNL A   1      48.266  25.781  31.686  1.00  0.00    -0.206 F 
ATOM     74  C   UNL A   1      51.204  26.095  29.586  1.00  0.00     0.006 A 
ENDBRANCH  46  67
BRANCH  58  75
ATOM     75  C   UNL A   1      44.845  32.445  31.228  1.00  0.00     0.057 A 
ATOM     76  C   UNL A   1      45.177  33.539  30.421  1.00  0.00     0.134 A 
ATOM     77  C   UNL A   1      44.852  32.631  32.615  1.00  0.00     0.134 A 
ATOM     78  F   UNL A   1      45.201  33.417  29.085  1.00  0.00    -0.206 F 
ATOM     79  C   UNL A   1      45.516  34.774  30.976  1.00  0.00     0.040 A 
ATOM     80  C   UNL A   1      45.169  33.866  33.182  1.00  0.00     0.040 A 
ATOM     81  F   UNL A   1      44.536  31.622  33.439  1.00  0.00    -0.206 F 
ATOM     82  C   UNL A   1      45.505  34.941  32.360  1.00  0.00     0.006 A 
ENDBRANCH  58  75
ENDBRANCH  32  33
ENDBRANCH  24  27
ENDBRANCH  22  23
ENDBRANCH   1  22
TORSDOF 12
ENDMDL
MODEL 3
REMARK VINA RESULT:     -11.6      1.278      1.950
REMARK SMILES C[C@@H]1CN(C(=O)N2CC(CC(=O)NCCCCNC(=O)c3ccc(-c4c5nc(c(-c6c(F)cccc6F)c6ccc([nH]6)c(-c6c(F)cccc6F)c6nc(c(-c7c(F)cccc7F)c7ccc4[nH]7)C=C6)C=C5)cc3)C2)C[C@H]1C
REMARK SMILES IDX 16 1 15 2 14 3 13 4 11 5 12 6 10 8 9 9 1 10 2 11 3 12 77 13
REMARK SMILES IDX 4 14 76 15 78 16 5 17 6 18 7 19 8 20 75 21 17 22 18 23 19 24
REMARK SMILES IDX 20 26 21 27 22 28 74 29 23 30 73 31 24 32 25 33 26 34 67 35
REMARK SMILES IDX 27 36 72 37 66 38 68 39 28 40 71 41 65 42 64 43 29 45 55 46
REMARK SMILES IDX 38 47 54 48 39 49 42 50 53 51 69 52 40 53 41 54 52 56 70 57
REMARK SMILES IDX 43 58 30 59 31 60 36 61 32 62 33 63 35 64 37 65 34 66 56 67
REMARK SMILES IDX 57 68 62 69 58 70 59 71 61 72 63 73 60 74 44 75 45 76 50 77
REMARK SMILES IDX 46 78 47 79 49 80 51 81 48 82
REMARK H PARENT 13 7 18 25 68 44 42 55
REMARK Flexibility Score: inf
ROOT
ATOM      1  C   UNL A   1      38.016  19.981  24.841  1.00  0.00     0.023 C 
ENDROOT
BRANCH   1   2
ATOM      2  C   UNL A   1      37.069  21.158  24.645  1.00  0.00     0.023 C 
BRANCH   2   3
ATOM      3  C   UNL A   1      35.884  21.218  25.611  1.00  0.00     0.116 C 
BRANCH   3   4
ATOM      4  N   UNL A   1      34.970  20.122  25.369  1.00  0.00    -0.356 N 
ATOM      5  C   UNL A   1      33.694  20.145  24.891  1.00  0.00     0.220 C 
ATOM      6  O   UNL A   1      33.048  19.098  24.909  1.00  0.00    -0.275 OA
ATOM      7  H   UNL A   1      35.322  19.227  25.581  1.00  0.00     0.163 HD
BRANCH   5   8
ATOM      8  C   UNL A   1      33.089  21.426  24.350  1.00  0.00     0.107 C 
BRANCH   8   9
ATOM      9  C   UNL A   1      32.523  22.354  25.421  1.00  0.00     0.037 C 
ATOM     10  C   UNL A   1      33.323  28.997  23.926  1.00  0.00     0.010 C 
ATOM     11  C   UNL A   1      33.096  28.332  25.277  1.00  0.00     0.010 C 
ATOM     12  C   UNL A   1      32.915  26.814  25.154  1.00  0.00     0.125 C 
ATOM     13  C   UNL A   1      31.804  28.793  25.971  1.00  0.00     0.010 C 
ATOM     14  N   UNL A   1      31.878  26.460  26.115  1.00  0.00    -0.324 N 
ATOM     15  C   UNL A   1      31.482  27.619  26.891  1.00  0.00     0.125 C 
ATOM     16  C   UNL A   1      31.957  30.108  26.717  1.00  0.00     0.010 C 
ATOM     17  C   UNL A   1      31.120  25.305  26.103  1.00  0.00     0.320 C 
ATOM     18  O   UNL A   1      30.020  25.232  26.649  1.00  0.00    -0.248 OA
ATOM     19  N   UNL A   1      31.659  24.237  25.440  1.00  0.00    -0.324 N 
ATOM     20  C   UNL A   1      31.107  22.920  25.181  1.00  0.00     0.127 C 
ATOM     21  C   UNL A   1      33.032  23.802  25.379  1.00  0.00     0.127 C 
ENDBRANCH   8   9
ENDBRANCH   5   8
ENDBRANCH   3   4
ENDBRANCH   2   3
ENDBRANCH   1   2
BRANCH   1  22
ATOM     22  C   UNL A   1      39.191  20.249  25.767  1.00  0.00     0.116 C 
BRANCH  22  23
ATOM     23  N   UNL A   1      40.146  19.151  25.843  1.00  0.00    -0.352 N 
ATOM     24  C   UNL A   1      41.489  19.210  26.139  1.00  0.00     0.251 C 
ATOM     25  H   UNL A   1      39.784  18.255  25.663  1.00  0.00     0.163 HD
ATOM     26  O   UNL A   1      42.184  18.200  26.092  1.00  0.00    -0.269 OA
BRANCH  24  27
ATOM     27  C   UNL A   1      42.090  20.519  26.464  1.00  0.00     0.039 A 
ATOM     28  C   UNL A   1      42.500  21.354  25.423  1.00  0.00     0.014 A 
ATOM     29  C   UNL A   1      42.165  20.948  27.791  1.00  0.00     0.014 A 
ATOM     30  C   UNL A   1      42.902  22.660  25.708  1.00  0.00     0.010 A 
ATOM     31  C   UNL A   1      42.483  22.272  28.064  1.00  0.00     0.010 A 
ATOM     32  C   UNL A   1      42.850  23.141  27.025  1.00  0.00    -0.014 A 
BRANCH  32  33
ATOM     33  C   UNL A   1      43.175  24.551  27.354  1.00  0.00     0.031 A 
ATOM     34  C   UNL A   1      44.609  25.000  27.365  1.00  0.00     0.074 A 
ATOM     35  C   UNL A   1      42.198  25.393  27.741  1.00  0.00     0.049 A 
ATOM     36  N   UNL A   1      45.116  26.140  27.757  1.00  0.00    -0.248 NA
ATOM     37  C   UNL A   1      45.608  24.020  26.909  1.00  0.00     0.031 C 
ATOM     38  C   UNL A   1      40.774  25.062  27.828  1.00  0.00     0.029 A 
ATOM     39  N   UNL A   1      42.259  26.701  28.151  1.00  0.00    -0.354 N 
ATOM     40  C   UNL A   1      46.491  26.002  27.627  1.00  0.00     0.074 A 
ATOM     41  C   UNL A   1      46.743  24.654  27.164  1.00  0.00     0.031 C 
ATOM     42  C   UNL A   1      40.095  26.144  28.245  1.00  0.00     0.029 A 
ATOM     43  C   UNL A   1      41.037  27.232  28.488  1.00  0.00     0.049 A 
ATOM     44  H   UNL A   1      43.099  27.212  28.199  1.00  0.00     0.167 HD
ATOM     45  C   UNL A   1      47.458  26.922  27.853  1.00  0.00     0.037 A 
ATOM     46  C   UNL A   1      40.715  28.455  28.947  1.00  0.00     0.037 A 
ATOM     47  C   UNL A   1      47.203  28.276  28.263  1.00  0.00     0.049 A 
ATOM     48  C   UNL A   1      41.802  29.472  29.155  1.00  0.00     0.074 A 
ATOM     49  C   UNL A   1      48.108  29.307  28.446  1.00  0.00     0.029 A 
ATOM     50  N   UNL A   1      45.946  28.789  28.546  1.00  0.00    -0.354 N 
ATOM     51  N   UNL A   1      43.095  29.346  28.974  1.00  0.00    -0.248 NA
ATOM     52  C   UNL A   1      41.388  30.800  29.626  1.00  0.00     0.031 C 
ATOM     53  C   UNL A   1      47.400  30.439  28.863  1.00  0.00     0.029 A 
ATOM     54  C   UNL A   1      46.052  30.121  28.910  1.00  0.00     0.049 A 
ATOM     55  H   UNL A   1      45.104  28.283  28.495  1.00  0.00     0.167 HD
ATOM     56  C   UNL A   1      43.644  30.583  29.284  1.00  0.00     0.074 A 
ATOM     57  C   UNL A   1      42.544  31.449  29.655  1.00  0.00     0.031 C 
ATOM     58  C   UNL A   1      44.943  30.968  29.261  1.00  0.00     0.037 A 
BRANCH  45  59
ATOM     59  C   UNL A   1      48.878  26.490  27.647  1.00  0.00     0.057 A 
ATOM     60  C   UNL A   1      49.650  25.971  28.695  1.00  0.00     0.134 A 
ATOM     61  C   UNL A   1      49.477  26.579  26.385  1.00  0.00     0.134 A 
ATOM     62  F   UNL A   1      49.140  25.876  29.932  1.00  0.00    -0.206 F 
ATOM     63  C   UNL A   1      50.977  25.583  28.501  1.00  0.00     0.040 A 
ATOM     64  C   UNL A   1      50.794  26.170  26.173  1.00  0.00     0.040 A 
ATOM     65  F   UNL A   1      48.792  27.065  25.338  1.00  0.00    -0.206 F 
ATOM     66  C   UNL A   1      51.551  25.677  27.235  1.00  0.00     0.006 A 
ENDBRANCH  45  59
BRANCH  46  67
ATOM     67  C   UNL A   1      39.297  28.799  29.213  1.00  0.00     0.057 A 
ATOM     68  C   UNL A   1      38.489  29.337  28.206  1.00  0.00     0.134 A 
ATOM     69  C   UNL A   1      38.718  28.602  30.472  1.00  0.00     0.134 A 
ATOM     70  F   UNL A   1      38.995  29.565  26.984  1.00  0.00    -0.206 F 
ATOM     71  C   UNL A   1      37.157  29.682  28.442  1.00  0.00     0.040 A 
ATOM     72  C   UNL A   1      37.381  28.924  30.717  1.00  0.00     0.040 A 
ATOM     73  F   UNL A   1      39.439  28.084  31.476  1.00  0.00    -0.206 F 
ATOM     74  C   UNL A   1      36.599  29.471  29.701  1.00  0.00     0.006 A 
ENDBRANCH  46  67
BRANCH  58  75
ATOM     75  C   UNL A   1      45.241  32.393  29.614  1.00  0.00     0.057 A 
ATOM     76  C   UNL A   1      45.569  32.774  30.920  1.00  0.00     0.134 A 
ATOM     77  C   UNL A   1      45.251  33.383  28.624  1.00  0.00     0.134 A 
ATOM     78  F   UNL A   1      45.564  31.872  31.914  1.00  0.00    -0.206 F 
ATOM     79  C   UNL A   1      45.884  34.097  31.233  1.00  0.00     0.040 A 
ATOM     80  C   UNL A   1      45.584  34.705  28.920  1.00  0.00     0.040 A 
ATOM     81  F   UNL A   1      44.952  33.078  27.353  1.00  0.00    -0.206 F 
ATOM     82  C   UNL A   1      45.900  35.065  30.229  1.00  0.00     0.006 A 
ENDBRANCH  58  75
ENDBRANCH  32  33
ENDBRANCH  24  27
ENDBRANCH  22  23
ENDBRANCH   1  22
TORSDOF 12
ENDMDL
