MODEL 1
REMARK VINA RESULT:     -11.3      0.000      0.000
REMARK SMILES C/C=C/C[N@H+]1CCC[C@H](C(=O)NCCCCNC(=O)c2ccc(-c3c4nc(c(-c5c(F)cccc5F)c5ccc([nH]5)c(-c5c(F)cccc5F)c5nc(c(-c6c(F)cccc6F)c6ccc3[nH]6)C=C5)C=C4)cc2)C1
REMARK SMILES IDX 14 1 13 2 12 3 10 4 11 5 9 7 5 8 6 9 74 10 7 12 8 13 4 14
REMARK SMILES IDX 3 15 1 16 2 17 15 18 16 19 17 20 18 21 19 23 20 24 21 25
REMARK SMILES IDX 73 26 22 27 72 28 23 29 24 30 25 31 66 32 26 33 71 34 65 35
REMARK SMILES IDX 67 36 27 37 70 38 64 39 63 40 28 42 54 43 37 44 53 45 38 46
REMARK SMILES IDX 41 47 52 48 68 49 39 50 40 51 51 53 69 54 42 55 29 56 30 57
REMARK SMILES IDX 35 58 31 59 32 60 34 61 36 62 33 63 55 64 56 65 61 66 57 67
REMARK SMILES IDX 58 68 60 69 62 70 59 71 43 72 44 73 49 74 45 75 46 76 48 77
REMARK SMILES IDX 50 78 47 79
REMARK H PARENT 12 6 5 11 17 22 67 41 41 52
REMARK Flexibility Score: inf
ROOT
ATOM      1  C   UNL A   1      32.104  30.472  26.625  1.00  0.00     0.023 C 
ENDROOT
BRANCH   1   2
ATOM      2  C   UNL A   1      31.685  29.914  25.270  1.00  0.00     0.116 C 
BRANCH   2   3
ATOM      3  N   UNL A   1      32.806  29.702  24.384  1.00  0.00    -0.356 N 
ATOM      4  C   UNL A   1      32.979  28.844  23.348  1.00  0.00     0.228 C 
ATOM      5  O   UNL A   1      34.042  28.954  22.724  1.00  0.00    -0.275 OA
ATOM      6  H   UNL A   1      33.581  30.281  24.564  1.00  0.00     0.163 HD
BRANCH   4   7
ATOM      7  C   UNL A   1      31.984  27.753  22.943  1.00  0.00     0.133 C 
ATOM      8  N   UNL A   1      29.527  28.257  23.343  1.00  0.00    -0.331 N 
ATOM      9  C   UNL A   1      29.379  26.993  24.059  1.00  0.00     0.262 C 
ATOM     10  C   UNL A   1      30.640  28.238  22.382  1.00  0.00     0.276 C 
ATOM     11  H   UNL A   1      29.752  28.900  24.103  1.00  0.00     0.348 HD
ATOM     12  C   UNL A   1      30.652  26.649  24.829  1.00  0.00     0.062 C 
ATOM     13  C   UNL A   1      31.883  26.598  23.940  1.00  0.00     0.025 C 
BRANCH   8  14
ATOM     14  C   UNL A   1      28.319  28.836  22.745  1.00  0.00     0.290 C 
BRANCH  14  15
ATOM     15  C   UNL A   1      28.363  30.319  22.518  1.00  0.00     0.029 C 
ATOM     16  C   UNL A   1      28.774  32.702  23.120  1.00  0.00     0.035 C 
ATOM     17  C   UNL A   1      28.809  31.233  23.392  1.00  0.00    -0.029 C 
ENDBRANCH  14  15
ENDBRANCH   8  14
ENDBRANCH   4   7
ENDBRANCH   2   3
ENDBRANCH   1   2
BRANCH   1  18
ATOM     18  C   UNL A   1      31.691  31.919  26.864  1.00  0.00     0.023 C 
BRANCH  18  19
ATOM     19  C   UNL A   1      32.808  32.845  27.333  1.00  0.00     0.116 C 
BRANCH  19  20
ATOM     20  N   UNL A   1      32.381  34.204  27.636  1.00  0.00    -0.352 N 
ATOM     21  C   UNL A   1      32.929  35.080  28.552  1.00  0.00     0.251 C 
ATOM     22  H   UNL A   1      31.608  34.539  27.126  1.00  0.00     0.163 HD
ATOM     23  O   UNL A   1      32.441  36.177  28.753  1.00  0.00    -0.269 OA
BRANCH  21  24
ATOM     24  C   UNL A   1      34.104  34.626  29.325  1.00  0.00     0.039 A 
ATOM     25  C   UNL A   1      33.912  34.132  30.617  1.00  0.00     0.014 A 
ATOM     26  C   UNL A   1      35.364  34.586  28.726  1.00  0.00     0.014 A 
ATOM     27  C   UNL A   1      34.972  33.509  31.275  1.00  0.00     0.010 A 
ATOM     28  C   UNL A   1      36.394  33.894  29.348  1.00  0.00     0.010 A 
ATOM     29  C   UNL A   1      36.207  33.340  30.625  1.00  0.00    -0.014 A 
BRANCH  29  30
ATOM     30  C   UNL A   1      37.314  32.576  31.252  1.00  0.00     0.031 A 
ATOM     31  C   UNL A   1      37.866  33.011  32.580  1.00  0.00     0.074 A 
ATOM     32  C   UNL A   1      37.883  31.552  30.586  1.00  0.00     0.049 A 
ATOM     33  N   UNL A   1      38.889  32.539  33.245  1.00  0.00    -0.248 NA
ATOM     34  C   UNL A   1      37.204  34.155  33.228  1.00  0.00     0.031 C 
ATOM     35  C   UNL A   1      37.488  31.079  29.256  1.00  0.00     0.029 A 
ATOM     36  N   UNL A   1      38.930  30.734  30.930  1.00  0.00    -0.354 N 
ATOM     37  C   UNL A   1      39.010  33.345  34.369  1.00  0.00     0.074 A 
ATOM     38  C   UNL A   1      37.989  34.364  34.272  1.00  0.00     0.031 C 
ATOM     39  C   UNL A   1      38.268  30.041  28.910  1.00  0.00     0.029 A 
ATOM     40  C   UNL A   1      39.235  29.795  29.974  1.00  0.00     0.049 A 
ATOM     41  H   UNL A   1      39.417  30.813  31.782  1.00  0.00     0.167 HD
ATOM     42  C   UNL A   1      39.877  33.230  35.402  1.00  0.00     0.037 A 
ATOM     43  C   UNL A   1      40.189  28.846  29.959  1.00  0.00     0.037 A 
ATOM     44  C   UNL A   1      40.858  32.185  35.521  1.00  0.00     0.049 A 
ATOM     45  C   UNL A   1      41.109  28.708  31.140  1.00  0.00     0.074 A 
ATOM     46  C   UNL A   1      41.723  31.930  36.570  1.00  0.00     0.029 A 
ATOM     47  N   UNL A   1      41.101  31.219  34.557  1.00  0.00    -0.354 N 
ATOM     48  N   UNL A   1      41.159  29.426  32.235  1.00  0.00    -0.248 NA
ATOM     49  C   UNL A   1      42.098  27.621  31.087  1.00  0.00     0.031 C 
ATOM     50  C   UNL A   1      42.511  30.826  36.228  1.00  0.00     0.029 A 
ATOM     51  C   UNL A   1      42.111  30.373  34.981  1.00  0.00     0.049 A 
ATOM     52  H   UNL A   1      40.624  31.146  33.699  1.00  0.00     0.167 HD
ATOM     53  C   UNL A   1      42.166  28.868  33.010  1.00  0.00     0.074 A 
ATOM     54  C   UNL A   1      42.692  27.741  32.266  1.00  0.00     0.031 C 
ATOM     55  C   UNL A   1      42.615  29.253  34.229  1.00  0.00     0.037 A 
BRANCH  42  56
ATOM     56  C   UNL A   1      39.789  34.258  36.490  1.00  0.00     0.057 A 
ATOM     57  C   UNL A   1      40.469  35.481  36.406  1.00  0.00     0.134 A 
ATOM     58  C   UNL A   1      39.004  34.031  37.628  1.00  0.00     0.134 A 
ATOM     59  F   UNL A   1      41.248  35.754  35.350  1.00  0.00    -0.206 F 
ATOM     60  C   UNL A   1      40.396  36.428  37.429  1.00  0.00     0.040 A 
ATOM     61  C   UNL A   1      38.903  34.981  38.645  1.00  0.00     0.040 A 
ATOM     62  F   UNL A   1      38.325  32.883  37.769  1.00  0.00    -0.206 F 
ATOM     63  C   UNL A   1      39.607  36.180  38.551  1.00  0.00     0.006 A 
ENDBRANCH  42  56
BRANCH  43  64
ATOM     64  C   UNL A   1      40.302  27.926  28.800  1.00  0.00     0.057 A 
ATOM     65  C   UNL A   1      39.639  26.693  28.793  1.00  0.00     0.134 A 
ATOM     66  C   UNL A   1      41.071  28.253  27.676  1.00  0.00     0.134 A 
ATOM     67  F   UNL A   1      38.902  26.318  29.849  1.00  0.00    -0.206 F 
ATOM     68  C   UNL A   1      39.750  25.809  27.719  1.00  0.00     0.040 A 
ATOM     69  C   UNL A   1      41.173  27.388  26.586  1.00  0.00     0.040 A 
ATOM     70  F   UNL A   1      41.723  29.424  27.620  1.00  0.00    -0.206 F 
ATOM     71  C   UNL A   1      40.516  26.159  26.608  1.00  0.00     0.006 A 
ENDBRANCH  43  64
BRANCH  55  72
ATOM     72  C   UNL A   1      43.710  28.435  34.846  1.00  0.00     0.057 A 
ATOM     73  C   UNL A   1      43.437  27.302  35.621  1.00  0.00     0.134 A 
ATOM     74  C   UNL A   1      45.054  28.763  34.624  1.00  0.00     0.134 A 
ATOM     75  F   UNL A   1      42.169  26.946  35.881  1.00  0.00    -0.206 F 
ATOM     76  C   UNL A   1      44.462  26.531  36.168  1.00  0.00     0.040 A 
ATOM     77  C   UNL A   1      46.088  27.987  35.147  1.00  0.00     0.040 A 
ATOM     78  F   UNL A   1      45.382  29.833  33.883  1.00  0.00    -0.206 F 
ATOM     79  C   UNL A   1      45.793  26.869  35.926  1.00  0.00     0.006 A 
ENDBRANCH  55  72
ENDBRANCH  29  30
ENDBRANCH  21  24
ENDBRANCH  19  20
ENDBRANCH  18  19
ENDBRANCH   1  18
TORSDOF 13
ENDMDL
MODEL 2
REMARK VINA RESULT:     -11.2      6.442     11.370
REMARK SMILES C/C=C/C[N@H+]1CCC[C@H](C(=O)NCCCCNC(=O)c2ccc(-c3c4nc(c(-c5c(F)cccc5F)c5ccc([nH]5)c(-c5c(F)cccc5F)c5nc(c(-c6c(F)cccc6F)c6ccc3[nH]6)C=C5)C=C4)cc2)C1
REMARK SMILES IDX 14 1 13 2 12 3 10 4 11 5 9 7 5 8 6 9 74 10 7 12 8 13 4 14
REMARK SMILES IDX 3 15 1 16 2 17 15 18 16 19 17 20 18 21 19 23 20 24 21 25
REMARK SMILES IDX 73 26 22 27 72 28 23 29 24 30 25 31 66 32 26 33 71 34 65 35
REMARK SMILES IDX 67 36 27 37 70 38 64 39 63 40 28 42 54 43 37 44 53 45 38 46
REMARK SMILES IDX 41 47 52 48 68 49 39 50 40 51 51 53 69 54 42 55 29 56 30 57
REMARK SMILES IDX 35 58 31 59 32 60 34 61 36 62 33 63 55 64 56 65 61 66 57 67
REMARK SMILES IDX 58 68 60 69 62 70 59 71 43 72 44 73 49 74 45 75 46 76 48 77
REMARK SMILES IDX 50 78 47 79
REMARK H PARENT 12 6 5 11 17 22 67 41 41 52
REMARK Flexibility Score: inf
ROOT
ATOM      1  C   UNL A   1      37.311  21.213  24.845  1.00  0.00     0.023 C 
ENDROOT
BRANCH   1   2
ATOM      2  C   UNL A   1      35.819  20.965  25.034  1.00  0.00     0.116 C 
BRANCH   2   3
ATOM      3  N   UNL A   1      35.345  21.380  26.334  1.00  0.00    -0.356 N 
ATOM      4  C   UNL A   1      34.092  21.611  26.799  1.00  0.00     0.228 C 
ATOM      5  O   UNL A   1      34.002  21.888  28.002  1.00  0.00    -0.275 OA
ATOM      6  H   UNL A   1      36.056  21.521  27.000  1.00  0.00     0.163 HD
BRANCH   4   7
ATOM      7  C   UNL A   1      32.826  21.590  25.939  1.00  0.00     0.133 C 
ATOM      8  N   UNL A   1      32.854  20.055  23.916  1.00  0.00    -0.331 N 
ATOM      9  C   UNL A   1      32.440  21.164  23.061  1.00  0.00     0.262 C 
ATOM     10  C   UNL A   1      32.451  20.238  25.319  1.00  0.00     0.276 C 
ATOM     11  H   UNL A   1      33.871  20.111  23.851  1.00  0.00     0.348 HD
ATOM     12  C   UNL A   1      33.039  22.482  23.549  1.00  0.00     0.062 C 
ATOM     13  C   UNL A   1      32.690  22.787  24.996  1.00  0.00     0.025 C 
BRANCH   8  14
ATOM     14  C   UNL A   1      32.552  18.697  23.450  1.00  0.00     0.290 C 
BRANCH  14  15
ATOM     15  C   UNL A   1      33.145  17.589  24.270  1.00  0.00     0.029 C 
ATOM     16  C   UNL A   1      34.952  16.082  25.090  1.00  0.00     0.035 C 
ATOM     17  C   UNL A   1      34.438  17.233  24.288  1.00  0.00    -0.029 C 
ENDBRANCH  14  15
ENDBRANCH   8  14
ENDBRANCH   4   7
ENDBRANCH   2   3
ENDBRANCH   1   2
BRANCH   1  18
ATOM     18  C   UNL A   1      38.182  19.975  25.023  1.00  0.00     0.023 C 
BRANCH  18  19
ATOM     19  C   UNL A   1      39.472  20.194  25.806  1.00  0.00     0.116 C 
BRANCH  19  20
ATOM     20  N   UNL A   1      40.362  19.042  25.841  1.00  0.00    -0.352 N 
ATOM     21  C   UNL A   1      41.713  19.023  26.126  1.00  0.00     0.251 C 
ATOM     22  H   UNL A   1      39.951  18.171  25.637  1.00  0.00     0.163 HD
ATOM     23  O   UNL A   1      42.361  17.994  26.067  1.00  0.00    -0.269 OA
BRANCH  21  24
ATOM     24  C   UNL A   1      42.368  20.306  26.459  1.00  0.00     0.039 A 
ATOM     25  C   UNL A   1      42.914  21.072  25.428  1.00  0.00     0.014 A 
ATOM     26  C   UNL A   1      42.331  20.792  27.767  1.00  0.00     0.014 A 
ATOM     27  C   UNL A   1      43.344  22.372  25.695  1.00  0.00     0.010 A 
ATOM     28  C   UNL A   1      42.682  22.112  28.015  1.00  0.00     0.010 A 
ATOM     29  C   UNL A   1      43.183  22.920  26.980  1.00  0.00    -0.014 A 
BRANCH  29  30
ATOM     30  C   UNL A   1      43.518  24.336  27.265  1.00  0.00     0.031 A 
ATOM     31  C   UNL A   1      44.944  24.803  27.175  1.00  0.00     0.074 A 
ATOM     32  C   UNL A   1      42.558  25.179  27.695  1.00  0.00     0.049 A 
ATOM     33  N   UNL A   1      45.454  25.969  27.476  1.00  0.00    -0.248 NA
ATOM     34  C   UNL A   1      45.935  23.812  26.723  1.00  0.00     0.031 C 
ATOM     35  C   UNL A   1      41.149  24.830  27.896  1.00  0.00     0.029 A 
ATOM     36  N   UNL A   1      42.626  26.501  28.058  1.00  0.00    -0.354 N 
ATOM     37  C   UNL A   1      46.822  25.842  27.279  1.00  0.00     0.074 A 
ATOM     38  C   UNL A   1      47.070  24.474  26.882  1.00  0.00     0.031 C 
ATOM     39  C   UNL A   1      40.485  25.916  28.324  1.00  0.00     0.029 A 
ATOM     40  C   UNL A   1      41.421  27.027  28.457  1.00  0.00     0.049 A 
ATOM     41  H   UNL A   1      43.461  27.023  28.034  1.00  0.00     0.167 HD
ATOM     42  C   UNL A   1      47.784  26.788  27.395  1.00  0.00     0.037 A 
ATOM     43  C   UNL A   1      41.110  28.265  28.884  1.00  0.00     0.037 A 
ATOM     44  C   UNL A   1      47.530  28.160  27.742  1.00  0.00     0.049 A 
ATOM     45  C   UNL A   1      42.187  29.310  28.959  1.00  0.00     0.074 A 
ATOM     46  C   UNL A   1      48.424  29.214  27.799  1.00  0.00     0.029 A 
ATOM     47  N   UNL A   1      46.288  28.668  28.087  1.00  0.00    -0.354 N 
ATOM     48  N   UNL A   1      43.465  29.199  28.691  1.00  0.00    -0.248 NA
ATOM     49  C   UNL A   1      41.777  30.656  29.384  1.00  0.00     0.031 C 
ATOM     50  C   UNL A   1      47.727  30.357  28.208  1.00  0.00     0.029 A 
ATOM     51  C   UNL A   1      46.392  30.019  28.371  1.00  0.00     0.049 A 
ATOM     52  H   UNL A   1      45.454  28.145  28.124  1.00  0.00     0.167 HD
ATOM     53  C   UNL A   1      44.008  30.460  28.893  1.00  0.00     0.074 A 
ATOM     54  C   UNL A   1      42.918  31.326  29.292  1.00  0.00     0.031 C 
ATOM     55  C   UNL A   1      45.294  30.866  28.760  1.00  0.00     0.037 A 
BRANCH  42  56
ATOM     56  C   UNL A   1      49.199  26.365  27.130  1.00  0.00     0.057 A 
ATOM     57  C   UNL A   1      50.055  25.965  28.165  1.00  0.00     0.134 A 
ATOM     58  C   UNL A   1      49.706  26.343  25.826  1.00  0.00     0.134 A 
ATOM     59  F   UNL A   1      49.635  25.978  29.439  1.00  0.00    -0.206 F 
ATOM     60  C   UNL A   1      51.375  25.588  27.915  1.00  0.00     0.040 A 
ATOM     61  C   UNL A   1      51.016  25.943  25.560  1.00  0.00     0.040 A 
ATOM     62  F   UNL A   1      48.938  26.710  24.789  1.00  0.00    -0.206 F 
ATOM     63  C   UNL A   1      51.857  25.571  26.608  1.00  0.00     0.006 A 
ENDBRANCH  42  56
BRANCH  43  64
ATOM     64  C   UNL A   1      39.708  28.595  29.243  1.00  0.00     0.057 A 
ATOM     65  C   UNL A   1      39.230  28.385  30.542  1.00  0.00     0.134 A 
ATOM     66  C   UNL A   1      38.815  29.123  28.302  1.00  0.00     0.134 A 
ATOM     67  F   UNL A   1      40.034  27.865  31.480  1.00  0.00    -0.206 F 
ATOM     68  C   UNL A   1      37.909  28.672  30.890  1.00  0.00     0.040 A 
ATOM     69  C   UNL A   1      37.498  29.434  28.642  1.00  0.00     0.040 A 
ATOM     70  F   UNL A   1      39.216  29.353  27.044  1.00  0.00    -0.206 F 
ATOM     71  C   UNL A   1      37.040  29.203  29.939  1.00  0.00     0.006 A 
ENDBRANCH  43  64
BRANCH  55  72
ATOM     72  C   UNL A   1      45.587  32.312  29.022  1.00  0.00     0.057 A 
ATOM     73  C   UNL A   1      45.980  32.767  30.286  1.00  0.00     0.134 A 
ATOM     74  C   UNL A   1      45.518  33.251  27.985  1.00  0.00     0.134 A 
ATOM     75  F   UNL A   1      46.051  31.918  31.322  1.00  0.00    -0.206 F 
ATOM     76  C   UNL A   1      46.278  34.111  30.515  1.00  0.00     0.040 A 
ATOM     77  C   UNL A   1      45.835  34.593  28.196  1.00  0.00     0.040 A 
ATOM     78  F   UNL A   1      45.155  32.876  26.748  1.00  0.00    -0.206 F 
ATOM     79  C   UNL A   1      46.212  35.027  29.466  1.00  0.00     0.006 A 
ENDBRANCH  55  72
ENDBRANCH  29  30
ENDBRANCH  21  24
ENDBRANCH  19  20
ENDBRANCH  18  19
ENDBRANCH   1  18
TORSDOF 13
ENDMDL
MODEL 3
REMARK VINA RESULT:     -11.2      1.337      1.949
REMARK SMILES C/C=C/C[N@H+]1CCC[C@H](C(=O)NCCCCNC(=O)c2ccc(-c3c4nc(c(-c5c(F)cccc5F)c5ccc([nH]5)c(-c5c(F)cccc5F)c5nc(c(-c6c(F)cccc6F)c6ccc3[nH]6)C=C5)C=C4)cc2)C1
REMARK SMILES IDX 14 1 13 2 12 3 10 4 11 5 9 7 5 8 6 9 74 10 7 12 8 13 4 14
REMARK SMILES IDX 3 15 1 16 2 17 15 18 16 19 17 20 18 21 19 23 20 24 21 25
REMARK SMILES IDX 73 26 22 27 72 28 23 29 24 30 25 31 66 32 26 33 71 34 65 35
REMARK SMILES IDX 67 36 27 37 70 38 64 39 63 40 28 42 54 43 37 44 53 45 38 46
REMARK SMILES IDX 41 47 52 48 68 49 39 50 40 51 51 53 69 54 42 55 29 56 30 57
REMARK SMILES IDX 35 58 31 59 32 60 34 61 36 62 33 63 55 64 56 65 61 66 57 67
REMARK SMILES IDX 58 68 60 69 62 70 59 71 43 72 44 73 49 74 45 75 46 76 48 77
REMARK SMILES IDX 50 78 47 79
REMARK H PARENT 12 6 5 11 17 22 67 41 41 52
REMARK Flexibility Score: inf
ROOT
ATOM      1  C   UNL A   1      31.036  30.723  25.269  1.00  0.00     0.023 C 
ENDROOT
BRANCH   1   2
ATOM      2  C   UNL A   1      32.155  29.753  25.629  1.00  0.00     0.116 C 
BRANCH   2   3
ATOM      3  N   UNL A   1      33.155  29.647  24.591  1.00  0.00    -0.356 N 
ATOM      4  C   UNL A   1      33.315  28.745  23.591  1.00  0.00     0.228 C 
ATOM      5  O   UNL A   1      34.242  28.968  22.802  1.00  0.00    -0.275 OA
ATOM      6  H   UNL A   1      33.841  30.352  24.613  1.00  0.00     0.163 HD
BRANCH   4   7
ATOM      7  C   UNL A   1      32.467  27.483  23.410  1.00  0.00     0.133 C 
ATOM      8  N   UNL A   1      29.962  27.746  23.734  1.00  0.00    -0.331 N 
ATOM      9  C   UNL A   1      29.961  26.632  24.678  1.00  0.00     0.262 C 
ATOM     10  C   UNL A   1      31.081  27.684  22.782  1.00  0.00     0.276 C 
ATOM     11  H   UNL A   1      30.096  28.544  24.356  1.00  0.00     0.348 HD
ATOM     12  C   UNL A   1      31.257  26.600  25.485  1.00  0.00     0.062 C 
ATOM     13  C   UNL A   1      32.496  26.533  24.608  1.00  0.00     0.025 C 
BRANCH   8  14
ATOM     14  C   UNL A   1      28.699  28.050  23.051  1.00  0.00     0.290 C 
BRANCH  14  15
ATOM     15  C   UNL A   1      28.499  29.490  22.680  1.00  0.00     0.029 C 
ATOM     16  C   UNL A   1      27.706  31.831  22.995  1.00  0.00     0.035 C 
ATOM     17  C   UNL A   1      27.921  30.424  23.450  1.00  0.00    -0.029 C 
ENDBRANCH  14  15
ENDBRANCH   8  14
ENDBRANCH   4   7
ENDBRANCH   2   3
ENDBRANCH   1   2
BRANCH   1  18
ATOM     18  C   UNL A   1      31.007  31.992  26.113  1.00  0.00     0.023 C 
BRANCH  18  19
ATOM     19  C   UNL A   1      32.295  32.299  26.869  1.00  0.00     0.116 C 
BRANCH  19  20
ATOM     20  N   UNL A   1      32.377  33.654  27.397  1.00  0.00    -0.352 N 
ATOM     21  C   UNL A   1      33.380  34.201  28.173  1.00  0.00     0.251 C 
ATOM     22  H   UNL A   1      31.627  34.252  27.175  1.00  0.00     0.163 HD
ATOM     23  O   UNL A   1      33.304  35.338  28.601  1.00  0.00    -0.269 OA
BRANCH  21  24
ATOM     24  C   UNL A   1      34.536  33.345  28.513  1.00  0.00     0.039 A 
ATOM     25  C   UNL A   1      35.824  33.873  28.402  1.00  0.00     0.014 A 
ATOM     26  C   UNL A   1      34.331  32.072  29.048  1.00  0.00     0.014 A 
ATOM     27  C   UNL A   1      36.904  33.156  28.916  1.00  0.00     0.010 A 
ATOM     28  C   UNL A   1      35.395  31.397  29.632  1.00  0.00     0.010 A 
ATOM     29  C   UNL A   1      36.691  31.937  29.581  1.00  0.00    -0.014 A 
BRANCH  29  30
ATOM     30  C   UNL A   1      37.803  31.211  30.243  1.00  0.00     0.031 A 
ATOM     31  C   UNL A   1      38.142  31.507  31.677  1.00  0.00     0.074 A 
ATOM     32  C   UNL A   1      38.566  30.359  29.531  1.00  0.00     0.049 A 
ATOM     33  N   UNL A   1      39.131  31.055  32.403  1.00  0.00    -0.248 NA
ATOM     34  C   UNL A   1      37.275  32.470  32.375  1.00  0.00     0.031 C 
ATOM     35  C   UNL A   1      38.387  30.042  28.111  1.00  0.00     0.029 A 
ATOM     36  N   UNL A   1      39.658  29.614  29.900  1.00  0.00    -0.354 N 
ATOM     37  C   UNL A   1      39.022  31.699  33.628  1.00  0.00     0.074 A 
ATOM     38  C   UNL A   1      37.903  32.609  33.531  1.00  0.00     0.031 C 
ATOM     39  C   UNL A   1      39.322  29.152  27.739  1.00  0.00     0.029 A 
ATOM     40  C   UNL A   1      40.184  28.859  28.880  1.00  0.00     0.049 A 
ATOM     41  H   UNL A   1      40.030  29.621  30.812  1.00  0.00     0.167 HD
ATOM     42  C   UNL A   1      39.772  31.529  34.742  1.00  0.00     0.037 A 
ATOM     43  C   UNL A   1      41.242  28.027  28.867  1.00  0.00     0.037 A 
ATOM     44  C   UNL A   1      40.853  30.587  34.853  1.00  0.00     0.049 A 
ATOM     45  C   UNL A   1      42.029  27.819  30.130  1.00  0.00     0.074 A 
ATOM     46  C   UNL A   1      41.616  30.276  35.964  1.00  0.00     0.029 A 
ATOM     47  N   UNL A   1      41.321  29.800  33.812  1.00  0.00    -0.354 N 
ATOM     48  N   UNL A   1      41.865  28.374  31.305  1.00  0.00    -0.248 NA
ATOM     49  C   UNL A   1      43.142  26.861  30.067  1.00  0.00     0.031 C 
ATOM     50  C   UNL A   1      42.566  29.321  35.589  1.00  0.00     0.029 A 
ATOM     51  C   UNL A   1      42.371  29.012  34.251  1.00  0.00     0.049 A 
ATOM     52  H   UNL A   1      40.959  29.801  32.896  1.00  0.00     0.167 HD
ATOM     53  C   UNL A   1      42.836  27.819  32.127  1.00  0.00     0.074 A 
ATOM     54  C   UNL A   1      43.577  26.872  31.320  1.00  0.00     0.031 C 
ATOM     55  C   UNL A   1      43.092  28.070  33.434  1.00  0.00     0.037 A 
BRANCH  42  56
ATOM     56  C   UNL A   1      39.434  32.376  35.933  1.00  0.00     0.057 A 
ATOM     57  C   UNL A   1      40.024  33.630  36.137  1.00  0.00     0.134 A 
ATOM     58  C   UNL A   1      38.498  31.940  36.879  1.00  0.00     0.134 A 
ATOM     59  F   UNL A   1      40.939  34.100  35.277  1.00  0.00    -0.206 F 
ATOM     60  C   UNL A   1      39.719  34.407  37.256  1.00  0.00     0.040 A 
ATOM     61  C   UNL A   1      38.165  32.719  37.988  1.00  0.00     0.040 A 
ATOM     62  F   UNL A   1      37.894  30.750  36.741  1.00  0.00    -0.206 F 
ATOM     63  C   UNL A   1      38.782  33.954  38.182  1.00  0.00     0.006 A 
ENDBRANCH  42  56
BRANCH  43  64
ATOM     64  C   UNL A   1      41.598  27.301  27.623  1.00  0.00     0.057 A 
ATOM     65  C   UNL A   1      42.444  27.880  26.670  1.00  0.00     0.134 A 
ATOM     66  C   UNL A   1      41.105  26.018  27.356  1.00  0.00     0.134 A 
ATOM     67  F   UNL A   1      42.933  29.113  26.863  1.00  0.00    -0.206 F 
ATOM     68  C   UNL A   1      42.773  27.217  25.486  1.00  0.00     0.040 A 
ATOM     69  C   UNL A   1      41.443  25.335  26.186  1.00  0.00     0.040 A 
ATOM     70  F   UNL A   1      40.296  25.407  28.234  1.00  0.00    -0.206 F 
ATOM     71  C   UNL A   1      42.276  25.938  25.245  1.00  0.00     0.006 A 
ENDBRANCH  43  64
BRANCH  55  72
ATOM     72  C   UNL A   1      44.199  27.293  34.078  1.00  0.00     0.057 A 
ATOM     73  C   UNL A   1      43.980  26.034  34.650  1.00  0.00     0.134 A 
ATOM     74  C   UNL A   1      45.508  27.792  34.085  1.00  0.00     0.134 A 
ATOM     75  F   UNL A   1      42.746  25.509  34.686  1.00  0.00    -0.206 F 
ATOM     76  C   UNL A   1      45.022  25.304  35.222  1.00  0.00     0.040 A 
ATOM     77  C   UNL A   1      46.562  27.062  34.635  1.00  0.00     0.040 A 
ATOM     78  F   UNL A   1      45.784  28.989  33.545  1.00  0.00    -0.206 F 
ATOM     79  C   UNL A   1      46.319  25.815  35.209  1.00  0.00     0.006 A 
ENDBRANCH  55  72
ENDBRANCH  29  30
ENDBRANCH  21  24
ENDBRANCH  19  20
ENDBRANCH  18  19
ENDBRANCH   1  18
TORSDOF 13
ENDMDL
