MODEL 1
REMARK VINA RESULT:     -11.9      0.000      0.000
REMARK SMILES CCOc1c(Br)cc(CNc2cccc(C(=O)NCCCCNC(=O)c3ccc(-c4c5nc(c(-c6c(F)cccc6F)c6ccc([nH]6)c(-c6c(F)cccc6F)c6nc(c(-c7c(F)cccc7F)c7ccc4[nH]7)C=C6)C=C5)cc3)c2C)cc1OC
REMARK SMILES IDX 19 1 18 2 16 3 17 4 15 6 11 7 12 8 80 9 13 10 81 11 14 12
REMARK SMILES IDX 10 13 9 15 8 16 4 17 5 18 83 19 6 20 7 21 82 22 3 23 2 24
REMARK SMILES IDX 1 25 84 26 85 27 20 28 21 29 22 30 23 31 24 32 25 34 26 35
REMARK SMILES IDX 27 36 79 37 28 38 78 39 29 40 30 41 31 42 72 43 32 44 77 45
REMARK SMILES IDX 71 46 73 47 33 48 76 49 70 50 69 51 34 53 60 54 43 55 59 56
REMARK SMILES IDX 44 57 47 58 58 59 74 60 45 61 46 62 57 64 75 65 48 66 35 67
REMARK SMILES IDX 36 68 41 69 37 70 38 71 40 72 42 73 39 74 61 75 62 76 67 77
REMARK SMILES IDX 63 78 64 79 66 80 68 81 65 82 49 83 50 84 55 85 51 86 52 87
REMARK SMILES IDX 54 88 56 89 53 90
REMARK H PARENT 18 5 10 14 23 33 73 52 47 63
REMARK Flexibility Score: inf
ROOT
ATOM      1  C   UNL A   1      36.720  20.697  25.071  1.00  0.00     0.116 C 
ENDROOT
BRANCH   1   2
ATOM      2  N   UNL A   1      35.532  21.003  25.859  1.00  0.00    -0.352 N 
ATOM      3  C   UNL A   1      34.224  21.364  25.618  1.00  0.00     0.251 C 
ATOM      4  O   UNL A   1      33.497  21.346  26.615  1.00  0.00    -0.269 OA
ATOM      5  H   UNL A   1      35.712  20.933  26.823  1.00  0.00     0.163 HD
BRANCH   3   6
ATOM      6  C   UNL A   1      33.640  21.756  24.286  1.00  0.00     0.044 A 
ATOM      7  C   UNL A   1      33.269  23.420  22.489  1.00  0.00     0.038 A 
ATOM      8  C   UNL A   1      32.405  22.509  21.870  1.00  0.00     0.026 A 
ATOM      9  C   UNL A   1      33.960  23.009  23.668  1.00  0.00    -0.015 A 
ATOM     10  C   UNL A   1      32.103  21.291  22.455  1.00  0.00     0.003 A 
ATOM     11  C   UNL A   1      34.959  23.964  24.287  1.00  0.00     0.047 C 
ATOM     12  C   UNL A   1      32.667  20.954  23.680  1.00  0.00     0.014 A 
BRANCH   7  13
ATOM     13  N   UNL A   1      33.366  24.719  21.997  1.00  0.00    -0.381 N 
ATOM     14  H   UNL A   1      34.258  25.105  21.843  1.00  0.00     0.160 HD
BRANCH  13  15
ATOM     15  C   UNL A   1      32.188  25.526  21.702  1.00  0.00     0.149 C 
BRANCH  15  16
ATOM     16  C   UNL A   1      31.955  26.526  22.813  1.00  0.00    -0.024 A 
ATOM     17  C   UNL A   1      31.526  28.402  24.886  1.00  0.00     0.175 A 
ATOM     18  C   UNL A   1      32.567  27.461  24.969  1.00  0.00     0.064 A 
ATOM     19  C   UNL A   1      30.642  28.346  23.796  1.00  0.00     0.162 A 
ATOM     20  Br  UNL A   1      33.705  27.342  26.487  1.00  0.00    -0.047 Br
ATOM     21  C   UNL A   1      32.792  26.549  23.934  1.00  0.00     0.025 A 
ATOM     22  C   UNL A   1      30.880  27.422  22.765  1.00  0.00     0.056 A 
BRANCH  17  23
ATOM     23  O   UNL A   1      31.378  29.308  25.905  1.00  0.00    -0.489 OA
BRANCH  23  24
ATOM     24  C   UNL A   1      32.223  30.457  25.740  1.00  0.00     0.226 C 
ATOM     25  C   UNL A   1      32.832  30.879  27.065  1.00  0.00     0.049 C 
ENDBRANCH  23  24
ENDBRANCH  17  23
BRANCH  19  26
ATOM     26  O   UNL A   1      29.536  29.118  23.561  1.00  0.00    -0.493 OA
ATOM     27  C   UNL A   1      28.415  28.517  22.929  1.00  0.00     0.278 C 
ENDBRANCH  19  26
ENDBRANCH  15  16
ENDBRANCH  13  15
ENDBRANCH   7  13
ENDBRANCH   3   6
ENDBRANCH   1   2
BRANCH   1  28
ATOM     28  C   UNL A   1      37.767  21.812  25.019  1.00  0.00     0.023 C 
BRANCH  28  29
ATOM     29  C   UNL A   1      39.051  21.548  25.811  1.00  0.00     0.023 C 
BRANCH  29  30
ATOM     30  C   UNL A   1      39.472  22.662  26.768  1.00  0.00     0.116 C 
BRANCH  30  31
ATOM     31  N   UNL A   1      40.883  23.035  26.727  1.00  0.00    -0.352 N 
ATOM     32  C   UNL A   1      41.449  24.303  26.784  1.00  0.00     0.251 C 
ATOM     33  H   UNL A   1      41.518  22.288  26.648  1.00  0.00     0.163 HD
ATOM     34  O   UNL A   1      42.659  24.446  26.702  1.00  0.00    -0.269 OA
BRANCH  32  35
ATOM     35  C   UNL A   1      40.582  25.473  27.077  1.00  0.00     0.039 A 
ATOM     36  C   UNL A   1      40.760  26.632  26.312  1.00  0.00     0.014 A 
ATOM     37  C   UNL A   1      39.780  25.503  28.215  1.00  0.00     0.014 A 
ATOM     38  C   UNL A   1      40.368  27.861  26.835  1.00  0.00     0.010 A 
ATOM     39  C   UNL A   1      39.473  26.726  28.780  1.00  0.00     0.010 A 
ATOM     40  C   UNL A   1      39.841  27.907  28.126  1.00  0.00    -0.014 A 
BRANCH  40  41
ATOM     41  C   UNL A   1      39.820  29.131  28.925  1.00  0.00     0.031 A 
ATOM     42  C   UNL A   1      38.769  30.150  28.745  1.00  0.00     0.074 A 
ATOM     43  C   UNL A   1      40.741  29.280  29.904  1.00  0.00     0.049 A 
ATOM     44  N   UNL A   1      38.893  31.395  29.066  1.00  0.00    -0.248 NA
ATOM     45  C   UNL A   1      37.481  29.838  28.141  1.00  0.00     0.031 C 
ATOM     46  C   UNL A   1      40.744  30.262  30.984  1.00  0.00     0.029 A 
ATOM     47  N   UNL A   1      42.002  28.671  29.982  1.00  0.00    -0.354 N 
ATOM     48  C   UNL A   1      37.649  31.979  28.975  1.00  0.00     0.074 A 
ATOM     49  C   UNL A   1      36.820  30.982  28.335  1.00  0.00     0.031 C 
ATOM     50  C   UNL A   1      42.002  30.406  31.432  1.00  0.00     0.029 A 
ATOM     51  C   UNL A   1      42.862  29.637  30.548  1.00  0.00     0.049 A 
ATOM     52  H   UNL A   1      42.239  27.758  29.701  1.00  0.00     0.167 HD
ATOM     53  C   UNL A   1      37.422  33.184  29.578  1.00  0.00     0.037 A 
ATOM     54  C   UNL A   1      43.919  30.143  29.849  1.00  0.00     0.037 A 
ATOM     55  C   UNL A   1      38.645  33.726  30.168  1.00  0.00     0.049 A 
ATOM     56  C   UNL A   1      43.878  31.643  29.670  1.00  0.00     0.074 A 
ATOM     57  C   UNL A   1      39.148  33.702  31.460  1.00  0.00     0.029 A 
ATOM     58  N   UNL A   1      39.691  34.134  29.348  1.00  0.00    -0.354 N 
ATOM     59  N   UNL A   1      42.806  32.367  29.827  1.00  0.00    -0.248 NA
ATOM     60  C   UNL A   1      45.028  32.434  29.235  1.00  0.00     0.031 C 
ATOM     61  C   UNL A   1      40.523  34.032  31.404  1.00  0.00     0.029 A 
ATOM     62  C   UNL A   1      40.854  34.273  30.082  1.00  0.00     0.049 A 
ATOM     63  H   UNL A   1      39.614  34.302  28.381  1.00  0.00     0.167 HD
ATOM     64  C   UNL A   1      43.076  33.659  29.468  1.00  0.00     0.074 A 
ATOM     65  C   UNL A   1      44.487  33.661  29.137  1.00  0.00     0.031 C 
ATOM     66  C   UNL A   1      42.109  34.620  29.438  1.00  0.00     0.037 A 
BRANCH  53  67
ATOM     67  C   UNL A   1      36.032  33.691  29.913  1.00  0.00     0.057 A 
ATOM     68  C   UNL A   1      35.165  34.157  28.904  1.00  0.00     0.134 A 
ATOM     69  C   UNL A   1      35.517  33.817  31.214  1.00  0.00     0.134 A 
ATOM     70  F   UNL A   1      35.435  33.987  27.604  1.00  0.00    -0.206 F 
ATOM     71  C   UNL A   1      33.964  34.828  29.177  1.00  0.00     0.040 A 
ATOM     72  C   UNL A   1      34.346  34.534  31.506  1.00  0.00     0.040 A 
ATOM     73  F   UNL A   1      36.093  33.203  32.255  1.00  0.00    -0.206 F 
ATOM     74  C   UNL A   1      33.573  35.062  30.485  1.00  0.00     0.006 A 
ENDBRANCH  53  67
BRANCH  54  75
ATOM     75  C   UNL A   1      44.481  29.201  28.845  1.00  0.00     0.057 A 
ATOM     76  C   UNL A   1      45.384  28.209  29.266  1.00  0.00     0.134 A 
ATOM     77  C   UNL A   1      43.904  29.041  27.582  1.00  0.00     0.134 A 
ATOM     78  F   UNL A   1      45.972  28.299  30.471  1.00  0.00    -0.206 F 
ATOM     79  C   UNL A   1      45.620  27.057  28.514  1.00  0.00     0.040 A 
ATOM     80  C   UNL A   1      44.144  27.897  26.812  1.00  0.00     0.040 A 
ATOM     81  F   UNL A   1      43.019  29.933  27.114  1.00  0.00    -0.206 F 
ATOM     82  C   UNL A   1      44.975  26.886  27.293  1.00  0.00     0.006 A 
ENDBRANCH  54  75
BRANCH  66  83
ATOM     83  C   UNL A   1      42.295  35.996  28.865  1.00  0.00     0.057 A 
ATOM     84  C   UNL A   1      42.991  37.022  29.519  1.00  0.00     0.134 A 
ATOM     85  C   UNL A   1      41.880  36.283  27.548  1.00  0.00     0.134 A 
ATOM     86  F   UNL A   1      43.524  36.836  30.735  1.00  0.00    -0.206 F 
ATOM     87  C   UNL A   1      43.206  38.272  28.929  1.00  0.00     0.040 A 
ATOM     88  C   UNL A   1      42.129  37.512  26.933  1.00  0.00     0.040 A 
ATOM     89  F   UNL A   1      41.230  35.373  26.806  1.00  0.00    -0.206 F 
ATOM     90  C   UNL A   1      42.782  38.519  27.629  1.00  0.00     0.006 A 
ENDBRANCH  66  83
ENDBRANCH  40  41
ENDBRANCH  32  35
ENDBRANCH  30  31
ENDBRANCH  29  30
ENDBRANCH  28  29
ENDBRANCH   1  28
TORSDOF 17
ENDMDL
MODEL 2
REMARK VINA RESULT:     -11.7      3.372      8.834
REMARK SMILES CCOc1c(Br)cc(CNc2cccc(C(=O)NCCCCNC(=O)c3ccc(-c4c5nc(c(-c6c(F)cccc6F)c6ccc([nH]6)c(-c6c(F)cccc6F)c6nc(c(-c7c(F)cccc7F)c7ccc4[nH]7)C=C6)C=C5)cc3)c2C)cc1OC
REMARK SMILES IDX 19 1 18 2 16 3 17 4 15 6 11 7 12 8 80 9 13 10 81 11 14 12
REMARK SMILES IDX 10 13 9 15 8 16 4 17 5 18 83 19 6 20 7 21 82 22 3 23 2 24
REMARK SMILES IDX 1 25 84 26 85 27 20 28 21 29 22 30 23 31 24 32 25 34 26 35
REMARK SMILES IDX 27 36 79 37 28 38 78 39 29 40 30 41 31 42 72 43 32 44 77 45
REMARK SMILES IDX 71 46 73 47 33 48 76 49 70 50 69 51 34 53 60 54 43 55 59 56
REMARK SMILES IDX 44 57 47 58 58 59 74 60 45 61 46 62 57 64 75 65 48 66 35 67
REMARK SMILES IDX 36 68 41 69 37 70 38 71 40 72 42 73 39 74 61 75 62 76 67 77
REMARK SMILES IDX 63 78 64 79 66 80 68 81 65 82 49 83 50 84 55 85 51 86 52 87
REMARK SMILES IDX 54 88 56 89 53 90
REMARK H PARENT 18 5 10 14 23 33 73 52 47 63
REMARK Flexibility Score: inf
ROOT
ATOM      1  C   UNL A   1      32.687  28.682  27.238  1.00  0.00     0.116 C 
ENDROOT
BRANCH   1   2
ATOM      2  N   UNL A   1      31.876  29.490  26.334  1.00  0.00    -0.352 N 
ATOM      3  C   UNL A   1      31.544  29.487  24.997  1.00  0.00     0.251 C 
ATOM      4  O   UNL A   1      30.655  30.284  24.689  1.00  0.00    -0.269 OA
ATOM      5  H   UNL A   1      31.451  30.241  26.807  1.00  0.00     0.163 HD
BRANCH   3   6
ATOM      6  C   UNL A   1      32.157  28.617  23.930  1.00  0.00     0.044 A 
ATOM      7  C   UNL A   1      32.303  26.469  22.708  1.00  0.00     0.038 A 
ATOM      8  C   UNL A   1      33.427  26.965  22.036  1.00  0.00     0.026 A 
ATOM      9  C   UNL A   1      31.609  27.333  23.606  1.00  0.00    -0.015 A 
ATOM     10  C   UNL A   1      33.952  28.211  22.335  1.00  0.00     0.003 A 
ATOM     11  C   UNL A   1      30.345  26.822  24.265  1.00  0.00     0.047 C 
ATOM     12  C   UNL A   1      33.356  28.994  23.317  1.00  0.00     0.014 A 
BRANCH   7  13
ATOM     13  N   UNL A   1      31.946  25.131  22.553  1.00  0.00    -0.381 N 
ATOM     14  H   UNL A   1      31.096  24.817  22.937  1.00  0.00     0.160 HD
BRANCH  13  15
ATOM     15  C   UNL A   1      32.791  24.181  21.840  1.00  0.00     0.149 C 
BRANCH  15  16
ATOM     16  C   UNL A   1      33.555  23.326  22.827  1.00  0.00    -0.024 A 
ATOM     17  C   UNL A   1      34.985  21.722  24.666  1.00  0.00     0.175 A 
ATOM     18  C   UNL A   1      33.687  21.368  24.258  1.00  0.00     0.064 A 
ATOM     19  C   UNL A   1      35.536  22.931  24.213  1.00  0.00     0.162 A 
ATOM     20  Br  UNL A   1      32.787  19.845  24.954  1.00  0.00    -0.047 Br
ATOM     21  C   UNL A   1      32.989  22.150  23.333  1.00  0.00     0.025 A 
ATOM     22  C   UNL A   1      34.822  23.707  23.285  1.00  0.00     0.056 A 
BRANCH  17  23
ATOM     23  O   UNL A   1      35.647  20.895  25.537  1.00  0.00    -0.489 OA
BRANCH  23  24
ATOM     24  C   UNL A   1      36.405  19.881  24.859  1.00  0.00     0.226 C 
ATOM     25  C   UNL A   1      37.887  20.209  24.877  1.00  0.00     0.049 C 
ENDBRANCH  23  24
ENDBRANCH  17  23
BRANCH  19  26
ATOM     26  O   UNL A   1      36.745  23.487  24.538  1.00  0.00    -0.493 OA
ATOM     27  C   UNL A   1      37.011  23.772  25.905  1.00  0.00     0.278 C 
ENDBRANCH  19  26
ENDBRANCH  15  16
ENDBRANCH  13  15
ENDBRANCH   7  13
ENDBRANCH   3   6
ENDBRANCH   1   2
BRANCH   1  28
ATOM     28  C   UNL A   1      34.191  28.708  26.958  1.00  0.00     0.023 C 
BRANCH  28  29
ATOM     29  C   UNL A   1      35.030  29.524  27.945  1.00  0.00     0.023 C 
BRANCH  29  30
ATOM     30  C   UNL A   1      35.308  30.968  27.532  1.00  0.00     0.116 C 
BRANCH  30  31
ATOM     31  N   UNL A   1      34.389  31.969  28.066  1.00  0.00    -0.352 N 
ATOM     32  C   UNL A   1      34.540  32.777  29.186  1.00  0.00     0.251 C 
ATOM     33  H   UNL A   1      33.551  32.087  27.564  1.00  0.00     0.163 HD
ATOM     34  O   UNL A   1      33.652  33.548  29.520  1.00  0.00    -0.269 OA
BRANCH  32  35
ATOM     35  C   UNL A   1      35.842  32.792  29.901  1.00  0.00     0.039 A 
ATOM     36  C   UNL A   1      36.897  33.514  29.330  1.00  0.00     0.014 A 
ATOM     37  C   UNL A   1      36.079  31.940  30.976  1.00  0.00     0.014 A 
ATOM     38  C   UNL A   1      38.209  33.173  29.651  1.00  0.00     0.010 A 
ATOM     39  C   UNL A   1      37.376  31.533  31.229  1.00  0.00     0.010 A 
ATOM     40  C   UNL A   1      38.434  32.094  30.506  1.00  0.00    -0.014 A 
BRANCH  40  41
ATOM     41  C   UNL A   1      39.709  31.381  30.556  1.00  0.00     0.031 A 
ATOM     42  C   UNL A   1      39.923  30.133  29.799  1.00  0.00     0.074 A 
ATOM     43  C   UNL A   1      40.732  31.932  31.248  1.00  0.00     0.049 A 
ATOM     44  N   UNL A   1      40.805  29.237  30.098  1.00  0.00    -0.248 NA
ATOM     45  C   UNL A   1      39.114  29.779  28.641  1.00  0.00     0.031 C 
ATOM     46  C   UNL A   1      42.141  31.554  31.210  1.00  0.00     0.029 A 
ATOM     47  N   UNL A   1      40.643  32.843  32.311  1.00  0.00    -0.354 N 
ATOM     48  C   UNL A   1      40.873  28.347  29.048  1.00  0.00     0.074 A 
ATOM     49  C   UNL A   1      39.756  28.695  28.198  1.00  0.00     0.031 C 
ATOM     50  C   UNL A   1      42.732  31.977  32.340  1.00  0.00     0.029 A 
ATOM     51  C   UNL A   1      41.683  32.499  33.201  1.00  0.00     0.049 A 
ATOM     52  H   UNL A   1      39.990  33.571  32.415  1.00  0.00     0.167 HD
ATOM     53  C   UNL A   1      41.946  27.509  28.940  1.00  0.00     0.037 A 
ATOM     54  C   UNL A   1      41.420  32.061  34.467  1.00  0.00     0.037 A 
ATOM     55  C   UNL A   1      42.845  27.641  30.086  1.00  0.00     0.049 A 
ATOM     56  C   UNL A   1      41.967  30.685  34.770  1.00  0.00     0.074 A 
ATOM     57  C   UNL A   1      44.016  28.358  30.275  1.00  0.00     0.029 A 
ATOM     58  N   UNL A   1      42.428  27.232  31.348  1.00  0.00    -0.354 N 
ATOM     59  N   UNL A   1      42.335  29.830  33.857  1.00  0.00    -0.248 NA
ATOM     60  C   UNL A   1      42.078  30.142  36.123  1.00  0.00     0.031 C 
ATOM     61  C   UNL A   1      44.265  28.437  31.666  1.00  0.00     0.029 A 
ATOM     62  C   UNL A   1      43.256  27.755  32.323  1.00  0.00     0.049 A 
ATOM     63  H   UNL A   1      41.652  26.652  31.523  1.00  0.00     0.167 HD
ATOM     64  C   UNL A   1      42.659  28.643  34.456  1.00  0.00     0.074 A 
ATOM     65  C   UNL A   1      42.516  28.896  35.876  1.00  0.00     0.031 C 
ATOM     66  C   UNL A   1      42.987  27.533  33.733  1.00  0.00     0.037 A 
BRANCH  53  67
ATOM     67  C   UNL A   1      42.335  26.827  27.643  1.00  0.00     0.057 A 
ATOM     68  C   UNL A   1      42.830  27.567  26.551  1.00  0.00     0.134 A 
ATOM     69  C   UNL A   1      42.174  25.456  27.379  1.00  0.00     0.134 A 
ATOM     70  F   UNL A   1      43.175  28.856  26.667  1.00  0.00    -0.206 F 
ATOM     71  C   UNL A   1      43.002  27.022  25.271  1.00  0.00     0.040 A 
ATOM     72  C   UNL A   1      42.287  24.907  26.091  1.00  0.00     0.040 A 
ATOM     73  F   UNL A   1      41.956  24.576  28.364  1.00  0.00    -0.206 F 
ATOM     74  C   UNL A   1      42.683  25.697  25.024  1.00  0.00     0.006 A 
ENDBRANCH  53  67
BRANCH  54  75
ATOM     75  C   UNL A   1      40.154  32.596  35.035  1.00  0.00     0.057 A 
ATOM     76  C   UNL A   1      40.147  33.883  35.601  1.00  0.00     0.134 A 
ATOM     77  C   UNL A   1      38.913  32.026  34.735  1.00  0.00     0.134 A 
ATOM     78  F   UNL A   1      41.305  34.491  35.910  1.00  0.00    -0.206 F 
ATOM     79  C   UNL A   1      38.968  34.614  35.759  1.00  0.00     0.040 A 
ATOM     80  C   UNL A   1      37.723  32.744  34.903  1.00  0.00     0.040 A 
ATOM     81  F   UNL A   1      38.835  30.810  34.176  1.00  0.00    -0.206 F 
ATOM     82  C   UNL A   1      37.752  34.053  35.382  1.00  0.00     0.006 A 
ENDBRANCH  54  75
BRANCH  66  83
ATOM     83  C   UNL A   1      43.153  26.159  34.315  1.00  0.00     0.057 A 
ATOM     84  C   UNL A   1      42.115  25.447  34.931  1.00  0.00     0.134 A 
ATOM     85  C   UNL A   1      44.361  25.452  34.141  1.00  0.00     0.134 A 
ATOM     86  F   UNL A   1      40.890  25.974  35.061  1.00  0.00    -0.206 F 
ATOM     87  C   UNL A   1      42.283  24.139  35.402  1.00  0.00     0.040 A 
ATOM     88  C   UNL A   1      44.525  24.131  34.567  1.00  0.00     0.040 A 
ATOM     89  F   UNL A   1      45.419  26.014  33.538  1.00  0.00    -0.206 F 
ATOM     90  C   UNL A   1      43.489  23.474  35.214  1.00  0.00     0.006 A 
ENDBRANCH  66  83
ENDBRANCH  40  41
ENDBRANCH  32  35
ENDBRANCH  30  31
ENDBRANCH  29  30
ENDBRANCH  28  29
ENDBRANCH   1  28
TORSDOF 17
ENDMDL
MODEL 3
REMARK VINA RESULT:     -11.7      3.851      9.330
REMARK SMILES CCOc1c(Br)cc(CNc2cccc(C(=O)NCCCCNC(=O)c3ccc(-c4c5nc(c(-c6c(F)cccc6F)c6ccc([nH]6)c(-c6c(F)cccc6F)c6nc(c(-c7c(F)cccc7F)c7ccc4[nH]7)C=C6)C=C5)cc3)c2C)cc1OC
REMARK SMILES IDX 19 1 18 2 16 3 17 4 15 6 11 7 12 8 80 9 13 10 81 11 14 12
REMARK SMILES IDX 10 13 9 15 8 16 4 17 5 18 83 19 6 20 7 21 82 22 3 23 2 24
REMARK SMILES IDX 1 25 84 26 85 27 20 28 21 29 22 30 23 31 24 32 25 34 26 35
REMARK SMILES IDX 27 36 79 37 28 38 78 39 29 40 30 41 31 42 72 43 32 44 77 45
REMARK SMILES IDX 71 46 73 47 33 48 76 49 70 50 69 51 34 53 60 54 43 55 59 56
REMARK SMILES IDX 44 57 47 58 58 59 74 60 45 61 46 62 57 64 75 65 48 66 35 67
REMARK SMILES IDX 36 68 41 69 37 70 38 71 40 72 42 73 39 74 61 75 62 76 67 77
REMARK SMILES IDX 63 78 64 79 66 80 68 81 65 82 49 83 50 84 55 85 51 86 52 87
REMARK SMILES IDX 54 88 56 89 53 90
REMARK H PARENT 18 5 10 14 23 33 73 52 47 63
REMARK Flexibility Score: inf
ROOT
ATOM      1  C   UNL A   1      31.452  29.899  26.487  1.00  0.00     0.116 C 
ENDROOT
BRANCH   1   2
ATOM      2  N   UNL A   1      31.791  28.512  26.786  1.00  0.00    -0.352 N 
ATOM      3  C   UNL A   1      32.355  27.443  26.124  1.00  0.00     0.251 C 
ATOM      4  O   UNL A   1      32.623  26.480  26.846  1.00  0.00    -0.269 OA
ATOM      5  H   UNL A   1      31.554  28.276  27.711  1.00  0.00     0.163 HD
BRANCH   3   6
ATOM      6  C   UNL A   1      32.658  27.369  24.650  1.00  0.00     0.044 A 
ATOM      7  C   UNL A   1      32.430  26.266  22.445  1.00  0.00     0.038 A 
ATOM      8  C   UNL A   1      33.371  27.168  21.933  1.00  0.00     0.026 A 
ATOM      9  C   UNL A   1      32.005  26.419  23.799  1.00  0.00    -0.015 A 
ATOM     10  C   UNL A   1      33.994  28.097  22.749  1.00  0.00     0.003 A 
ATOM     11  C   UNL A   1      30.924  25.497  24.324  1.00  0.00     0.047 C 
ATOM     12  C   UNL A   1      33.683  28.148  24.103  1.00  0.00     0.014 A 
BRANCH   7  13
ATOM     13  N   UNL A   1      32.001  25.200  21.658  1.00  0.00    -0.381 N 
ATOM     14  H   UNL A   1      31.057  25.160  21.383  1.00  0.00     0.160 HD
BRANCH  13  15
ATOM     15  C   UNL A   1      32.906  24.142  21.227  1.00  0.00     0.149 C 
BRANCH  15  16
ATOM     16  C   UNL A   1      33.351  23.325  22.420  1.00  0.00    -0.024 A 
ATOM     17  C   UNL A   1      34.179  21.803  24.656  1.00  0.00     0.175 A 
ATOM     18  C   UNL A   1      34.963  22.869  24.179  1.00  0.00     0.064 A 
ATOM     19  C   UNL A   1      33.016  21.445  23.957  1.00  0.00     0.162 A 
ATOM     20  Br  UNL A   1      36.642  23.316  24.950  1.00  0.00    -0.047 Br
ATOM     21  C   UNL A   1      34.542  23.634  23.087  1.00  0.00     0.025 A 
ATOM     22  C   UNL A   1      32.607  22.223  22.860  1.00  0.00     0.056 A 
BRANCH  17  23
ATOM     23  O   UNL A   1      34.612  21.116  25.761  1.00  0.00    -0.489 OA
BRANCH  23  24
ATOM     24  C   UNL A   1      33.727  21.271  26.882  1.00  0.00     0.226 C 
ATOM     25  C   UNL A   1      34.023  22.556  27.633  1.00  0.00     0.049 C 
ENDBRANCH  23  24
ENDBRANCH  17  23
BRANCH  19  26
ATOM     26  O   UNL A   1      32.157  20.410  24.213  1.00  0.00    -0.493 OA
ATOM     27  C   UNL A   1      32.594  19.087  23.936  1.00  0.00     0.278 C 
ENDBRANCH  19  26
ENDBRANCH  15  16
ENDBRANCH  13  15
ENDBRANCH   7  13
ENDBRANCH   3   6
ENDBRANCH   1   2
BRANCH   1  28
ATOM     28  C   UNL A   1      32.617  30.886  26.577  1.00  0.00     0.023 C 
BRANCH  28  29
ATOM     29  C   UNL A   1      33.753  30.478  27.521  1.00  0.00     0.023 C 
BRANCH  29  30
ATOM     30  C   UNL A   1      34.908  31.473  27.624  1.00  0.00     0.116 C 
BRANCH  30  31
ATOM     31  N   UNL A   1      35.262  31.897  28.976  1.00  0.00    -0.352 N 
ATOM     32  C   UNL A   1      36.094  31.267  29.894  1.00  0.00     0.251 C 
ATOM     33  H   UNL A   1      34.857  32.741  29.276  1.00  0.00     0.163 HD
ATOM     34  O   UNL A   1      36.260  31.741  31.008  1.00  0.00    -0.269 OA
BRANCH  32  35
ATOM     35  C   UNL A   1      36.883  30.083  29.467  1.00  0.00     0.039 A 
ATOM     36  C   UNL A   1      37.063  29.046  30.390  1.00  0.00     0.014 A 
ATOM     37  C   UNL A   1      37.609  30.097  28.279  1.00  0.00     0.014 A 
ATOM     38  C   UNL A   1      38.154  28.191  30.250  1.00  0.00     0.010 A 
ATOM     39  C   UNL A   1      38.744  29.313  28.185  1.00  0.00     0.010 A 
ATOM     40  C   UNL A   1      39.059  28.417  29.212  1.00  0.00    -0.014 A 
BRANCH  40  41
ATOM     41  C   UNL A   1      40.425  27.898  29.230  1.00  0.00     0.031 A 
ATOM     42  C   UNL A   1      40.744  26.553  28.716  1.00  0.00     0.074 A 
ATOM     43  C   UNL A   1      41.420  28.710  29.654  1.00  0.00     0.049 A 
ATOM     44  N   UNL A   1      41.778  25.861  29.067  1.00  0.00    -0.248 NA
ATOM     45  C   UNL A   1      39.880  25.857  27.773  1.00  0.00     0.031 C 
ATOM     46  C   UNL A   1      42.858  28.513  29.503  1.00  0.00     0.029 A 
ATOM     47  N   UNL A   1      41.306  29.812  30.516  1.00  0.00    -0.354 N 
ATOM     48  C   UNL A   1      41.868  24.781  28.217  1.00  0.00     0.074 A 
ATOM     49  C   UNL A   1      40.628  24.792  27.473  1.00  0.00     0.031 C 
ATOM     50  C   UNL A   1      43.493  29.242  30.435  1.00  0.00     0.029 A 
ATOM     51  C   UNL A   1      42.475  29.802  31.307  1.00  0.00     0.049 A 
ATOM     52  H   UNL A   1      40.566  30.458  30.559  1.00  0.00     0.167 HD
ATOM     53  C   UNL A   1      43.039  24.080  28.136  1.00  0.00     0.037 A 
ATOM     54  C   UNL A   1      42.416  29.620  32.659  1.00  0.00     0.037 A 
ATOM     55  C   UNL A   1      44.023  24.570  29.099  1.00  0.00     0.049 A 
ATOM     56  C   UNL A   1      43.194  28.423  33.154  1.00  0.00     0.074 A 
ATOM     57  C   UNL A   1      45.086  25.452  28.982  1.00  0.00     0.029 A 
ATOM     58  N   UNL A   1      43.808  24.395  30.463  1.00  0.00    -0.354 N 
ATOM     59  N   UNL A   1      43.588  27.444  32.390  1.00  0.00    -0.248 NA
ATOM     60  C   UNL A   1      43.528  28.205  34.561  1.00  0.00     0.031 C 
ATOM     61  C   UNL A   1      45.465  25.862  30.282  1.00  0.00     0.029 A 
ATOM     62  C   UNL A   1      44.645  25.218  31.192  1.00  0.00     0.049 A 
ATOM     63  H   UNL A   1      43.152  23.774  30.853  1.00  0.00     0.167 HD
ATOM     64  C   UNL A   1      44.149  26.465  33.165  1.00  0.00     0.074 A 
ATOM     65  C   UNL A   1      44.120  27.000  34.512  1.00  0.00     0.031 C 
ATOM     66  C   UNL A   1      44.563  25.275  32.642  1.00  0.00     0.037 A 
BRANCH  53  67
ATOM     67  C   UNL A   1      43.387  23.187  26.960  1.00  0.00     0.057 A 
ATOM     68  C   UNL A   1      42.917  21.860  26.890  1.00  0.00     0.134 A 
ATOM     69  C   UNL A   1      44.240  23.548  25.905  1.00  0.00     0.134 A 
ATOM     70  F   UNL A   1      41.988  21.392  27.733  1.00  0.00    -0.206 F 
ATOM     71  C   UNL A   1      43.378  20.934  25.944  1.00  0.00     0.040 A 
ATOM     72  C   UNL A   1      44.753  22.620  24.984  1.00  0.00     0.040 A 
ATOM     73  F   UNL A   1      44.571  24.826  25.681  1.00  0.00    -0.206 F 
ATOM     74  C   UNL A   1      44.338  21.299  25.015  1.00  0.00     0.006 A 
ENDBRANCH  53  67
BRANCH  54  75
ATOM     75  C   UNL A   1      41.150  30.102  33.274  1.00  0.00     0.057 A 
ATOM     76  C   UNL A   1      41.003  31.473  33.552  1.00  0.00     0.134 A 
ATOM     77  C   UNL A   1      39.990  29.324  33.277  1.00  0.00     0.134 A 
ATOM     78  F   UNL A   1      42.077  32.280  33.560  1.00  0.00    -0.206 F 
ATOM     79  C   UNL A   1      39.748  32.062  33.717  1.00  0.00     0.040 A 
ATOM     80  C   UNL A   1      38.727  29.901  33.457  1.00  0.00     0.040 A 
ATOM     81  F   UNL A   1      40.043  28.012  33.004  1.00  0.00    -0.206 F 
ATOM     82  C   UNL A   1      38.602  31.277  33.641  1.00  0.00     0.006 A 
ENDBRANCH  54  75
BRANCH  66  83
ATOM     83  C   UNL A   1      44.996  24.092  33.458  1.00  0.00     0.057 A 
ATOM     84  C   UNL A   1      44.196  22.959  33.668  1.00  0.00     0.134 A 
ATOM     85  C   UNL A   1      46.313  24.008  33.953  1.00  0.00     0.134 A 
ATOM     86  F   UNL A   1      42.959  22.876  33.157  1.00  0.00    -0.206 F 
ATOM     87  C   UNL A   1      44.653  21.842  34.376  1.00  0.00     0.040 A 
ATOM     88  C   UNL A   1      46.795  22.880  34.622  1.00  0.00     0.040 A 
ATOM     89  F   UNL A   1      47.186  25.014  33.790  1.00  0.00    -0.206 F 
ATOM     90  C   UNL A   1      45.959  21.796  34.849  1.00  0.00     0.006 A 
ENDBRANCH  66  83
ENDBRANCH  40  41
ENDBRANCH  32  35
ENDBRANCH  30  31
ENDBRANCH  29  30
ENDBRANCH  28  29
ENDBRANCH   1  28
TORSDOF 17
ENDMDL
