MODEL 1
REMARK VINA RESULT:     -12.0      0.000      0.000
REMARK SMILES CC(C)c1csc(C(=O)N2C[C@@H]3c4ccccc4OC[C@]3(C(=O)NCCCCNC(=O)c3ccc(-c4c5nc(c(-c6c(F)cccc6F)c6ccc([nH]6)c(-c6c(F)cccc6F)c6nc(c(-c7c(F)cccc7F)c7ccc4[nH]7)C=C6)C=C5)cc3)C2)n1
REMARK SMILES IDX 26 1 25 2 24 3 22 4 23 5 21 7 10 8 11 9 86 10 12 11 13 12
REMARK SMILES IDX 20 13 14 14 18 15 19 16 15 17 17 18 16 19 8 20 9 21 7 22
REMARK SMILES IDX 4 23 5 24 87 25 6 26 2 27 1 28 3 29 27 30 28 31 29 32 30 33
REMARK SMILES IDX 31 35 32 36 33 37 85 38 34 39 84 40 35 41 36 42 37 43 78 44
REMARK SMILES IDX 38 45 83 46 77 47 79 48 39 49 82 50 76 51 75 52 40 54 66 55
REMARK SMILES IDX 49 56 65 57 50 58 53 59 64 60 80 61 51 62 52 63 63 65 81 66
REMARK SMILES IDX 54 67 41 68 42 69 47 70 43 71 44 72 46 73 48 74 45 75 67 76
REMARK SMILES IDX 68 77 73 78 69 79 70 80 72 81 74 82 71 83 55 84 56 85 61 86
REMARK SMILES IDX 57 87 58 88 60 89 62 90 59 91
REMARK H PARENT 24 6 29 34 79 53 53 64
REMARK Flexibility Score: inf
ROOT
ATOM      1  C   UNL A   1      34.470  30.200  27.354  1.00  0.00     0.023 C 
ENDROOT
BRANCH   1   2
ATOM      2  C   UNL A   1      34.174  29.114  26.331  1.00  0.00     0.116 C 
BRANCH   2   3
ATOM      3  N   UNL A   1      33.450  27.964  26.844  1.00  0.00    -0.355 N 
ATOM      4  C   UNL A   1      32.801  27.032  26.069  1.00  0.00     0.232 C 
ATOM      5  O   UNL A   1      32.847  25.853  26.434  1.00  0.00    -0.274 OA
ATOM      6  H   UNL A   1      33.424  27.842  27.821  1.00  0.00     0.163 HD
BRANCH   4   7
ATOM      7  C   UNL A   1      32.038  27.541  24.817  1.00  0.00     0.109 C 
ATOM      8  N   UNL A   1      32.289  25.981  22.944  1.00  0.00    -0.335 N 
ATOM      9  C   UNL A   1      31.614  27.133  22.452  1.00  0.00     0.129 C 
ATOM     10  C   UNL A   1      32.148  25.937  24.402  1.00  0.00     0.141 C 
ATOM     11  C   UNL A   1      30.896  27.607  23.707  1.00  0.00     0.063 C 
ATOM     12  C   UNL A   1      30.167  28.893  23.425  1.00  0.00     0.000 A 
ATOM     13  C   UNL A   1      31.217  28.474  25.828  1.00  0.00     0.249 C 
ATOM     14  C   UNL A   1      29.207  28.994  22.407  1.00  0.00     0.008 A 
ATOM     15  C   UNL A   1      30.365  29.970  24.271  1.00  0.00     0.122 A 
ATOM     16  O   UNL A   1      31.197  29.843  25.340  1.00  0.00    -0.492 OA
ATOM     17  C   UNL A   1      28.504  30.184  22.217  1.00  0.00     0.001 A 
ATOM     18  C   UNL A   1      29.700  31.175  24.066  1.00  0.00     0.047 A 
ATOM     19  C   UNL A   1      28.760  31.278  23.040  1.00  0.00     0.004 A 
BRANCH   8  20
ATOM     20  C   UNL A   1      33.078  25.197  22.116  1.00  0.00     0.282 C 
ATOM     21  O   UNL A   1      33.251  25.534  20.942  1.00  0.00    -0.266 OA
BRANCH  20  22
ATOM     22  C   UNL A   1      33.616  23.969  22.687  1.00  0.00     0.181 A 
ATOM     23  C   UNL A   1      35.066  22.649  23.721  1.00  0.00     0.055 A 
ATOM     24  C   UNL A   1      33.934  21.859  23.808  1.00  0.00     0.091 A 
ATOM     25  N   UNL A   1      34.879  23.834  23.031  1.00  0.00    -0.236 NA
ATOM     26  S   UNL A   1      32.599  22.647  23.072  1.00  0.00    -0.117 S 
BRANCH  23  27
ATOM     27  C   UNL A   1      36.438  22.410  24.290  1.00  0.00     0.033 C 
ATOM     28  C   UNL A   1      36.885  23.471  25.294  1.00  0.00     0.014 C 
ATOM     29  C   UNL A   1      36.540  21.012  24.902  1.00  0.00     0.014 C 
ENDBRANCH  23  27
ENDBRANCH  20  22
ENDBRANCH   8  20
ENDBRANCH   4   7
ENDBRANCH   2   3
ENDBRANCH   1   2
BRANCH   1  30
ATOM     30  C   UNL A   1      33.333  31.162  27.691  1.00  0.00     0.023 C 
BRANCH  30  31
ATOM     31  C   UNL A   1      33.312  32.502  26.967  1.00  0.00     0.116 C 
BRANCH  31  32
ATOM     32  N   UNL A   1      32.706  33.589  27.718  1.00  0.00    -0.352 N 
ATOM     33  C   UNL A   1      33.202  34.304  28.786  1.00  0.00     0.251 C 
ATOM     34  H   UNL A   1      31.807  33.853  27.419  1.00  0.00     0.163 HD
ATOM     35  O   UNL A   1      32.518  35.178  29.313  1.00  0.00    -0.269 OA
BRANCH  33  36
ATOM     36  C   UNL A   1      34.534  33.980  29.345  1.00  0.00     0.039 A 
ATOM     37  C   UNL A   1      35.704  34.391  28.708  1.00  0.00     0.014 A 
ATOM     38  C   UNL A   1      34.606  33.195  30.499  1.00  0.00     0.014 A 
ATOM     39  C   UNL A   1      36.924  33.841  29.091  1.00  0.00     0.010 A 
ATOM     40  C   UNL A   1      35.845  32.723  30.942  1.00  0.00     0.010 A 
ATOM     41  C   UNL A   1      37.007  32.983  30.201  1.00  0.00    -0.014 A 
BRANCH  41  42
ATOM     42  C   UNL A   1      38.306  32.342  30.540  1.00  0.00     0.031 A 
ATOM     43  C   UNL A   1      39.202  32.930  31.602  1.00  0.00     0.074 A 
ATOM     44  C   UNL A   1      38.656  31.192  29.934  1.00  0.00     0.049 A 
ATOM     45  N   UNL A   1      40.366  32.504  32.030  1.00  0.00    -0.248 NA
ATOM     46  C   UNL A   1      38.736  34.157  32.266  1.00  0.00     0.031 C 
ATOM     47  C   UNL A   1      37.874  30.510  28.900  1.00  0.00     0.029 A 
ATOM     48  N   UNL A   1      39.746  30.379  30.115  1.00  0.00    -0.354 N 
ATOM     49  C   UNL A   1      40.778  33.420  32.991  1.00  0.00     0.074 A 
ATOM     50  C   UNL A   1      39.755  34.441  33.065  1.00  0.00     0.031 C 
ATOM     51  C   UNL A   1      38.481  29.358  28.578  1.00  0.00     0.029 A 
ATOM     52  C   UNL A   1      39.725  29.250  29.332  1.00  0.00     0.049 A 
ATOM     53  H   UNL A   1      40.474  30.585  30.746  1.00  0.00     0.167 HD
ATOM     54  C   UNL A   1      41.900  33.408  33.752  1.00  0.00     0.037 A 
ATOM     55  C   UNL A   1      40.614  28.247  29.222  1.00  0.00     0.037 A 
ATOM     56  C   UNL A   1      42.908  32.381  33.701  1.00  0.00     0.049 A 
ATOM     57  C   UNL A   1      41.867  28.280  30.047  1.00  0.00     0.074 A 
ATOM     58  C   UNL A   1      44.068  32.271  34.450  1.00  0.00     0.029 A 
ATOM     59  N   UNL A   1      42.874  31.283  32.856  1.00  0.00    -0.354 N 
ATOM     60  N   UNL A   1      42.239  29.152  30.951  1.00  0.00    -0.248 NA
ATOM     61  C   UNL A   1      42.829  27.191  29.826  1.00  0.00     0.031 C 
ATOM     62  C   UNL A   1      44.754  31.124  34.031  1.00  0.00     0.029 A 
ATOM     63  C   UNL A   1      44.000  30.499  33.050  1.00  0.00     0.049 A 
ATOM     64  H   UNL A   1      42.154  31.088  32.213  1.00  0.00     0.167 HD
ATOM     65  C   UNL A   1      43.472  28.714  31.414  1.00  0.00     0.074 A 
ATOM     66  C   UNL A   1      43.773  27.485  30.709  1.00  0.00     0.031 C 
ATOM     67  C   UNL A   1      44.286  29.282  32.337  1.00  0.00     0.037 A 
BRANCH  54  68
ATOM     68  C   UNL A   1      42.106  34.557  34.699  1.00  0.00     0.057 A 
ATOM     69  C   UNL A   1      42.772  35.715  34.281  1.00  0.00     0.134 A 
ATOM     70  C   UNL A   1      41.675  34.505  36.031  1.00  0.00     0.134 A 
ATOM     71  F   UNL A   1      43.218  35.827  33.021  1.00  0.00    -0.206 F 
ATOM     72  C   UNL A   1      43.001  36.782  35.152  1.00  0.00     0.040 A 
ATOM     73  C   UNL A   1      41.877  35.575  36.906  1.00  0.00     0.040 A 
ATOM     74  F   UNL A   1      41.019  33.430  36.492  1.00  0.00    -0.206 F 
ATOM     75  C   UNL A   1      42.547  36.716  36.468  1.00  0.00     0.006 A 
ENDBRANCH  54  68
BRANCH  55  76
ATOM     76  C   UNL A   1      40.357  27.131  28.279  1.00  0.00     0.057 A 
ATOM     77  C   UNL A   1      40.928  27.110  27.001  1.00  0.00     0.134 A 
ATOM     78  C   UNL A   1      39.540  26.053  28.640  1.00  0.00     0.134 A 
ATOM     79  F   UNL A   1      41.717  28.116  26.595  1.00  0.00    -0.206 F 
ATOM     80  C   UNL A   1      40.686  26.064  26.110  1.00  0.00     0.040 A 
ATOM     81  C   UNL A   1      39.312  24.988  27.769  1.00  0.00     0.040 A 
ATOM     82  F   UNL A   1      38.983  26.008  29.859  1.00  0.00    -0.206 F 
ATOM     83  C   UNL A   1      39.882  24.994  26.497  1.00  0.00     0.006 A 
ENDBRANCH  55  76
BRANCH  67  84
ATOM     84  C   UNL A   1      45.565  28.563  32.643  1.00  0.00     0.057 A 
ATOM     85  C   UNL A   1      45.611  27.577  33.636  1.00  0.00     0.134 A 
ATOM     86  C   UNL A   1      46.753  28.849  31.956  1.00  0.00     0.134 A 
ATOM     87  F   UNL A   1      44.509  27.260  34.333  1.00  0.00    -0.206 F 
ATOM     88  C   UNL A   1      46.793  26.897  33.933  1.00  0.00     0.040 A 
ATOM     89  C   UNL A   1      47.935  28.160  32.229  1.00  0.00     0.040 A 
ATOM     90  F   UNL A   1      46.769  29.771  30.983  1.00  0.00    -0.206 F 
ATOM     91  C   UNL A   1      47.957  27.184  33.223  1.00  0.00     0.006 A 
ENDBRANCH  67  84
ENDBRANCH  41  42
ENDBRANCH  33  36
ENDBRANCH  31  32
ENDBRANCH  30  31
ENDBRANCH   1  30
TORSDOF 14
ENDMDL
MODEL 2
REMARK VINA RESULT:     -11.9      0.250      6.013
REMARK SMILES CC(C)c1csc(C(=O)N2C[C@@H]3c4ccccc4OC[C@]3(C(=O)NCCCCNC(=O)c3ccc(-c4c5nc(c(-c6c(F)cccc6F)c6ccc([nH]6)c(-c6c(F)cccc6F)c6nc(c(-c7c(F)cccc7F)c7ccc4[nH]7)C=C6)C=C5)cc3)C2)n1
REMARK SMILES IDX 26 1 25 2 24 3 22 4 23 5 21 7 10 8 11 9 86 10 12 11 13 12
REMARK SMILES IDX 20 13 14 14 18 15 19 16 15 17 17 18 16 19 8 20 9 21 7 22
REMARK SMILES IDX 4 23 5 24 87 25 6 26 2 27 1 28 3 29 27 30 28 31 29 32 30 33
REMARK SMILES IDX 31 35 32 36 33 37 85 38 34 39 84 40 35 41 36 42 37 43 78 44
REMARK SMILES IDX 38 45 83 46 77 47 79 48 39 49 82 50 76 51 75 52 40 54 66 55
REMARK SMILES IDX 49 56 65 57 50 58 53 59 64 60 80 61 51 62 52 63 63 65 81 66
REMARK SMILES IDX 54 67 41 68 42 69 47 70 43 71 44 72 46 73 48 74 45 75 67 76
REMARK SMILES IDX 68 77 73 78 69 79 70 80 72 81 74 82 71 83 55 84 56 85 61 86
REMARK SMILES IDX 57 87 58 88 60 89 62 90 59 91
REMARK H PARENT 24 6 29 34 79 53 53 64
REMARK Flexibility Score: inf
ROOT
ATOM      1  C   UNL A   1      34.644  30.063  27.327  1.00  0.00     0.023 C 
ENDROOT
BRANCH   1   2
ATOM      2  C   UNL A   1      34.264  29.007  26.301  1.00  0.00     0.116 C 
BRANCH   2   3
ATOM      3  N   UNL A   1      33.504  27.885  26.824  1.00  0.00    -0.355 N 
ATOM      4  C   UNL A   1      32.811  26.977  26.057  1.00  0.00     0.232 C 
ATOM      5  O   UNL A   1      32.817  25.798  26.423  1.00  0.00    -0.274 OA
ATOM      6  H   UNL A   1      33.485  27.764  27.801  1.00  0.00     0.163 HD
BRANCH   4   7
ATOM      7  C   UNL A   1      32.052  27.514  24.815  1.00  0.00     0.109 C 
ATOM      8  N   UNL A   1      32.282  25.979  22.918  1.00  0.00    -0.335 N 
ATOM      9  C   UNL A   1      31.620  27.146  22.445  1.00  0.00     0.129 C 
ATOM     10  C   UNL A   1      32.142  25.915  24.376  1.00  0.00     0.141 C 
ATOM     11  C   UNL A   1      30.909  27.610  23.707  1.00  0.00     0.063 C 
ATOM     12  C   UNL A   1      30.195  28.908  23.446  1.00  0.00     0.000 A 
ATOM     13  C   UNL A   1      31.244  28.441  25.841  1.00  0.00     0.249 C 
ATOM     14  C   UNL A   1      29.235  29.037  22.431  1.00  0.00     0.008 A 
ATOM     15  C   UNL A   1      30.408  29.970  24.308  1.00  0.00     0.122 A 
ATOM     16  O   UNL A   1      31.240  29.818  25.374  1.00  0.00    -0.492 OA
ATOM     17  C   UNL A   1      28.547  30.237  22.260  1.00  0.00     0.001 A 
ATOM     18  C   UNL A   1      29.757  31.186  24.122  1.00  0.00     0.047 A 
ATOM     19  C   UNL A   1      28.817  31.316  23.099  1.00  0.00     0.004 A 
BRANCH   8  20
ATOM     20  C   UNL A   1      33.060  25.198  22.077  1.00  0.00     0.282 C 
ATOM     21  O   UNL A   1      33.239  25.553  20.909  1.00  0.00    -0.266 OA
BRANCH  20  22
ATOM     22  C   UNL A   1      33.579  23.952  22.627  1.00  0.00     0.181 A 
ATOM     23  C   UNL A   1      35.007  22.594  23.641  1.00  0.00     0.055 A 
ATOM     24  C   UNL A   1      33.864  21.818  23.711  1.00  0.00     0.091 A 
ATOM     25  N   UNL A   1      34.840  23.793  22.972  1.00  0.00    -0.236 NA
ATOM     26  S   UNL A   1      32.542  22.639  22.986  1.00  0.00    -0.117 S 
BRANCH  23  27
ATOM     27  C   UNL A   1      36.375  22.325  24.209  1.00  0.00     0.033 C 
ATOM     28  C   UNL A   1      36.952  23.491  25.009  1.00  0.00     0.014 C 
ATOM     29  C   UNL A   1      36.377  21.044  25.043  1.00  0.00     0.014 C 
ENDBRANCH  23  27
ENDBRANCH  20  22
ENDBRANCH   8  20
ENDBRANCH   4   7
ENDBRANCH   2   3
ENDBRANCH   1   2
BRANCH   1  30
ATOM     30  C   UNL A   1      33.553  31.044  27.747  1.00  0.00     0.023 C 
BRANCH  30  31
ATOM     31  C   UNL A   1      33.438  32.343  26.960  1.00  0.00     0.116 C 
BRANCH  31  32
ATOM     32  N   UNL A   1      32.784  33.429  27.672  1.00  0.00    -0.352 N 
ATOM     33  C   UNL A   1      33.226  34.170  28.745  1.00  0.00     0.251 C 
ATOM     34  H   UNL A   1      31.890  33.670  27.336  1.00  0.00     0.163 HD
ATOM     35  O   UNL A   1      32.506  35.039  29.232  1.00  0.00    -0.269 OA
BRANCH  33  36
ATOM     36  C   UNL A   1      34.543  33.882  29.356  1.00  0.00     0.039 A 
ATOM     37  C   UNL A   1      35.729  34.259  28.727  1.00  0.00     0.014 A 
ATOM     38  C   UNL A   1      34.586  33.166  30.556  1.00  0.00     0.014 A 
ATOM     39  C   UNL A   1      36.939  33.734  29.174  1.00  0.00     0.010 A 
ATOM     40  C   UNL A   1      35.812  32.723  31.058  1.00  0.00     0.010 A 
ATOM     41  C   UNL A   1      36.993  32.943  30.334  1.00  0.00    -0.014 A 
BRANCH  41  42
ATOM     42  C   UNL A   1      38.284  32.325  30.743  1.00  0.00     0.031 A 
ATOM     43  C   UNL A   1      38.773  31.056  30.091  1.00  0.00     0.074 A 
ATOM     44  C   UNL A   1      39.050  32.940  31.664  1.00  0.00     0.049 A 
ATOM     45  N   UNL A   1      39.873  30.380  30.318  1.00  0.00    -0.248 NA
ATOM     46  C   UNL A   1      37.914  30.465  29.052  1.00  0.00     0.031 C 
ATOM     47  C   UNL A   1      38.702  34.179  32.362  1.00  0.00     0.029 A 
ATOM     48  N   UNL A   1      40.291  32.621  32.154  1.00  0.00    -0.354 N 
ATOM     49  C   UNL A   1      39.826  29.278  29.472  1.00  0.00     0.074 A 
ATOM     50  C   UNL A   1      38.577  29.358  28.746  1.00  0.00     0.031 C 
ATOM     51  C   UNL A   1      39.725  34.543  33.149  1.00  0.00     0.029 A 
ATOM     52  C   UNL A   1      40.773  33.533  33.061  1.00  0.00     0.049 A 
ATOM     53  H   UNL A   1      40.788  31.815  31.882  1.00  0.00     0.167 HD
ATOM     54  C   UNL A   1      40.744  28.294  29.305  1.00  0.00     0.037 A 
ATOM     55  C   UNL A   1      41.925  33.547  33.757  1.00  0.00     0.037 A 
ATOM     56  C   UNL A   1      41.999  28.224  30.006  1.00  0.00     0.049 A 
ATOM     57  C   UNL A   1      42.904  32.424  33.583  1.00  0.00     0.074 A 
ATOM     58  C   UNL A   1      43.004  27.278  29.887  1.00  0.00     0.029 A 
ATOM     59  N   UNL A   1      42.426  29.140  30.955  1.00  0.00    -0.354 N 
ATOM     60  N   UNL A   1      42.845  31.392  32.778  1.00  0.00    -0.248 NA
ATOM     61  C   UNL A   1      44.108  32.465  34.425  1.00  0.00     0.031 C 
ATOM     62  C   UNL A   1      44.022  27.602  30.793  1.00  0.00     0.029 A 
ATOM     63  C   UNL A   1      43.669  28.772  31.445  1.00  0.00     0.049 A 
ATOM     64  H   UNL A   1      41.920  29.935  31.240  1.00  0.00     0.167 HD
ATOM     65  C   UNL A   1      44.004  30.666  33.008  1.00  0.00     0.074 A 
ATOM     66  C   UNL A   1      44.761  31.389  34.010  1.00  0.00     0.031 C 
ATOM     67  C   UNL A   1      44.405  29.500  32.445  1.00  0.00     0.037 A 
BRANCH  54  68
ATOM     68  C   UNL A   1      40.413  27.198  28.333  1.00  0.00     0.057 A 
ATOM     69  C   UNL A   1      39.564  26.147  28.703  1.00  0.00     0.134 A 
ATOM     70  C   UNL A   1      40.957  27.162  27.042  1.00  0.00     0.134 A 
ATOM     71  F   UNL A   1      39.015  26.115  29.927  1.00  0.00    -0.206 F 
ATOM     72  C   UNL A   1      39.267  25.102  27.827  1.00  0.00     0.040 A 
ATOM     73  C   UNL A   1      40.650  26.135  26.148  1.00  0.00     0.040 A 
ATOM     74  F   UNL A   1      41.768  28.144  26.619  1.00  0.00    -0.206 F 
ATOM     75  C   UNL A   1      39.806  25.098  26.541  1.00  0.00     0.006 A 
ENDBRANCH  54  68
BRANCH  55  76
ATOM     76  C   UNL A   1      42.207  34.660  34.697  1.00  0.00     0.057 A 
ATOM     77  C   UNL A   1      41.814  34.598  36.039  1.00  0.00     0.134 A 
ATOM     78  C   UNL A   1      42.886  35.809  34.274  1.00  0.00     0.134 A 
ATOM     79  F   UNL A   1      41.156  33.525  36.503  1.00  0.00    -0.206 F 
ATOM     80  C   UNL A   1      42.075  35.643  36.926  1.00  0.00     0.040 A 
ATOM     81  C   UNL A   1      43.176  36.850  35.156  1.00  0.00     0.040 A 
ATOM     82  F   UNL A   1      43.305  35.916  33.005  1.00  0.00    -0.206 F 
ATOM     83  C   UNL A   1      42.765  36.771  36.486  1.00  0.00     0.006 A 
ENDBRANCH  55  76
BRANCH  67  84
ATOM     84  C   UNL A   1      45.729  28.955  32.890  1.00  0.00     0.057 A 
ATOM     85  C   UNL A   1      45.809  28.067  33.969  1.00  0.00     0.134 A 
ATOM     86  C   UNL A   1      46.924  29.311  32.252  1.00  0.00     0.134 A 
ATOM     87  F   UNL A   1      44.702  27.689  34.626  1.00  0.00    -0.206 F 
ATOM     88  C   UNL A   1      47.033  27.549  34.396  1.00  0.00     0.040 A 
ATOM     89  C   UNL A   1      48.151  28.782  32.655  1.00  0.00     0.040 A 
ATOM     90  F   UNL A   1      46.910  30.145  31.201  1.00  0.00    -0.206 F 
ATOM     91  C   UNL A   1      48.207  27.901  33.733  1.00  0.00     0.006 A 
ENDBRANCH  67  84
ENDBRANCH  41  42
ENDBRANCH  33  36
ENDBRANCH  31  32
ENDBRANCH  30  31
ENDBRANCH   1  30
TORSDOF 14
ENDMDL
MODEL 3
REMARK VINA RESULT:     -11.9      3.724      9.072
REMARK SMILES CC(C)c1csc(C(=O)N2C[C@@H]3c4ccccc4OC[C@]3(C(=O)NCCCCNC(=O)c3ccc(-c4c5nc(c(-c6c(F)cccc6F)c6ccc([nH]6)c(-c6c(F)cccc6F)c6nc(c(-c7c(F)cccc7F)c7ccc4[nH]7)C=C6)C=C5)cc3)C2)n1
REMARK SMILES IDX 26 1 25 2 24 3 22 4 23 5 21 7 10 8 11 9 86 10 12 11 13 12
REMARK SMILES IDX 20 13 14 14 18 15 19 16 15 17 17 18 16 19 8 20 9 21 7 22
REMARK SMILES IDX 4 23 5 24 87 25 6 26 2 27 1 28 3 29 27 30 28 31 29 32 30 33
REMARK SMILES IDX 31 35 32 36 33 37 85 38 34 39 84 40 35 41 36 42 37 43 78 44
REMARK SMILES IDX 38 45 83 46 77 47 79 48 39 49 82 50 76 51 75 52 40 54 66 55
REMARK SMILES IDX 49 56 65 57 50 58 53 59 64 60 80 61 51 62 52 63 63 65 81 66
REMARK SMILES IDX 54 67 41 68 42 69 47 70 43 71 44 72 46 73 48 74 45 75 67 76
REMARK SMILES IDX 68 77 73 78 69 79 70 80 72 81 74 82 71 83 55 84 56 85 61 86
REMARK SMILES IDX 57 87 58 88 60 89 62 90 59 91
REMARK H PARENT 24 6 29 34 79 53 53 64
REMARK Flexibility Score: inf
ROOT
ATOM      1  C   UNL A   1      38.275  23.443  26.257  1.00  0.00     0.023 C 
ENDROOT
BRANCH   1   2
ATOM      2  C   UNL A   1      36.760  23.480  26.126  1.00  0.00     0.116 C 
BRANCH   2   3
ATOM      3  N   UNL A   1      36.263  24.028  24.877  1.00  0.00    -0.355 N 
ATOM      4  C   UNL A   1      34.946  24.011  24.477  1.00  0.00     0.232 C 
ATOM      5  O   UNL A   1      34.520  25.000  23.873  1.00  0.00    -0.274 OA
ATOM      6  H   UNL A   1      36.917  24.445  24.270  1.00  0.00     0.163 HD
BRANCH   4   7
ATOM      7  C   UNL A   1      34.115  22.739  24.791  1.00  0.00     0.109 C 
ATOM      8  N   UNL A   1      31.866  23.331  25.564  1.00  0.00    -0.335 N 
ATOM      9  C   UNL A   1      32.010  21.923  25.709  1.00  0.00     0.129 C 
ATOM     10  C   UNL A   1      32.861  23.811  24.600  1.00  0.00     0.141 C 
ATOM     11  C   UNL A   1      33.000  21.615  24.596  1.00  0.00     0.063 C 
ATOM     12  C   UNL A   1      33.364  20.156  24.622  1.00  0.00     0.000 A 
ATOM     13  C   UNL A   1      35.178  21.951  23.887  1.00  0.00     0.249 C 
ATOM     14  C   UNL A   1      32.394  19.146  24.523  1.00  0.00     0.008 A 
ATOM     15  C   UNL A   1      34.702  19.802  24.626  1.00  0.00     0.122 A 
ATOM     16  O   UNL A   1      35.656  20.772  24.593  1.00  0.00    -0.492 OA
ATOM     17  C   UNL A   1      32.773  17.806  24.485  1.00  0.00     0.001 A 
ATOM     18  C   UNL A   1      35.091  18.466  24.630  1.00  0.00     0.047 A 
ATOM     19  C   UNL A   1      34.122  17.465  24.551  1.00  0.00     0.004 A 
BRANCH   8  20
ATOM     20  C   UNL A   1      31.018  24.059  26.384  1.00  0.00     0.282 C 
ATOM     21  O   UNL A   1      30.361  23.477  27.251  1.00  0.00    -0.266 OA
BRANCH  20  22
ATOM     22  C   UNL A   1      30.916  25.489  26.123  1.00  0.00     0.181 A 
ATOM     23  C   UNL A   1      31.403  27.646  26.288  1.00  0.00     0.055 A 
ATOM     24  C   UNL A   1      30.653  27.668  25.126  1.00  0.00     0.091 A 
ATOM     25  N   UNL A   1      31.503  26.397  26.876  1.00  0.00    -0.236 NA
ATOM     26  S   UNL A   1      30.123  26.085  24.729  1.00  0.00    -0.117 S 
BRANCH  23  27
ATOM     27  C   UNL A   1      32.133  28.771  26.971  1.00  0.00     0.033 C 
ATOM     28  C   UNL A   1      33.647  28.578  27.032  1.00  0.00     0.014 C 
ATOM     29  C   UNL A   1      31.786  30.115  26.330  1.00  0.00     0.014 C 
ENDBRANCH  23  27
ENDBRANCH  20  22
ENDBRANCH   8  20
ENDBRANCH   4   7
ENDBRANCH   2   3
ENDBRANCH   1   2
BRANCH   1  30
ATOM     30  C   UNL A   1      38.914  22.082  26.522  1.00  0.00     0.023 C 
BRANCH  30  31
ATOM     31  C   UNL A   1      38.923  21.079  25.375  1.00  0.00     0.116 C 
BRANCH  31  32
ATOM     32  N   UNL A   1      39.749  19.904  25.603  1.00  0.00    -0.352 N 
ATOM     33  C   UNL A   1      41.020  19.810  26.126  1.00  0.00     0.251 C 
ATOM     34  H   UNL A   1      39.339  19.048  25.344  1.00  0.00     0.163 HD
ATOM     35  O   UNL A   1      41.571  18.716  26.213  1.00  0.00    -0.269 OA
BRANCH  33  36
ATOM     36  C   UNL A   1      41.752  21.033  26.526  1.00  0.00     0.039 A 
ATOM     37  C   UNL A   1      41.981  21.332  27.869  1.00  0.00     0.014 A 
ATOM     38  C   UNL A   1      42.163  21.926  25.532  1.00  0.00     0.014 A 
ATOM     39  C   UNL A   1      42.413  22.606  28.224  1.00  0.00     0.010 A 
ATOM     40  C   UNL A   1      42.691  23.170  25.890  1.00  0.00     0.010 A 
ATOM     41  C   UNL A   1      42.755  23.549  27.240  1.00  0.00    -0.014 A 
BRANCH  41  42
ATOM     42  C   UNL A   1      43.134  24.930  27.643  1.00  0.00     0.031 A 
ATOM     43  C   UNL A   1      42.080  25.936  28.033  1.00  0.00     0.074 A 
ATOM     44  C   UNL A   1      44.436  25.265  27.718  1.00  0.00     0.049 A 
ATOM     45  N   UNL A   1      42.226  27.181  28.414  1.00  0.00    -0.248 NA
ATOM     46  C   UNL A   1      40.678  25.489  27.983  1.00  0.00     0.031 C 
ATOM     47  C   UNL A   1      45.556  24.383  27.382  1.00  0.00     0.029 A 
ATOM     48  N   UNL A   1      45.039  26.428  28.123  1.00  0.00    -0.354 N 
ATOM     49  C   UNL A   1      40.942  27.671  28.625  1.00  0.00     0.074 A 
ATOM     50  C   UNL A   1      40.026  26.598  28.303  1.00  0.00     0.031 C 
ATOM     51  C   UNL A   1      46.708  25.016  27.646  1.00  0.00     0.029 A 
ATOM     52  C   UNL A   1      46.412  26.368  28.106  1.00  0.00     0.049 A 
ATOM     53  H   UNL A   1      44.538  27.229  28.399  1.00  0.00     0.167 HD
ATOM     54  C   UNL A   1      40.559  28.897  29.059  1.00  0.00     0.037 A 
ATOM     55  C   UNL A   1      47.331  27.302  28.412  1.00  0.00     0.037 A 
ATOM     56  C   UNL A   1      41.468  29.958  29.406  1.00  0.00     0.049 A 
ATOM     57  C   UNL A   1      46.878  28.664  28.850  1.00  0.00     0.074 A 
ATOM     58  C   UNL A   1      41.175  31.227  29.877  1.00  0.00     0.029 A 
ATOM     59  N   UNL A   1      42.849  29.874  29.324  1.00  0.00    -0.354 N 
ATOM     60  N   UNL A   1      45.661  29.108  29.046  1.00  0.00    -0.248 NA
ATOM     61  C   UNL A   1      47.932  29.658  29.100  1.00  0.00     0.031 C 
ATOM     62  C   UNL A   1      42.379  31.923  30.045  1.00  0.00     0.029 A 
ATOM     63  C   UNL A   1      43.422  31.073  29.717  1.00  0.00     0.049 A 
ATOM     64  H   UNL A   1      43.349  29.078  29.030  1.00  0.00     0.167 HD
ATOM     65  C   UNL A   1      45.800  30.428  29.451  1.00  0.00     0.074 A 
ATOM     66  C   UNL A   1      47.222  30.705  29.497  1.00  0.00     0.031 C 
ATOM     67  C   UNL A   1      44.838  31.332  29.752  1.00  0.00     0.037 A 
BRANCH  54  68
ATOM     68  C   UNL A   1      39.085  29.163  29.167  1.00  0.00     0.057 A 
ATOM     69  C   UNL A   1      38.349  29.567  28.046  1.00  0.00     0.134 A 
ATOM     70  C   UNL A   1      38.398  29.050  30.383  1.00  0.00     0.134 A 
ATOM     71  F   UNL A   1      38.945  29.703  26.852  1.00  0.00    -0.206 F 
ATOM     72  C   UNL A   1      36.984  29.850  28.130  1.00  0.00     0.040 A 
ATOM     73  C   UNL A   1      37.028  29.307  30.475  1.00  0.00     0.040 A 
ATOM     74  F   UNL A   1      39.041  28.654  31.492  1.00  0.00    -0.206 F 
ATOM     75  C   UNL A   1      36.319  29.713  29.347  1.00  0.00     0.006 A 
ENDBRANCH  54  68
BRANCH  55  76
ATOM     76  C   UNL A   1      48.775  26.984  28.299  1.00  0.00     0.057 A 
ATOM     77  C   UNL A   1      49.499  26.483  29.388  1.00  0.00     0.134 A 
ATOM     78  C   UNL A   1      49.464  27.164  27.094  1.00  0.00     0.134 A 
ATOM     79  F   UNL A   1      48.895  26.293  30.571  1.00  0.00    -0.206 F 
ATOM     80  C   UNL A   1      50.858  26.185  29.288  1.00  0.00     0.040 A 
ATOM     81  C   UNL A   1      50.816  26.845  26.972  1.00  0.00     0.040 A 
ATOM     82  F   UNL A   1      48.819  27.620  26.010  1.00  0.00    -0.206 F 
ATOM     83  C   UNL A   1      51.518  26.359  28.074  1.00  0.00     0.006 A 
ENDBRANCH  55  76
BRANCH  67  84
ATOM     84  C   UNL A   1      45.299  32.695  30.175  1.00  0.00     0.057 A 
ATOM     85  C   UNL A   1      45.459  33.719  29.235  1.00  0.00     0.134 A 
ATOM     86  C   UNL A   1      45.588  32.991  31.514  1.00  0.00     0.134 A 
ATOM     87  F   UNL A   1      45.204  33.499  27.936  1.00  0.00    -0.206 F 
ATOM     88  C   UNL A   1      45.887  34.993  29.611  1.00  0.00     0.040 A 
ATOM     89  C   UNL A   1      45.995  34.267  31.906  1.00  0.00     0.040 A 
ATOM     90  F   UNL A   1      45.437  32.056  32.464  1.00  0.00    -0.206 F 
ATOM     91  C   UNL A   1      46.149  35.271  30.952  1.00  0.00     0.006 A 
ENDBRANCH  67  84
ENDBRANCH  41  42
ENDBRANCH  33  36
ENDBRANCH  31  32
ENDBRANCH  30  31
ENDBRANCH   1  30
TORSDOF 14
ENDMDL
