MODEL 1
REMARK VINA RESULT:     -12.7      0.000      0.000
REMARK SMILES O=C(NCCCCNC(=O)c1ccc(-c2c3nc(c(-c4c(F)cccc4F)c4ccc([nH]4)c(-c4c(F)cccc4F)c4nc(c(-c5c(F)cccc5F)c5ccc2[nH]5)C=C4)C=C3)cc1)C1=Cc2cc(S(F)(F)(F)(F)F)ccc2O[C@@H]1C(F)(F)F
REMARK SMILES IDX 6 1 5 2 4 3 3 4 1 5 2 6 65 8 66 9 80 10 67 11 79 12 68 13
REMARK SMILES IDX 78 14 69 15 77 16 76 17 81 18 82 19 83 20 84 21 70 22 71 23
REMARK SMILES IDX 72 24 73 25 74 26 75 27 7 28 8 29 9 30 10 32 11 33 12 34
REMARK SMILES IDX 64 35 13 36 63 37 14 38 15 39 16 40 57 41 17 42 62 43 56 44
REMARK SMILES IDX 58 45 18 46 61 47 55 48 54 49 19 51 45 52 28 53 44 54 29 55
REMARK SMILES IDX 32 56 43 57 59 58 30 59 31 60 42 62 60 63 33 64 20 65 21 66
REMARK SMILES IDX 26 67 22 68 23 69 25 70 27 71 24 72 46 73 47 74 52 75 48 76
REMARK SMILES IDX 49 77 51 78 53 79 50 80 34 81 35 82 40 83 36 84 37 85 39 86
REMARK SMILES IDX 41 87 38 88
REMARK H PARENT 3 7 8 31 58 50 32 61
REMARK Flexibility Score: inf
ROOT
ATOM      1  C   UNL A   1      38.827  21.491  25.550  1.00  0.00     0.023 C 
ENDROOT
BRANCH   1   2
ATOM      2  C   UNL A   1      38.786  22.862  26.206  1.00  0.00     0.023 C 
BRANCH   2   3
ATOM      3  C   UNL A   1      37.467  23.541  25.879  1.00  0.00     0.116 C 
BRANCH   3   4
ATOM      4  N   UNL A   1      37.256  23.529  24.424  1.00  0.00    -0.352 N 
ATOM      5  O   UNL A   1      35.898  22.841  22.599  1.00  0.00    -0.270 OA
ATOM      6  C   UNL A   1      36.080  22.852  23.857  1.00  0.00     0.251 C 
ATOM      7  H   UNL A   1      37.903  23.973  23.829  1.00  0.00     0.163 HD
BRANCH   6   8
ATOM      8  C   UNL A   1      35.082  22.165  24.776  1.00  0.00     0.067 C 
ATOM      9  C   UNL A   1      34.104  22.891  25.381  1.00  0.00     0.025 C 
ATOM     10  C   UNL A   1      35.177  20.668  25.017  1.00  0.00     0.314 C 
ATOM     11  C   UNL A   1      34.010  24.389  25.139  1.00  0.00     0.019 A 
ATOM     12  O   UNL A   1      34.620  23.890  22.898  1.00  0.00    -0.475 OA
ATOM     13  C   UNL A   1      33.686  25.279  26.150  1.00  0.00     0.036 A 
ATOM     14  C   UNL A   1      34.132  24.792  23.880  1.00  0.00     0.128 A 
ATOM     15  C   UNL A   1      33.225  26.533  25.684  1.00  0.00     0.107 A 
ATOM     16  C   UNL A   1      33.791  26.073  23.520  1.00  0.00     0.048 A 
ATOM     17  C   UNL A   1      33.406  26.989  24.458  1.00  0.00     0.028 A 
BRANCH  10  18
ATOM     18  C   UNL A   1      33.890  19.999  24.564  1.00  0.00     0.429 C 
ATOM     19  F   UNL A   1      33.332  20.720  23.595  1.00  0.00    -0.167 F 
ATOM     20  F   UNL A   1      34.160  18.779  24.110  1.00  0.00    -0.167 F 
ATOM     21  F   UNL A   1      33.050  19.914  25.592  1.00  0.00    -0.167 F 
ENDBRANCH  10  18
BRANCH  15  22
ATOM     22  S   UNL A   1      32.323  27.584  26.849  1.00  0.00     0.310 S 
ATOM     23  F   UNL A   1      32.141  28.735  25.772  1.00  0.00    -0.094 F 
ATOM     24  F   UNL A   1      33.688  28.264  27.243  1.00  0.00    -0.094 F 
ATOM     25  F   UNL A   1      31.552  28.486  27.853  1.00  0.00    -0.094 F 
ATOM     26  F   UNL A   1      30.951  26.991  26.341  1.00  0.00    -0.094 F 
ATOM     27  F   UNL A   1      33.079  26.743  25.746  1.00  0.00    -0.094 F 
ENDBRANCH  15  22
ENDBRANCH   6   8
ENDBRANCH   3   4
ENDBRANCH   2   3
ENDBRANCH   1   2
BRANCH   1  28
ATOM     28  C   UNL A   1      39.326  20.464  26.553  1.00  0.00     0.116 C 
BRANCH  28  29
ATOM     29  N   UNL A   1      40.274  19.555  25.894  1.00  0.00    -0.352 N 
ATOM     30  C   UNL A   1      41.701  19.905  25.824  1.00  0.00     0.251 C 
ATOM     31  H   UNL A   1      39.954  18.712  25.498  1.00  0.00     0.163 HD
ATOM     32  O   UNL A   1      42.521  19.118  25.254  1.00  0.00    -0.269 OA
BRANCH  30  33
ATOM     33  C   UNL A   1      42.195  21.206  26.434  1.00  0.00     0.039 A 
ATOM     34  C   UNL A   1      42.230  21.271  27.817  1.00  0.00     0.014 A 
ATOM     35  C   UNL A   1      42.460  22.273  25.688  1.00  0.00     0.014 A 
ATOM     36  C   UNL A   1      42.274  22.589  28.328  1.00  0.00     0.010 A 
ATOM     37  C   UNL A   1      42.627  23.508  26.267  1.00  0.00     0.010 A 
ATOM     38  C   UNL A   1      42.614  23.655  27.626  1.00  0.00    -0.014 A 
BRANCH  38  39
ATOM     39  C   UNL A   1      42.972  24.973  28.292  1.00  0.00     0.031 A 
ATOM     40  C   UNL A   1      44.293  25.301  28.600  1.00  0.00     0.074 A 
ATOM     41  C   UNL A   1      41.908  25.847  28.422  1.00  0.00     0.049 A 
ATOM     42  N   UNL A   1      44.762  26.475  29.023  1.00  0.00    -0.248 NA
ATOM     43  C   UNL A   1      45.421  24.363  28.496  1.00  0.00     0.031 C 
ATOM     44  C   UNL A   1      40.572  25.526  28.105  1.00  0.00     0.029 A 
ATOM     45  N   UNL A   1      41.934  27.151  28.865  1.00  0.00    -0.354 N 
ATOM     46  C   UNL A   1      46.085  26.410  29.192  1.00  0.00     0.074 A 
ATOM     47  C   UNL A   1      46.527  25.048  28.862  1.00  0.00     0.031 C 
ATOM     48  C   UNL A   1      39.804  26.617  28.366  1.00  0.00     0.029 A 
ATOM     49  C   UNL A   1      40.645  27.637  28.849  1.00  0.00     0.049 A 
ATOM     50  H   UNL A   1      42.734  27.649  29.147  1.00  0.00     0.167 HD
ATOM     51  C   UNL A   1      46.939  27.432  29.608  1.00  0.00     0.037 A 
ATOM     52  C   UNL A   1      40.207  28.896  29.230  1.00  0.00     0.037 A 
ATOM     53  C   UNL A   1      46.508  28.705  29.947  1.00  0.00     0.049 A 
ATOM     54  C   UNL A   1      41.055  29.901  29.701  1.00  0.00     0.074 A 
ATOM     55  C   UNL A   1      47.357  29.749  30.361  1.00  0.00     0.029 A 
ATOM     56  N   UNL A   1      45.216  29.182  29.954  1.00  0.00    -0.354 N 
ATOM     57  N   UNL A   1      42.381  29.847  29.833  1.00  0.00    -0.248 NA
ATOM     58  C   UNL A   1      40.599  31.227  30.139  1.00  0.00     0.031 C 
ATOM     59  C   UNL A   1      46.587  30.839  30.621  1.00  0.00     0.029 A 
ATOM     60  C   UNL A   1      45.245  30.493  30.377  1.00  0.00     0.049 A 
ATOM     61  H   UNL A   1      44.411  28.676  29.701  1.00  0.00     0.167 HD
ATOM     62  C   UNL A   1      42.845  31.010  30.296  1.00  0.00     0.074 A 
ATOM     63  C   UNL A   1      41.704  31.911  30.507  1.00  0.00     0.031 C 
ATOM     64  C   UNL A   1      44.174  31.357  30.548  1.00  0.00     0.037 A 
BRANCH  51  65
ATOM     65  C   UNL A   1      48.428  27.134  29.691  1.00  0.00     0.057 A 
ATOM     66  C   UNL A   1      49.267  27.353  28.610  1.00  0.00     0.134 A 
ATOM     67  C   UNL A   1      48.878  26.587  30.814  1.00  0.00     0.134 A 
ATOM     68  F   UNL A   1      48.933  28.115  27.575  1.00  0.00    -0.206 F 
ATOM     69  C   UNL A   1      50.514  26.690  28.711  1.00  0.00     0.040 A 
ATOM     70  C   UNL A   1      50.154  26.082  30.883  1.00  0.00     0.040 A 
ATOM     71  F   UNL A   1      48.087  26.529  31.882  1.00  0.00    -0.206 F 
ATOM     72  C   UNL A   1      51.019  26.210  29.832  1.00  0.00     0.006 A 
ENDBRANCH  51  65
BRANCH  52  73
ATOM     73  C   UNL A   1      38.721  29.199  29.131  1.00  0.00     0.057 A 
ATOM     74  C   UNL A   1      38.253  29.640  27.905  1.00  0.00     0.134 A 
ATOM     75  C   UNL A   1      37.897  29.002  30.153  1.00  0.00     0.134 A 
ATOM     76  F   UNL A   1      38.985  29.609  26.795  1.00  0.00    -0.206 F 
ATOM     77  C   UNL A   1      36.924  30.126  27.940  1.00  0.00     0.040 A 
ATOM     78  C   UNL A   1      36.577  29.377  30.070  1.00  0.00     0.040 A 
ATOM     79  F   UNL A   1      38.352  28.438  31.268  1.00  0.00    -0.206 F 
ATOM     80  C   UNL A   1      36.061  29.876  28.907  1.00  0.00     0.006 A 
ENDBRANCH  52  73
BRANCH  64  81
ATOM     81  C   UNL A   1      44.463  32.766  31.039  1.00  0.00     0.057 A 
ATOM     82  C   UNL A   1      44.407  32.999  32.403  1.00  0.00     0.134 A 
ATOM     83  C   UNL A   1      44.599  33.763  30.174  1.00  0.00     0.134 A 
ATOM     84  F   UNL A   1      44.526  32.033  33.310  1.00  0.00    -0.206 F 
ATOM     85  C   UNL A   1      44.212  34.358  32.745  1.00  0.00     0.040 A 
ATOM     86  C   UNL A   1      44.533  35.069  30.597  1.00  0.00     0.040 A 
ATOM     87  F   UNL A   1      44.801  33.498  28.886  1.00  0.00    -0.206 F 
ATOM     88  C   UNL A   1      44.419  35.373  31.926  1.00  0.00     0.006 A 
ENDBRANCH  64  81
ENDBRANCH  38  39
ENDBRANCH  30  33
ENDBRANCH  28  29
ENDBRANCH   1  28
TORSDOF 13
ENDMDL
MODEL 2
REMARK VINA RESULT:     -12.6      0.277      1.274
REMARK SMILES O=C(NCCCCNC(=O)c1ccc(-c2c3nc(c(-c4c(F)cccc4F)c4ccc([nH]4)c(-c4c(F)cccc4F)c4nc(c(-c5c(F)cccc5F)c5ccc2[nH]5)C=C4)C=C3)cc1)C1=Cc2cc(S(F)(F)(F)(F)F)ccc2O[C@@H]1C(F)(F)F
REMARK SMILES IDX 6 1 5 2 4 3 3 4 1 5 2 6 65 8 66 9 80 10 67 11 79 12 68 13
REMARK SMILES IDX 78 14 69 15 77 16 76 17 81 18 82 19 83 20 84 21 70 22 71 23
REMARK SMILES IDX 72 24 73 25 74 26 75 27 7 28 8 29 9 30 10 32 11 33 12 34
REMARK SMILES IDX 64 35 13 36 63 37 14 38 15 39 16 40 57 41 17 42 62 43 56 44
REMARK SMILES IDX 58 45 18 46 61 47 55 48 54 49 19 51 45 52 28 53 44 54 29 55
REMARK SMILES IDX 32 56 43 57 59 58 30 59 31 60 42 62 60 63 33 64 20 65 21 66
REMARK SMILES IDX 26 67 22 68 23 69 25 70 27 71 24 72 46 73 47 74 52 75 48 76
REMARK SMILES IDX 49 77 51 78 53 79 50 80 34 81 35 82 40 83 36 84 37 85 39 86
REMARK SMILES IDX 41 87 38 88
REMARK H PARENT 3 7 8 31 58 50 32 61
REMARK Flexibility Score: inf
ROOT
ATOM      1  C   UNL A   1      38.811  21.534  25.482  1.00  0.00     0.023 C 
ENDROOT
BRANCH   1   2
ATOM      2  C   UNL A   1      38.745  22.895  26.157  1.00  0.00     0.023 C 
BRANCH   2   3
ATOM      3  C   UNL A   1      37.414  23.554  25.837  1.00  0.00     0.116 C 
BRANCH   3   4
ATOM      4  N   UNL A   1      37.196  23.541  24.384  1.00  0.00    -0.352 N 
ATOM      5  O   UNL A   1      35.826  22.856  22.567  1.00  0.00    -0.270 OA
ATOM      6  C   UNL A   1      36.015  22.868  23.824  1.00  0.00     0.251 C 
ATOM      7  H   UNL A   1      37.841  23.982  23.786  1.00  0.00     0.163 HD
BRANCH   6   8
ATOM      8  C   UNL A   1      35.019  22.186  24.748  1.00  0.00     0.067 C 
ATOM      9  C   UNL A   1      34.048  22.917  25.360  1.00  0.00     0.025 C 
ATOM     10  C   UNL A   1      35.107  20.688  24.987  1.00  0.00     0.314 C 
ATOM     11  C   UNL A   1      33.961  24.415  25.120  1.00  0.00     0.019 A 
ATOM     12  O   UNL A   1      34.554  23.915  22.874  1.00  0.00    -0.475 OA
ATOM     13  C   UNL A   1      33.648  25.307  26.133  1.00  0.00     0.036 A 
ATOM     14  C   UNL A   1      34.078  24.819  23.861  1.00  0.00     0.128 A 
ATOM     15  C   UNL A   1      33.192  26.564  25.672  1.00  0.00     0.107 A 
ATOM     16  C   UNL A   1      33.742  26.103  23.503  1.00  0.00     0.048 A 
ATOM     17  C   UNL A   1      33.367  27.020  24.445  1.00  0.00     0.028 A 
BRANCH  10  18
ATOM     18  C   UNL A   1      33.813  20.026  24.542  1.00  0.00     0.429 C 
ATOM     19  F   UNL A   1      33.281  20.722  23.540  1.00  0.00    -0.167 F 
ATOM     20  F   UNL A   1      34.066  18.786  24.135  1.00  0.00    -0.167 F 
ATOM     21  F   UNL A   1      32.958  19.994  25.561  1.00  0.00    -0.167 F 
ENDBRANCH  10  18
BRANCH  15  22
ATOM     22  S   UNL A   1      32.303  27.619  26.843  1.00  0.00     0.310 S 
ATOM     23  F   UNL A   1      32.077  28.750  25.754  1.00  0.00    -0.094 F 
ATOM     24  F   UNL A   1      33.667  28.325  27.192  1.00  0.00    -0.094 F 
ATOM     25  F   UNL A   1      31.543  28.524  27.853  1.00  0.00    -0.094 F 
ATOM     26  F   UNL A   1      30.928  26.997  26.379  1.00  0.00    -0.094 F 
ATOM     27  F   UNL A   1      33.044  26.772  25.734  1.00  0.00    -0.094 F 
ENDBRANCH  15  22
ENDBRANCH   6   8
ENDBRANCH   3   4
ENDBRANCH   2   3
ENDBRANCH   1   2
BRANCH   1  28
ATOM     28  C   UNL A   1      39.237  20.486  26.497  1.00  0.00     0.116 C 
BRANCH  28  29
ATOM     29  N   UNL A   1      40.178  19.548  25.868  1.00  0.00    -0.352 N 
ATOM     30  C   UNL A   1      41.614  19.864  25.829  1.00  0.00     0.251 C 
ATOM     31  H   UNL A   1      39.847  18.709  25.474  1.00  0.00     0.163 HD
ATOM     32  O   UNL A   1      42.428  19.053  25.285  1.00  0.00    -0.269 OA
BRANCH  30  33
ATOM     33  C   UNL A   1      42.124  21.159  26.437  1.00  0.00     0.039 A 
ATOM     34  C   UNL A   1      42.116  21.243  27.819  1.00  0.00     0.014 A 
ATOM     35  C   UNL A   1      42.442  22.208  25.686  1.00  0.00     0.014 A 
ATOM     36  C   UNL A   1      42.180  22.566  28.315  1.00  0.00     0.010 A 
ATOM     37  C   UNL A   1      42.625  23.446  26.254  1.00  0.00     0.010 A 
ATOM     38  C   UNL A   1      42.573  23.612  27.610  1.00  0.00    -0.014 A 
BRANCH  38  39
ATOM     39  C   UNL A   1      42.945  24.929  28.271  1.00  0.00     0.031 A 
ATOM     40  C   UNL A   1      44.271  25.248  28.568  1.00  0.00     0.074 A 
ATOM     41  C   UNL A   1      41.888  25.812  28.406  1.00  0.00     0.049 A 
ATOM     42  N   UNL A   1      44.752  26.420  28.984  1.00  0.00    -0.248 NA
ATOM     43  C   UNL A   1      45.391  24.301  28.458  1.00  0.00     0.031 C 
ATOM     44  C   UNL A   1      40.548  25.500  28.100  1.00  0.00     0.029 A 
ATOM     45  N   UNL A   1      41.928  27.116  28.846  1.00  0.00    -0.354 N 
ATOM     46  C   UNL A   1      46.076  26.344  29.144  1.00  0.00     0.074 A 
ATOM     47  C   UNL A   1      46.504  24.979  28.813  1.00  0.00     0.031 C 
ATOM     48  C   UNL A   1      39.790  26.597  28.365  1.00  0.00     0.029 A 
ATOM     49  C   UNL A   1      40.642  27.612  28.838  1.00  0.00     0.049 A 
ATOM     50  H   UNL A   1      42.734  27.609  29.120  1.00  0.00     0.167 HD
ATOM     51  C   UNL A   1      46.941  27.362  29.550  1.00  0.00     0.037 A 
ATOM     52  C   UNL A   1      40.217  28.875  29.220  1.00  0.00     0.037 A 
ATOM     53  C   UNL A   1      46.521  28.638  29.890  1.00  0.00     0.049 A 
ATOM     54  C   UNL A   1      41.075  29.875  29.682  1.00  0.00     0.074 A 
ATOM     55  C   UNL A   1      47.381  29.677  30.294  1.00  0.00     0.029 A 
ATOM     56  N   UNL A   1      45.233  29.126  29.905  1.00  0.00    -0.354 N 
ATOM     57  N   UNL A   1      42.403  29.811  29.804  1.00  0.00    -0.248 NA
ATOM     58  C   UNL A   1      40.633  31.205  30.120  1.00  0.00     0.031 C 
ATOM     59  C   UNL A   1      46.622  30.773  30.558  1.00  0.00     0.029 A 
ATOM     60  C   UNL A   1      45.275  30.437  30.324  1.00  0.00     0.049 A 
ATOM     61  H   UNL A   1      44.423  28.624  29.659  1.00  0.00     0.167 HD
ATOM     62  C   UNL A   1      42.879  30.971  30.260  1.00  0.00     0.074 A 
ATOM     63  C   UNL A   1      41.746  31.882  30.478  1.00  0.00     0.031 C 
ATOM     64  C   UNL A   1      44.212  31.309  30.501  1.00  0.00     0.037 A 
BRANCH  51  65
ATOM     65  C   UNL A   1      48.427  27.052  29.623  1.00  0.00     0.057 A 
ATOM     66  C   UNL A   1      49.003  26.551  30.780  1.00  0.00     0.134 A 
ATOM     67  C   UNL A   1      49.165  27.351  28.560  1.00  0.00     0.134 A 
ATOM     68  F   UNL A   1      48.296  26.006  31.764  1.00  0.00    -0.206 F 
ATOM     69  C   UNL A   1      50.413  26.671  30.816  1.00  0.00     0.040 A 
ATOM     70  C   UNL A   1      50.537  27.316  28.628  1.00  0.00     0.040 A 
ATOM     71  F   UNL A   1      48.569  27.687  27.419  1.00  0.00    -0.206 F 
ATOM     72  C   UNL A   1      51.174  26.887  29.759  1.00  0.00     0.006 A 
ENDBRANCH  51  65
BRANCH  52  73
ATOM     73  C   UNL A   1      38.732  29.189  29.131  1.00  0.00     0.057 A 
ATOM     74  C   UNL A   1      38.258  29.627  27.906  1.00  0.00     0.134 A 
ATOM     75  C   UNL A   1      37.915  29.004  30.161  1.00  0.00     0.134 A 
ATOM     76  F   UNL A   1      38.981  29.585  26.791  1.00  0.00    -0.206 F 
ATOM     77  C   UNL A   1      36.933  30.123  27.949  1.00  0.00     0.040 A 
ATOM     78  C   UNL A   1      36.598  29.389  30.086  1.00  0.00     0.040 A 
ATOM     79  F   UNL A   1      38.375  28.443  31.275  1.00  0.00    -0.206 F 
ATOM     80  C   UNL A   1      36.076  29.885  28.925  1.00  0.00     0.006 A 
ENDBRANCH  52  73
BRANCH  64  81
ATOM     81  C   UNL A   1      44.516  32.717  30.986  1.00  0.00     0.057 A 
ATOM     82  C   UNL A   1      44.807  33.679  30.034  1.00  0.00     0.134 A 
ATOM     83  C   UNL A   1      44.657  32.965  32.283  1.00  0.00     0.134 A 
ATOM     84  F   UNL A   1      44.447  33.571  28.758  1.00  0.00    -0.206 F 
ATOM     85  C   UNL A   1      45.523  34.790  30.541  1.00  0.00     0.040 A 
ATOM     86  C   UNL A   1      45.244  34.132  32.711  1.00  0.00     0.040 A 
ATOM     87  F   UNL A   1      44.228  32.077  33.175  1.00  0.00    -0.206 F 
ATOM     88  C   UNL A   1      45.611  35.102  31.821  1.00  0.00     0.006 A 
ENDBRANCH  64  81
ENDBRANCH  38  39
ENDBRANCH  30  33
ENDBRANCH  28  29
ENDBRANCH   1  28
TORSDOF 13
ENDMDL
MODEL 3
REMARK VINA RESULT:     -12.5      3.401      7.132
REMARK SMILES O=C(NCCCCNC(=O)c1ccc(-c2c3nc(c(-c4c(F)cccc4F)c4ccc([nH]4)c(-c4c(F)cccc4F)c4nc(c(-c5c(F)cccc5F)c5ccc2[nH]5)C=C4)C=C3)cc1)C1=Cc2cc(S(F)(F)(F)(F)F)ccc2O[C@@H]1C(F)(F)F
REMARK SMILES IDX 6 1 5 2 4 3 3 4 1 5 2 6 65 8 66 9 80 10 67 11 79 12 68 13
REMARK SMILES IDX 78 14 69 15 77 16 76 17 81 18 82 19 83 20 84 21 70 22 71 23
REMARK SMILES IDX 72 24 73 25 74 26 75 27 7 28 8 29 9 30 10 32 11 33 12 34
REMARK SMILES IDX 64 35 13 36 63 37 14 38 15 39 16 40 57 41 17 42 62 43 56 44
REMARK SMILES IDX 58 45 18 46 61 47 55 48 54 49 19 51 45 52 28 53 44 54 29 55
REMARK SMILES IDX 32 56 43 57 59 58 30 59 31 60 42 62 60 63 33 64 20 65 21 66
REMARK SMILES IDX 26 67 22 68 23 69 25 70 27 71 24 72 46 73 47 74 52 75 48 76
REMARK SMILES IDX 49 77 51 78 53 79 50 80 34 81 35 82 40 83 36 84 37 85 39 86
REMARK SMILES IDX 41 87 38 88
REMARK H PARENT 3 7 8 31 58 50 32 61
REMARK Flexibility Score: inf
ROOT
ATOM      1  C   UNL A   1      39.269  22.376  26.123  1.00  0.00     0.023 C 
ENDROOT
BRANCH   1   2
ATOM      2  C   UNL A   1      38.652  23.737  26.403  1.00  0.00     0.023 C 
BRANCH   2   3
ATOM      3  C   UNL A   1      37.182  23.715  26.017  1.00  0.00     0.116 C 
BRANCH   3   4
ATOM      4  N   UNL A   1      37.059  23.684  24.553  1.00  0.00    -0.352 N 
ATOM      5  O   UNL A   1      35.825  22.953  22.658  1.00  0.00    -0.270 OA
ATOM      6  C   UNL A   1      35.931  22.980  23.925  1.00  0.00     0.251 C 
ATOM      7  H   UNL A   1      37.732  24.133  23.993  1.00  0.00     0.163 HD
BRANCH   6   8
ATOM      8  C   UNL A   1      34.892  22.285  24.789  1.00  0.00     0.067 C 
ATOM      9  C   UNL A   1      33.899  23.009  25.374  1.00  0.00     0.025 C 
ATOM     10  C   UNL A   1      34.962  20.782  25.001  1.00  0.00     0.314 C 
ATOM     11  C   UNL A   1      33.829  24.512  25.161  1.00  0.00     0.019 A 
ATOM     12  O   UNL A   1      34.519  24.055  22.934  1.00  0.00    -0.475 OA
ATOM     13  C   UNL A   1      33.477  25.385  26.178  1.00  0.00     0.036 A 
ATOM     14  C   UNL A   1      34.004  24.942  23.917  1.00  0.00     0.128 A 
ATOM     15  C   UNL A   1      33.047  26.653  25.722  1.00  0.00     0.107 A 
ATOM     16  C   UNL A   1      33.691  26.234  23.571  1.00  0.00     0.048 A 
ATOM     17  C   UNL A   1      33.279  27.134  24.514  1.00  0.00     0.028 A 
BRANCH  10  18
ATOM     18  C   UNL A   1      33.686  20.137  24.486  1.00  0.00     0.429 C 
ATOM     19  F   UNL A   1      32.786  20.092  25.465  1.00  0.00    -0.167 F 
ATOM     20  F   UNL A   1      33.205  20.853  23.473  1.00  0.00    -0.167 F 
ATOM     21  F   UNL A   1      33.951  18.902  24.070  1.00  0.00    -0.167 F 
ENDBRANCH  10  18
BRANCH  15  22
ATOM     22  S   UNL A   1      32.113  27.689  26.875  1.00  0.00     0.310 S 
ATOM     23  F   UNL A   1      31.866  28.806  25.775  1.00  0.00    -0.094 F 
ATOM     24  F   UNL A   1      33.450  28.439  27.236  1.00  0.00    -0.094 F 
ATOM     25  F   UNL A   1      31.314  28.579  27.869  1.00  0.00    -0.094 F 
ATOM     26  F   UNL A   1      30.763  27.024  26.399  1.00  0.00    -0.094 F 
ATOM     27  F   UNL A   1      32.892  26.857  25.781  1.00  0.00    -0.094 F 
ENDBRANCH  15  22
ENDBRANCH   6   8
ENDBRANCH   3   4
ENDBRANCH   2   3
ENDBRANCH   1   2
BRANCH   1  28
ATOM     28  C   UNL A   1      40.637  22.296  26.781  1.00  0.00     0.116 C 
BRANCH  28  29
ATOM     29  N   UNL A   1      41.682  22.385  25.751  1.00  0.00    -0.352 N 
ATOM     30  C   UNL A   1      42.538  23.578  25.674  1.00  0.00     0.251 C 
ATOM     31  H   UNL A   1      41.809  21.646  25.113  1.00  0.00     0.163 HD
ATOM     32  O   UNL A   1      43.442  23.656  24.784  1.00  0.00    -0.269 OA
BRANCH  30  33
ATOM     33  C   UNL A   1      42.341  24.720  26.658  1.00  0.00     0.039 A 
ATOM     34  C   UNL A   1      41.837  24.386  27.904  1.00  0.00     0.014 A 
ATOM     35  C   UNL A   1      42.521  25.987  26.305  1.00  0.00     0.014 A 
ATOM     36  C   UNL A   1      41.278  25.478  28.608  1.00  0.00     0.010 A 
ATOM     37  C   UNL A   1      42.070  27.008  27.107  1.00  0.00     0.010 A 
ATOM     38  C   UNL A   1      41.508  26.748  28.326  1.00  0.00    -0.014 A 
BRANCH  38  39
ATOM     39  C   UNL A   1      41.165  27.860  29.304  1.00  0.00     0.031 A 
ATOM     40  C   UNL A   1      40.099  28.731  29.075  1.00  0.00     0.074 A 
ATOM     41  C   UNL A   1      41.899  27.827  30.477  1.00  0.00     0.049 A 
ATOM     42  N   UNL A   1      39.588  29.629  29.918  1.00  0.00    -0.248 NA
ATOM     43  C   UNL A   1      39.339  28.792  27.817  1.00  0.00     0.031 C 
ATOM     44  C   UNL A   1      42.971  26.944  30.719  1.00  0.00     0.029 A 
ATOM     45  N   UNL A   1      41.739  28.612  31.597  1.00  0.00    -0.354 N 
ATOM     46  C   UNL A   1      38.560  30.263  29.348  1.00  0.00     0.074 A 
ATOM     47  C   UNL A   1      38.390  29.738  27.986  1.00  0.00     0.031 C 
ATOM     48  C   UNL A   1      43.458  27.203  31.961  1.00  0.00     0.029 A 
ATOM     49  C   UNL A   1      42.698  28.250  32.516  1.00  0.00     0.049 A 
ATOM     50  H   UNL A   1      41.058  29.312  31.718  1.00  0.00     0.167 HD
ATOM     51  C   UNL A   1      37.758  31.257  29.911  1.00  0.00     0.037 A 
ATOM     52  C   UNL A   1      42.915  28.791  33.774  1.00  0.00     0.037 A 
ATOM     53  C   UNL A   1      37.946  31.767  31.185  1.00  0.00     0.049 A 
ATOM     54  C   UNL A   1      42.148  29.825  34.316  1.00  0.00     0.074 A 
ATOM     55  C   UNL A   1      37.142  32.764  31.770  1.00  0.00     0.029 A 
ATOM     56  N   UNL A   1      38.920  31.422  32.095  1.00  0.00    -0.354 N 
ATOM     57  N   UNL A   1      41.097  30.432  33.761  1.00  0.00    -0.248 NA
ATOM     58  C   UNL A   1      42.389  30.429  35.633  1.00  0.00     0.031 C 
ATOM     59  C   UNL A   1      37.629  33.022  33.013  1.00  0.00     0.029 A 
ATOM     60  C   UNL A   1      38.747  32.193  33.224  1.00  0.00     0.049 A 
ATOM     61  H   UNL A   1      39.620  30.742  31.963  1.00  0.00     0.167 HD
ATOM     62  C   UNL A   1      40.611  31.359  34.588  1.00  0.00     0.074 A 
ATOM     63  C   UNL A   1      41.440  31.376  35.801  1.00  0.00     0.031 C 
ATOM     64  C   UNL A   1      39.508  32.190  34.382  1.00  0.00     0.037 A 
BRANCH  51  65
ATOM     65  C   UNL A   1      36.610  31.809  29.080  1.00  0.00     0.057 A 
ATOM     66  C   UNL A   1      36.672  33.075  28.518  1.00  0.00     0.134 A 
ATOM     67  C   UNL A   1      35.518  31.062  28.976  1.00  0.00     0.134 A 
ATOM     68  F   UNL A   1      37.808  33.751  28.376  1.00  0.00    -0.206 F 
ATOM     69  C   UNL A   1      35.416  33.581  28.108  1.00  0.00     0.040 A 
ATOM     70  C   UNL A   1      34.364  31.580  28.439  1.00  0.00     0.040 A 
ATOM     71  F   UNL A   1      35.542  29.799  29.392  1.00  0.00    -0.206 F 
ATOM     72  C   UNL A   1      34.336  32.845  27.919  1.00  0.00     0.006 A 
ENDBRANCH  51  65
BRANCH  52  73
ATOM     73  C   UNL A   1      44.051  28.227  34.612  1.00  0.00     0.057 A 
ATOM     74  C   UNL A   1      43.753  27.147  35.425  1.00  0.00     0.134 A 
ATOM     75  C   UNL A   1      45.286  28.709  34.532  1.00  0.00     0.134 A 
ATOM     76  F   UNL A   1      42.607  26.476  35.350  1.00  0.00    -0.206 F 
ATOM     77  C   UNL A   1      44.778  26.822  36.345  1.00  0.00     0.040 A 
ATOM     78  C   UNL A   1      46.272  28.248  35.370  1.00  0.00     0.040 A 
ATOM     79  F   UNL A   1      45.570  29.647  33.632  1.00  0.00    -0.206 F 
ATOM     80  C   UNL A   1      46.032  27.223  36.241  1.00  0.00     0.006 A 
ENDBRANCH  52  73
BRANCH  64  81
ATOM     81  C   UNL A   1      39.119  33.149  35.495  1.00  0.00     0.057 A 
ATOM     82  C   UNL A   1      39.665  34.422  35.472  1.00  0.00     0.134 A 
ATOM     83  C   UNL A   1      38.414  32.720  36.535  1.00  0.00     0.134 A 
ATOM     84  F   UNL A   1      40.154  34.982  34.369  1.00  0.00    -0.206 F 
ATOM     85  C   UNL A   1      39.655  35.073  36.729  1.00  0.00     0.040 A 
ATOM     86  C   UNL A   1      38.336  33.471  37.684  1.00  0.00     0.040 A 
ATOM     87  F   UNL A   1      37.778  31.554  36.466  1.00  0.00    -0.206 F 
ATOM     88  C   UNL A   1      38.903  34.713  37.752  1.00  0.00     0.006 A 
ENDBRANCH  64  81
ENDBRANCH  38  39
ENDBRANCH  30  33
ENDBRANCH  28  29
ENDBRANCH   1  28
TORSDOF 13
ENDMDL
