MODEL 1
REMARK VINA RESULT:     -11.7      0.000      0.000
REMARK SMILES O=C(Cn1cc(NC(=O)N2CC[N@@H+]3CCC[C@@H]3C2)cn1)NCCCCNC(=O)c1ccc(-c2c3nc(c(-c4c(F)cccc4F)c4ccc([nH]4)c(-c4c(F)cccc4F)c4nc(c(-c5c(F)cccc5F)c5ccc2[nH]5)C=C4)C=C3)cc1
REMARK SMILES IDX 23 1 22 2 21 3 1 4 2 5 3 7 4 8 5 9 20 10 6 11 19 12 7 13
REMARK SMILES IDX 8 14 9 16 10 17 11 18 18 19 12 20 17 21 13 22 16 23 14 24
REMARK SMILES IDX 15 26 24 27 25 28 26 29 27 30 28 32 29 33 30 34 82 35 31 36
REMARK SMILES IDX 81 37 32 38 33 39 34 40 75 41 35 42 80 43 74 44 76 45 36 46
REMARK SMILES IDX 79 47 73 48 72 49 37 51 63 52 46 53 62 54 47 55 50 56 61 57
REMARK SMILES IDX 77 58 48 59 49 60 60 62 78 63 51 64 38 65 39 66 44 67 40 68
REMARK SMILES IDX 41 69 43 70 45 71 42 72 64 73 65 74 70 75 66 76 67 77 69 78
REMARK SMILES IDX 71 79 68 80 52 81 53 82 58 83 54 84 55 85 57 86 59 87 56 88
REMARK H PARENT 21 6 7 15 13 25 26 31 76 50 50 61
REMARK Flexibility Score: inf
ROOT
ATOM      1  C   UNL A   1      34.635  33.710  28.090  1.00  0.00     0.023 C 
ENDROOT
BRANCH   1   2
ATOM      2  C   UNL A   1      34.400  35.220  28.156  1.00  0.00     0.116 C 
BRANCH   2   3
ATOM      3  N   UNL A   1      34.357  35.723  29.514  1.00  0.00    -0.354 N 
ATOM      4  O   UNL A   1      32.152  36.381  29.483  1.00  0.00    -0.273 OA
ATOM      5  C   UNL A   1      33.204  36.220  30.098  1.00  0.00     0.241 C 
ATOM      6  H   UNL A   1      35.186  35.713  30.046  1.00  0.00     0.163 HD
BRANCH   5   7
ATOM      7  C   UNL A   1      33.349  36.654  31.544  1.00  0.00     0.244 C 
BRANCH   7   8
ATOM      8  N   UNL A   1      33.676  35.577  32.464  1.00  0.00    -0.261 N 
ATOM      9  C   UNL A   1      34.445  35.699  33.593  1.00  0.00     0.135 A 
ATOM     10  N   UNL A   1      33.382  34.299  32.157  1.00  0.00    -0.179 NA
ATOM     11  C   UNL A   1      34.697  34.420  34.018  1.00  0.00     0.081 A 
ATOM     12  C   UNL A   1      33.928  33.608  33.153  1.00  0.00     0.161 A 
BRANCH  11  13
ATOM     13  N   UNL A   1      35.533  34.083  35.065  1.00  0.00    -0.305 N 
ATOM     14  C   UNL A   1      36.702  33.389  34.931  1.00  0.00     0.322 C 
ATOM     15  H   UNL A   1      35.269  34.365  35.970  1.00  0.00     0.171 HD
ATOM     16  O   UNL A   1      37.137  32.691  35.844  1.00  0.00    -0.248 OA
BRANCH  14  17
ATOM     17  N   UNL A   1      37.326  33.495  33.719  1.00  0.00    -0.313 N 
ATOM     18  C   UNL A   1      38.017  34.718  33.288  1.00  0.00     0.183 C 
ATOM     19  C   UNL A   1      37.543  32.299  32.952  1.00  0.00     0.186 C 
ATOM     20  C   UNL A   1      38.620  34.584  31.890  1.00  0.00     0.284 C 
ATOM     21  C   UNL A   1      38.971  32.200  32.440  1.00  0.00     0.204 C 
ATOM     22  N   UNL A   1      39.498  33.413  31.780  1.00  0.00    -0.330 N 
ATOM     23  C   UNL A   1      38.999  31.074  31.445  1.00  0.00     0.073 C 
ATOM     24  C   UNL A   1      39.768  33.134  30.387  1.00  0.00     0.262 C 
ATOM     25  H   UNL A   1      40.357  33.656  32.275  1.00  0.00     0.348 HD
ATOM     26  C   UNL A   1      39.407  31.706  30.155  1.00  0.00     0.068 C 
ENDBRANCH  14  17
ENDBRANCH  11  13
ENDBRANCH   7   8
ENDBRANCH   5   7
ENDBRANCH   2   3
ENDBRANCH   1   2
BRANCH   1  27
ATOM     27  C   UNL A   1      34.977  33.030  29.425  1.00  0.00     0.023 C 
BRANCH  27  28
ATOM     28  C   UNL A   1      35.836  31.769  29.314  1.00  0.00     0.116 C 
BRANCH  28  29
ATOM     29  N   UNL A   1      35.208  30.736  28.507  1.00  0.00    -0.352 N 
ATOM     30  C   UNL A   1      35.797  29.753  27.738  1.00  0.00     0.251 C 
ATOM     31  H   UNL A   1      34.224  30.738  28.508  1.00  0.00     0.163 HD
ATOM     32  O   UNL A   1      35.161  29.245  26.826  1.00  0.00    -0.269 OA
BRANCH  30  33
ATOM     33  C   UNL A   1      37.188  29.306  27.993  1.00  0.00     0.039 A 
ATOM     34  C   UNL A   1      37.447  28.518  29.122  1.00  0.00     0.014 A 
ATOM     35  C   UNL A   1      38.248  29.719  27.182  1.00  0.00     0.014 A 
ATOM     36  C   UNL A   1      38.751  28.098  29.394  1.00  0.00     0.010 A 
ATOM     37  C   UNL A   1      39.541  29.257  27.420  1.00  0.00     0.010 A 
ATOM     38  C   UNL A   1      39.803  28.440  28.524  1.00  0.00    -0.014 A 
BRANCH  38  39
ATOM     39  C   UNL A   1      41.063  27.659  28.597  1.00  0.00     0.031 A 
ATOM     40  C   UNL A   1      41.736  27.842  29.943  1.00  0.00     0.074 A 
ATOM     41  C   UNL A   1      41.425  26.706  27.689  1.00  0.00     0.049 A 
ATOM     42  N   UNL A   1      42.988  28.004  30.211  1.00  0.00    -0.248 NA
ATOM     43  C   UNL A   1      40.884  27.934  31.159  1.00  0.00     0.031 C 
ATOM     44  C   UNL A   1      40.599  26.243  26.564  1.00  0.00     0.029 A 
ATOM     45  N   UNL A   1      42.486  25.818  27.628  1.00  0.00    -0.354 N 
ATOM     46  C   UNL A   1      43.105  28.002  31.609  1.00  0.00     0.074 A 
ATOM     47  C   UNL A   1      41.777  28.077  32.138  1.00  0.00     0.031 C 
ATOM     48  C   UNL A   1      41.042  25.041  26.125  1.00  0.00     0.029 A 
ATOM     49  C   UNL A   1      42.254  24.666  26.838  1.00  0.00     0.049 A 
ATOM     50  H   UNL A   1      43.336  25.977  28.098  1.00  0.00     0.167 HD
ATOM     51  C   UNL A   1      44.291  27.699  32.203  1.00  0.00     0.037 A 
ATOM     52  C   UNL A   1      42.920  23.463  26.897  1.00  0.00     0.037 A 
ATOM     53  C   UNL A   1      45.364  27.848  31.259  1.00  0.00     0.049 A 
ATOM     54  C   UNL A   1      44.232  23.693  27.569  1.00  0.00     0.074 A 
ATOM     55  C   UNL A   1      46.062  28.909  30.726  1.00  0.00     0.029 A 
ATOM     56  N   UNL A   1      45.573  26.763  30.453  1.00  0.00    -0.354 N 
ATOM     57  N   UNL A   1      45.157  24.453  27.063  1.00  0.00    -0.248 NA
ATOM     58  C   UNL A   1      44.495  23.267  28.949  1.00  0.00     0.031 C 
ATOM     59  C   UNL A   1      46.573  28.463  29.475  1.00  0.00     0.029 A 
ATOM     60  C   UNL A   1      46.215  27.131  29.298  1.00  0.00     0.049 A 
ATOM     61  H   UNL A   1      45.299  25.842  30.671  1.00  0.00     0.167 HD
ATOM     62  C   UNL A   1      45.790  24.984  28.165  1.00  0.00     0.074 A 
ATOM     63  C   UNL A   1      45.489  24.097  29.270  1.00  0.00     0.031 C 
ATOM     64  C   UNL A   1      46.188  26.282  28.141  1.00  0.00     0.037 A 
BRANCH  51  65
ATOM     65  C   UNL A   1      44.477  26.884  33.468  1.00  0.00     0.057 A 
ATOM     66  C   UNL A   1      44.967  27.528  34.624  1.00  0.00     0.134 A 
ATOM     67  C   UNL A   1      44.508  25.476  33.524  1.00  0.00     0.134 A 
ATOM     68  F   UNL A   1      44.973  28.867  34.718  1.00  0.00    -0.206 F 
ATOM     69  C   UNL A   1      45.539  26.833  35.698  1.00  0.00     0.040 A 
ATOM     70  C   UNL A   1      45.046  24.769  34.609  1.00  0.00     0.040 A 
ATOM     71  F   UNL A   1      44.099  24.710  32.507  1.00  0.00    -0.206 F 
ATOM     72  C   UNL A   1      45.597  25.448  35.685  1.00  0.00     0.006 A 
ENDBRANCH  51  65
BRANCH  52  73
ATOM     73  C   UNL A   1      42.461  22.038  26.665  1.00  0.00     0.057 A 
ATOM     74  C   UNL A   1      43.181  21.202  25.778  1.00  0.00     0.134 A 
ATOM     75  C   UNL A   1      41.549  21.352  27.485  1.00  0.00     0.134 A 
ATOM     76  F   UNL A   1      44.048  21.720  24.895  1.00  0.00    -0.206 F 
ATOM     77  C   UNL A   1      43.117  19.800  25.814  1.00  0.00     0.040 A 
ATOM     78  C   UNL A   1      41.458  19.948  27.516  1.00  0.00     0.040 A 
ATOM     79  F   UNL A   1      40.798  21.993  28.389  1.00  0.00    -0.206 F 
ATOM     80  C   UNL A   1      42.274  19.165  26.712  1.00  0.00     0.006 A 
ENDBRANCH  52  73
BRANCH  64  81
ATOM     81  C   UNL A   1      46.455  26.841  26.783  1.00  0.00     0.057 A 
ATOM     82  C   UNL A   1      45.527  27.558  26.015  1.00  0.00     0.134 A 
ATOM     83  C   UNL A   1      47.697  26.586  26.205  1.00  0.00     0.134 A 
ATOM     84  F   UNL A   1      44.341  27.916  26.513  1.00  0.00    -0.206 F 
ATOM     85  C   UNL A   1      45.793  27.935  24.700  1.00  0.00     0.040 A 
ATOM     86  C   UNL A   1      47.996  26.998  24.908  1.00  0.00     0.040 A 
ATOM     87  F   UNL A   1      48.641  25.930  26.897  1.00  0.00    -0.206 F 
ATOM     88  C   UNL A   1      47.034  27.655  24.142  1.00  0.00     0.006 A 
ENDBRANCH  64  81
ENDBRANCH  38  39
ENDBRANCH  30  33
ENDBRANCH  28  29
ENDBRANCH  27  28
ENDBRANCH   1  27
TORSDOF 14
ENDMDL
MODEL 2
REMARK VINA RESULT:     -11.7      3.843      7.018
REMARK SMILES O=C(Cn1cc(NC(=O)N2CC[N@@H+]3CCC[C@@H]3C2)cn1)NCCCCNC(=O)c1ccc(-c2c3nc(c(-c4c(F)cccc4F)c4ccc([nH]4)c(-c4c(F)cccc4F)c4nc(c(-c5c(F)cccc5F)c5ccc2[nH]5)C=C4)C=C3)cc1
REMARK SMILES IDX 23 1 22 2 21 3 1 4 2 5 3 7 4 8 5 9 20 10 6 11 19 12 7 13
REMARK SMILES IDX 8 14 9 16 10 17 11 18 18 19 12 20 17 21 13 22 16 23 14 24
REMARK SMILES IDX 15 26 24 27 25 28 26 29 27 30 28 32 29 33 30 34 82 35 31 36
REMARK SMILES IDX 81 37 32 38 33 39 34 40 75 41 35 42 80 43 74 44 76 45 36 46
REMARK SMILES IDX 79 47 73 48 72 49 37 51 63 52 46 53 62 54 47 55 50 56 61 57
REMARK SMILES IDX 77 58 48 59 49 60 60 62 78 63 51 64 38 65 39 66 44 67 40 68
REMARK SMILES IDX 41 69 43 70 45 71 42 72 64 73 65 74 70 75 66 76 67 77 69 78
REMARK SMILES IDX 71 79 68 80 52 81 53 82 58 83 54 84 55 85 57 86 59 87 56 88
REMARK H PARENT 21 6 7 15 13 25 26 31 76 50 50 61
REMARK Flexibility Score: inf
ROOT
ATOM      1  C   UNL A   1      34.781  29.705  27.204  1.00  0.00     0.023 C 
ENDROOT
BRANCH   1   2
ATOM      2  C   UNL A   1      33.872  28.574  26.720  1.00  0.00     0.116 C 
BRANCH   2   3
ATOM      3  N   UNL A   1      33.733  28.542  25.278  1.00  0.00    -0.354 N 
ATOM      4  O   UNL A   1      31.612  29.429  25.194  1.00  0.00    -0.273 OA
ATOM      5  C   UNL A   1      32.620  29.032  24.615  1.00  0.00     0.241 C 
ATOM      6  H   UNL A   1      34.464  28.153  24.744  1.00  0.00     0.163 HD
BRANCH   5   7
ATOM      7  C   UNL A   1      32.684  28.953  23.102  1.00  0.00     0.244 C 
BRANCH   7   8
ATOM      8  N   UNL A   1      32.570  27.607  22.566  1.00  0.00    -0.261 N 
ATOM      9  C   UNL A   1      31.630  26.679  22.934  1.00  0.00     0.135 A 
ATOM     10  N   UNL A   1      33.531  27.102  21.770  1.00  0.00    -0.179 NA
ATOM     11  C   UNL A   1      32.031  25.493  22.376  1.00  0.00     0.081 A 
ATOM     12  C   UNL A   1      33.150  25.842  21.585  1.00  0.00     0.161 A 
BRANCH  11  13
ATOM     13  N   UNL A   1      31.425  24.270  22.592  1.00  0.00    -0.305 N 
ATOM     14  C   UNL A   1      32.057  23.170  23.098  1.00  0.00     0.322 C 
ATOM     15  H   UNL A   1      30.470  24.187  22.366  1.00  0.00     0.171 HD
ATOM     16  O   UNL A   1      31.684  22.034  22.816  1.00  0.00    -0.248 OA
BRANCH  14  17
ATOM     17  N   UNL A   1      33.138  23.416  23.898  1.00  0.00    -0.313 N 
ATOM     18  C   UNL A   1      33.007  23.780  25.316  1.00  0.00     0.183 C 
ATOM     19  C   UNL A   1      34.444  23.055  23.419  1.00  0.00     0.186 C 
ATOM     20  C   UNL A   1      34.360  24.014  25.985  1.00  0.00     0.284 C 
ATOM     21  C   UNL A   1      35.239  22.281  24.458  1.00  0.00     0.204 C 
ATOM     22  N   UNL A   1      35.263  22.871  25.813  1.00  0.00    -0.330 N 
ATOM     23  C   UNL A   1      36.653  22.203  23.954  1.00  0.00     0.073 C 
ATOM     24  C   UNL A   1      36.615  23.260  26.153  1.00  0.00     0.262 C 
ATOM     25  H   UNL A   1      34.925  22.145  26.446  1.00  0.00     0.348 HD
ATOM     26  C   UNL A   1      37.472  22.904  24.986  1.00  0.00     0.068 C 
ENDBRANCH  14  17
ENDBRANCH  11  13
ENDBRANCH   7   8
ENDBRANCH   5   7
ENDBRANCH   2   3
ENDBRANCH   1   2
BRANCH   1  27
ATOM     27  C   UNL A   1      34.064  30.977  27.683  1.00  0.00     0.023 C 
BRANCH  27  28
ATOM     28  C   UNL A   1      34.977  32.166  27.986  1.00  0.00     0.116 C 
BRANCH  28  29
ATOM     29  N   UNL A   1      35.041  32.473  29.406  1.00  0.00    -0.352 N 
ATOM     30  C   UNL A   1      35.697  31.797  30.415  1.00  0.00     0.251 C 
ATOM     31  H   UNL A   1      34.546  33.275  29.688  1.00  0.00     0.163 HD
ATOM     32  O   UNL A   1      35.324  31.938  31.570  1.00  0.00    -0.269 OA
BRANCH  30  33
ATOM     33  C   UNL A   1      36.839  30.897  30.122  1.00  0.00     0.039 A 
ATOM     34  C   UNL A   1      38.083  31.465  29.815  1.00  0.00     0.014 A 
ATOM     35  C   UNL A   1      36.682  29.509  30.069  1.00  0.00     0.014 A 
ATOM     36  C   UNL A   1      39.171  30.641  29.520  1.00  0.00     0.010 A 
ATOM     37  C   UNL A   1      37.778  28.684  29.828  1.00  0.00     0.010 A 
ATOM     38  C   UNL A   1      39.031  29.241  29.556  1.00  0.00    -0.014 A 
BRANCH  38  39
ATOM     39  C   UNL A   1      40.258  28.410  29.651  1.00  0.00     0.031 A 
ATOM     40  C   UNL A   1      40.733  28.309  31.087  1.00  0.00     0.074 A 
ATOM     41  C   UNL A   1      40.733  27.631  28.636  1.00  0.00     0.049 A 
ATOM     42  N   UNL A   1      41.936  28.366  31.552  1.00  0.00    -0.248 NA
ATOM     43  C   UNL A   1      39.717  28.204  32.169  1.00  0.00     0.031 C 
ATOM     44  C   UNL A   1      40.071  27.422  27.340  1.00  0.00     0.029 A 
ATOM     45  N   UNL A   1      41.780  26.728  28.553  1.00  0.00    -0.354 N 
ATOM     46  C   UNL A   1      41.851  28.096  32.925  1.00  0.00     0.074 A 
ATOM     47  C   UNL A   1      40.462  28.124  33.271  1.00  0.00     0.031 C 
ATOM     48  C   UNL A   1      40.557  26.307  26.744  1.00  0.00     0.029 A 
ATOM     49  C   UNL A   1      41.649  25.756  27.531  1.00  0.00     0.049 A 
ATOM     50  H   UNL A   1      42.557  26.762  29.158  1.00  0.00     0.167 HD
ATOM     51  C   UNL A   1      42.936  27.640  33.609  1.00  0.00     0.037 A 
ATOM     52  C   UNL A   1      42.284  24.538  27.450  1.00  0.00     0.037 A 
ATOM     53  C   UNL A   1      44.135  27.921  32.868  1.00  0.00     0.049 A 
ATOM     54  C   UNL A   1      43.490  24.584  28.328  1.00  0.00     0.074 A 
ATOM     55  C   UNL A   1      44.916  29.034  32.651  1.00  0.00     0.029 A 
ATOM     56  N   UNL A   1      44.443  26.999  31.905  1.00  0.00    -0.354 N 
ATOM     57  N   UNL A   1      44.487  25.388  28.111  1.00  0.00    -0.248 NA
ATOM     58  C   UNL A   1      43.546  23.896  29.624  1.00  0.00     0.031 C 
ATOM     59  C   UNL A   1      45.594  28.811  31.421  1.00  0.00     0.029 A 
ATOM     60  C   UNL A   1      45.248  27.552  30.943  1.00  0.00     0.049 A 
ATOM     61  H   UNL A   1      44.128  26.066  31.903  1.00  0.00     0.167 HD
ATOM     62  C   UNL A   1      44.963  25.676  29.371  1.00  0.00     0.074 A 
ATOM     63  C   UNL A   1      44.495  24.610  30.232  1.00  0.00     0.031 C 
ATOM     64  C   UNL A   1      45.377  26.938  29.651  1.00  0.00     0.037 A 
BRANCH  51  65
ATOM     65  C   UNL A   1      42.927  26.594  34.707  1.00  0.00     0.057 A 
ATOM     66  C   UNL A   1      43.028  25.233  34.348  1.00  0.00     0.134 A 
ATOM     67  C   UNL A   1      42.512  26.821  36.035  1.00  0.00     0.134 A 
ATOM     68  F   UNL A   1      43.436  24.871  33.121  1.00  0.00    -0.206 F 
ATOM     69  C   UNL A   1      42.644  24.190  35.201  1.00  0.00     0.040 A 
ATOM     70  C   UNL A   1      42.159  25.783  36.909  1.00  0.00     0.040 A 
ATOM     71  F   UNL A   1      42.346  28.051  36.533  1.00  0.00    -0.206 F 
ATOM     72  C   UNL A   1      42.190  24.464  36.482  1.00  0.00     0.006 A 
ENDBRANCH  51  65
BRANCH  52  73
ATOM     73  C   UNL A   1      41.845  23.202  26.887  1.00  0.00     0.057 A 
ATOM     74  C   UNL A   1      42.797  22.346  26.282  1.00  0.00     0.134 A 
ATOM     75  C   UNL A   1      40.618  22.581  27.177  1.00  0.00     0.134 A 
ATOM     76  F   UNL A   1      43.994  22.811  25.897  1.00  0.00    -0.206 F 
ATOM     77  C   UNL A   1      42.603  20.964  26.126  1.00  0.00     0.040 A 
ATOM     78  C   UNL A   1      40.403  21.200  27.005  1.00  0.00     0.040 A 
ATOM     79  F   UNL A   1      39.615  23.246  27.762  1.00  0.00    -0.206 F 
ATOM     80  C   UNL A   1      41.411  20.379  26.520  1.00  0.00     0.006 A 
ENDBRANCH  52  73
BRANCH  64  81
ATOM     81  C   UNL A   1      45.842  27.732  28.477  1.00  0.00     0.057 A 
ATOM     82  C   UNL A   1      45.053  28.642  27.760  1.00  0.00     0.134 A 
ATOM     83  C   UNL A   1      47.140  27.515  28.016  1.00  0.00     0.134 A 
ATOM     84  F   UNL A   1      43.826  28.972  28.171  1.00  0.00    -0.206 F 
ATOM     85  C   UNL A   1      45.505  29.250  26.591  1.00  0.00     0.040 A 
ATOM     86  C   UNL A   1      47.624  28.150  26.875  1.00  0.00     0.040 A 
ATOM     87  F   UNL A   1      47.958  26.678  28.672  1.00  0.00    -0.206 F 
ATOM     88  C   UNL A   1      46.797  29.004  26.144  1.00  0.00     0.006 A 
ENDBRANCH  64  81
ENDBRANCH  38  39
ENDBRANCH  30  33
ENDBRANCH  28  29
ENDBRANCH  27  28
ENDBRANCH   1  27
TORSDOF 14
ENDMDL
MODEL 3
REMARK VINA RESULT:     -11.6      4.319      9.233
REMARK SMILES O=C(Cn1cc(NC(=O)N2CC[N@@H+]3CCC[C@@H]3C2)cn1)NCCCCNC(=O)c1ccc(-c2c3nc(c(-c4c(F)cccc4F)c4ccc([nH]4)c(-c4c(F)cccc4F)c4nc(c(-c5c(F)cccc5F)c5ccc2[nH]5)C=C4)C=C3)cc1
REMARK SMILES IDX 23 1 22 2 21 3 1 4 2 5 3 7 4 8 5 9 20 10 6 11 19 12 7 13
REMARK SMILES IDX 8 14 9 16 10 17 11 18 18 19 12 20 17 21 13 22 16 23 14 24
REMARK SMILES IDX 15 26 24 27 25 28 26 29 27 30 28 32 29 33 30 34 82 35 31 36
REMARK SMILES IDX 81 37 32 38 33 39 34 40 75 41 35 42 80 43 74 44 76 45 36 46
REMARK SMILES IDX 79 47 73 48 72 49 37 51 63 52 46 53 62 54 47 55 50 56 61 57
REMARK SMILES IDX 77 58 48 59 49 60 60 62 78 63 51 64 38 65 39 66 44 67 40 68
REMARK SMILES IDX 41 69 43 70 45 71 42 72 64 73 65 74 70 75 66 76 67 77 69 78
REMARK SMILES IDX 71 79 68 80 52 81 53 82 58 83 54 84 55 85 57 86 59 87 56 88
REMARK H PARENT 21 6 7 15 13 25 26 31 76 50 50 61
REMARK Flexibility Score: inf
ROOT
ATOM      1  C   UNL A   1      32.022  29.770  27.161  1.00  0.00     0.023 C 
ENDROOT
BRANCH   1   2
ATOM      2  C   UNL A   1      31.895  30.453  25.798  1.00  0.00     0.116 C 
BRANCH   2   3
ATOM      3  N   UNL A   1      31.358  29.575  24.777  1.00  0.00    -0.354 N 
ATOM      4  O   UNL A   1      33.310  29.330  23.585  1.00  0.00    -0.273 OA
ATOM      5  C   UNL A   1      32.133  29.029  23.768  1.00  0.00     0.241 C 
ATOM      6  H   UNL A   1      30.398  29.358  24.802  1.00  0.00     0.163 HD
BRANCH   5   7
ATOM      7  C   UNL A   1      31.399  28.096  22.824  1.00  0.00     0.244 C 
BRANCH   7   8
ATOM      8  N   UNL A   1      31.215  26.749  23.336  1.00  0.00    -0.261 N 
ATOM      9  C   UNL A   1      31.472  25.591  22.645  1.00  0.00     0.135 A 
ATOM     10  N   UNL A   1      30.584  26.539  24.507  1.00  0.00    -0.179 NA
ATOM     11  C   UNL A   1      30.938  24.577  23.397  1.00  0.00     0.081 A 
ATOM     12  C   UNL A   1      30.499  25.214  24.580  1.00  0.00     0.161 A 
BRANCH  11  13
ATOM     13  N   UNL A   1      30.877  23.252  23.009  1.00  0.00    -0.305 N 
ATOM     14  C   UNL A   1      31.942  22.397  23.002  1.00  0.00     0.322 C 
ATOM     15  H   UNL A   1      30.005  22.900  22.720  1.00  0.00     0.171 HD
ATOM     16  O   UNL A   1      31.994  21.449  22.221  1.00  0.00    -0.248 OA
BRANCH  14  17
ATOM     17  N   UNL A   1      32.947  22.683  23.884  1.00  0.00    -0.313 N 
ATOM     18  C   UNL A   1      32.867  22.345  25.312  1.00  0.00     0.183 C 
ATOM     19  C   UNL A   1      34.224  23.087  23.363  1.00  0.00     0.186 C 
ATOM     20  C   UNL A   1      34.111  22.782  26.084  1.00  0.00     0.284 C 
ATOM     21  C   UNL A   1      35.370  22.323  24.007  1.00  0.00     0.204 C 
ATOM     22  N   UNL A   1      35.343  22.258  25.483  1.00  0.00    -0.330 N 
ATOM     23  C   UNL A   1      36.639  23.013  23.591  1.00  0.00     0.073 C 
ATOM     24  C   UNL A   1      36.488  22.958  26.025  1.00  0.00     0.262 C 
ATOM     25  H   UNL A   1      35.376  21.266  25.725  1.00  0.00     0.348 HD
ATOM     26  C   UNL A   1      37.264  23.478  24.864  1.00  0.00     0.068 C 
ENDBRANCH  14  17
ENDBRANCH  11  13
ENDBRANCH   7   8
ENDBRANCH   5   7
ENDBRANCH   2   3
ENDBRANCH   1   2
BRANCH   1  27
ATOM     27  C   UNL A   1      33.060  28.639  27.244  1.00  0.00     0.023 C 
BRANCH  27  28
ATOM     28  C   UNL A   1      34.521  29.088  27.186  1.00  0.00     0.116 C 
BRANCH  28  29
ATOM     29  N   UNL A   1      34.776  30.266  28.000  1.00  0.00    -0.352 N 
ATOM     30  C   UNL A   1      35.786  30.493  28.911  1.00  0.00     0.251 C 
ATOM     31  H   UNL A   1      34.136  31.005  27.885  1.00  0.00     0.163 HD
ATOM     32  O   UNL A   1      35.627  31.334  29.783  1.00  0.00    -0.269 OA
BRANCH  30  33
ATOM     33  C   UNL A   1      37.058  29.731  28.857  1.00  0.00     0.039 A 
ATOM     34  C   UNL A   1      37.855  29.831  27.708  1.00  0.00     0.014 A 
ATOM     35  C   UNL A   1      37.434  28.862  29.884  1.00  0.00     0.014 A 
ATOM     36  C   UNL A   1      39.048  29.111  27.625  1.00  0.00     0.010 A 
ATOM     37  C   UNL A   1      38.650  28.185  29.827  1.00  0.00     0.010 A 
ATOM     38  C   UNL A   1      39.469  28.306  28.700  1.00  0.00    -0.014 A 
BRANCH  38  39
ATOM     39  C   UNL A   1      40.895  27.897  28.762  1.00  0.00     0.031 A 
ATOM     40  C   UNL A   1      41.097  26.540  28.118  1.00  0.00     0.074 A 
ATOM     41  C   UNL A   1      41.916  28.736  29.105  1.00  0.00     0.049 A 
ATOM     42  N   UNL A   1      41.829  25.553  28.512  1.00  0.00    -0.248 NA
ATOM     43  C   UNL A   1      40.313  26.206  26.898  1.00  0.00     0.031 C 
ATOM     44  C   UNL A   1      41.782  30.175  29.376  1.00  0.00     0.029 A 
ATOM     45  N   UNL A   1      43.292  28.583  29.131  1.00  0.00    -0.354 N 
ATOM     46  C   UNL A   1      41.769  24.578  27.506  1.00  0.00     0.074 A 
ATOM     47  C   UNL A   1      40.734  24.977  26.600  1.00  0.00     0.031 C 
ATOM     48  C   UNL A   1      42.989  30.782  29.272  1.00  0.00     0.029 A 
ATOM     49  C   UNL A   1      44.028  29.790  29.040  1.00  0.00     0.049 A 
ATOM     50  H   UNL A   1      43.725  27.702  29.207  1.00  0.00     0.167 HD
ATOM     51  C   UNL A   1      42.751  23.643  27.390  1.00  0.00     0.037 A 
ATOM     52  C   UNL A   1      45.339  29.943  28.652  1.00  0.00     0.037 A 
ATOM     53  C   UNL A   1      43.491  23.554  28.618  1.00  0.00     0.049 A 
ATOM     54  C   UNL A   1      46.023  28.625  28.802  1.00  0.00     0.074 A 
ATOM     55  C   UNL A   1      43.281  22.977  29.851  1.00  0.00     0.029 A 
ATOM     56  N   UNL A   1      44.488  24.481  28.754  1.00  0.00    -0.354 N 
ATOM     57  N   UNL A   1      46.182  28.043  29.953  1.00  0.00    -0.248 NA
ATOM     58  C   UNL A   1      46.367  27.781  27.651  1.00  0.00     0.031 C 
ATOM     59  C   UNL A   1      44.082  23.706  30.774  1.00  0.00     0.029 A 
ATOM     60  C   UNL A   1      44.793  24.675  30.077  1.00  0.00     0.049 A 
ATOM     61  H   UNL A   1      44.927  24.945  28.005  1.00  0.00     0.167 HD
ATOM     62  C   UNL A   1      46.135  26.699  29.655  1.00  0.00     0.074 A 
ATOM     63  C   UNL A   1      46.440  26.588  28.243  1.00  0.00     0.031 C 
ATOM     64  C   UNL A   1      45.495  25.854  30.503  1.00  0.00     0.037 A 
BRANCH  51  65
ATOM     65  C   UNL A   1      43.329  23.107  26.094  1.00  0.00     0.057 A 
ATOM     66  C   UNL A   1      43.424  21.710  25.920  1.00  0.00     0.134 A 
ATOM     67  C   UNL A   1      44.074  23.865  25.168  1.00  0.00     0.134 A 
ATOM     68  F   UNL A   1      42.747  20.867  26.717  1.00  0.00    -0.206 F 
ATOM     69  C   UNL A   1      44.273  21.116  24.977  1.00  0.00     0.040 A 
ATOM     70  C   UNL A   1      44.899  23.281  24.197  1.00  0.00     0.040 A 
ATOM     71  F   UNL A   1      44.110  25.202  25.201  1.00  0.00    -0.206 F 
ATOM     72  C   UNL A   1      45.029  21.903  24.122  1.00  0.00     0.006 A 
ENDBRANCH  51  65
BRANCH  52  73
ATOM     73  C   UNL A   1      46.052  31.052  27.907  1.00  0.00     0.057 A 
ATOM     74  C   UNL A   1      45.377  31.761  26.883  1.00  0.00     0.134 A 
ATOM     75  C   UNL A   1      47.243  31.663  28.338  1.00  0.00     0.134 A 
ATOM     76  F   UNL A   1      44.256  31.272  26.332  1.00  0.00    -0.206 F 
ATOM     77  C   UNL A   1      45.764  33.037  26.443  1.00  0.00     0.040 A 
ATOM     78  C   UNL A   1      47.654  32.933  27.888  1.00  0.00     0.040 A 
ATOM     79  F   UNL A   1      47.994  31.130  29.307  1.00  0.00    -0.206 F 
ATOM     80  C   UNL A   1      46.892  33.643  26.972  1.00  0.00     0.006 A 
ENDBRANCH  52  73
BRANCH  64  81
ATOM     81  C   UNL A   1      45.424  26.308  31.922  1.00  0.00     0.057 A 
ATOM     82  C   UNL A   1      44.329  26.966  32.499  1.00  0.00     0.134 A 
ATOM     83  C   UNL A   1      46.548  26.119  32.725  1.00  0.00     0.134 A 
ATOM     84  F   UNL A   1      43.182  27.123  31.834  1.00  0.00    -0.206 F 
ATOM     85  C   UNL A   1      44.378  27.485  33.792  1.00  0.00     0.040 A 
ATOM     86  C   UNL A   1      46.596  26.591  34.035  1.00  0.00     0.040 A 
ATOM     87  F   UNL A   1      47.620  25.471  32.244  1.00  0.00    -0.206 F 
ATOM     88  C   UNL A   1      45.517  27.297  34.565  1.00  0.00     0.006 A 
ENDBRANCH  64  81
ENDBRANCH  38  39
ENDBRANCH  30  33
ENDBRANCH  28  29
ENDBRANCH  27  28
ENDBRANCH   1  27
TORSDOF 14
ENDMDL
