MODEL 1
REMARK VINA RESULT:     -10.4      0.000      0.000
REMARK SMILES Cn1cc(C(=O)NCCCCNC(=O)c2ccc(-c3c4nc(c(-c5c(F)cccc5F)c5ccc([nH]5)c(-c5c(F)cccc5F)c5nc(c(-c6c(F)cccc6F)c6ccc3[nH]6)C=C5)C=C4)cc2)c(C(=O)Nc2ccc(-c3nc4cc(Cl)ccc4o3)cc2)n1
REMARK SMILES IDX 9 1 8 2 7 3 5 4 6 5 4 7 1 8 2 9 3 10 89 11 69 12 70 13 71 14
REMARK SMILES IDX 72 15 73 17 74 18 88 19 75 20 87 21 76 22 77 23 78 24 86 25
REMARK SMILES IDX 79 26 85 27 80 28 84 29 81 30 83 31 82 32 10 33 11 34 12 35
REMARK SMILES IDX 13 36 14 38 15 39 16 40 68 41 17 42 67 43 18 44 19 45 20 46
REMARK SMILES IDX 61 47 21 48 66 49 60 50 62 51 22 52 65 53 59 54 58 55 23 57
REMARK SMILES IDX 49 58 32 59 48 60 33 61 36 62 47 63 63 64 34 65 35 66 46 68
REMARK SMILES IDX 64 69 37 70 24 71 25 72 30 73 26 74 27 75 29 76 31 77 28 78
REMARK SMILES IDX 50 79 51 80 56 81 52 82 53 83 55 84 57 85 54 86 38 87 39 88
REMARK SMILES IDX 44 89 40 90 41 91 43 92 45 93 42 94
REMARK H PARENT 7 6 72 16 12 37 62 56 36 67
REMARK Flexibility Score: inf
ROOT
ATOM      1  C   UNL A   1      33.163  34.577  29.210  1.00  0.00     0.023 C 
ENDROOT
BRANCH   1   2
ATOM      2  C   UNL A   1      34.160  34.686  30.360  1.00  0.00     0.116 C 
BRANCH   2   3
ATOM      3  N   UNL A   1      34.496  33.431  31.005  1.00  0.00    -0.352 N 
ATOM      4  C   UNL A   1      35.668  32.898  31.487  1.00  0.00     0.255 C 
ATOM      5  O   UNL A   1      35.541  31.933  32.244  1.00  0.00    -0.269 OA
ATOM      6  H   UNL A   1      33.722  32.834  31.121  1.00  0.00     0.163 HD
BRANCH   4   7
ATOM      7  C   UNL A   1      36.987  33.413  31.140  1.00  0.00     0.090 A 
ATOM      8  C   UNL A   1      39.557  34.953  29.126  1.00  0.00     0.173 C 
ATOM      9  N   UNL A   1      38.725  34.303  30.109  1.00  0.00    -0.274 N 
ATOM     10  C   UNL A   1      37.525  33.694  29.895  1.00  0.00     0.123 A 
ATOM     11  N   UNL A   1      39.080  34.347  31.393  1.00  0.00    -0.167 NA
ATOM     12  C   UNL A   1      38.014  33.858  32.063  1.00  0.00     0.163 A 
BRANCH  12  13
ATOM     13  C   UNL A   1      38.009  33.938  33.543  1.00  0.00     0.276 C 
ATOM     14  O   UNL A   1      37.583  34.939  34.129  1.00  0.00    -0.267 OA
ATOM     15  N   UNL A   1      38.409  32.880  34.334  1.00  0.00    -0.321 N 
ATOM     16  H   UNL A   1      38.137  32.951  35.278  1.00  0.00     0.170 HD
BRANCH  15  17
ATOM     17  C   UNL A   1      39.135  31.727  34.026  1.00  0.00     0.041 A 
ATOM     18  C   UNL A   1      40.503  31.730  34.323  1.00  0.00     0.027 A 
ATOM     19  C   UNL A   1      38.549  30.593  33.476  1.00  0.00     0.027 A 
ATOM     20  C   UNL A   1      41.250  30.554  34.217  1.00  0.00     0.016 A 
ATOM     21  C   UNL A   1      39.304  29.431  33.335  1.00  0.00     0.016 A 
ATOM     22  C   UNL A   1      40.642  29.385  33.755  1.00  0.00     0.037 A 
BRANCH  22  23
ATOM     23  C   UNL A   1      41.300  28.089  33.789  1.00  0.00     0.227 A 
ATOM     24  N   UNL A   1      41.153  27.145  34.699  1.00  0.00    -0.209 NA
ATOM     25  O   UNL A   1      42.388  27.928  32.963  1.00  0.00    -0.436 OA
ATOM     26  C   UNL A   1      42.247  26.351  34.520  1.00  0.00     0.111 A 
ATOM     27  C   UNL A   1      43.007  26.818  33.460  1.00  0.00     0.155 A 
ATOM     28  C   UNL A   1      42.690  25.258  35.264  1.00  0.00     0.053 A 
ATOM     29  C   UNL A   1      44.212  26.263  33.053  1.00  0.00     0.051 A 
ATOM     30  C   UNL A   1      43.916  24.696  34.910  1.00  0.00     0.043 A 
ATOM     31  C   UNL A   1      44.659  25.179  33.824  1.00  0.00     0.024 A 
ATOM     32  Cl  UNL A   1      44.514  23.408  35.881  1.00  0.00    -0.084 Cl
ENDBRANCH  22  23
ENDBRANCH  15  17
ENDBRANCH  12  13
ENDBRANCH   4   7
ENDBRANCH   2   3
ENDBRANCH   1   2
BRANCH   1  33
ATOM     33  C   UNL A   1      33.690  33.940  27.917  1.00  0.00     0.023 C 
BRANCH  33  34
ATOM     34  C   UNL A   1      34.650  32.753  28.047  1.00  0.00     0.116 C 
BRANCH  34  35
ATOM     35  N   UNL A   1      34.040  31.456  27.820  1.00  0.00    -0.352 N 
ATOM     36  C   UNL A   1      34.572  30.189  27.897  1.00  0.00     0.251 C 
ATOM     37  H   UNL A   1      33.088  31.488  27.570  1.00  0.00     0.163 HD
ATOM     38  O   UNL A   1      33.848  29.232  27.626  1.00  0.00    -0.269 OA
BRANCH  36  39
ATOM     39  C   UNL A   1      35.996  29.939  28.252  1.00  0.00     0.039 A 
ATOM     40  C   UNL A   1      36.296  29.625  29.586  1.00  0.00     0.014 A 
ATOM     41  C   UNL A   1      37.042  30.050  27.335  1.00  0.00     0.014 A 
ATOM     42  C   UNL A   1      37.613  29.347  29.979  1.00  0.00     0.010 A 
ATOM     43  C   UNL A   1      38.350  29.722  27.714  1.00  0.00     0.010 A 
ATOM     44  C   UNL A   1      38.650  29.346  29.036  1.00  0.00    -0.014 A 
BRANCH  44  45
ATOM     45  C   UNL A   1      40.032  28.900  29.378  1.00  0.00     0.031 A 
ATOM     46  C   UNL A   1      41.042  29.863  29.937  1.00  0.00     0.074 A 
ATOM     47  C   UNL A   1      40.434  27.652  29.060  1.00  0.00     0.049 A 
ATOM     48  N   UNL A   1      42.326  29.691  30.126  1.00  0.00    -0.248 NA
ATOM     49  C   UNL A   1      40.546  31.191  30.323  1.00  0.00     0.031 C 
ATOM     50  C   UNL A   1      39.581  26.605  28.506  1.00  0.00     0.029 A 
ATOM     51  N   UNL A   1      41.680  27.073  29.098  1.00  0.00    -0.354 N 
ATOM     52  C   UNL A   1      42.794  30.886  30.656  1.00  0.00     0.074 A 
ATOM     53  C   UNL A   1      41.665  31.792  30.707  1.00  0.00     0.031 C 
ATOM     54  C   UNL A   1      40.336  25.548  28.170  1.00  0.00     0.029 A 
ATOM     55  C   UNL A   1      41.724  25.834  28.503  1.00  0.00     0.049 A 
ATOM     56  H   UNL A   1      42.464  27.503  29.510  1.00  0.00     0.167 HD
ATOM     57  C   UNL A   1      44.040  31.191  31.091  1.00  0.00     0.037 A 
ATOM     58  C   UNL A   1      42.759  25.018  28.234  1.00  0.00     0.037 A 
ATOM     59  C   UNL A   1      45.160  30.287  31.090  1.00  0.00     0.049 A 
ATOM     60  C   UNL A   1      44.136  25.384  28.692  1.00  0.00     0.074 A 
ATOM     61  C   UNL A   1      46.425  30.479  31.622  1.00  0.00     0.029 A 
ATOM     62  N   UNL A   1      45.154  29.021  30.529  1.00  0.00    -0.354 N 
ATOM     63  N   UNL A   1      44.541  26.484  29.272  1.00  0.00    -0.248 NA
ATOM     64  C   UNL A   1      45.191  24.379  28.494  1.00  0.00     0.031 C 
ATOM     65  C   UNL A   1      47.191  29.335  31.363  1.00  0.00     0.029 A 
ATOM     66  C   UNL A   1      46.395  28.426  30.686  1.00  0.00     0.049 A 
ATOM     67  H   UNL A   1      44.380  28.606  30.082  1.00  0.00     0.167 HD
ATOM     68  C   UNL A   1      45.883  26.284  29.563  1.00  0.00     0.074 A 
ATOM     69  C   UNL A   1      46.231  24.969  29.068  1.00  0.00     0.031 C 
ATOM     70  C   UNL A   1      46.737  27.113  30.210  1.00  0.00     0.037 A 
BRANCH  57  71
ATOM     71  C   UNL A   1      44.249  32.567  31.642  1.00  0.00     0.057 A 
ATOM     72  C   UNL A   1      44.433  33.670  30.799  1.00  0.00     0.134 A 
ATOM     73  C   UNL A   1      44.239  32.797  33.022  1.00  0.00     0.134 A 
ATOM     74  F   UNL A   1      44.462  33.508  29.467  1.00  0.00    -0.206 F 
ATOM     75  C   UNL A   1      44.621  34.954  31.310  1.00  0.00     0.040 A 
ATOM     76  C   UNL A   1      44.408  34.080  33.546  1.00  0.00     0.040 A 
ATOM     77  F   UNL A   1      44.064  31.782  33.881  1.00  0.00    -0.206 F 
ATOM     78  C   UNL A   1      44.604  35.162  32.689  1.00  0.00     0.006 A 
ENDBRANCH  57  71
BRANCH  58  79
ATOM     79  C   UNL A   1      42.523  23.750  27.507  1.00  0.00     0.057 A 
ATOM     80  C   UNL A   1      42.619  23.687  26.115  1.00  0.00     0.134 A 
ATOM     81  C   UNL A   1      42.204  22.574  28.195  1.00  0.00     0.134 A 
ATOM     82  F   UNL A   1      42.909  24.789  25.409  1.00  0.00    -0.206 F 
ATOM     83  C   UNL A   1      42.393  22.496  25.423  1.00  0.00     0.040 A 
ATOM     84  C   UNL A   1      41.984  21.373  27.517  1.00  0.00     0.040 A 
ATOM     85  F   UNL A   1      42.101  22.578  29.532  1.00  0.00    -0.206 F 
ATOM     86  C   UNL A   1      42.076  21.335  26.126  1.00  0.00     0.006 A 
ENDBRANCH  58  79
BRANCH  70  87
ATOM     87  C   UNL A   1      48.114  26.593  30.479  1.00  0.00     0.057 A 
ATOM     88  C   UNL A   1      48.437  25.940  31.673  1.00  0.00     0.134 A 
ATOM     89  C   UNL A   1      49.125  26.741  29.522  1.00  0.00     0.134 A 
ATOM     90  F   UNL A   1      47.515  25.786  32.635  1.00  0.00    -0.206 F 
ATOM     91  C   UNL A   1      49.726  25.460  31.911  1.00  0.00     0.040 A 
ATOM     92  C   UNL A   1      50.414  26.254  29.743  1.00  0.00     0.040 A 
ATOM     93  F   UNL A   1      48.877  27.363  28.359  1.00  0.00    -0.206 F 
ATOM     94  C   UNL A   1      50.718  25.613  30.943  1.00  0.00     0.006 A 
ENDBRANCH  70  87
ENDBRANCH  44  45
ENDBRANCH  36  39
ENDBRANCH  34  35
ENDBRANCH  33  34
ENDBRANCH   1  33
TORSDOF 14
ENDMDL
MODEL 2
REMARK VINA RESULT:     -10.2      5.340     10.514
REMARK SMILES Cn1cc(C(=O)NCCCCNC(=O)c2ccc(-c3c4nc(c(-c5c(F)cccc5F)c5ccc([nH]5)c(-c5c(F)cccc5F)c5nc(c(-c6c(F)cccc6F)c6ccc3[nH]6)C=C5)C=C4)cc2)c(C(=O)Nc2ccc(-c3nc4cc(Cl)ccc4o3)cc2)n1
REMARK SMILES IDX 9 1 8 2 7 3 5 4 6 5 4 7 1 8 2 9 3 10 89 11 69 12 70 13 71 14
REMARK SMILES IDX 72 15 73 17 74 18 88 19 75 20 87 21 76 22 77 23 78 24 86 25
REMARK SMILES IDX 79 26 85 27 80 28 84 29 81 30 83 31 82 32 10 33 11 34 12 35
REMARK SMILES IDX 13 36 14 38 15 39 16 40 68 41 17 42 67 43 18 44 19 45 20 46
REMARK SMILES IDX 61 47 21 48 66 49 60 50 62 51 22 52 65 53 59 54 58 55 23 57
REMARK SMILES IDX 49 58 32 59 48 60 33 61 36 62 47 63 63 64 34 65 35 66 46 68
REMARK SMILES IDX 64 69 37 70 24 71 25 72 30 73 26 74 27 75 29 76 31 77 28 78
REMARK SMILES IDX 50 79 51 80 56 81 52 82 53 83 55 84 57 85 54 86 38 87 39 88
REMARK SMILES IDX 44 89 40 90 41 91 43 92 45 93 42 94
REMARK H PARENT 7 6 72 16 12 37 62 56 36 67
REMARK Flexibility Score: inf
ROOT
ATOM      1  C   UNL A   1      31.667  30.400  26.221  1.00  0.00     0.023 C 
ENDROOT
BRANCH   1   2
ATOM      2  C   UNL A   1      32.272  29.438  27.239  1.00  0.00     0.116 C 
BRANCH   2   3
ATOM      3  N   UNL A   1      31.625  28.142  27.322  1.00  0.00    -0.352 N 
ATOM      4  C   UNL A   1      31.229  27.221  26.381  1.00  0.00     0.255 C 
ATOM      5  O   UNL A   1      30.980  26.093  26.814  1.00  0.00    -0.269 OA
ATOM      6  H   UNL A   1      31.426  27.864  28.244  1.00  0.00     0.163 HD
BRANCH   4   7
ATOM      7  C   UNL A   1      31.094  27.528  24.962  1.00  0.00     0.090 A 
ATOM      8  C   UNL A   1      29.649  28.912  21.957  1.00  0.00     0.173 C 
ATOM      9  N   UNL A   1      30.407  28.252  22.993  1.00  0.00    -0.274 N 
ATOM     10  C   UNL A   1      29.982  27.944  24.250  1.00  0.00     0.123 A 
ATOM     11  N   UNL A   1      31.691  27.966  22.778  1.00  0.00    -0.167 NA
ATOM     12  C   UNL A   1      32.162  27.569  23.980  1.00  0.00     0.163 A 
BRANCH  12  13
ATOM     13  C   UNL A   1      33.620  27.348  24.133  1.00  0.00     0.276 C 
ATOM     14  O   UNL A   1      34.425  28.275  23.999  1.00  0.00    -0.267 OA
ATOM     15  N   UNL A   1      34.139  26.123  24.499  1.00  0.00    -0.321 N 
ATOM     16  H   UNL A   1      35.075  26.152  24.805  1.00  0.00     0.170 HD
BRANCH  15  17
ATOM     17  C   UNL A   1      33.567  24.849  24.508  1.00  0.00     0.041 A 
ATOM     18  C   UNL A   1      33.268  24.270  23.269  1.00  0.00     0.027 A 
ATOM     19  C   UNL A   1      33.319  24.143  25.680  1.00  0.00     0.027 A 
ATOM     20  C   UNL A   1      32.871  22.932  23.194  1.00  0.00     0.016 A 
ATOM     21  C   UNL A   1      32.887  22.821  25.605  1.00  0.00     0.016 A 
ATOM     22  C   UNL A   1      32.713  22.188  24.365  1.00  0.00     0.037 A 
BRANCH  22  23
ATOM     23  C   UNL A   1      32.481  20.752  24.361  1.00  0.00     0.227 A 
ATOM     24  N   UNL A   1      32.254  19.979  25.405  1.00  0.00    -0.209 NA
ATOM     25  O   UNL A   1      32.804  20.080  23.205  1.00  0.00    -0.436 OA
ATOM     26  C   UNL A   1      32.516  18.725  24.941  1.00  0.00     0.111 A 
ATOM     27  C   UNL A   1      32.850  18.773  23.598  1.00  0.00     0.155 A 
ATOM     28  C   UNL A   1      32.554  17.509  25.623  1.00  0.00     0.053 A 
ATOM     29  C   UNL A   1      33.222  17.671  22.841  1.00  0.00     0.051 A 
ATOM     30  C   UNL A   1      32.961  16.384  24.906  1.00  0.00     0.043 A 
ATOM     31  C   UNL A   1      33.280  16.458  23.542  1.00  0.00     0.024 A 
ATOM     32  Cl  UNL A   1      33.101  14.899  25.762  1.00  0.00    -0.084 Cl
ENDBRANCH  22  23
ENDBRANCH  15  17
ENDBRANCH  12  13
ENDBRANCH   4   7
ENDBRANCH   2   3
ENDBRANCH   1   2
BRANCH   1  33
ATOM     33  C   UNL A   1      31.454  31.843  26.699  1.00  0.00     0.023 C 
BRANCH  33  34
ATOM     34  C   UNL A   1      32.691  32.648  27.107  1.00  0.00     0.116 C 
BRANCH  34  35
ATOM     35  N   UNL A   1      32.405  33.971  27.632  1.00  0.00    -0.352 N 
ATOM     36  C   UNL A   1      33.082  34.735  28.555  1.00  0.00     0.251 C 
ATOM     37  H   UNL A   1      31.592  34.390  27.268  1.00  0.00     0.163 HD
ATOM     38  O   UNL A   1      32.615  35.831  28.863  1.00  0.00    -0.269 OA
BRANCH  36  39
ATOM     39  C   UNL A   1      34.327  34.268  29.223  1.00  0.00     0.039 A 
ATOM     40  C   UNL A   1      34.201  33.523  30.405  1.00  0.00     0.014 A 
ATOM     41  C   UNL A   1      35.605  34.576  28.755  1.00  0.00     0.014 A 
ATOM     42  C   UNL A   1      35.333  33.026  31.065  1.00  0.00     0.010 A 
ATOM     43  C   UNL A   1      36.735  34.037  29.385  1.00  0.00     0.010 A 
ATOM     44  C   UNL A   1      36.613  33.238  30.536  1.00  0.00    -0.014 A 
BRANCH  44  45
ATOM     45  C   UNL A   1      37.828  32.593  31.115  1.00  0.00     0.031 A 
ATOM     46  C   UNL A   1      38.456  31.395  30.460  1.00  0.00     0.074 A 
ATOM     47  C   UNL A   1      38.297  32.997  32.314  1.00  0.00     0.049 A 
ATOM     48  N   UNL A   1      39.401  30.610  30.914  1.00  0.00    -0.248 NA
ATOM     49  C   UNL A   1      37.953  31.028  29.130  1.00  0.00     0.031 C 
ATOM     50  C   UNL A   1      37.794  34.133  33.080  1.00  0.00     0.029 A 
ATOM     51  N   UNL A   1      39.262  32.454  33.129  1.00  0.00    -0.354 N 
ATOM     52  C   UNL A   1      39.608  29.657  29.927  1.00  0.00     0.074 A 
ATOM     53  C   UNL A   1      38.653  29.932  28.872  1.00  0.00     0.031 C 
ATOM     54  C   UNL A   1      38.382  34.154  34.285  1.00  0.00     0.029 A 
ATOM     55  C   UNL A   1      39.319  33.043  34.371  1.00  0.00     0.049 A 
ATOM     56  H   UNL A   1      39.853  31.718  32.852  1.00  0.00     0.167 HD
ATOM     57  C   UNL A   1      40.531  28.666  29.884  1.00  0.00     0.037 A 
ATOM     58  C   UNL A   1      40.029  32.723  35.469  1.00  0.00     0.037 A 
ATOM     59  C   UNL A   1      41.517  28.410  30.901  1.00  0.00     0.049 A 
ATOM     60  C   UNL A   1      41.021  31.604  35.416  1.00  0.00     0.074 A 
ATOM     61  C   UNL A   1      42.561  27.501  30.881  1.00  0.00     0.029 A 
ATOM     62  N   UNL A   1      41.579  29.060  32.122  1.00  0.00    -0.354 N 
ATOM     63  N   UNL A   1      41.264  30.769  34.439  1.00  0.00    -0.248 NA
ATOM     64  C   UNL A   1      41.864  31.407  36.605  1.00  0.00     0.031 C 
ATOM     65  C   UNL A   1      43.245  27.588  32.101  1.00  0.00     0.029 A 
ATOM     66  C   UNL A   1      42.634  28.564  32.870  1.00  0.00     0.049 A 
ATOM     67  H   UNL A   1      40.964  29.771  32.415  1.00  0.00     0.167 HD
ATOM     68  C   UNL A   1      42.326  29.987  34.868  1.00  0.00     0.074 A 
ATOM     69  C   UNL A   1      42.660  30.425  36.207  1.00  0.00     0.031 C 
ATOM     70  C   UNL A   1      42.978  29.010  34.193  1.00  0.00     0.037 A 
BRANCH  57  71
ATOM     71  C   UNL A   1      40.536  27.795  28.666  1.00  0.00     0.057 A 
ATOM     72  C   UNL A   1      41.287  28.130  27.533  1.00  0.00     0.134 A 
ATOM     73  C   UNL A   1      39.809  26.600  28.636  1.00  0.00     0.134 A 
ATOM     74  F   UNL A   1      41.995  29.269  27.501  1.00  0.00    -0.206 F 
ATOM     75  C   UNL A   1      41.298  27.316  26.400  1.00  0.00     0.040 A 
ATOM     76  C   UNL A   1      39.825  25.768  27.515  1.00  0.00     0.040 A 
ATOM     77  F   UNL A   1      39.073  26.222  29.692  1.00  0.00    -0.206 F 
ATOM     78  C   UNL A   1      40.569  26.128  26.391  1.00  0.00     0.006 A 
ENDBRANCH  57  71
BRANCH  58  79
ATOM     79  C   UNL A   1      39.840  33.501  36.714  1.00  0.00     0.057 A 
ATOM     80  C   UNL A   1      40.590  34.653  36.967  1.00  0.00     0.134 A 
ATOM     81  C   UNL A   1      38.900  33.109  37.674  1.00  0.00     0.134 A 
ATOM     82  F   UNL A   1      41.512  35.063  36.086  1.00  0.00    -0.206 F 
ATOM     83  C   UNL A   1      40.420  35.388  38.141  1.00  0.00     0.040 A 
ATOM     84  C   UNL A   1      38.713  33.839  38.849  1.00  0.00     0.040 A 
ATOM     85  F   UNL A   1      38.152  32.012  37.481  1.00  0.00    -0.206 F 
ATOM     86  C   UNL A   1      39.478  34.981  39.085  1.00  0.00     0.006 A 
ENDBRANCH  58  79
BRANCH  70  87
ATOM     87  C   UNL A   1      44.164  28.396  34.867  1.00  0.00     0.057 A 
ATOM     88  C   UNL A   1      45.448  28.935  34.739  1.00  0.00     0.134 A 
ATOM     89  C   UNL A   1      44.012  27.255  35.663  1.00  0.00     0.134 A 
ATOM     90  F   UNL A   1      45.659  30.017  33.974  1.00  0.00    -0.206 F 
ATOM     91  C   UNL A   1      46.547  28.352  35.374  1.00  0.00     0.040 A 
ATOM     92  C   UNL A   1      45.101  26.670  36.313  1.00  0.00     0.040 A 
ATOM     93  F   UNL A   1      42.806  26.689  35.820  1.00  0.00    -0.206 F 
ATOM     94  C   UNL A   1      46.373  27.218  36.167  1.00  0.00     0.006 A 
ENDBRANCH  70  87
ENDBRANCH  44  45
ENDBRANCH  36  39
ENDBRANCH  34  35
ENDBRANCH  33  34
ENDBRANCH   1  33
TORSDOF 14
ENDMDL
MODEL 3
REMARK VINA RESULT:     -10.0      5.042      9.196
REMARK SMILES Cn1cc(C(=O)NCCCCNC(=O)c2ccc(-c3c4nc(c(-c5c(F)cccc5F)c5ccc([nH]5)c(-c5c(F)cccc5F)c5nc(c(-c6c(F)cccc6F)c6ccc3[nH]6)C=C5)C=C4)cc2)c(C(=O)Nc2ccc(-c3nc4cc(Cl)ccc4o3)cc2)n1
REMARK SMILES IDX 9 1 8 2 7 3 5 4 6 5 4 7 1 8 2 9 3 10 89 11 69 12 70 13 71 14
REMARK SMILES IDX 72 15 73 17 74 18 88 19 75 20 87 21 76 22 77 23 78 24 86 25
REMARK SMILES IDX 79 26 85 27 80 28 84 29 81 30 83 31 82 32 10 33 11 34 12 35
REMARK SMILES IDX 13 36 14 38 15 39 16 40 68 41 17 42 67 43 18 44 19 45 20 46
REMARK SMILES IDX 61 47 21 48 66 49 60 50 62 51 22 52 65 53 59 54 58 55 23 57
REMARK SMILES IDX 49 58 32 59 48 60 33 61 36 62 47 63 63 64 34 65 35 66 46 68
REMARK SMILES IDX 64 69 37 70 24 71 25 72 30 73 26 74 27 75 29 76 31 77 28 78
REMARK SMILES IDX 50 79 51 80 56 81 52 82 53 83 55 84 57 85 54 86 38 87 39 88
REMARK SMILES IDX 44 89 40 90 41 91 43 92 45 93 42 94
REMARK H PARENT 7 6 72 16 12 37 62 56 36 67
REMARK Flexibility Score: inf
ROOT
ATOM      1  C   UNL A   1      31.951  26.954  26.378  1.00  0.00     0.023 C 
ENDROOT
BRANCH   1   2
ATOM      2  C   UNL A   1      33.024  25.870  26.345  1.00  0.00     0.116 C 
BRANCH   2   3
ATOM      3  N   UNL A   1      32.590  24.560  26.793  1.00  0.00    -0.352 N 
ATOM      4  C   UNL A   1      33.182  23.319  26.805  1.00  0.00     0.255 C 
ATOM      5  O   UNL A   1      32.645  22.481  27.532  1.00  0.00    -0.269 OA
ATOM      6  H   UNL A   1      31.680  24.559  27.167  1.00  0.00     0.163 HD
BRANCH   4   7
ATOM      7  C   UNL A   1      34.361  22.984  26.015  1.00  0.00     0.090 A 
ATOM      8  C   UNL A   1      37.860  22.546  25.241  1.00  0.00     0.173 C 
ATOM      9  N   UNL A   1      36.421  22.650  25.297  1.00  0.00    -0.274 N 
ATOM     10  C   UNL A   1      35.684  23.345  26.208  1.00  0.00     0.123 A 
ATOM     11  N   UNL A   1      35.684  21.945  24.439  1.00  0.00    -0.167 NA
ATOM     12  C   UNL A   1      34.416  22.082  24.880  1.00  0.00     0.163 A 
BRANCH  12  13
ATOM     13  C   UNL A   1      33.353  21.265  24.247  1.00  0.00     0.276 C 
ATOM     14  O   UNL A   1      33.502  20.053  24.063  1.00  0.00    -0.267 OA
ATOM     15  N   UNL A   1      32.129  21.799  23.902  1.00  0.00    -0.321 N 
ATOM     16  H   UNL A   1      31.428  21.130  23.722  1.00  0.00     0.170 HD
BRANCH  15  17
ATOM     17  C   UNL A   1      31.712  23.125  23.760  1.00  0.00     0.041 A 
ATOM     18  C   UNL A   1      32.412  23.925  22.848  1.00  0.00     0.027 A 
ATOM     19  C   UNL A   1      30.632  23.653  24.458  1.00  0.00     0.027 A 
ATOM     20  C   UNL A   1      31.937  25.198  22.519  1.00  0.00     0.016 A 
ATOM     21  C   UNL A   1      30.182  24.937  24.156  1.00  0.00     0.016 A 
ATOM     22  C   UNL A   1      30.795  25.697  23.147  1.00  0.00     0.037 A 
BRANCH  22  23
ATOM     23  C   UNL A   1      30.140  26.927  22.730  1.00  0.00     0.227 A 
ATOM     24  N   UNL A   1      30.715  28.007  22.239  1.00  0.00    -0.209 NA
ATOM     25  O   UNL A   1      28.839  27.101  23.141  1.00  0.00    -0.436 OA
ATOM     26  C   UNL A   1      29.771  28.977  22.402  1.00  0.00     0.111 A 
ATOM     27  C   UNL A   1      28.620  28.435  22.949  1.00  0.00     0.155 A 
ATOM     28  C   UNL A   1      29.850  30.349  22.169  1.00  0.00     0.053 A 
ATOM     29  C   UNL A   1      27.491  29.168  23.287  1.00  0.00     0.051 A 
ATOM     30  C   UNL A   1      28.750  31.126  22.531  1.00  0.00     0.043 A 
ATOM     31  C   UNL A   1      27.590  30.550  23.071  1.00  0.00     0.024 A 
ATOM     32  Cl  UNL A   1      28.874  32.830  22.334  1.00  0.00    -0.084 Cl
ENDBRANCH  22  23
ENDBRANCH  15  17
ENDBRANCH  12  13
ENDBRANCH   4   7
ENDBRANCH   2   3
ENDBRANCH   1   2
BRANCH   1  33
ATOM     33  C   UNL A   1      32.223  28.146  27.306  1.00  0.00     0.023 C 
BRANCH  33  34
ATOM     34  C   UNL A   1      33.622  28.769  27.274  1.00  0.00     0.116 C 
BRANCH  34  35
ATOM     35  N   UNL A   1      33.683  30.140  27.745  1.00  0.00    -0.352 N 
ATOM     36  C   UNL A   1      34.713  30.843  28.328  1.00  0.00     0.251 C 
ATOM     37  H   UNL A   1      32.849  30.652  27.631  1.00  0.00     0.163 HD
ATOM     38  O   UNL A   1      34.507  32.005  28.674  1.00  0.00    -0.269 OA
BRANCH  36  39
ATOM     39  C   UNL A   1      36.047  30.237  28.591  1.00  0.00     0.039 A 
ATOM     40  C   UNL A   1      36.972  30.198  27.537  1.00  0.00     0.014 A 
ATOM     41  C   UNL A   1      36.398  29.669  29.817  1.00  0.00     0.014 A 
ATOM     42  C   UNL A   1      38.256  29.670  27.730  1.00  0.00     0.010 A 
ATOM     43  C   UNL A   1      37.698  29.189  30.024  1.00  0.00     0.010 A 
ATOM     44  C   UNL A   1      38.650  29.201  28.990  1.00  0.00    -0.014 A 
BRANCH  44  45
ATOM     45  C   UNL A   1      40.054  28.783  29.277  1.00  0.00     0.031 A 
ATOM     46  C   UNL A   1      41.079  29.778  29.745  1.00  0.00     0.074 A 
ATOM     47  C   UNL A   1      40.454  27.528  28.988  1.00  0.00     0.049 A 
ATOM     48  N   UNL A   1      42.373  29.627  29.875  1.00  0.00    -0.248 NA
ATOM     49  C   UNL A   1      40.587  31.115  30.104  1.00  0.00     0.031 C 
ATOM     50  C   UNL A   1      39.587  26.451  28.520  1.00  0.00     0.029 A 
ATOM     51  N   UNL A   1      41.708  26.964  28.984  1.00  0.00    -0.354 N 
ATOM     52  C   UNL A   1      42.853  30.846  30.332  1.00  0.00     0.074 A 
ATOM     53  C   UNL A   1      41.716  31.742  30.406  1.00  0.00     0.031 C 
ATOM     54  C   UNL A   1      40.336  25.389  28.187  1.00  0.00     0.029 A 
ATOM     55  C   UNL A   1      41.736  25.702  28.437  1.00  0.00     0.049 A 
ATOM     56  H   UNL A   1      42.507  27.418  29.338  1.00  0.00     0.167 HD
ATOM     57  C   UNL A   1      44.116  31.182  30.690  1.00  0.00     0.037 A 
ATOM     58  C   UNL A   1      42.766  24.887  28.147  1.00  0.00     0.037 A 
ATOM     59  C   UNL A   1      45.245  30.290  30.668  1.00  0.00     0.049 A 
ATOM     60  C   UNL A   1      44.160  25.286  28.519  1.00  0.00     0.074 A 
ATOM     61  C   UNL A   1      46.532  30.516  31.125  1.00  0.00     0.029 A 
ATOM     62  N   UNL A   1      45.226  29.003  30.157  1.00  0.00    -0.354 N 
ATOM     63  N   UNL A   1      44.581  26.412  29.034  1.00  0.00    -0.248 NA
ATOM     64  C   UNL A   1      45.216  24.284  28.306  1.00  0.00     0.031 C 
ATOM     65  C   UNL A   1      47.298  29.370  30.872  1.00  0.00     0.029 A 
ATOM     66  C   UNL A   1      46.480  28.427  30.274  1.00  0.00     0.049 A 
ATOM     67  H   UNL A   1      44.436  28.562  29.767  1.00  0.00     0.167 HD
ATOM     68  C   UNL A   1      45.938  26.237  29.263  1.00  0.00     0.074 A 
ATOM     69  C   UNL A   1      46.276  24.906  28.802  1.00  0.00     0.031 C 
ATOM     70  C   UNL A   1      46.814  27.099  29.832  1.00  0.00     0.037 A 
BRANCH  57  71
ATOM     71  C   UNL A   1      44.335  32.581  31.175  1.00  0.00     0.057 A 
ATOM     72  C   UNL A   1      44.210  32.911  32.530  1.00  0.00     0.134 A 
ATOM     73  C   UNL A   1      44.702  33.599  30.288  1.00  0.00     0.134 A 
ATOM     74  F   UNL A   1      43.850  31.978  33.425  1.00  0.00    -0.206 F 
ATOM     75  C   UNL A   1      44.421  34.212  32.985  1.00  0.00     0.040 A 
ATOM     76  C   UNL A   1      44.933  34.902  30.733  1.00  0.00     0.040 A 
ATOM     77  F   UNL A   1      44.841  33.344  28.979  1.00  0.00    -0.206 F 
ATOM     78  C   UNL A   1      44.788  35.212  32.085  1.00  0.00     0.006 A 
ENDBRANCH  57  71
BRANCH  58  79
ATOM     79  C   UNL A   1      42.509  23.589  27.484  1.00  0.00     0.057 A 
ATOM     80  C   UNL A   1      42.539  23.471  26.092  1.00  0.00     0.134 A 
ATOM     81  C   UNL A   1      42.235  22.438  28.232  1.00  0.00     0.134 A 
ATOM     82  F   UNL A   1      42.783  24.546  25.329  1.00  0.00    -0.206 F 
ATOM     83  C   UNL A   1      42.293  22.251  25.460  1.00  0.00     0.040 A 
ATOM     84  C   UNL A   1      41.996  21.210  27.615  1.00  0.00     0.040 A 
ATOM     85  F   UNL A   1      42.197  22.496  29.572  1.00  0.00    -0.206 F 
ATOM     86  C   UNL A   1      42.021  21.116  26.223  1.00  0.00     0.006 A 
ENDBRANCH  58  79
BRANCH  70  87
ATOM     87  C   UNL A   1      48.209  26.605  30.050  1.00  0.00     0.057 A 
ATOM     88  C   UNL A   1      49.232  26.850  29.128  1.00  0.00     0.134 A 
ATOM     89  C   UNL A   1      48.531  25.884  31.205  1.00  0.00     0.134 A 
ATOM     90  F   UNL A   1      48.979  27.519  27.992  1.00  0.00    -0.206 F 
ATOM     91  C   UNL A   1      50.530  26.383  29.343  1.00  0.00     0.040 A 
ATOM     92  C   UNL A   1      49.828  25.423  31.439  1.00  0.00     0.040 A 
ATOM     93  F   UNL A   1      47.591  25.614  32.124  1.00  0.00    -0.206 F 
ATOM     94  C   UNL A   1      50.831  25.671  30.504  1.00  0.00     0.006 A 
ENDBRANCH  70  87
ENDBRANCH  44  45
ENDBRANCH  36  39
ENDBRANCH  34  35
ENDBRANCH  33  34
ENDBRANCH   1  33
TORSDOF 14
ENDMDL
