MODEL 1
REMARK VINA RESULT:     -10.2      0.000      0.000
REMARK SMILES CCN(CCC(=O)NCCCCNC(=O)c1ccc(-c2c3nc(c(-c4c(F)cccc4F)c4ccc([nH]4)c(-c4c(F)cccc4F)c4nc(c(-c5c(F)cccc5F)c5ccc2[nH]5)C=C4)C=C3)cc1)C(=O)N1C[C@H](C(=O)OC)[C@@H](C)C1
REMARK SMILES IDX 6 1 7 2 8 3 5 5 4 6 3 7 2 8 1 9 70 10 71 11 72 12 73 13
REMARK SMILES IDX 81 14 74 15 79 16 80 17 75 18 76 19 77 20 78 21 9 22 10 23
REMARK SMILES IDX 11 24 12 25 13 26 14 27 15 29 16 30 17 31 69 32 18 33 68 34
REMARK SMILES IDX 19 35 20 36 21 37 62 38 22 39 67 40 61 41 63 42 23 43 66 44
REMARK SMILES IDX 60 45 59 46 24 48 50 49 33 50 49 51 34 52 37 53 48 54 64 55
REMARK SMILES IDX 35 56 36 57 47 59 65 60 38 61 25 62 26 63 31 64 27 65 28 66
REMARK SMILES IDX 30 67 32 68 29 69 51 70 52 71 57 72 53 73 54 74 56 75 58 76
REMARK SMILES IDX 55 77 39 78 40 79 45 80 41 81 42 82 44 83 46 84 43 85
REMARK H PARENT 8 4 13 28 63 47 37 58
REMARK Flexibility Score: inf
ROOT
ATOM      1  C   UNL A   1      30.599  29.060  24.078  1.00  0.00     0.221 C 
ATOM      2  O   UNL A   1      29.791  29.397  23.208  1.00  0.00    -0.275 OA
ATOM      3  N   UNL A   1      31.442  30.011  24.577  1.00  0.00    -0.356 N 
ATOM      4  H   UNL A   1      31.448  30.865  24.086  1.00  0.00     0.163 HD
ENDROOT
BRANCH   1   5
ATOM      5  C   UNL A   1      30.652  27.629  24.555  1.00  0.00     0.121 C 
BRANCH   5   6
ATOM      6  C   UNL A   1      31.293  26.631  23.586  1.00  0.00     0.131 C 
BRANCH   6   7
ATOM      7  N   UNL A   1      32.759  26.560  23.587  1.00  0.00    -0.324 N 
BRANCH   7   8
ATOM      8  C   UNL A   1      33.349  27.238  22.400  1.00  0.00     0.118 C 
ATOM      9  C   UNL A   1      34.064  28.578  22.505  1.00  0.00     0.027 C 
ENDBRANCH   7   8
BRANCH   7  10
ATOM     10  C   UNL A   1      33.574  25.924  24.519  1.00  0.00     0.320 C 
ATOM     11  O   UNL A   1      33.970  26.531  25.521  1.00  0.00    -0.248 OA
BRANCH  10  12
ATOM     12  N   UNL A   1      34.082  24.657  24.314  1.00  0.00    -0.323 N 
ATOM     13  C   UNL A   1      33.637  23.493  23.557  1.00  0.00     0.137 C 
ATOM     14  C   UNL A   1      35.357  24.325  24.971  1.00  0.00     0.125 C 
ATOM     15  C   UNL A   1      34.328  22.300  24.199  1.00  0.00     0.123 C 
ATOM     16  C   UNL A   1      35.690  22.873  24.579  1.00  0.00     0.021 C 
ATOM     17  C   UNL A   1      36.650  22.813  23.379  1.00  0.00     0.010 C 
BRANCH  15  18
ATOM     18  C   UNL A   1      33.426  21.834  25.323  1.00  0.00     0.310 C 
ATOM     19  O   UNL A   1      32.204  21.900  25.266  1.00  0.00    -0.252 OA
BRANCH  18  20
ATOM     20  O   UNL A   1      34.129  21.540  26.445  1.00  0.00    -0.469 OA
ATOM     21  C   UNL A   1      33.647  22.181  27.626  1.00  0.00     0.282 C 
ENDBRANCH  18  20
ENDBRANCH  15  18
ENDBRANCH  10  12
ENDBRANCH   7  10
ENDBRANCH   6   7
ENDBRANCH   5   6
ENDBRANCH   1   5
BRANCH   3  22
ATOM     22  C   UNL A   1      32.330  29.950  25.722  1.00  0.00     0.116 C 
BRANCH  22  23
ATOM     23  C   UNL A   1      31.777  30.614  26.976  1.00  0.00     0.023 C 
BRANCH  23  24
ATOM     24  C   UNL A   1      31.399  32.078  26.879  1.00  0.00     0.023 C 
BRANCH  24  25
ATOM     25  C   UNL A   1      32.584  33.011  26.804  1.00  0.00     0.116 C 
BRANCH  25  26
ATOM     26  N   UNL A   1      32.417  34.203  27.626  1.00  0.00    -0.352 N 
ATOM     27  C   UNL A   1      33.096  34.584  28.755  1.00  0.00     0.251 C 
ATOM     28  H   UNL A   1      31.715  34.825  27.326  1.00  0.00     0.163 HD
ATOM     29  O   UNL A   1      32.711  35.545  29.416  1.00  0.00    -0.269 OA
BRANCH  27  30
ATOM     30  C   UNL A   1      34.275  33.807  29.180  1.00  0.00     0.039 A 
ATOM     31  C   UNL A   1      35.553  34.280  28.881  1.00  0.00     0.014 A 
ATOM     32  C   UNL A   1      34.110  32.637  29.922  1.00  0.00     0.014 A 
ATOM     33  C   UNL A   1      36.665  33.605  29.384  1.00  0.00     0.010 A 
ATOM     34  C   UNL A   1      35.204  32.061  30.544  1.00  0.00     0.010 A 
ATOM     35  C   UNL A   1      36.497  32.512  30.252  1.00  0.00    -0.014 A 
BRANCH  35  36
ATOM     36  C   UNL A   1      37.652  31.780  30.823  1.00  0.00     0.031 A 
ATOM     37  C   UNL A   1      38.119  32.109  32.217  1.00  0.00     0.074 A 
ATOM     38  C   UNL A   1      38.317  30.882  30.073  1.00  0.00     0.049 A 
ATOM     39  N   UNL A   1      39.150  31.647  32.875  1.00  0.00    -0.248 NA
ATOM     40  C   UNL A   1      37.354  33.132  32.952  1.00  0.00     0.031 C 
ATOM     41  C   UNL A   1      37.996  30.523  28.689  1.00  0.00     0.029 A 
ATOM     42  N   UNL A   1      39.405  30.102  30.373  1.00  0.00    -0.354 N 
ATOM     43  C   UNL A   1      39.173  32.347  34.075  1.00  0.00     0.074 A 
ATOM     44  C   UNL A   1      38.105  33.317  34.025  1.00  0.00     0.031 C 
ATOM     45  C   UNL A   1      38.834  29.557  28.280  1.00  0.00     0.029 A 
ATOM     46  C   UNL A   1      39.777  29.262  29.352  1.00  0.00     0.049 A 
ATOM     47  H   UNL A   1      39.874  30.143  31.237  1.00  0.00     0.167 HD
ATOM     48  C   UNL A   1      39.988  32.173  35.142  1.00  0.00     0.037 A 
ATOM     49  C   UNL A   1      40.768  28.353  29.296  1.00  0.00     0.037 A 
ATOM     50  C   UNL A   1      41.012  31.168  35.205  1.00  0.00     0.049 A 
ATOM     51  C   UNL A   1      41.654  28.169  30.498  1.00  0.00     0.074 A 
ATOM     52  C   UNL A   1      41.835  30.840  36.266  1.00  0.00     0.029 A 
ATOM     53  N   UNL A   1      41.350  30.325  34.156  1.00  0.00    -0.354 N 
ATOM     54  N   UNL A   1      41.612  28.777  31.659  1.00  0.00    -0.248 NA
ATOM     55  C   UNL A   1      42.723  27.167  30.381  1.00  0.00     0.031 C 
ATOM     56  C   UNL A   1      42.712  29.837  35.840  1.00  0.00     0.029 A 
ATOM     57  C   UNL A   1      42.393  29.498  34.534  1.00  0.00     0.049 A 
ATOM     58  H   UNL A   1      40.913  30.316  33.273  1.00  0.00     0.167 HD
ATOM     59  C   UNL A   1      42.623  28.209  32.423  1.00  0.00     0.074 A 
ATOM     60  C   UNL A   1      43.253  27.200  31.595  1.00  0.00     0.031 C 
ATOM     61  C   UNL A   1      42.998  28.494  33.695  1.00  0.00     0.037 A 
BRANCH  48  62
ATOM     62  C   UNL A   1      39.797  33.090  36.317  1.00  0.00     0.057 A 
ATOM     63  C   UNL A   1      38.892  32.806  37.350  1.00  0.00     0.134 A 
ATOM     64  C   UNL A   1      40.534  34.277  36.419  1.00  0.00     0.134 A 
ATOM     65  F   UNL A   1      38.141  31.694  37.309  1.00  0.00    -0.206 F 
ATOM     66  C   UNL A   1      38.698  33.685  38.416  1.00  0.00     0.040 A 
ATOM     67  C   UNL A   1      40.375  35.147  37.499  1.00  0.00     0.040 A 
ATOM     68  F   UNL A   1      41.422  34.613  35.471  1.00  0.00    -0.206 F 
ATOM     69  C   UNL A   1      39.446  34.857  38.497  1.00  0.00     0.006 A 
ENDBRANCH  48  62
BRANCH  49  70
ATOM     70  C   UNL A   1      40.945  27.515  28.082  1.00  0.00     0.057 A 
ATOM     71  C   UNL A   1      41.748  27.953  27.021  1.00  0.00     0.134 A 
ATOM     72  C   UNL A   1      40.326  26.269  27.947  1.00  0.00     0.134 A 
ATOM     73  F   UNL A   1      42.357  29.147  27.083  1.00  0.00    -0.206 F 
ATOM     74  C   UNL A   1      41.910  27.193  25.862  1.00  0.00     0.040 A 
ATOM     75  C   UNL A   1      40.500  25.484  26.804  1.00  0.00     0.040 A 
ATOM     76  F   UNL A   1      39.553  25.786  28.931  1.00  0.00    -0.206 F 
ATOM     77  C   UNL A   1      41.288  25.951  25.754  1.00  0.00     0.006 A 
ENDBRANCH  49  70
BRANCH  61  78
ATOM     78  C   UNL A   1      44.110  27.676  34.282  1.00  0.00     0.057 A 
ATOM     79  C   UNL A   1      43.879  26.436  34.889  1.00  0.00     0.134 A 
ATOM     80  C   UNL A   1      45.437  28.116  34.193  1.00  0.00     0.134 A 
ATOM     81  F   UNL A   1      42.631  25.962  35.016  1.00  0.00    -0.206 F 
ATOM     82  C   UNL A   1      44.926  25.674  35.411  1.00  0.00     0.040 A 
ATOM     83  C   UNL A   1      46.495  27.350  34.682  1.00  0.00     0.040 A 
ATOM     84  F   UNL A   1      45.729  29.290  33.612  1.00  0.00    -0.206 F 
ATOM     85  C   UNL A   1      46.239  26.129  35.301  1.00  0.00     0.006 A 
ENDBRANCH  61  78
ENDBRANCH  35  36
ENDBRANCH  27  30
ENDBRANCH  25  26
ENDBRANCH  24  25
ENDBRANCH  23  24
ENDBRANCH  22  23
ENDBRANCH   3  22
TORSDOF 18
ENDMDL
MODEL 2
REMARK VINA RESULT:     -10.0      1.230      2.207
REMARK SMILES CCN(CCC(=O)NCCCCNC(=O)c1ccc(-c2c3nc(c(-c4c(F)cccc4F)c4ccc([nH]4)c(-c4c(F)cccc4F)c4nc(c(-c5c(F)cccc5F)c5ccc2[nH]5)C=C4)C=C3)cc1)C(=O)N1C[C@H](C(=O)OC)[C@@H](C)C1
REMARK SMILES IDX 6 1 7 2 8 3 5 5 4 6 3 7 2 8 1 9 70 10 71 11 72 12 73 13
REMARK SMILES IDX 81 14 74 15 79 16 80 17 75 18 76 19 77 20 78 21 9 22 10 23
REMARK SMILES IDX 11 24 12 25 13 26 14 27 15 29 16 30 17 31 69 32 18 33 68 34
REMARK SMILES IDX 19 35 20 36 21 37 62 38 22 39 67 40 61 41 63 42 23 43 66 44
REMARK SMILES IDX 60 45 59 46 24 48 50 49 33 50 49 51 34 52 37 53 48 54 64 55
REMARK SMILES IDX 35 56 36 57 47 59 65 60 38 61 25 62 26 63 31 64 27 65 28 66
REMARK SMILES IDX 30 67 32 68 29 69 51 70 52 71 57 72 53 73 54 74 56 75 58 76
REMARK SMILES IDX 55 77 39 78 40 79 45 80 41 81 42 82 44 83 46 84 43 85
REMARK H PARENT 8 4 13 28 63 47 37 58
REMARK Flexibility Score: inf
ROOT
ATOM      1  C   UNL A   1      30.597  28.733  23.280  1.00  0.00     0.221 C 
ATOM      2  O   UNL A   1      30.171  28.774  22.122  1.00  0.00    -0.275 OA
ATOM      3  N   UNL A   1      30.872  29.913  23.907  1.00  0.00    -0.356 N 
ATOM      4  H   UNL A   1      30.860  30.709  23.327  1.00  0.00     0.163 HD
ENDROOT
BRANCH   1   5
ATOM      5  C   UNL A   1      30.820  27.405  23.964  1.00  0.00     0.121 C 
BRANCH   5   6
ATOM      6  C   UNL A   1      31.604  26.367  23.156  1.00  0.00     0.131 C 
BRANCH   6   7
ATOM      7  N   UNL A   1      32.983  26.104  23.584  1.00  0.00    -0.324 N 
BRANCH   7   8
ATOM      8  C   UNL A   1      33.646  27.330  24.109  1.00  0.00     0.118 C 
ATOM      9  C   UNL A   1      33.817  27.582  25.601  1.00  0.00     0.027 C 
ENDBRANCH   7   8
BRANCH   7  10
ATOM     10  C   UNL A   1      33.678  24.900  23.506  1.00  0.00     0.320 C 
ATOM     11  O   UNL A   1      34.361  24.636  22.510  1.00  0.00    -0.248 OA
BRANCH  10  12
ATOM     12  N   UNL A   1      33.537  23.903  24.450  1.00  0.00    -0.323 N 
ATOM     13  C   UNL A   1      32.735  22.688  24.534  1.00  0.00     0.137 C 
ATOM     14  C   UNL A   1      34.340  24.016  25.679  1.00  0.00     0.125 C 
ATOM     15  C   UNL A   1      32.625  22.372  26.018  1.00  0.00     0.123 C 
ATOM     16  C   UNL A   1      33.995  22.791  26.546  1.00  0.00     0.021 C 
ATOM     17  C   UNL A   1      35.011  21.654  26.356  1.00  0.00     0.010 C 
BRANCH  15  18
ATOM     18  C   UNL A   1      31.416  23.128  26.530  1.00  0.00     0.310 C 
ATOM     19  O   UNL A   1      31.504  24.109  27.258  1.00  0.00    -0.252 OA
BRANCH  18  20
ATOM     20  O   UNL A   1      30.259  22.474  26.258  1.00  0.00    -0.469 OA
ATOM     21  C   UNL A   1      29.245  22.634  27.249  1.00  0.00     0.282 C 
ENDBRANCH  18  20
ENDBRANCH  15  18
ENDBRANCH  10  12
ENDBRANCH   7  10
ENDBRANCH   6   7
ENDBRANCH   5   6
ENDBRANCH   1   5
BRANCH   3  22
ATOM     22  C   UNL A   1      31.181  30.170  25.301  1.00  0.00     0.116 C 
BRANCH  22  23
ATOM     23  C   UNL A   1      30.911  31.602  25.746  1.00  0.00     0.023 C 
BRANCH  23  24
ATOM     24  C   UNL A   1      31.394  32.003  27.125  1.00  0.00     0.023 C 
BRANCH  24  25
ATOM     25  C   UNL A   1      32.633  32.866  27.111  1.00  0.00     0.116 C 
BRANCH  25  26
ATOM     26  N   UNL A   1      32.387  34.214  27.605  1.00  0.00    -0.352 N 
ATOM     27  C   UNL A   1      33.000  34.891  28.630  1.00  0.00     0.251 C 
ATOM     28  H   UNL A   1      31.679  34.713  27.135  1.00  0.00     0.163 HD
ATOM     29  O   UNL A   1      32.552  35.967  29.018  1.00  0.00    -0.269 OA
BRANCH  27  30
ATOM     30  C   UNL A   1      34.183  34.295  29.277  1.00  0.00     0.039 A 
ATOM     31  C   UNL A   1      34.012  33.409  30.340  1.00  0.00     0.014 A 
ATOM     32  C   UNL A   1      35.461  34.577  28.790  1.00  0.00     0.014 A 
ATOM     33  C   UNL A   1      35.124  32.759  30.874  1.00  0.00     0.010 A 
ATOM     34  C   UNL A   1      36.538  33.820  29.217  1.00  0.00     0.010 A 
ATOM     35  C   UNL A   1      36.391  32.931  30.289  1.00  0.00    -0.014 A 
BRANCH  35  36
ATOM     36  C   UNL A   1      37.596  32.244  30.813  1.00  0.00     0.031 A 
ATOM     37  C   UNL A   1      38.246  32.751  32.074  1.00  0.00     0.074 A 
ATOM     38  C   UNL A   1      38.140  31.223  30.126  1.00  0.00     0.049 A 
ATOM     39  N   UNL A   1      39.344  32.349  32.659  1.00  0.00    -0.248 NA
ATOM     40  C   UNL A   1      37.603  33.897  32.741  1.00  0.00     0.031 C 
ATOM     41  C   UNL A   1      37.635  30.683  28.861  1.00  0.00     0.029 A 
ATOM     42  N   UNL A   1      39.242  30.453  30.398  1.00  0.00    -0.354 N 
ATOM     43  C   UNL A   1      39.537  33.211  33.731  1.00  0.00     0.074 A 
ATOM     44  C   UNL A   1      38.490  34.205  33.672  1.00  0.00     0.031 C 
ATOM     45  C   UNL A   1      38.394  29.636  28.496  1.00  0.00     0.029 A 
ATOM     46  C   UNL A   1      39.462  29.462  29.473  1.00  0.00     0.049 A 
ATOM     47  H   UNL A   1      39.820  30.599  31.181  1.00  0.00     0.167 HD
ATOM     48  C   UNL A   1      40.479  33.161  34.700  1.00  0.00     0.037 A 
ATOM     49  C   UNL A   1      40.419  28.516  29.427  1.00  0.00     0.037 A 
ATOM     50  C   UNL A   1      41.482  32.136  34.781  1.00  0.00     0.049 A 
ATOM     51  C   UNL A   1      41.449  28.472  30.523  1.00  0.00     0.074 A 
ATOM     52  C   UNL A   1      42.429  31.932  35.767  1.00  0.00     0.029 A 
ATOM     53  N   UNL A   1      41.665  31.139  33.833  1.00  0.00    -0.354 N 
ATOM     54  N   UNL A   1      41.570  29.241  31.578  1.00  0.00    -0.248 NA
ATOM     55  C   UNL A   1      42.474  27.424  30.421  1.00  0.00     0.031 C 
ATOM     56  C   UNL A   1      43.224  30.845  35.387  1.00  0.00     0.029 A 
ATOM     57  C   UNL A   1      42.732  30.335  34.195  1.00  0.00     0.049 A 
ATOM     58  H   UNL A   1      41.117  31.021  33.024  1.00  0.00     0.167 HD
ATOM     59  C   UNL A   1      42.661  28.749  32.284  1.00  0.00     0.074 A 
ATOM     60  C   UNL A   1      43.157  27.609  31.541  1.00  0.00     0.031 C 
ATOM     61  C   UNL A   1      43.202  29.199  33.444  1.00  0.00     0.037 A 
BRANCH  48  62
ATOM     62  C   UNL A   1      40.461  34.243  35.742  1.00  0.00     0.057 A 
ATOM     63  C   UNL A   1      41.136  35.460  35.569  1.00  0.00     0.134 A 
ATOM     64  C   UNL A   1      39.754  34.067  36.939  1.00  0.00     0.134 A 
ATOM     65  F   UNL A   1      41.846  35.692  34.454  1.00  0.00    -0.206 F 
ATOM     66  C   UNL A   1      41.142  36.443  36.561  1.00  0.00     0.040 A 
ATOM     67  C   UNL A   1      39.723  35.056  37.923  1.00  0.00     0.040 A 
ATOM     68  F   UNL A   1      39.081  32.930  37.172  1.00  0.00    -0.206 F 
ATOM     69  C   UNL A   1      40.428  36.244  37.740  1.00  0.00     0.006 A 
ENDBRANCH  48  62
BRANCH  49  70
ATOM     70  C   UNL A   1      40.421  27.507  28.337  1.00  0.00     0.057 A 
ATOM     71  C   UNL A   1      39.686  26.321  28.457  1.00  0.00     0.134 A 
ATOM     72  C   UNL A   1      41.149  27.695  27.158  1.00  0.00     0.134 A 
ATOM     73  F   UNL A   1      38.979  26.075  29.571  1.00  0.00    -0.206 F 
ATOM     74  C   UNL A   1      39.692  25.350  27.455  1.00  0.00     0.040 A 
ATOM     75  C   UNL A   1      41.143  26.744  26.134  1.00  0.00     0.040 A 
ATOM     76  F   UNL A   1      41.865  28.814  26.974  1.00  0.00    -0.206 F 
ATOM     77  C   UNL A   1      40.419  25.563  26.287  1.00  0.00     0.006 A 
ENDBRANCH  49  70
BRANCH  61  78
ATOM     78  C   UNL A   1      44.364  28.431  34.000  1.00  0.00     0.057 A 
ATOM     79  C   UNL A   1      45.689  28.760  33.690  1.00  0.00     0.134 A 
ATOM     80  C   UNL A   1      44.152  27.376  34.899  1.00  0.00     0.134 A 
ATOM     81  F   UNL A   1      45.960  29.752  32.829  1.00  0.00    -0.206 F 
ATOM     82  C   UNL A   1      46.762  28.051  34.233  1.00  0.00     0.040 A 
ATOM     83  C   UNL A   1      45.217  26.681  35.472  1.00  0.00     0.040 A 
ATOM     84  F   UNL A   1      42.908  27.018  35.248  1.00  0.00    -0.206 F 
ATOM     85  C   UNL A   1      46.526  27.012  35.132  1.00  0.00     0.006 A 
ENDBRANCH  61  78
ENDBRANCH  35  36
ENDBRANCH  27  30
ENDBRANCH  25  26
ENDBRANCH  24  25
ENDBRANCH  23  24
ENDBRANCH  22  23
ENDBRANCH   3  22
TORSDOF 18
ENDMDL
MODEL 3
REMARK VINA RESULT:      -9.7      1.499      2.247
REMARK SMILES CCN(CCC(=O)NCCCCNC(=O)c1ccc(-c2c3nc(c(-c4c(F)cccc4F)c4ccc([nH]4)c(-c4c(F)cccc4F)c4nc(c(-c5c(F)cccc5F)c5ccc2[nH]5)C=C4)C=C3)cc1)C(=O)N1C[C@H](C(=O)OC)[C@@H](C)C1
REMARK SMILES IDX 6 1 7 2 8 3 5 5 4 6 3 7 2 8 1 9 70 10 71 11 72 12 73 13
REMARK SMILES IDX 81 14 74 15 79 16 80 17 75 18 76 19 77 20 78 21 9 22 10 23
REMARK SMILES IDX 11 24 12 25 13 26 14 27 15 29 16 30 17 31 69 32 18 33 68 34
REMARK SMILES IDX 19 35 20 36 21 37 62 38 22 39 67 40 61 41 63 42 23 43 66 44
REMARK SMILES IDX 60 45 59 46 24 48 50 49 33 50 49 51 34 52 37 53 48 54 64 55
REMARK SMILES IDX 35 56 36 57 47 59 65 60 38 61 25 62 26 63 31 64 27 65 28 66
REMARK SMILES IDX 30 67 32 68 29 69 51 70 52 71 57 72 53 73 54 74 56 75 58 76
REMARK SMILES IDX 55 77 39 78 40 79 45 80 41 81 42 82 44 83 46 84 43 85
REMARK H PARENT 8 4 13 28 63 47 37 58
REMARK Flexibility Score: inf
ROOT
ATOM      1  C   UNL A   1      32.506  27.995  27.133  1.00  0.00     0.221 C 
ATOM      2  O   UNL A   1      31.403  27.658  27.575  1.00  0.00    -0.275 OA
ATOM      3  N   UNL A   1      33.081  29.128  27.632  1.00  0.00    -0.356 N 
ATOM      4  H   UNL A   1      32.494  29.682  28.197  1.00  0.00     0.163 HD
ENDROOT
BRANCH   1   5
ATOM      5  C   UNL A   1      33.179  27.175  26.059  1.00  0.00     0.121 C 
BRANCH   5   6
ATOM      6  C   UNL A   1      32.473  27.156  24.700  1.00  0.00     0.131 C 
BRANCH   6   7
ATOM      7  N   UNL A   1      31.781  25.915  24.334  1.00  0.00    -0.324 N 
BRANCH   7   8
ATOM      8  C   UNL A   1      30.923  26.089  23.130  1.00  0.00     0.118 C 
ATOM      9  C   UNL A   1      30.590  27.464  22.566  1.00  0.00     0.027 C 
ENDBRANCH   7   8
BRANCH   7  10
ATOM     10  C   UNL A   1      31.830  24.692  24.999  1.00  0.00     0.320 C 
ATOM     11  O   UNL A   1      31.159  24.508  26.021  1.00  0.00    -0.248 OA
BRANCH  10  12
ATOM     12  N   UNL A   1      32.711  23.692  24.641  1.00  0.00    -0.323 N 
ATOM     13  C   UNL A   1      32.610  22.496  23.813  1.00  0.00     0.137 C 
ATOM     14  C   UNL A   1      34.082  23.775  25.171  1.00  0.00     0.125 C 
ATOM     15  C   UNL A   1      33.721  21.573  24.289  1.00  0.00     0.123 C 
ATOM     16  C   UNL A   1      34.842  22.553  24.623  1.00  0.00     0.021 C 
ATOM     17  C   UNL A   1      35.643  22.901  23.357  1.00  0.00     0.010 C 
BRANCH  15  18
ATOM     18  C   UNL A   1      33.143  20.756  25.426  1.00  0.00     0.310 C 
ATOM     19  O   UNL A   1      33.646  20.721  26.542  1.00  0.00    -0.252 OA
BRANCH  18  20
ATOM     20  O   UNL A   1      32.152  19.931  25.003  1.00  0.00    -0.469 OA
ATOM     21  C   UNL A   1      32.564  18.585  24.776  1.00  0.00     0.282 C 
ENDBRANCH  18  20
ENDBRANCH  15  18
ENDBRANCH  10  12
ENDBRANCH   7  10
ENDBRANCH   6   7
ENDBRANCH   5   6
ENDBRANCH   1   5
BRANCH   3  22
ATOM     22  C   UNL A   1      34.427  29.637  27.453  1.00  0.00     0.116 C 
BRANCH  22  23
ATOM     23  C   UNL A   1      34.553  31.144  27.637  1.00  0.00     0.023 C 
BRANCH  23  24
ATOM     24  C   UNL A   1      33.269  31.948  27.686  1.00  0.00     0.023 C 
BRANCH  24  25
ATOM     25  C   UNL A   1      33.429  33.381  27.237  1.00  0.00     0.116 C 
BRANCH  25  26
ATOM     26  N   UNL A   1      32.890  34.335  28.197  1.00  0.00    -0.352 N 
ATOM     27  C   UNL A   1      33.281  34.587  29.488  1.00  0.00     0.251 C 
ATOM     28  H   UNL A   1      32.136  34.880  27.872  1.00  0.00     0.163 HD
ATOM     29  O   UNL A   1      32.605  35.316  30.210  1.00  0.00    -0.269 OA
BRANCH  27  30
ATOM     30  C   UNL A   1      34.505  33.949  30.004  1.00  0.00     0.039 A 
ATOM     31  C   UNL A   1      34.403  32.950  30.973  1.00  0.00     0.014 A 
ATOM     32  C   UNL A   1      35.751  34.305  29.485  1.00  0.00     0.014 A 
ATOM     33  C   UNL A   1      35.551  32.268  31.375  1.00  0.00     0.010 A 
ATOM     34  C   UNL A   1      36.859  33.527  29.771  1.00  0.00     0.010 A 
ATOM     35  C   UNL A   1      36.783  32.526  30.747  1.00  0.00    -0.014 A 
BRANCH  35  36
ATOM     36  C   UNL A   1      38.023  31.811  31.130  1.00  0.00     0.031 A 
ATOM     37  C   UNL A   1      38.803  32.275  32.332  1.00  0.00     0.074 A 
ATOM     38  C   UNL A   1      38.480  30.802  30.366  1.00  0.00     0.049 A 
ATOM     39  N   UNL A   1      39.948  31.843  32.794  1.00  0.00    -0.248 NA
ATOM     40  C   UNL A   1      38.247  33.410  33.089  1.00  0.00     0.031 C 
ATOM     41  C   UNL A   1      37.845  30.302  29.144  1.00  0.00     0.029 A 
ATOM     42  N   UNL A   1      39.592  30.011  30.506  1.00  0.00    -0.354 N 
ATOM     43  C   UNL A   1      40.258  32.674  33.863  1.00  0.00     0.074 A 
ATOM     44  C   UNL A   1      39.226  33.682  33.935  1.00  0.00     0.031 C 
ATOM     45  C   UNL A   1      38.547  29.257  28.678  1.00  0.00     0.029 A 
ATOM     46  C   UNL A   1      39.705  29.043  29.539  1.00  0.00     0.049 A 
ATOM     47  H   UNL A   1      40.247  30.128  31.232  1.00  0.00     0.167 HD
ATOM     48  C   UNL A   1      41.292  32.586  34.732  1.00  0.00     0.037 A 
ATOM     49  C   UNL A   1      40.637  28.087  29.374  1.00  0.00     0.037 A 
ATOM     50  C   UNL A   1      42.282  31.547  34.686  1.00  0.00     0.049 A 
ATOM     51  C   UNL A   1      41.771  28.000  30.360  1.00  0.00     0.074 A 
ATOM     52  C   UNL A   1      43.320  31.304  35.567  1.00  0.00     0.029 A 
ATOM     53  N   UNL A   1      42.355  30.574  33.700  1.00  0.00    -0.354 N 
ATOM     54  N   UNL A   1      42.008  28.739  31.417  1.00  0.00    -0.248 NA
ATOM     55  C   UNL A   1      42.765  26.942  30.129  1.00  0.00     0.031 C 
ATOM     56  C   UNL A   1      44.056  30.218  35.081  1.00  0.00     0.029 A 
ATOM     57  C   UNL A   1      43.440  29.747  33.932  1.00  0.00     0.049 A 
ATOM     58  H   UNL A   1      41.728  30.484  32.946  1.00  0.00     0.167 HD
ATOM     59  C   UNL A   1      43.156  28.214  31.998  1.00  0.00     0.074 A 
ATOM     60  C   UNL A   1      43.558  27.089  31.180  1.00  0.00     0.031 C 
ATOM     61  C   UNL A   1      43.817  28.626  33.109  1.00  0.00     0.037 A 
BRANCH  48  62
ATOM     62  C   UNL A   1      41.394  33.640  35.799  1.00  0.00     0.057 A 
ATOM     63  C   UNL A   1      42.108  34.831  35.607  1.00  0.00     0.134 A 
ATOM     64  C   UNL A   1      40.764  33.461  37.037  1.00  0.00     0.134 A 
ATOM     65  F   UNL A   1      42.749  35.062  34.451  1.00  0.00    -0.206 F 
ATOM     66  C   UNL A   1      42.226  35.785  36.619  1.00  0.00     0.040 A 
ATOM     67  C   UNL A   1      40.845  34.424  38.044  1.00  0.00     0.040 A 
ATOM     68  F   UNL A   1      40.059  32.348  37.290  1.00  0.00    -0.206 F 
ATOM     69  C   UNL A   1      41.588  35.586  37.841  1.00  0.00     0.006 A 
ENDBRANCH  48  62
BRANCH  49  70
ATOM     70  C   UNL A   1      40.516  27.108  28.263  1.00  0.00     0.057 A 
ATOM     71  C   UNL A   1      39.665  26.001  28.374  1.00  0.00     0.134 A 
ATOM     72  C   UNL A   1      41.237  27.247  27.073  1.00  0.00     0.134 A 
ATOM     73  F   UNL A   1      38.958  25.803  29.497  1.00  0.00    -0.206 F 
ATOM     74  C   UNL A   1      39.553  25.057  27.353  1.00  0.00     0.040 A 
ATOM     75  C   UNL A   1      41.115  26.325  26.031  1.00  0.00     0.040 A 
ATOM     76  F   UNL A   1      42.061  28.291  26.898  1.00  0.00    -0.206 F 
ATOM     77  C   UNL A   1      40.277  25.221  26.174  1.00  0.00     0.006 A 
ENDBRANCH  49  70
BRANCH  61  78
ATOM     78  C   UNL A   1      45.017  27.828  33.527  1.00  0.00     0.057 A 
ATOM     79  C   UNL A   1      44.911  26.712  34.365  1.00  0.00     0.134 A 
ATOM     80  C   UNL A   1      46.290  28.156  33.041  1.00  0.00     0.134 A 
ATOM     81  F   UNL A   1      43.724  26.352  34.873  1.00  0.00    -0.206 F 
ATOM     82  C   UNL A   1      46.034  25.966  34.728  1.00  0.00     0.040 A 
ATOM     83  C   UNL A   1      47.414  27.400  33.371  1.00  0.00     0.040 A 
ATOM     84  F   UNL A   1      46.458  29.206  32.223  1.00  0.00    -0.206 F 
ATOM     85  C   UNL A   1      47.288  26.306  34.224  1.00  0.00     0.006 A 
ENDBRANCH  61  78
ENDBRANCH  35  36
ENDBRANCH  27  30
ENDBRANCH  25  26
ENDBRANCH  24  25
ENDBRANCH  23  24
ENDBRANCH  22  23
ENDBRANCH   3  22
TORSDOF 18
ENDMDL
