MODEL 1
REMARK VINA RESULT:     -12.0      0.000      0.000
REMARK SMILES O=C(C[C@@H](C(=O)N(c1ccccc1)c1ccccc1)[NH+]1CCOCC1)NCCCCNC(=O)c1ccc(-c2c3nc(c(-c4c(F)cccc4F)c4ccc([nH]4)c(-c4c(F)cccc4F)c4nc(c(-c5c(F)cccc5F)c5ccc2[nH]5)C=C4)C=C3)cc1
REMARK SMILES IDX 28 1 27 2 26 3 1 4 2 5 3 7 4 8 5 9 6 10 7 11 8 12 9 13 13 14
REMARK SMILES IDX 10 15 12 16 11 17 14 18 15 19 19 20 16 21 18 22 17 23 20 24
REMARK SMILES IDX 21 25 25 26 22 28 24 29 23 30 29 31 30 32 31 33 32 34 33 36
REMARK SMILES IDX 34 37 35 38 87 39 36 40 86 41 37 42 38 43 39 44 80 45 40 46
REMARK SMILES IDX 85 47 79 48 81 49 41 50 84 51 78 52 77 53 42 55 68 56 51 57
REMARK SMILES IDX 67 58 52 59 55 60 66 61 82 62 53 63 54 64 65 66 83 67 56 68
REMARK SMILES IDX 43 69 44 70 49 71 45 72 46 73 48 74 50 75 47 76 69 77 70 78
REMARK SMILES IDX 75 79 71 80 72 81 74 82 76 83 73 84 57 85 58 86 63 87 59 88
REMARK SMILES IDX 60 89 62 90 64 91 61 92
REMARK H PARENT 26 6 20 27 31 35 81 54 55 65
REMARK Flexibility Score: inf
ROOT
ATOM      1  C   UNL A   1      36.873  21.110  25.035  1.00  0.00     0.023 C 
ENDROOT
BRANCH   1   2
ATOM      2  C   UNL A   1      36.921  22.208  23.971  1.00  0.00     0.116 C 
BRANCH   2   3
ATOM      3  N   UNL A   1      35.623  22.633  23.459  1.00  0.00    -0.356 N 
ATOM      4  O   UNL A   1      35.350  24.372  24.944  1.00  0.00    -0.275 OA
ATOM      5  C   UNL A   1      34.985  23.758  23.944  1.00  0.00     0.226 C 
ATOM      6  H   UNL A   1      35.192  22.105  22.749  1.00  0.00     0.163 HD
BRANCH   5   7
ATOM      7  C   UNL A   1      33.804  24.246  23.125  1.00  0.00     0.175 C 
BRANCH   7   8
ATOM      8  C   UNL A   1      32.488  24.211  23.938  1.00  0.00     0.284 C 
BRANCH   8   9
ATOM      9  C   UNL A   1      31.657  25.429  23.466  1.00  0.00     0.290 C 
ATOM     10  O   UNL A   1      31.156  25.315  22.327  1.00  0.00    -0.267 OA
ATOM     11  N   UNL A   1      31.514  26.645  24.165  1.00  0.00    -0.276 N 
BRANCH  11  12
ATOM     12  C   UNL A   1      32.156  27.175  25.363  1.00  0.00     0.049 A 
ATOM     13  C   UNL A   1      31.383  27.497  26.508  1.00  0.00     0.027 A 
ATOM     14  C   UNL A   1      33.512  27.503  25.474  1.00  0.00     0.027 A 
ATOM     15  C   UNL A   1      31.896  28.224  27.597  1.00  0.00     0.002 A 
ATOM     16  C   UNL A   1      34.031  28.248  26.548  1.00  0.00     0.002 A 
ATOM     17  C   UNL A   1      33.218  28.634  27.599  1.00  0.00     0.000 A 
ENDBRANCH  11  12
BRANCH  11  18
ATOM     18  C   UNL A   1      30.767  27.611  23.402  1.00  0.00     0.049 A 
ATOM     19  C   UNL A   1      29.368  27.614  23.501  1.00  0.00     0.027 A 
ATOM     20  C   UNL A   1      31.413  28.667  22.753  1.00  0.00     0.027 A 
ATOM     21  C   UNL A   1      28.618  28.649  22.951  1.00  0.00     0.002 A 
ATOM     22  C   UNL A   1      30.655  29.702  22.196  1.00  0.00     0.002 A 
ATOM     23  C   UNL A   1      29.262  29.693  22.295  1.00  0.00     0.000 A 
ENDBRANCH  11  18
ENDBRANCH   8   9
BRANCH   8  24
ATOM     24  N   UNL A   1      31.596  23.024  23.743  1.00  0.00    -0.320 N 
ATOM     25  C   UNL A   1      30.764  22.696  24.913  1.00  0.00     0.291 C 
ATOM     26  C   UNL A   1      32.152  21.794  23.169  1.00  0.00     0.291 C 
ATOM     27  H   UNL A   1      31.019  23.401  22.991  1.00  0.00     0.348 HD
ATOM     28  C   UNL A   1      31.515  21.820  25.927  1.00  0.00     0.221 C 
ATOM     29  C   UNL A   1      32.817  20.869  24.202  1.00  0.00     0.221 C 
ATOM     30  O   UNL A   1      31.954  20.600  25.314  1.00  0.00    -0.370 OA
ENDBRANCH   8  24
ENDBRANCH   7   8
ENDBRANCH   5   7
ENDBRANCH   2   3
ENDBRANCH   1   2
BRANCH   1  31
ATOM     31  C   UNL A   1      37.965  20.036  24.955  1.00  0.00     0.023 C 
BRANCH  31  32
ATOM     32  C   UNL A   1      39.150  20.180  25.916  1.00  0.00     0.116 C 
BRANCH  32  33
ATOM     33  N   UNL A   1      40.199  19.190  25.752  1.00  0.00    -0.352 N 
ATOM     34  C   UNL A   1      41.546  19.308  26.014  1.00  0.00     0.251 C 
ATOM     35  H   UNL A   1      39.908  18.316  25.405  1.00  0.00     0.163 HD
ATOM     36  O   UNL A   1      42.295  18.347  25.833  1.00  0.00    -0.269 OA
BRANCH  34  37
ATOM     37  C   UNL A   1      42.125  20.599  26.460  1.00  0.00     0.039 A 
ATOM     38  C   UNL A   1      42.534  21.516  25.490  1.00  0.00     0.014 A 
ATOM     39  C   UNL A   1      42.275  20.918  27.811  1.00  0.00     0.014 A 
ATOM     40  C   UNL A   1      43.009  22.780  25.869  1.00  0.00     0.010 A 
ATOM     41  C   UNL A   1      42.700  22.203  28.184  1.00  0.00     0.010 A 
ATOM     42  C   UNL A   1      43.047  23.164  27.221  1.00  0.00    -0.014 A 
BRANCH  42  43
ATOM     43  C   UNL A   1      43.384  24.573  27.611  1.00  0.00     0.031 A 
ATOM     44  C   UNL A   1      44.809  25.074  27.653  1.00  0.00     0.074 A 
ATOM     45  C   UNL A   1      42.401  25.418  27.987  1.00  0.00     0.049 A 
ATOM     46  N   UNL A   1      45.257  26.265  27.977  1.00  0.00    -0.248 NA
ATOM     47  C   UNL A   1      45.868  24.110  27.323  1.00  0.00     0.031 C 
ATOM     48  C   UNL A   1      40.981  25.076  28.087  1.00  0.00     0.029 A 
ATOM     49  N   UNL A   1      42.443  26.744  28.355  1.00  0.00    -0.354 N 
ATOM     50  C   UNL A   1      46.644  26.186  27.914  1.00  0.00     0.074 A 
ATOM     51  C   UNL A   1      46.964  24.816  27.568  1.00  0.00     0.031 C 
ATOM     52  C   UNL A   1      40.286  26.169  28.438  1.00  0.00     0.029 A 
ATOM     53  C   UNL A   1      41.207  27.285  28.626  1.00  0.00     0.049 A 
ATOM     54  H   UNL A   1      43.281  27.258  28.419  1.00  0.00     0.167 HD
ATOM     55  C   UNL A   1      47.568  27.162  28.101  1.00  0.00     0.037 A 
ATOM     56  C   UNL A   1      40.845  28.534  28.979  1.00  0.00     0.037 A 
ATOM     57  C   UNL A   1      47.270  28.542  28.390  1.00  0.00     0.049 A 
ATOM     58  C   UNL A   1      41.884  29.610  29.134  1.00  0.00     0.074 A 
ATOM     59  C   UNL A   1      48.149  29.609  28.492  1.00  0.00     0.029 A 
ATOM     60  N   UNL A   1      46.003  29.051  28.625  1.00  0.00    -0.354 N 
ATOM     61  N   UNL A   1      43.181  29.535  28.974  1.00  0.00    -0.248 NA
ATOM     62  C   UNL A   1      41.403  30.949  29.511  1.00  0.00     0.031 C 
ATOM     63  C   UNL A   1      47.419  30.755  28.825  1.00  0.00     0.029 A 
ATOM     64  C   UNL A   1      46.081  30.411  28.887  1.00  0.00     0.049 A 
ATOM     65  H   UNL A   1      45.171  28.524  28.607  1.00  0.00     0.167 HD
ATOM     66  C   UNL A   1      43.666  30.817  29.203  1.00  0.00     0.074 A 
ATOM     67  C   UNL A   1      42.524  31.655  29.498  1.00  0.00     0.031 C 
ATOM     68  C   UNL A   1      44.948  31.255  29.169  1.00  0.00     0.037 A 
BRANCH  55  69
ATOM     69  C   UNL A   1      49.017  26.780  27.975  1.00  0.00     0.057 A 
ATOM     70  C   UNL A   1      49.768  26.362  29.081  1.00  0.00     0.134 A 
ATOM     71  C   UNL A   1      49.647  26.766  26.724  1.00  0.00     0.134 A 
ATOM     72  F   UNL A   1      49.225  26.352  30.307  1.00  0.00    -0.206 F 
ATOM     73  C   UNL A   1      51.102  25.970  28.952  1.00  0.00     0.040 A 
ATOM     74  C   UNL A   1      50.972  26.351  26.578  1.00  0.00     0.040 A 
ATOM     75  F   UNL A   1      48.981  27.139  25.620  1.00  0.00    -0.206 F 
ATOM     76  C   UNL A   1      51.706  25.957  27.696  1.00  0.00     0.006 A 
ENDBRANCH  55  69
BRANCH  56  77
ATOM     77  C   UNL A   1      39.409  28.861  29.177  1.00  0.00     0.057 A 
ATOM     78  C   UNL A   1      38.801  28.696  30.428  1.00  0.00     0.134 A 
ATOM     79  C   UNL A   1      38.610  29.317  28.124  1.00  0.00     0.134 A 
ATOM     80  F   UNL A   1      39.512  28.238  31.468  1.00  0.00    -0.206 F 
ATOM     81  C   UNL A   1      37.443  28.953  30.620  1.00  0.00     0.040 A 
ATOM     82  C   UNL A   1      37.256  29.603  28.308  1.00  0.00     0.040 A 
ATOM     83  F   UNL A   1      39.135  29.501  26.904  1.00  0.00    -0.206 F 
ATOM     84  C   UNL A   1      36.668  29.413  29.558  1.00  0.00     0.006 A 
ENDBRANCH  56  77
BRANCH  68  85
ATOM     85  C   UNL A   1      45.191  32.716  29.417  1.00  0.00     0.057 A 
ATOM     86  C   UNL A   1      45.489  33.212  30.693  1.00  0.00     0.134 A 
ATOM     87  C   UNL A   1      45.162  33.633  28.359  1.00  0.00     0.134 A 
ATOM     88  F   UNL A   1      45.519  32.389  31.753  1.00  0.00    -0.206 F 
ATOM     89  C   UNL A   1      45.727  34.571  30.911  1.00  0.00     0.040 A 
ATOM     90  C   UNL A   1      45.422  34.991  28.560  1.00  0.00     0.040 A 
ATOM     91  F   UNL A   1      44.890  33.225  27.111  1.00  0.00    -0.206 F 
ATOM     92  C   UNL A   1      45.700  35.464  29.840  1.00  0.00     0.006 A 
ENDBRANCH  68  85
ENDBRANCH  42  43
ENDBRANCH  34  37
ENDBRANCH  32  33
ENDBRANCH  31  32
ENDBRANCH   1  31
TORSDOF 16
ENDMDL
MODEL 2
REMARK VINA RESULT:     -11.8      1.570      2.571
REMARK SMILES O=C(C[C@@H](C(=O)N(c1ccccc1)c1ccccc1)[NH+]1CCOCC1)NCCCCNC(=O)c1ccc(-c2c3nc(c(-c4c(F)cccc4F)c4ccc([nH]4)c(-c4c(F)cccc4F)c4nc(c(-c5c(F)cccc5F)c5ccc2[nH]5)C=C4)C=C3)cc1
REMARK SMILES IDX 28 1 27 2 26 3 1 4 2 5 3 7 4 8 5 9 6 10 7 11 8 12 9 13 13 14
REMARK SMILES IDX 10 15 12 16 11 17 14 18 15 19 19 20 16 21 18 22 17 23 20 24
REMARK SMILES IDX 21 25 25 26 22 28 24 29 23 30 29 31 30 32 31 33 32 34 33 36
REMARK SMILES IDX 34 37 35 38 87 39 36 40 86 41 37 42 38 43 39 44 80 45 40 46
REMARK SMILES IDX 85 47 79 48 81 49 41 50 84 51 78 52 77 53 42 55 68 56 51 57
REMARK SMILES IDX 67 58 52 59 55 60 66 61 82 62 53 63 54 64 65 66 83 67 56 68
REMARK SMILES IDX 43 69 44 70 49 71 45 72 46 73 48 74 50 75 47 76 69 77 70 78
REMARK SMILES IDX 75 79 71 80 72 81 74 82 76 83 73 84 57 85 58 86 63 87 59 88
REMARK SMILES IDX 60 89 62 90 64 91 61 92
REMARK H PARENT 26 6 20 27 31 35 81 54 55 65
REMARK Flexibility Score: inf
ROOT
ATOM      1  C   UNL A   1      35.541  22.511  26.251  1.00  0.00     0.023 C 
ENDROOT
BRANCH   1   2
ATOM      2  C   UNL A   1      35.899  23.852  25.608  1.00  0.00     0.116 C 
BRANCH   2   3
ATOM      3  N   UNL A   1      34.857  24.436  24.772  1.00  0.00    -0.356 N 
ATOM      4  O   UNL A   1      35.582  23.483  22.805  1.00  0.00    -0.275 OA
ATOM      5  C   UNL A   1      34.738  24.117  23.433  1.00  0.00     0.226 C 
ATOM      6  H   UNL A   1      34.222  25.074  25.172  1.00  0.00     0.163 HD
BRANCH   5   7
ATOM      7  C   UNL A   1      33.447  24.557  22.767  1.00  0.00     0.175 C 
BRANCH   7   8
ATOM      8  C   UNL A   1      32.265  24.583  23.766  1.00  0.00     0.284 C 
BRANCH   8   9
ATOM      9  C   UNL A   1      31.334  25.730  23.304  1.00  0.00     0.290 C 
ATOM     10  O   UNL A   1      30.745  25.527  22.220  1.00  0.00    -0.267 OA
ATOM     11  N   UNL A   1      31.187  26.976  23.946  1.00  0.00    -0.276 N 
BRANCH  11  12
ATOM     12  C   UNL A   1      31.899  27.606  25.053  1.00  0.00     0.049 A 
ATOM     13  C   UNL A   1      33.303  27.801  24.983  1.00  0.00     0.027 A 
ATOM     14  C   UNL A   1      31.327  27.973  26.276  1.00  0.00     0.027 A 
ATOM     15  C   UNL A   1      34.077  28.180  26.094  1.00  0.00     0.002 A 
ATOM     16  C   UNL A   1      32.095  28.332  27.400  1.00  0.00     0.002 A 
ATOM     17  C   UNL A   1      33.474  28.409  27.318  1.00  0.00     0.000 A 
ENDBRANCH  11  12
BRANCH  11  18
ATOM     18  C   UNL A   1      30.329  27.860  23.200  1.00  0.00     0.049 A 
ATOM     19  C   UNL A   1      28.943  27.782  23.399  1.00  0.00     0.027 A 
ATOM     20  C   UNL A   1      30.859  28.923  22.464  1.00  0.00     0.027 A 
ATOM     21  C   UNL A   1      28.091  28.743  22.864  1.00  0.00     0.002 A 
ATOM     22  C   UNL A   1      29.999  29.884  21.922  1.00  0.00     0.002 A 
ATOM     23  C   UNL A   1      28.620  29.794  22.122  1.00  0.00     0.000 A 
ENDBRANCH  11  18
ENDBRANCH   8   9
BRANCH   8  24
ATOM     24  N   UNL A   1      31.394  23.366  23.825  1.00  0.00    -0.320 N 
ATOM     25  C   UNL A   1      30.917  23.031  25.177  1.00  0.00     0.291 C 
ATOM     26  C   UNL A   1      31.817  22.145  23.131  1.00  0.00     0.291 C 
ATOM     27  H   UNL A   1      30.624  23.713  23.253  1.00  0.00     0.348 HD
ATOM     28  C   UNL A   1      31.942  22.194  25.959  1.00  0.00     0.221 C 
ATOM     29  C   UNL A   1      32.765  21.257  23.954  1.00  0.00     0.221 C 
ATOM     30  O   UNL A   1      32.242  20.979  25.259  1.00  0.00    -0.370 OA
ENDBRANCH   8  24
ENDBRANCH   7   8
ENDBRANCH   5   7
ENDBRANCH   2   3
ENDBRANCH   1   2
BRANCH   1  31
ATOM     31  C   UNL A   1      36.066  21.254  25.545  1.00  0.00     0.023 C 
BRANCH  31  32
ATOM     32  C   UNL A   1      37.432  21.365  24.859  1.00  0.00     0.116 C 
BRANCH  32  33
ATOM     33  N   UNL A   1      38.412  20.380  25.279  1.00  0.00    -0.352 N 
ATOM     34  C   UNL A   1      39.527  20.553  26.070  1.00  0.00     0.251 C 
ATOM     35  H   UNL A   1      38.261  19.464  24.952  1.00  0.00     0.163 HD
ATOM     36  O   UNL A   1      40.243  19.589  26.344  1.00  0.00    -0.269 OA
BRANCH  34  37
ATOM     37  C   UNL A   1      39.914  21.900  26.555  1.00  0.00     0.039 A 
ATOM     38  C   UNL A   1      40.932  21.998  27.506  1.00  0.00     0.014 A 
ATOM     39  C   UNL A   1      39.291  23.062  26.096  1.00  0.00     0.014 A 
ATOM     40  C   UNL A   1      41.384  23.257  27.929  1.00  0.00     0.010 A 
ATOM     41  C   UNL A   1      39.783  24.319  26.481  1.00  0.00     0.010 A 
ATOM     42  C   UNL A   1      40.854  24.439  27.381  1.00  0.00    -0.014 A 
BRANCH  42  43
ATOM     43  C   UNL A   1      41.460  25.773  27.701  1.00  0.00     0.031 A 
ATOM     44  C   UNL A   1      42.846  26.156  27.236  1.00  0.00     0.074 A 
ATOM     45  C   UNL A   1      40.781  26.651  28.469  1.00  0.00     0.049 A 
ATOM     46  N   UNL A   1      43.507  27.272  27.440  1.00  0.00    -0.248 NA
ATOM     47  C   UNL A   1      43.599  25.150  26.475  1.00  0.00     0.031 C 
ATOM     48  C   UNL A   1      39.469  26.411  29.073  1.00  0.00     0.029 A 
ATOM     49  N   UNL A   1      41.098  27.928  28.874  1.00  0.00    -0.354 N 
ATOM     50  C   UNL A   1      44.756  27.093  26.857  1.00  0.00     0.074 A 
ATOM     51  C   UNL A   1      44.777  25.743  26.333  1.00  0.00     0.031 C 
ATOM     52  C   UNL A   1      39.073  27.516  29.725  1.00  0.00     0.029 A 
ATOM     53  C   UNL A   1      40.114  28.534  29.621  1.00  0.00     0.049 A 
ATOM     54  H   UNL A   1      41.950  28.367  28.651  1.00  0.00     0.167 HD
ATOM     55  C   UNL A   1      45.783  27.973  26.742  1.00  0.00     0.037 A 
ATOM     56  C   UNL A   1      40.043  29.767  30.160  1.00  0.00     0.037 A 
ATOM     57  C   UNL A   1      45.763  29.337  27.206  1.00  0.00     0.049 A 
ATOM     58  C   UNL A   1      41.175  30.740  29.979  1.00  0.00     0.074 A 
ATOM     59  C   UNL A   1      46.727  30.319  27.035  1.00  0.00     0.029 A 
ATOM     60  N   UNL A   1      44.733  29.917  27.929  1.00  0.00    -0.354 N 
ATOM     61  N   UNL A   1      42.307  30.581  29.340  1.00  0.00    -0.248 NA
ATOM     62  C   UNL A   1      41.014  32.069  30.590  1.00  0.00     0.031 C 
ATOM     63  C   UNL A   1      46.298  31.479  27.687  1.00  0.00     0.029 A 
ATOM     64  C   UNL A   1      45.048  31.235  28.226  1.00  0.00     0.049 A 
ATOM     65  H   UNL A   1      43.902  29.460  28.193  1.00  0.00     0.167 HD
ATOM     66  C   UNL A   1      42.977  31.794  29.448  1.00  0.00     0.074 A 
ATOM     67  C   UNL A   1      42.121  32.684  30.200  1.00  0.00     0.031 C 
ATOM     68  C   UNL A   1      44.196  32.133  28.962  1.00  0.00     0.037 A 
BRANCH  55  69
ATOM     69  C   UNL A   1      47.035  27.494  26.059  1.00  0.00     0.057 A 
ATOM     70  C   UNL A   1      47.212  27.616  24.675  1.00  0.00     0.134 A 
ATOM     71  C   UNL A   1      48.100  26.970  26.802  1.00  0.00     0.134 A 
ATOM     72  F   UNL A   1      46.231  28.110  23.904  1.00  0.00    -0.206 F 
ATOM     73  C   UNL A   1      48.392  27.207  24.051  1.00  0.00     0.040 A 
ATOM     74  C   UNL A   1      49.295  26.584  26.194  1.00  0.00     0.040 A 
ATOM     75  F   UNL A   1      48.003  26.841  28.135  1.00  0.00    -0.206 F 
ATOM     76  C   UNL A   1      49.441  26.696  24.812  1.00  0.00     0.006 A 
ENDBRANCH  55  69
BRANCH  56  77
ATOM     77  C   UNL A   1      38.824  30.183  30.902  1.00  0.00     0.057 A 
ATOM     78  C   UNL A   1      37.790  30.870  30.255  1.00  0.00     0.134 A 
ATOM     79  C   UNL A   1      38.677  29.929  32.269  1.00  0.00     0.134 A 
ATOM     80  F   UNL A   1      37.888  31.162  28.950  1.00  0.00    -0.206 F 
ATOM     81  C   UNL A   1      36.660  31.308  30.945  1.00  0.00     0.040 A 
ATOM     82  C   UNL A   1      37.540  30.339  32.967  1.00  0.00     0.040 A 
ATOM     83  F   UNL A   1      39.630  29.271  32.943  1.00  0.00    -0.206 F 
ATOM     84  C   UNL A   1      36.531  31.038  32.306  1.00  0.00     0.006 A 
ENDBRANCH  56  77
BRANCH  68  85
ATOM     85  C   UNL A   1      44.669  33.540  29.190  1.00  0.00     0.057 A 
ATOM     86  C   UNL A   1      44.364  34.577  28.300  1.00  0.00     0.134 A 
ATOM     87  C   UNL A   1      45.409  33.867  30.333  1.00  0.00     0.134 A 
ATOM     88  F   UNL A   1      43.670  34.331  27.179  1.00  0.00    -0.206 F 
ATOM     89  C   UNL A   1      44.798  35.886  28.528  1.00  0.00     0.040 A 
ATOM     90  C   UNL A   1      45.828  35.175  30.584  1.00  0.00     0.040 A 
ATOM     91  F   UNL A   1      45.731  32.922  31.229  1.00  0.00    -0.206 F 
ATOM     92  C   UNL A   1      45.527  36.189  29.678  1.00  0.00     0.006 A 
ENDBRANCH  68  85
ENDBRANCH  42  43
ENDBRANCH  34  37
ENDBRANCH  32  33
ENDBRANCH  31  32
ENDBRANCH   1  31
TORSDOF 16
ENDMDL
MODEL 3
REMARK VINA RESULT:     -11.8      3.952      9.211
REMARK SMILES O=C(C[C@@H](C(=O)N(c1ccccc1)c1ccccc1)[NH+]1CCOCC1)NCCCCNC(=O)c1ccc(-c2c3nc(c(-c4c(F)cccc4F)c4ccc([nH]4)c(-c4c(F)cccc4F)c4nc(c(-c5c(F)cccc5F)c5ccc2[nH]5)C=C4)C=C3)cc1
REMARK SMILES IDX 28 1 27 2 26 3 1 4 2 5 3 7 4 8 5 9 6 10 7 11 8 12 9 13 13 14
REMARK SMILES IDX 10 15 12 16 11 17 14 18 15 19 19 20 16 21 18 22 17 23 20 24
REMARK SMILES IDX 21 25 25 26 22 28 24 29 23 30 29 31 30 32 31 33 32 34 33 36
REMARK SMILES IDX 34 37 35 38 87 39 36 40 86 41 37 42 38 43 39 44 80 45 40 46
REMARK SMILES IDX 85 47 79 48 81 49 41 50 84 51 78 52 77 53 42 55 68 56 51 57
REMARK SMILES IDX 67 58 52 59 55 60 66 61 82 62 53 63 54 64 65 66 83 67 56 68
REMARK SMILES IDX 43 69 44 70 49 71 45 72 46 73 48 74 50 75 47 76 69 77 70 78
REMARK SMILES IDX 75 79 71 80 72 81 74 82 76 83 73 84 57 85 58 86 63 87 59 88
REMARK SMILES IDX 60 89 62 90 64 91 61 92
REMARK H PARENT 26 6 20 27 31 35 81 54 55 65
REMARK Flexibility Score: inf
ROOT
ATOM      1  C   UNL A   1      32.301  29.760  26.679  1.00  0.00     0.023 C 
ENDROOT
BRANCH   1   2
ATOM      2  C   UNL A   1      31.763  28.659  27.594  1.00  0.00     0.116 C 
BRANCH   2   3
ATOM      3  N   UNL A   1      31.220  27.492  26.908  1.00  0.00    -0.356 N 
ATOM      4  O   UNL A   1      33.261  26.617  26.299  1.00  0.00    -0.275 OA
ATOM      5  C   UNL A   1      32.041  26.508  26.391  1.00  0.00     0.226 C 
ATOM      6  H   UNL A   1      30.245  27.403  26.812  1.00  0.00     0.163 HD
BRANCH   5   7
ATOM      7  C   UNL A   1      31.345  25.225  25.977  1.00  0.00     0.175 C 
BRANCH   7   8
ATOM      8  C   UNL A   1      31.630  24.867  24.499  1.00  0.00     0.284 C 
BRANCH   8   9
ATOM      9  C   UNL A   1      31.745  23.325  24.441  1.00  0.00     0.290 C 
ATOM     10  O   UNL A   1      30.662  22.711  24.561  1.00  0.00    -0.267 OA
ATOM     11  N   UNL A   1      32.948  22.593  24.366  1.00  0.00    -0.276 N 
BRANCH  11  12
ATOM     12  C   UNL A   1      34.349  22.987  24.465  1.00  0.00     0.049 A 
ATOM     13  C   UNL A   1      35.207  22.872  23.341  1.00  0.00     0.027 A 
ATOM     14  C   UNL A   1      34.990  23.402  25.637  1.00  0.00     0.027 A 
ATOM     15  C   UNL A   1      36.604  23.007  23.429  1.00  0.00     0.002 A 
ATOM     16  C   UNL A   1      36.389  23.519  25.742  1.00  0.00     0.002 A 
ATOM     17  C   UNL A   1      37.201  23.295  24.644  1.00  0.00     0.000 A 
ENDBRANCH  11  12
BRANCH  11  18
ATOM     18  C   UNL A   1      32.713  21.175  24.442  1.00  0.00     0.049 A 
ATOM     19  C   UNL A   1      32.442  20.472  23.259  1.00  0.00     0.027 A 
ATOM     20  C   UNL A   1      32.967  20.467  25.620  1.00  0.00     0.027 A 
ATOM     21  C   UNL A   1      32.411  19.081  23.249  1.00  0.00     0.002 A 
ATOM     22  C   UNL A   1      32.929  19.069  25.607  1.00  0.00     0.002 A 
ATOM     23  C   UNL A   1      32.653  18.378  24.425  1.00  0.00     0.000 A 
ENDBRANCH  11  18
ENDBRANCH   8   9
BRANCH   8  24
ATOM     24  N   UNL A   1      30.578  25.223  23.495  1.00  0.00    -0.320 N 
ATOM     25  C   UNL A   1      31.104  25.530  22.153  1.00  0.00     0.291 C 
ATOM     26  C   UNL A   1      29.540  26.194  23.855  1.00  0.00     0.291 C 
ATOM     27  H   UNL A   1      30.082  24.332  23.485  1.00  0.00     0.348 HD
ATOM     28  C   UNL A   1      31.551  26.995  22.032  1.00  0.00     0.221 C 
ATOM     29  C   UNL A   1      29.953  27.659  23.638  1.00  0.00     0.221 C 
ATOM     30  O   UNL A   1      30.461  27.883  22.317  1.00  0.00    -0.370 OA
ENDBRANCH   8  24
ENDBRANCH   7   8
ENDBRANCH   5   7
ENDBRANCH   2   3
ENDBRANCH   1   2
BRANCH   1  31
ATOM     31  C   UNL A   1      31.798  31.182  26.955  1.00  0.00     0.023 C 
BRANCH  31  32
ATOM     32  C   UNL A   1      32.839  32.307  26.909  1.00  0.00     0.116 C 
BRANCH  32  33
ATOM     33  N   UNL A   1      32.416  33.561  27.505  1.00  0.00    -0.352 N 
ATOM     34  C   UNL A   1      33.089  34.361  28.401  1.00  0.00     0.251 C 
ATOM     35  H   UNL A   1      31.526  33.882  27.232  1.00  0.00     0.163 HD
ATOM     36  O   UNL A   1      32.581  35.414  28.788  1.00  0.00    -0.269 OA
BRANCH  34  37
ATOM     37  C   UNL A   1      34.401  33.947  28.955  1.00  0.00     0.039 A 
ATOM     38  C   UNL A   1      34.417  33.132  30.090  1.00  0.00     0.014 A 
ATOM     39  C   UNL A   1      35.609  34.350  28.383  1.00  0.00     0.014 A 
ATOM     40  C   UNL A   1      35.634  32.651  30.595  1.00  0.00     0.010 A 
ATOM     41  C   UNL A   1      36.819  33.822  28.860  1.00  0.00     0.010 A 
ATOM     42  C   UNL A   1      36.852  32.944  29.955  1.00  0.00    -0.014 A 
BRANCH  42  43
ATOM     43  C   UNL A   1      38.126  32.285  30.390  1.00  0.00     0.031 A 
ATOM     44  C   UNL A   1      38.999  32.866  31.479  1.00  0.00     0.074 A 
ATOM     45  C   UNL A   1      38.548  31.164  29.767  1.00  0.00     0.049 A 
ATOM     46  N   UNL A   1      40.133  32.413  31.959  1.00  0.00    -0.248 NA
ATOM     47  C   UNL A   1      38.562  34.132  32.081  1.00  0.00     0.031 C 
ATOM     48  C   UNL A   1      37.875  30.515  28.640  1.00  0.00     0.029 A 
ATOM     49  N   UNL A   1      39.648  30.366  29.993  1.00  0.00    -0.354 N 
ATOM     50  C   UNL A   1      40.555  33.347  32.898  1.00  0.00     0.074 A 
ATOM     51  C   UNL A   1      39.579  34.417  32.884  1.00  0.00     0.031 C 
ATOM     52  C   UNL A   1      38.543  29.399  28.308  1.00  0.00     0.029 A 
ATOM     53  C   UNL A   1      39.713  29.265  29.170  1.00  0.00     0.049 A 
ATOM     54  H   UNL A   1      40.325  30.565  30.679  1.00  0.00     0.167 HD
ATOM     55  C   UNL A   1      41.638  33.313  33.715  1.00  0.00     0.037 A 
ATOM     56  C   UNL A   1      40.604  28.255  29.110  1.00  0.00     0.037 A 
ATOM     57  C   UNL A   1      42.591  32.234  33.784  1.00  0.00     0.049 A 
ATOM     58  C   UNL A   1      41.770  28.215  30.058  1.00  0.00     0.074 A 
ATOM     59  C   UNL A   1      43.656  32.081  34.659  1.00  0.00     0.029 A 
ATOM     60  N   UNL A   1      42.600  31.125  32.954  1.00  0.00    -0.354 N 
ATOM     61  N   UNL A   1      42.095  29.061  31.004  1.00  0.00    -0.248 NA
ATOM     62  C   UNL A   1      42.689  27.073  29.934  1.00  0.00     0.031 C 
ATOM     63  C   UNL A   1      44.332  30.900  34.333  1.00  0.00     0.029 A 
ATOM     64  C   UNL A   1      43.662  30.295  33.285  1.00  0.00     0.049 A 
ATOM     65  H   UNL A   1      41.949  30.952  32.236  1.00  0.00     0.167 HD
ATOM     66  C   UNL A   1      43.236  28.539  31.602  1.00  0.00     0.074 A 
ATOM     67  C   UNL A   1      43.539  27.298  30.925  1.00  0.00     0.031 C 
ATOM     68  C   UNL A   1      43.963  29.051  32.625  1.00  0.00     0.037 A 
BRANCH  55  69
ATOM     69  C   UNL A   1      41.851  34.482  34.637  1.00  0.00     0.057 A 
ATOM     70  C   UNL A   1      41.327  34.502  35.936  1.00  0.00     0.134 A 
ATOM     71  C   UNL A   1      42.645  35.567  34.244  1.00  0.00     0.134 A 
ATOM     72  F   UNL A   1      40.558  33.494  36.374  1.00  0.00    -0.206 F 
ATOM     73  C   UNL A   1      41.562  35.572  36.801  1.00  0.00     0.040 A 
ATOM     74  C   UNL A   1      42.910  36.630  35.109  1.00  0.00     0.040 A 
ATOM     75  F   UNL A   1      43.192  35.604  33.019  1.00  0.00    -0.206 F 
ATOM     76  C   UNL A   1      42.361  36.637  36.391  1.00  0.00     0.006 A 
ENDBRANCH  55  69
BRANCH  56  77
ATOM     77  C   UNL A   1      40.411  27.154  28.131  1.00  0.00     0.057 A 
ATOM     78  C   UNL A   1      39.606  26.051  28.441  1.00  0.00     0.134 A 
ATOM     79  C   UNL A   1      41.041  27.166  26.882  1.00  0.00     0.134 A 
ATOM     80  F   UNL A   1      38.997  25.975  29.633  1.00  0.00    -0.206 F 
ATOM     81  C   UNL A   1      39.451  24.987  27.552  1.00  0.00     0.040 A 
ATOM     82  C   UNL A   1      40.874  26.120  25.973  1.00  0.00     0.040 A 
ATOM     83  F   UNL A   1      41.820  28.197  26.525  1.00  0.00    -0.206 F 
ATOM     84  C   UNL A   1      40.084  25.023  26.311  1.00  0.00     0.006 A 
ENDBRANCH  56  77
BRANCH  68  85
ATOM     85  C   UNL A   1      45.140  28.253  33.110  1.00  0.00     0.057 A 
ATOM     86  C   UNL A   1      46.431  28.457  32.609  1.00  0.00     0.134 A 
ATOM     87  C   UNL A   1      44.983  27.291  34.116  1.00  0.00     0.134 A 
ATOM     88  F   UNL A   1      46.649  29.354  31.634  1.00  0.00    -0.206 F 
ATOM     89  C   UNL A   1      47.522  27.719  33.076  1.00  0.00     0.040 A 
ATOM     90  C   UNL A   1      46.068  26.563  34.608  1.00  0.00     0.040 A 
ATOM     91  F   UNL A   1      43.774  27.049  34.644  1.00  0.00    -0.206 F 
ATOM     92  C   UNL A   1      47.342  26.772  34.084  1.00  0.00     0.006 A 
ENDBRANCH  68  85
ENDBRANCH  42  43
ENDBRANCH  34  37
ENDBRANCH  32  33
ENDBRANCH  31  32
ENDBRANCH   1  31
TORSDOF 16
ENDMDL
