MODEL 1
REMARK VINA RESULT:     -11.9      0.000      0.000
REMARK SMILES Cc1cc2c(c(C)c1Br)C=C(C(=O)NCCCCNC(=O)c1ccc(-c3c4nc(c(-c5c(F)cccc5F)c5ccc([nH]5)c(-c5c(F)cccc5F)c5nc(c(-c6c(F)cccc6F)c6ccc3[nH]6)C=C5)C=C4)cc1)[C@@H](C(F)(F)F)O2
REMARK SMILES IDX 17 1 16 2 15 3 14 4 12 5 13 6 11 8 1 9 2 10 3 11 8 12 4 13
REMARK SMILES IDX 6 14 9 15 5 16 81 17 7 18 10 19 76 20 77 21 78 22 79 23
REMARK SMILES IDX 80 24 18 25 19 26 20 27 21 29 22 30 23 31 75 32 24 33 74 34
REMARK SMILES IDX 25 35 26 36 27 37 68 38 28 39 73 40 67 41 69 42 29 43 72 44
REMARK SMILES IDX 66 45 65 46 30 48 56 49 39 50 55 51 40 52 43 53 54 54 70 55
REMARK SMILES IDX 41 56 42 57 53 59 71 60 44 61 31 62 32 63 37 64 33 65 34 66
REMARK SMILES IDX 36 67 38 68 35 69 57 70 58 71 63 72 59 73 60 74 62 75 64 76
REMARK SMILES IDX 61 77 45 78 46 79 51 80 47 81 48 82 50 83 52 84 49 85
REMARK H PARENT 14 7 19 28 69 47 43 58
REMARK Flexibility Score: inf
ROOT
ATOM      1  C   UNL A   1      33.937  28.530  25.670  1.00  0.00     0.023 C 
ENDROOT
BRANCH   1   2
ATOM      2  C   UNL A   1      33.761  27.143  25.049  1.00  0.00     0.023 C 
BRANCH   2   3
ATOM      3  C   UNL A   1      32.352  26.863  24.533  1.00  0.00     0.116 C 
BRANCH   3   4
ATOM      4  N   UNL A   1      31.536  26.190  25.528  1.00  0.00    -0.352 N 
ATOM      5  C   UNL A   1      31.446  24.946  26.056  1.00  0.00     0.251 C 
ATOM      6  O   UNL A   1      30.563  24.807  26.909  1.00  0.00    -0.270 OA
ATOM      7  H   UNL A   1      30.872  26.799  25.923  1.00  0.00     0.163 HD
BRANCH   5   8
ATOM      8  C   UNL A   1      32.311  23.783  25.693  1.00  0.00     0.067 C 
ATOM      9  C   UNL A   1      37.020  19.383  24.749  1.00  0.00     0.046 C 
ATOM     10  C   UNL A   1      36.199  20.597  25.095  1.00  0.00    -0.033 A 
ATOM     11  C   UNL A   1      34.813  20.520  24.933  1.00  0.00     0.051 A 
ATOM     12  C   UNL A   1      36.763  21.796  25.584  1.00  0.00     0.024 A 
ATOM     13  C   UNL A   1      34.002  21.609  25.235  1.00  0.00     0.128 A 
ATOM     14  C   UNL A   1      35.946  22.914  25.898  1.00  0.00    -0.026 A 
ATOM     15  Br  UNL A   1      38.660  21.866  25.831  1.00  0.00    -0.050 Br
ATOM     16  C   UNL A   1      34.543  22.801  25.722  1.00  0.00     0.021 A 
ATOM     17  O   UNL A   1      32.663  21.403  25.066  1.00  0.00    -0.475 OA
ATOM     18  C   UNL A   1      36.516  24.212  26.421  1.00  0.00     0.046 C 
ATOM     19  C   UNL A   1      33.601  23.873  26.067  1.00  0.00     0.026 C 
ATOM     20  C   UNL A   1      31.837  22.586  24.924  1.00  0.00     0.314 C 
BRANCH  20  21
ATOM     21  C   UNL A   1      31.620  22.882  23.430  1.00  0.00     0.429 C 
ATOM     22  F   UNL A   1      32.517  23.801  22.993  1.00  0.00    -0.167 F 
ATOM     23  F   UNL A   1      31.791  21.785  22.654  1.00  0.00    -0.167 F 
ATOM     24  F   UNL A   1      30.385  23.362  23.166  1.00  0.00    -0.167 F 
ENDBRANCH  20  21
ENDBRANCH   5   8
ENDBRANCH   3   4
ENDBRANCH   2   3
ENDBRANCH   1   2
BRANCH   1  25
ATOM     25  C   UNL A   1      33.754  28.599  27.185  1.00  0.00     0.116 C 
BRANCH  25  26
ATOM     26  N   UNL A   1      33.707  29.955  27.713  1.00  0.00    -0.352 N 
ATOM     27  C   UNL A   1      34.714  30.658  28.330  1.00  0.00     0.251 C 
ATOM     28  H   UNL A   1      32.848  30.426  27.616  1.00  0.00     0.163 HD
ATOM     29  O   UNL A   1      34.509  31.772  28.797  1.00  0.00    -0.269 OA
BRANCH  27  30
ATOM     30  C   UNL A   1      36.039  30.027  28.462  1.00  0.00     0.039 A 
ATOM     31  C   UNL A   1      36.940  30.123  27.398  1.00  0.00     0.014 A 
ATOM     32  C   UNL A   1      36.407  29.406  29.659  1.00  0.00     0.014 A 
ATOM     33  C   UNL A   1      38.246  29.664  27.564  1.00  0.00     0.010 A 
ATOM     34  C   UNL A   1      37.723  28.999  29.840  1.00  0.00     0.010 A 
ATOM     35  C   UNL A   1      38.655  29.136  28.799  1.00  0.00    -0.014 A 
BRANCH  35  36
ATOM     36  C   UNL A   1      40.060  28.729  29.038  1.00  0.00     0.031 A 
ATOM     37  C   UNL A   1      41.022  29.697  29.659  1.00  0.00     0.074 A 
ATOM     38  C   UNL A   1      40.482  27.520  28.621  1.00  0.00     0.049 A 
ATOM     39  N   UNL A   1      42.312  29.580  29.836  1.00  0.00    -0.248 NA
ATOM     40  C   UNL A   1      40.461  30.977  30.120  1.00  0.00     0.031 C 
ATOM     41  C   UNL A   1      39.645  26.505  27.979  1.00  0.00     0.029 A 
ATOM     42  N   UNL A   1      41.727  26.947  28.664  1.00  0.00    -0.354 N 
ATOM     43  C   UNL A   1      42.720  30.774  30.414  1.00  0.00     0.074 A 
ATOM     44  C   UNL A   1      41.550  31.618  30.520  1.00  0.00     0.031 C 
ATOM     45  C   UNL A   1      40.397  25.426  27.705  1.00  0.00     0.029 A 
ATOM     46  C   UNL A   1      41.772  25.689  28.117  1.00  0.00     0.049 A 
ATOM     47  H   UNL A   1      42.514  27.395  29.051  1.00  0.00     0.167 HD
ATOM     48  C   UNL A   1      43.956  31.126  30.837  1.00  0.00     0.037 A 
ATOM     49  C   UNL A   1      42.810  24.845  27.958  1.00  0.00     0.037 A 
ATOM     50  C   UNL A   1      45.115  30.277  30.749  1.00  0.00     0.049 A 
ATOM     51  C   UNL A   1      44.175  25.262  28.426  1.00  0.00     0.074 A 
ATOM     52  C   UNL A   1      46.406  30.532  31.174  1.00  0.00     0.029 A 
ATOM     53  N   UNL A   1      45.118  29.002  30.200  1.00  0.00    -0.354 N 
ATOM     54  N   UNL A   1      44.546  26.387  28.990  1.00  0.00    -0.248 NA
ATOM     55  C   UNL A   1      45.265  24.296  28.238  1.00  0.00     0.031 C 
ATOM     56  C   UNL A   1      47.197  29.422  30.858  1.00  0.00     0.029 A 
ATOM     57  C   UNL A   1      46.390  28.461  30.271  1.00  0.00     0.049 A 
ATOM     58  H   UNL A   1      44.331  28.550  29.818  1.00  0.00     0.167 HD
ATOM     59  C   UNL A   1      45.904  26.255  29.244  1.00  0.00     0.074 A 
ATOM     60  C   UNL A   1      46.290  24.938  28.782  1.00  0.00     0.031 C 
ATOM     61  C   UNL A   1      46.754  27.147  29.809  1.00  0.00     0.037 A 
BRANCH  48  62
ATOM     62  C   UNL A   1      44.114  32.489  31.440  1.00  0.00     0.057 A 
ATOM     63  C   UNL A   1      43.975  32.703  32.817  1.00  0.00     0.134 A 
ATOM     64  C   UNL A   1      44.435  33.595  30.643  1.00  0.00     0.134 A 
ATOM     65  F   UNL A   1      43.652  31.688  33.633  1.00  0.00    -0.206 F 
ATOM     66  C   UNL A   1      44.128  33.971  33.379  1.00  0.00     0.040 A 
ATOM     67  C   UNL A   1      44.615  34.864  31.196  1.00  0.00     0.040 A 
ATOM     68  F   UNL A   1      44.584  33.459  29.317  1.00  0.00    -0.206 F 
ATOM     69  C   UNL A   1      44.456  35.056  32.566  1.00  0.00     0.006 A 
ENDBRANCH  48  62
BRANCH  49  70
ATOM     70  C   UNL A   1      42.585  23.508  27.357  1.00  0.00     0.057 A 
ATOM     71  C   UNL A   1      42.761  23.303  25.983  1.00  0.00     0.134 A 
ATOM     72  C   UNL A   1      42.215  22.405  28.134  1.00  0.00     0.134 A 
ATOM     73  F   UNL A   1      43.099  24.328  25.187  1.00  0.00    -0.206 F 
ATOM     74  C   UNL A   1      42.571  22.049  25.402  1.00  0.00     0.040 A 
ATOM     75  C   UNL A   1      42.041  21.140  27.569  1.00  0.00     0.040 A 
ATOM     76  F   UNL A   1      42.038  22.537  29.457  1.00  0.00    -0.206 F 
ATOM     77  C   UNL A   1      42.216  20.962  26.198  1.00  0.00     0.006 A 
ENDBRANCH  49  70
BRANCH  61  78
ATOM     78  C   UNL A   1      48.179  26.718  29.987  1.00  0.00     0.057 A 
ATOM     79  C   UNL A   1      48.591  25.971  31.098  1.00  0.00     0.134 A 
ATOM     80  C   UNL A   1      49.137  27.009  29.009  1.00  0.00     0.134 A 
ATOM     81  F   UNL A   1      47.722  25.670  32.075  1.00  0.00    -0.206 F 
ATOM     82  C   UNL A   1      49.911  25.542  31.236  1.00  0.00     0.040 A 
ATOM     83  C   UNL A   1      50.455  26.567  29.125  1.00  0.00     0.040 A 
ATOM     84  F   UNL A   1      48.804  27.714  27.917  1.00  0.00    -0.206 F 
ATOM     85  C   UNL A   1      50.846  25.834  30.244  1.00  0.00     0.006 A 
ENDBRANCH  61  78
ENDBRANCH  35  36
ENDBRANCH  27  30
ENDBRANCH  25  26
ENDBRANCH   1  25
TORSDOF 12
ENDMDL
MODEL 2
REMARK VINA RESULT:     -11.7      2.507      7.227
REMARK SMILES Cc1cc2c(c(C)c1Br)C=C(C(=O)NCCCCNC(=O)c1ccc(-c3c4nc(c(-c5c(F)cccc5F)c5ccc([nH]5)c(-c5c(F)cccc5F)c5nc(c(-c6c(F)cccc6F)c6ccc3[nH]6)C=C5)C=C4)cc1)[C@@H](C(F)(F)F)O2
REMARK SMILES IDX 17 1 16 2 15 3 14 4 12 5 13 6 11 8 1 9 2 10 3 11 8 12 4 13
REMARK SMILES IDX 6 14 9 15 5 16 81 17 7 18 10 19 76 20 77 21 78 22 79 23
REMARK SMILES IDX 80 24 18 25 19 26 20 27 21 29 22 30 23 31 75 32 24 33 74 34
REMARK SMILES IDX 25 35 26 36 27 37 68 38 28 39 73 40 67 41 69 42 29 43 72 44
REMARK SMILES IDX 66 45 65 46 30 48 56 49 39 50 55 51 40 52 43 53 54 54 70 55
REMARK SMILES IDX 41 56 42 57 53 59 71 60 44 61 31 62 32 63 37 64 33 65 34 66
REMARK SMILES IDX 36 67 38 68 35 69 57 70 58 71 63 72 59 73 60 74 62 75 64 76
REMARK SMILES IDX 61 77 45 78 46 79 51 80 47 81 48 82 50 83 52 84 49 85
REMARK H PARENT 14 7 19 28 69 47 43 58
REMARK Flexibility Score: inf
ROOT
ATOM      1  C   UNL A   1      37.507  20.800  24.905  1.00  0.00     0.023 C 
ENDROOT
BRANCH   1   2
ATOM      2  C   UNL A   1      36.989  22.065  24.216  1.00  0.00     0.023 C 
BRANCH   2   3
ATOM      3  C   UNL A   1      36.798  23.254  25.154  1.00  0.00     0.116 C 
BRANCH   3   4
ATOM      4  N   UNL A   1      35.946  22.921  26.282  1.00  0.00    -0.352 N 
ATOM      5  C   UNL A   1      34.679  23.188  26.677  1.00  0.00     0.251 C 
ATOM      6  O   UNL A   1      34.354  22.684  27.758  1.00  0.00    -0.270 OA
ATOM      7  H   UNL A   1      36.414  22.349  26.932  1.00  0.00     0.163 HD
BRANCH   5   8
ATOM      8  C   UNL A   1      33.688  24.013  25.921  1.00  0.00     0.067 C 
ATOM      9  C   UNL A   1      29.969  28.629  23.221  1.00  0.00     0.046 C 
ATOM     10  C   UNL A   1      30.953  27.834  24.038  1.00  0.00    -0.033 A 
ATOM     11  C   UNL A   1      31.122  26.481  23.729  1.00  0.00     0.051 A 
ATOM     12  C   UNL A   1      31.715  28.394  25.087  1.00  0.00     0.024 A 
ATOM     13  C   UNL A   1      32.015  25.696  24.449  1.00  0.00     0.128 A 
ATOM     14  C   UNL A   1      32.632  27.603  25.828  1.00  0.00    -0.026 A 
ATOM     15  Br  UNL A   1      31.491  30.256  25.470  1.00  0.00    -0.050 Br
ATOM     16  C   UNL A   1      32.779  26.234  25.488  1.00  0.00     0.021 A 
ATOM     17  O   UNL A   1      32.116  24.399  24.034  1.00  0.00    -0.475 OA
ATOM     18  C   UNL A   1      33.461  28.170  26.957  1.00  0.00     0.046 C 
ATOM     19  C   UNL A   1      33.736  25.339  26.149  1.00  0.00     0.026 C 
ATOM     20  C   UNL A   1      32.657  23.452  24.989  1.00  0.00     0.314 C 
BRANCH  20  21
ATOM     21  C   UNL A   1      31.501  22.753  25.727  1.00  0.00     0.429 C 
ATOM     22  F   UNL A   1      31.725  21.417  25.799  1.00  0.00    -0.167 F 
ATOM     23  F   UNL A   1      31.363  23.185  27.003  1.00  0.00    -0.167 F 
ATOM     24  F   UNL A   1      30.308  22.933  25.118  1.00  0.00    -0.167 F 
ENDBRANCH  20  21
ENDBRANCH   5   8
ENDBRANCH   3   4
ENDBRANCH   2   3
ENDBRANCH   1   2
BRANCH   1  25
ATOM     25  C   UNL A   1      38.781  20.977  25.728  1.00  0.00     0.116 C 
BRANCH  25  26
ATOM     26  N   UNL A   1      39.700  19.850  25.642  1.00  0.00    -0.352 N 
ATOM     27  C   UNL A   1      41.028  19.812  25.993  1.00  0.00     0.251 C 
ATOM     28  H   UNL A   1      39.322  19.012  25.289  1.00  0.00     0.163 HD
ATOM     29  O   UNL A   1      41.703  18.808  25.792  1.00  0.00    -0.269 OA
BRANCH  27  30
ATOM     30  C   UNL A   1      41.641  21.019  26.574  1.00  0.00     0.039 A 
ATOM     31  C   UNL A   1      42.165  21.988  25.714  1.00  0.00     0.014 A 
ATOM     32  C   UNL A   1      41.632  21.218  27.957  1.00  0.00     0.014 A 
ATOM     33  C   UNL A   1      42.611  23.200  26.239  1.00  0.00     0.010 A 
ATOM     34  C   UNL A   1      42.026  22.447  28.473  1.00  0.00     0.010 A 
ATOM     35  C   UNL A   1      42.507  23.451  27.617  1.00  0.00    -0.014 A 
BRANCH  35  36
ATOM     36  C   UNL A   1      42.882  24.763  28.193  1.00  0.00     0.031 A 
ATOM     37  C   UNL A   1      41.829  25.807  28.419  1.00  0.00     0.074 A 
ATOM     38  C   UNL A   1      44.177  25.038  28.435  1.00  0.00     0.049 A 
ATOM     39  N   UNL A   1      41.968  27.052  28.794  1.00  0.00    -0.248 NA
ATOM     40  C   UNL A   1      40.437  25.403  28.166  1.00  0.00     0.031 C 
ATOM     41  C   UNL A   1      45.293  24.112  28.229  1.00  0.00     0.029 A 
ATOM     42  N   UNL A   1      44.775  26.183  28.895  1.00  0.00    -0.354 N 
ATOM     43  C   UNL A   1      40.686  27.584  28.807  1.00  0.00     0.074 A 
ATOM     44  C   UNL A   1      39.788  26.541  28.363  1.00  0.00     0.031 C 
ATOM     45  C   UNL A   1      46.438  24.721  28.579  1.00  0.00     0.029 A 
ATOM     46  C   UNL A   1      46.141  26.087  28.997  1.00  0.00     0.049 A 
ATOM     47  H   UNL A   1      44.273  26.997  29.131  1.00  0.00     0.167 HD
ATOM     48  C   UNL A   1      40.293  28.825  29.176  1.00  0.00     0.037 A 
ATOM     49  C   UNL A   1      47.053  27.003  29.377  1.00  0.00     0.037 A 
ATOM     50  C   UNL A   1      41.187  29.855  29.636  1.00  0.00     0.049 A 
ATOM     51  C   UNL A   1      46.593  28.378  29.772  1.00  0.00     0.074 A 
ATOM     52  C   UNL A   1      40.882  31.136  30.058  1.00  0.00     0.029 A 
ATOM     53  N   UNL A   1      42.564  29.715  29.738  1.00  0.00    -0.354 N 
ATOM     54  N   UNL A   1      45.375  28.864  29.800  1.00  0.00    -0.248 NA
ATOM     55  C   UNL A   1      47.630  29.330  30.190  1.00  0.00     0.031 C 
ATOM     56  C   UNL A   1      42.079  31.782  30.391  1.00  0.00     0.029 A 
ATOM     57  C   UNL A   1      43.123  30.890  30.212  1.00  0.00     0.049 A 
ATOM     58  H   UNL A   1      43.067  28.901  29.509  1.00  0.00     0.167 HD
ATOM     59  C   UNL A   1      45.497  30.168  30.257  1.00  0.00     0.074 A 
ATOM     60  C   UNL A   1      46.906  30.395  30.505  1.00  0.00     0.031 C 
ATOM     61  C   UNL A   1      44.527  31.095  30.455  1.00  0.00     0.037 A 
BRANCH  48  62
ATOM     62  C   UNL A   1      38.828  29.132  29.101  1.00  0.00     0.057 A 
ATOM     63  C   UNL A   1      38.004  29.057  30.232  1.00  0.00     0.134 A 
ATOM     64  C   UNL A   1      38.237  29.533  27.896  1.00  0.00     0.134 A 
ATOM     65  F   UNL A   1      38.505  28.664  31.412  1.00  0.00    -0.206 F 
ATOM     66  C   UNL A   1      36.641  29.350  30.163  1.00  0.00     0.040 A 
ATOM     67  C   UNL A   1      36.881  29.851  27.820  1.00  0.00     0.040 A 
ATOM     68  F   UNL A   1      38.971  29.627  26.777  1.00  0.00    -0.206 F 
ATOM     69  C   UNL A   1      36.077  29.755  28.954  1.00  0.00     0.006 A 
ENDBRANCH  48  62
BRANCH  49  70
ATOM     70  C   UNL A   1      48.487  26.634  29.433  1.00  0.00     0.057 A 
ATOM     71  C   UNL A   1      49.341  26.916  28.359  1.00  0.00     0.134 A 
ATOM     72  C   UNL A   1      49.045  26.015  30.557  1.00  0.00     0.134 A 
ATOM     73  F   UNL A   1      48.858  27.493  27.249  1.00  0.00    -0.206 F 
ATOM     74  C   UNL A   1      50.697  26.592  28.400  1.00  0.00     0.040 A 
ATOM     75  C   UNL A   1      50.404  25.703  30.619  1.00  0.00     0.040 A 
ATOM     76  F   UNL A   1      48.280  25.725  31.620  1.00  0.00    -0.206 F 
ATOM     77  C   UNL A   1      51.233  25.989  29.536  1.00  0.00     0.006 A 
ENDBRANCH  49  70
BRANCH  61  78
ATOM     78  C   UNL A   1      44.952  32.429  30.991  1.00  0.00     0.057 A 
ATOM     79  C   UNL A   1      45.276  33.494  30.142  1.00  0.00     0.134 A 
ATOM     80  C   UNL A   1      44.984  32.664  32.370  1.00  0.00     0.134 A 
ATOM     81  F   UNL A   1      45.275  33.327  28.811  1.00  0.00    -0.206 F 
ATOM     82  C   UNL A   1      45.632  34.744  30.648  1.00  0.00     0.040 A 
ATOM     83  C   UNL A   1      45.317  33.916  32.888  1.00  0.00     0.040 A 
ATOM     84  F   UNL A   1      44.676  31.687  33.236  1.00  0.00    -0.206 F 
ATOM     85  C   UNL A   1      45.646  34.960  32.025  1.00  0.00     0.006 A 
ENDBRANCH  61  78
ENDBRANCH  35  36
ENDBRANCH  27  30
ENDBRANCH  25  26
ENDBRANCH   1  25
TORSDOF 12
ENDMDL
MODEL 3
REMARK VINA RESULT:     -11.7      2.474      7.424
REMARK SMILES Cc1cc2c(c(C)c1Br)C=C(C(=O)NCCCCNC(=O)c1ccc(-c3c4nc(c(-c5c(F)cccc5F)c5ccc([nH]5)c(-c5c(F)cccc5F)c5nc(c(-c6c(F)cccc6F)c6ccc3[nH]6)C=C5)C=C4)cc1)[C@@H](C(F)(F)F)O2
REMARK SMILES IDX 17 1 16 2 15 3 14 4 12 5 13 6 11 8 1 9 2 10 3 11 8 12 4 13
REMARK SMILES IDX 6 14 9 15 5 16 81 17 7 18 10 19 76 20 77 21 78 22 79 23
REMARK SMILES IDX 80 24 18 25 19 26 20 27 21 29 22 30 23 31 75 32 24 33 74 34
REMARK SMILES IDX 25 35 26 36 27 37 68 38 28 39 73 40 67 41 69 42 29 43 72 44
REMARK SMILES IDX 66 45 65 46 30 48 56 49 39 50 55 51 40 52 43 53 54 54 70 55
REMARK SMILES IDX 41 56 42 57 53 59 71 60 44 61 31 62 32 63 37 64 33 65 34 66
REMARK SMILES IDX 36 67 38 68 35 69 57 70 58 71 63 72 59 73 60 74 62 75 64 76
REMARK SMILES IDX 61 77 45 78 46 79 51 80 47 81 48 82 50 83 52 84 49 85
REMARK H PARENT 14 7 19 28 69 47 43 58
REMARK Flexibility Score: inf
ROOT
ATOM      1  C   UNL A   1      37.671  20.284  24.955  1.00  0.00     0.023 C 
ENDROOT
BRANCH   1   2
ATOM      2  C   UNL A   1      36.914  21.505  24.426  1.00  0.00     0.023 C 
BRANCH   2   3
ATOM      3  C   UNL A   1      36.929  22.705  25.369  1.00  0.00     0.116 C 
BRANCH   3   4
ATOM      4  N   UNL A   1      36.001  22.537  26.474  1.00  0.00    -0.352 N 
ATOM      5  C   UNL A   1      34.731  22.905  26.763  1.00  0.00     0.251 C 
ATOM      6  O   UNL A   1      34.323  22.537  27.870  1.00  0.00    -0.270 OA
ATOM      7  H   UNL A   1      36.403  22.018  27.207  1.00  0.00     0.163 HD
BRANCH   5   8
ATOM      8  C   UNL A   1      33.828  23.689  25.867  1.00  0.00     0.067 C 
ATOM      9  C   UNL A   1      30.363  28.151  22.623  1.00  0.00     0.046 C 
ATOM     10  C   UNL A   1      31.251  27.397  23.579  1.00  0.00    -0.033 A 
ATOM     11  C   UNL A   1      31.508  26.049  23.311  1.00  0.00     0.051 A 
ATOM     12  C   UNL A   1      31.839  27.991  24.717  1.00  0.00     0.024 A 
ATOM     13  C   UNL A   1      32.319  25.301  24.157  1.00  0.00     0.128 A 
ATOM     14  C   UNL A   1      32.671  27.238  25.587  1.00  0.00    -0.026 A 
ATOM     15  Br  UNL A   1      31.500  29.846  25.044  1.00  0.00    -0.050 Br
ATOM     16  C   UNL A   1      32.911  25.873  25.286  1.00  0.00     0.021 A 
ATOM     17  O   UNL A   1      32.522  24.006  23.776  1.00  0.00    -0.475 OA
ATOM     18  C   UNL A   1      33.314  27.842  26.814  1.00  0.00     0.046 C 
ATOM     19  C   UNL A   1      33.797  25.017  26.085  1.00  0.00     0.026 C 
ATOM     20  C   UNL A   1      32.956  23.085  24.808  1.00  0.00     0.314 C 
BRANCH  20  21
ATOM     21  C   UNL A   1      31.734  22.350  25.385  1.00  0.00     0.429 C 
ATOM     22  F   UNL A   1      30.628  22.618  24.645  1.00  0.00    -0.167 F 
ATOM     23  F   UNL A   1      31.883  21.004  25.371  1.00  0.00    -0.167 F 
ATOM     24  F   UNL A   1      31.464  22.704  26.660  1.00  0.00    -0.167 F 
ENDBRANCH  20  21
ENDBRANCH   5   8
ENDBRANCH   3   4
ENDBRANCH   2   3
ENDBRANCH   1   2
BRANCH   1  25
ATOM     25  C   UNL A   1      38.922  20.592  25.775  1.00  0.00     0.116 C 
BRANCH  25  26
ATOM     26  N   UNL A   1      39.913  19.525  25.763  1.00  0.00    -0.352 N 
ATOM     27  C   UNL A   1      41.238  19.596  26.119  1.00  0.00     0.251 C 
ATOM     28  H   UNL A   1      39.593  18.644  25.462  1.00  0.00     0.163 HD
ATOM     29  O   UNL A   1      41.979  18.629  25.984  1.00  0.00    -0.269 OA
BRANCH  27  30
ATOM     30  C   UNL A   1      41.767  20.875  26.624  1.00  0.00     0.039 A 
ATOM     31  C   UNL A   1      42.263  21.807  25.709  1.00  0.00     0.014 A 
ATOM     32  C   UNL A   1      41.706  21.173  27.988  1.00  0.00     0.014 A 
ATOM     33  C   UNL A   1      42.627  23.077  26.154  1.00  0.00     0.010 A 
ATOM     34  C   UNL A   1      42.016  22.456  28.422  1.00  0.00     0.010 A 
ATOM     35  C   UNL A   1      42.467  23.421  27.507  1.00  0.00    -0.014 A 
BRANCH  35  36
ATOM     36  C   UNL A   1      42.753  24.791  27.994  1.00  0.00     0.031 A 
ATOM     37  C   UNL A   1      44.150  25.168  28.386  1.00  0.00     0.074 A 
ATOM     38  C   UNL A   1      41.740  25.663  28.156  1.00  0.00     0.049 A 
ATOM     39  N   UNL A   1      44.582  26.266  28.948  1.00  0.00    -0.248 NA
ATOM     40  C   UNL A   1      45.197  24.165  28.134  1.00  0.00     0.031 C 
ATOM     41  C   UNL A   1      40.335  25.402  27.836  1.00  0.00     0.029 A 
ATOM     42  N   UNL A   1      41.737  26.944  28.647  1.00  0.00    -0.354 N 
ATOM     43  C   UNL A   1      45.946  26.082  29.131  1.00  0.00     0.074 A 
ATOM     44  C   UNL A   1      46.262  24.751  28.659  1.00  0.00     0.031 C 
ATOM     45  C   UNL A   1      39.610  26.496  28.121  1.00  0.00     0.029 A 
ATOM     46  C   UNL A   1      40.490  27.518  28.678  1.00  0.00     0.049 A 
ATOM     47  H   UNL A   1      42.551  27.409  28.947  1.00  0.00     0.167 HD
ATOM     48  C   UNL A   1      46.854  26.952  29.629  1.00  0.00     0.037 A 
ATOM     49  C   UNL A   1      40.099  28.731  29.114  1.00  0.00     0.037 A 
ATOM     50  C   UNL A   1      46.539  28.282  30.080  1.00  0.00     0.049 A 
ATOM     51  C   UNL A   1      41.125  29.676  29.672  1.00  0.00     0.074 A 
ATOM     52  C   UNL A   1      47.394  29.250  30.576  1.00  0.00     0.029 A 
ATOM     53  N   UNL A   1      45.265  28.833  30.082  1.00  0.00    -0.354 N 
ATOM     54  N   UNL A   1      42.415  29.498  29.822  1.00  0.00    -0.248 NA
ATOM     55  C   UNL A   1      40.643  30.989  30.121  1.00  0.00     0.031 C 
ATOM     56  C   UNL A   1      46.633  30.378  30.904  1.00  0.00     0.029 A 
ATOM     57  C   UNL A   1      45.311  30.125  30.577  1.00  0.00     0.049 A 
ATOM     58  H   UNL A   1      44.451  28.372  29.776  1.00  0.00     0.167 HD
ATOM     59  C   UNL A   1      42.902  30.681  30.361  1.00  0.00     0.074 A 
ATOM     60  C   UNL A   1      41.770  31.574  30.502  1.00  0.00     0.031 C 
ATOM     61  C   UNL A   1      44.174  30.999  30.706  1.00  0.00     0.037 A 
BRANCH  48  62
ATOM     62  C   UNL A   1      48.278  26.490  29.706  1.00  0.00     0.057 A 
ATOM     63  C   UNL A   1      49.187  26.741  28.670  1.00  0.00     0.134 A 
ATOM     64  C   UNL A   1      48.755  25.813  30.835  1.00  0.00     0.134 A 
ATOM     65  F   UNL A   1      48.789  27.370  27.554  1.00  0.00    -0.206 F 
ATOM     66  C   UNL A   1      50.514  26.316  28.745  1.00  0.00     0.040 A 
ATOM     67  C   UNL A   1      50.085  25.405  30.932  1.00  0.00     0.040 A 
ATOM     68  F   UNL A   1      47.936  25.544  31.864  1.00  0.00    -0.206 F 
ATOM     69  C   UNL A   1      50.968  25.651  29.883  1.00  0.00     0.006 A 
ENDBRANCH  48  62
BRANCH  49  70
ATOM     70  C   UNL A   1      38.675  29.128  29.006  1.00  0.00     0.057 A 
ATOM     71  C   UNL A   1      38.150  29.589  27.793  1.00  0.00     0.134 A 
ATOM     72  C   UNL A   1      37.801  29.036  30.096  1.00  0.00     0.134 A 
ATOM     73  F   UNL A   1      38.946  29.714  26.720  1.00  0.00    -0.206 F 
ATOM     74  C   UNL A   1      36.809  29.950  27.667  1.00  0.00     0.040 A 
ATOM     75  C   UNL A   1      36.452  29.375  29.979  1.00  0.00     0.040 A 
ATOM     76  F   UNL A   1      38.242  28.594  31.283  1.00  0.00    -0.206 F 
ATOM     77  C   UNL A   1      35.954  29.837  28.762  1.00  0.00     0.006 A 
ENDBRANCH  49  70
BRANCH  61  78
ATOM     78  C   UNL A   1      44.415  32.377  31.244  1.00  0.00     0.057 A 
ATOM     79  C   UNL A   1      44.373  32.650  32.616  1.00  0.00     0.134 A 
ATOM     80  C   UNL A   1      44.745  33.429  30.382  1.00  0.00     0.134 A 
ATOM     81  F   UNL A   1      44.051  31.686  33.492  1.00  0.00    -0.206 F 
ATOM     82  C   UNL A   1      44.637  33.928  33.111  1.00  0.00     0.040 A 
ATOM     83  C   UNL A   1      45.032  34.706  30.866  1.00  0.00     0.040 A 
ATOM     84  F   UNL A   1      44.809  33.230  29.057  1.00  0.00    -0.206 F 
ATOM     85  C   UNL A   1      44.975  34.958  32.236  1.00  0.00     0.006 A 
ENDBRANCH  61  78
ENDBRANCH  35  36
ENDBRANCH  27  30
ENDBRANCH  25  26
ENDBRANCH   1  25
TORSDOF 12
ENDMDL
