MODEL 1
REMARK VINA RESULT:     -11.8      0.000      0.000
REMARK SMILES O=C(CSc1nc(-c2cccc(F)c2)n[nH]1)NCCCCNC(=O)c1ccc(-c2c3nc(c(-c4c(F)cccc4F)c4ccc([nH]4)c(-c4c(F)cccc4F)c4nc(c(-c5c(F)cccc5F)c5ccc2[nH]5)C=C4)C=C3)cc1
REMARK SMILES IDX 19 1 18 2 17 3 1 4 2 5 3 7 4 8 5 9 6 10 16 11 7 12 15 13
REMARK SMILES IDX 8 15 9 16 14 17 10 18 12 19 11 20 13 21 20 22 21 23 22 24
REMARK SMILES IDX 23 25 24 27 25 28 26 29 78 30 27 31 77 32 28 33 29 34 30 35
REMARK SMILES IDX 71 36 31 37 76 38 70 39 72 40 32 41 75 42 69 43 68 44 33 46
REMARK SMILES IDX 59 47 42 48 58 49 43 50 46 51 57 52 73 53 44 54 45 55 56 57
REMARK SMILES IDX 74 58 47 59 34 60 35 61 40 62 36 63 37 64 39 65 41 66 38 67
REMARK SMILES IDX 60 68 61 69 66 70 62 71 63 72 65 73 67 74 64 75 48 76 49 77
REMARK SMILES IDX 54 78 50 79 51 80 53 81 55 82 52 83
REMARK H PARENT 17 6 16 14 22 26 72 45 46 56
REMARK Flexibility Score: inf
ROOT
ATOM      1  C   UNL A   1      31.502  30.849  25.884  1.00  0.00     0.023 C 
ENDROOT
BRANCH   1   2
ATOM      2  C   UNL A   1      31.883  29.526  26.546  1.00  0.00     0.116 C 
BRANCH   2   3
ATOM      3  N   UNL A   1      32.098  28.464  25.585  1.00  0.00    -0.355 N 
ATOM      4  O   UNL A   1      31.112  26.810  26.836  1.00  0.00    -0.274 OA
ATOM      5  C   UNL A   1      31.639  27.173  25.789  1.00  0.00     0.230 C 
ATOM      6  H   UNL A   1      32.587  28.667  24.756  1.00  0.00     0.163 HD
BRANCH   5   7
ATOM      7  C   UNL A   1      31.917  26.209  24.647  1.00  0.00     0.178 C 
BRANCH   7   8
ATOM      8  S   UNL A   1      30.406  25.348  24.127  1.00  0.00    -0.077 SA
BRANCH   8   9
ATOM      9  C   UNL A   1      29.419  26.665  23.626  1.00  0.00     0.184 A 
ATOM     10  N   UNL A   1      29.770  27.825  23.129  1.00  0.00    -0.201 NA
ATOM     11  N   UNL A   1      28.076  26.622  23.800  1.00  0.00    -0.254 N 
ATOM     12  C   UNL A   1      28.571  28.509  23.074  1.00  0.00     0.182 A 
ATOM     13  N   UNL A   1      27.507  27.789  23.473  1.00  0.00    -0.153 NA
ATOM     14  H   UNL A   1      27.581  25.835  24.126  1.00  0.00     0.192 HD
BRANCH  12  15
ATOM     15  C   UNL A   1      28.466  29.907  22.686  1.00  0.00     0.024 A 
ATOM     16  C   UNL A   1      28.743  30.934  23.598  1.00  0.00     0.012 A 
ATOM     17  C   UNL A   1      28.103  30.235  21.374  1.00  0.00     0.051 A 
ATOM     18  C   UNL A   1      28.677  32.273  23.194  1.00  0.00     0.004 A 
ATOM     19  C   UNL A   1      28.024  31.567  20.989  1.00  0.00     0.123 A 
ATOM     20  C   UNL A   1      28.315  32.589  21.884  1.00  0.00     0.039 A 
ATOM     21  F   UNL A   1      27.664  31.871  19.735  1.00  0.00    -0.207 F 
ENDBRANCH  12  15
ENDBRANCH   8   9
ENDBRANCH   7   8
ENDBRANCH   5   7
ENDBRANCH   2   3
ENDBRANCH   1   2
BRANCH   1  22
ATOM     22  C   UNL A   1      31.302  32.027  26.840  1.00  0.00     0.023 C 
BRANCH  22  23
ATOM     23  C   UNL A   1      32.566  32.786  27.233  1.00  0.00     0.116 C 
BRANCH  23  24
ATOM     24  N   UNL A   1      32.317  34.173  27.586  1.00  0.00    -0.352 N 
ATOM     25  C   UNL A   1      32.966  34.980  28.490  1.00  0.00     0.251 C 
ATOM     26  H   UNL A   1      31.572  34.601  27.103  1.00  0.00     0.163 HD
ATOM     27  O   UNL A   1      32.521  36.096  28.743  1.00  0.00    -0.269 OA
BRANCH  25  28
ATOM     28  C   UNL A   1      34.180  34.501  29.190  1.00  0.00     0.039 A 
ATOM     29  C   UNL A   1      34.043  33.923  30.455  1.00  0.00     0.014 A 
ATOM     30  C   UNL A   1      35.448  34.620  28.614  1.00  0.00     0.014 A 
ATOM     31  C   UNL A   1      35.163  33.397  31.106  1.00  0.00     0.010 A 
ATOM     32  C   UNL A   1      36.550  34.028  29.229  1.00  0.00     0.010 A 
ATOM     33  C   UNL A   1      36.419  33.405  30.479  1.00  0.00    -0.014 A 
BRANCH  33  34
ATOM     34  C   UNL A   1      37.599  32.751  31.106  1.00  0.00     0.031 A 
ATOM     35  C   UNL A   1      38.224  31.537  30.475  1.00  0.00     0.074 A 
ATOM     36  C   UNL A   1      38.072  33.215  32.279  1.00  0.00     0.049 A 
ATOM     37  N   UNL A   1      39.209  30.794  30.914  1.00  0.00    -0.248 NA
ATOM     38  C   UNL A   1      37.656  31.085  29.196  1.00  0.00     0.031 C 
ATOM     39  C   UNL A   1      37.533  34.360  33.014  1.00  0.00     0.029 A 
ATOM     40  N   UNL A   1      39.111  32.777  33.065  1.00  0.00    -0.354 N 
ATOM     41  C   UNL A   1      39.373  29.788  29.971  1.00  0.00     0.074 A 
ATOM     42  C   UNL A   1      38.350  29.980  28.966  1.00  0.00     0.031 C 
ATOM     43  C   UNL A   1      38.262  34.552  34.125  1.00  0.00     0.029 A 
ATOM     44  C   UNL A   1      39.289  33.518  34.208  1.00  0.00     0.049 A 
ATOM     45  H   UNL A   1      39.674  32.003  32.831  1.00  0.00     0.167 HD
ATOM     46  C   UNL A   1      40.308  28.809  29.932  1.00  0.00     0.037 A 
ATOM     47  C   UNL A   1      40.173  33.381  35.215  1.00  0.00     0.037 A 
ATOM     48  C   UNL A   1      41.339  28.631  30.922  1.00  0.00     0.049 A 
ATOM     49  C   UNL A   1      41.184  32.269  35.164  1.00  0.00     0.074 A 
ATOM     50  C   UNL A   1      42.358  27.696  30.941  1.00  0.00     0.029 A 
ATOM     51  N   UNL A   1      41.482  29.402  32.066  1.00  0.00    -0.354 N 
ATOM     52  N   UNL A   1      41.356  31.355  34.242  1.00  0.00    -0.248 NA
ATOM     53  C   UNL A   1      42.123  32.170  36.291  1.00  0.00     0.031 C 
ATOM     54  C   UNL A   1      43.086  27.865  32.122  1.00  0.00     0.029 A 
ATOM     55  C   UNL A   1      42.557  28.945  32.810  1.00  0.00     0.049 A 
ATOM     56  H   UNL A   1      40.904  30.159  32.313  1.00  0.00     0.167 HD
ATOM     57  C   UNL A   1      42.437  30.588  34.662  1.00  0.00     0.074 A 
ATOM     58  C   UNL A   1      42.887  31.152  35.917  1.00  0.00     0.031 C 
ATOM     59  C   UNL A   1      43.001  29.514  34.058  1.00  0.00     0.037 A 
BRANCH  46  60
ATOM     60  C   UNL A   1      40.275  27.856  28.772  1.00  0.00     0.057 A 
ATOM     61  C   UNL A   1      39.584  26.640  28.861  1.00  0.00     0.134 A 
ATOM     62  C   UNL A   1      40.988  28.107  27.592  1.00  0.00     0.134 A 
ATOM     63  F   UNL A   1      38.887  26.332  29.965  1.00  0.00    -0.206 F 
ATOM     64  C   UNL A   1      39.612  25.706  27.824  1.00  0.00     0.040 A 
ATOM     65  C   UNL A   1      41.000  27.193  26.536  1.00  0.00     0.040 A 
ATOM     66  F   UNL A   1      41.663  29.256  27.437  1.00  0.00    -0.206 F 
ATOM     67  C   UNL A   1      40.319  25.983  26.656  1.00  0.00     0.006 A 
ENDBRANCH  46  60
BRANCH  47  68
ATOM     68  C   UNL A   1      40.153  34.346  36.343  1.00  0.00     0.057 A 
ATOM     69  C   UNL A   1      39.369  34.127  37.483  1.00  0.00     0.134 A 
ATOM     70  C   UNL A   1      40.894  35.532  36.290  1.00  0.00     0.134 A 
ATOM     71  F   UNL A   1      38.629  33.014  37.593  1.00  0.00    -0.206 F 
ATOM     72  C   UNL A   1      39.304  35.063  38.517  1.00  0.00     0.040 A 
ATOM     73  C   UNL A   1      40.858  36.465  37.327  1.00  0.00     0.040 A 
ATOM     74  F   UNL A   1      41.678  35.790  35.233  1.00  0.00    -0.206 F 
ATOM     75  C   UNL A   1      40.053  36.236  38.441  1.00  0.00     0.006 A 
ENDBRANCH  47  68
BRANCH  59  76
ATOM     76  C   UNL A   1      44.187  28.878  34.725  1.00  0.00     0.057 A 
ATOM     77  C   UNL A   1      45.479  29.374  34.505  1.00  0.00     0.134 A 
ATOM     78  C   UNL A   1      44.062  27.726  35.509  1.00  0.00     0.134 A 
ATOM     79  F   UNL A   1      45.670  30.470  33.754  1.00  0.00    -0.206 F 
ATOM     80  C   UNL A   1      46.606  28.735  35.024  1.00  0.00     0.040 A 
ATOM     81  C   UNL A   1      45.179  27.093  36.056  1.00  0.00     0.040 A 
ATOM     82  F   UNL A   1      42.852  27.205  35.766  1.00  0.00    -0.206 F 
ATOM     83  C   UNL A   1      46.456  27.591  35.804  1.00  0.00     0.006 A 
ENDBRANCH  59  76
ENDBRANCH  33  34
ENDBRANCH  25  28
ENDBRANCH  23  24
ENDBRANCH  22  23
ENDBRANCH   1  22
TORSDOF 14
ENDMDL
MODEL 2
REMARK VINA RESULT:     -11.8      0.901      6.388
REMARK SMILES O=C(CSc1nc(-c2cccc(F)c2)n[nH]1)NCCCCNC(=O)c1ccc(-c2c3nc(c(-c4c(F)cccc4F)c4ccc([nH]4)c(-c4c(F)cccc4F)c4nc(c(-c5c(F)cccc5F)c5ccc2[nH]5)C=C4)C=C3)cc1
REMARK SMILES IDX 19 1 18 2 17 3 1 4 2 5 3 7 4 8 5 9 6 10 16 11 7 12 15 13
REMARK SMILES IDX 8 15 9 16 14 17 10 18 12 19 11 20 13 21 20 22 21 23 22 24
REMARK SMILES IDX 23 25 24 27 25 28 26 29 78 30 27 31 77 32 28 33 29 34 30 35
REMARK SMILES IDX 71 36 31 37 76 38 70 39 72 40 32 41 75 42 69 43 68 44 33 46
REMARK SMILES IDX 59 47 42 48 58 49 43 50 46 51 57 52 73 53 44 54 45 55 56 57
REMARK SMILES IDX 74 58 47 59 34 60 35 61 40 62 36 63 37 64 39 65 41 66 38 67
REMARK SMILES IDX 60 68 61 69 66 70 62 71 63 72 65 73 67 74 64 75 48 76 49 77
REMARK SMILES IDX 54 78 50 79 51 80 53 81 55 82 52 83
REMARK H PARENT 17 6 16 14 22 26 72 45 46 56
REMARK Flexibility Score: inf
ROOT
ATOM      1  C   UNL A   1      31.504  30.786  26.072  1.00  0.00     0.023 C 
ENDROOT
BRANCH   1   2
ATOM      2  C   UNL A   1      32.921  30.218  26.017  1.00  0.00     0.116 C 
BRANCH   2   3
ATOM      3  N   UNL A   1      33.144  29.393  24.848  1.00  0.00    -0.355 N 
ATOM      4  O   UNL A   1      33.549  27.450  26.004  1.00  0.00    -0.274 OA
ATOM      5  C   UNL A   1      33.395  28.034  24.935  1.00  0.00     0.230 C 
ATOM      6  H   UNL A   1      33.117  29.814  23.959  1.00  0.00     0.163 HD
BRANCH   5   7
ATOM      7  C   UNL A   1      33.556  27.328  23.598  1.00  0.00     0.178 C 
BRANCH   7   8
ATOM      8  S   UNL A   1      32.213  26.138  23.314  1.00  0.00    -0.077 SA
BRANCH   8   9
ATOM      9  C   UNL A   1      30.872  27.190  23.080  1.00  0.00     0.184 A 
ATOM     10  N   UNL A   1      30.843  28.403  22.590  1.00  0.00    -0.201 NA
ATOM     11  N   UNL A   1      29.635  26.829  23.501  1.00  0.00    -0.254 N 
ATOM     12  C   UNL A   1      29.531  28.786  22.799  1.00  0.00     0.182 A 
ATOM     13  N   UNL A   1      28.761  27.832  23.351  1.00  0.00    -0.153 NA
ATOM     14  H   UNL A   1      29.408  25.944  23.871  1.00  0.00     0.192 HD
BRANCH  12  15
ATOM     15  C   UNL A   1      29.034  30.122  22.514  1.00  0.00     0.024 A 
ATOM     16  C   UNL A   1      29.096  31.138  23.477  1.00  0.00     0.012 A 
ATOM     17  C   UNL A   1      28.501  30.408  21.250  1.00  0.00     0.051 A 
ATOM     18  C   UNL A   1      28.651  32.430  23.170  1.00  0.00     0.004 A 
ATOM     19  C   UNL A   1      28.046  31.688  20.963  1.00  0.00     0.123 A 
ATOM     20  C   UNL A   1      28.123  32.704  21.908  1.00  0.00     0.039 A 
ATOM     21  F   UNL A   1      27.529  31.948  19.755  1.00  0.00    -0.207 F 
ENDBRANCH  12  15
ENDBRANCH   8   9
ENDBRANCH   7   8
ENDBRANCH   5   7
ENDBRANCH   2   3
ENDBRANCH   1   2
BRANCH   1  22
ATOM     22  C   UNL A   1      31.401  32.251  26.502  1.00  0.00     0.023 C 
BRANCH  22  23
ATOM     23  C   UNL A   1      32.635  32.830  27.189  1.00  0.00     0.116 C 
BRANCH  23  24
ATOM     24  N   UNL A   1      32.455  34.203  27.631  1.00  0.00    -0.352 N 
ATOM     25  C   UNL A   1      33.114  34.902  28.614  1.00  0.00     0.251 C 
ATOM     26  H   UNL A   1      31.757  34.709  27.154  1.00  0.00     0.163 HD
ATOM     27  O   UNL A   1      32.727  36.024  28.931  1.00  0.00    -0.269 OA
BRANCH  25  28
ATOM     28  C   UNL A   1      34.268  34.300  29.322  1.00  0.00     0.039 A 
ATOM     29  C   UNL A   1      34.027  33.509  30.449  1.00  0.00     0.014 A 
ATOM     30  C   UNL A   1      35.579  34.511  28.888  1.00  0.00     0.014 A 
ATOM     31  C   UNL A   1      35.091  32.870  31.092  1.00  0.00     0.010 A 
ATOM     32  C   UNL A   1      36.629  33.814  29.482  1.00  0.00     0.010 A 
ATOM     33  C   UNL A   1      36.397  32.981  30.588  1.00  0.00    -0.014 A 
BRANCH  33  34
ATOM     34  C   UNL A   1      37.524  32.220  31.189  1.00  0.00     0.031 A 
ATOM     35  C   UNL A   1      38.031  32.562  32.563  1.00  0.00     0.074 A 
ATOM     36  C   UNL A   1      38.133  31.254  30.472  1.00  0.00     0.049 A 
ATOM     37  N   UNL A   1      39.047  32.058  33.217  1.00  0.00    -0.248 NA
ATOM     38  C   UNL A   1      37.320  33.627  33.287  1.00  0.00     0.031 C 
ATOM     39  C   UNL A   1      37.764  30.850  29.115  1.00  0.00     0.029 A 
ATOM     40  N   UNL A   1      39.197  30.442  30.781  1.00  0.00    -0.354 N 
ATOM     41  C   UNL A   1      39.099  32.743  34.424  1.00  0.00     0.074 A 
ATOM     42  C   UNL A   1      38.050  33.740  34.387  1.00  0.00     0.031 C 
ATOM     43  C   UNL A   1      38.566  29.848  28.721  1.00  0.00     0.029 A 
ATOM     44  C   UNL A   1      39.537  29.570  29.775  1.00  0.00     0.049 A 
ATOM     45  H   UNL A   1      39.672  30.482  31.643  1.00  0.00     0.167 HD
ATOM     46  C   UNL A   1      39.927  32.544  35.476  1.00  0.00     0.037 A 
ATOM     47  C   UNL A   1      40.521  28.653  29.703  1.00  0.00     0.037 A 
ATOM     48  C   UNL A   1      40.956  31.538  35.519  1.00  0.00     0.049 A 
ATOM     49  C   UNL A   1      41.446  28.468  30.873  1.00  0.00     0.074 A 
ATOM     50  C   UNL A   1      41.813  31.231  36.561  1.00  0.00     0.029 A 
ATOM     51  N   UNL A   1      41.269  30.678  34.477  1.00  0.00    -0.354 N 
ATOM     52  N   UNL A   1      41.452  29.092  32.024  1.00  0.00    -0.248 NA
ATOM     53  C   UNL A   1      42.501  27.452  30.735  1.00  0.00     0.031 C 
ATOM     54  C   UNL A   1      42.680  30.222  36.133  1.00  0.00     0.029 A 
ATOM     55  C   UNL A   1      42.324  29.858  34.844  1.00  0.00     0.049 A 
ATOM     56  H   UNL A   1      40.811  30.654  33.606  1.00  0.00     0.167 HD
ATOM     57  C   UNL A   1      42.489  28.530  32.758  1.00  0.00     0.074 A 
ATOM     58  C   UNL A   1      43.084  27.506  31.924  1.00  0.00     0.031 C 
ATOM     59  C   UNL A   1      42.909  28.838  34.009  1.00  0.00     0.037 A 
BRANCH  46  60
ATOM     60  C   UNL A   1      39.749  33.420  36.682  1.00  0.00     0.057 A 
ATOM     61  C   UNL A   1      38.827  33.085  37.683  1.00  0.00     0.134 A 
ATOM     62  C   UNL A   1      40.436  34.634  36.819  1.00  0.00     0.134 A 
ATOM     63  F   UNL A   1      38.129  31.942  37.611  1.00  0.00    -0.206 F 
ATOM     64  C   UNL A   1      38.588  33.930  38.769  1.00  0.00     0.040 A 
ATOM     65  C   UNL A   1      40.227  35.473  37.915  1.00  0.00     0.040 A 
ATOM     66  F   UNL A   1      41.340  35.010  35.902  1.00  0.00    -0.206 F 
ATOM     67  C   UNL A   1      39.291  35.126  38.888  1.00  0.00     0.006 A 
ENDBRANCH  46  60
BRANCH  47  68
ATOM     68  C   UNL A   1      40.657  27.821  28.480  1.00  0.00     0.057 A 
ATOM     69  C   UNL A   1      41.418  28.245  27.383  1.00  0.00     0.134 A 
ATOM     70  C   UNL A   1      39.996  26.593  28.367  1.00  0.00     0.134 A 
ATOM     71  F   UNL A   1      42.069  29.417  27.425  1.00  0.00    -0.206 F 
ATOM     72  C   UNL A   1      41.497  27.491  26.211  1.00  0.00     0.040 A 
ATOM     73  C   UNL A   1      40.087  25.816  27.211  1.00  0.00     0.040 A 
ATOM     74  F   UNL A   1      39.267  26.123  29.390  1.00  0.00    -0.206 F 
ATOM     75  C   UNL A   1      40.832  26.270  26.125  1.00  0.00     0.006 A 
ENDBRANCH  47  68
BRANCH  59  76
ATOM     76  C   UNL A   1      44.053  28.051  34.579  1.00  0.00     0.057 A 
ATOM     77  C   UNL A   1      43.818  26.868  35.294  1.00  0.00     0.134 A 
ATOM     78  C   UNL A   1      45.374  28.506  34.499  1.00  0.00     0.134 A 
ATOM     79  F   UNL A   1      42.573  26.382  35.418  1.00  0.00    -0.206 F 
ATOM     80  C   UNL A   1      44.854  26.178  35.926  1.00  0.00     0.040 A 
ATOM     81  C   UNL A   1      46.422  27.809  35.104  1.00  0.00     0.040 A 
ATOM     82  F   UNL A   1      45.668  29.625  33.821  1.00  0.00    -0.206 F 
ATOM     83  C   UNL A   1      46.161  26.649  35.830  1.00  0.00     0.006 A 
ENDBRANCH  59  76
ENDBRANCH  33  34
ENDBRANCH  25  28
ENDBRANCH  23  24
ENDBRANCH  22  23
ENDBRANCH   1  22
TORSDOF 14
ENDMDL
MODEL 3
REMARK VINA RESULT:     -11.8      6.283     10.555
REMARK SMILES O=C(CSc1nc(-c2cccc(F)c2)n[nH]1)NCCCCNC(=O)c1ccc(-c2c3nc(c(-c4c(F)cccc4F)c4ccc([nH]4)c(-c4c(F)cccc4F)c4nc(c(-c5c(F)cccc5F)c5ccc2[nH]5)C=C4)C=C3)cc1
REMARK SMILES IDX 19 1 18 2 17 3 1 4 2 5 3 7 4 8 5 9 6 10 16 11 7 12 15 13
REMARK SMILES IDX 8 15 9 16 14 17 10 18 12 19 11 20 13 21 20 22 21 23 22 24
REMARK SMILES IDX 23 25 24 27 25 28 26 29 78 30 27 31 77 32 28 33 29 34 30 35
REMARK SMILES IDX 71 36 31 37 76 38 70 39 72 40 32 41 75 42 69 43 68 44 33 46
REMARK SMILES IDX 59 47 42 48 58 49 43 50 46 51 57 52 73 53 44 54 45 55 56 57
REMARK SMILES IDX 74 58 47 59 34 60 35 61 40 62 36 63 37 64 39 65 41 66 38 67
REMARK SMILES IDX 60 68 61 69 66 70 62 71 63 72 65 73 67 74 64 75 48 76 49 77
REMARK SMILES IDX 54 78 50 79 51 80 53 81 55 82 52 83
REMARK H PARENT 17 6 16 14 22 26 72 45 46 56
REMARK Flexibility Score: inf
ROOT
ATOM      1  C   UNL A   1      36.515  20.453  25.001  1.00  0.00     0.023 C 
ENDROOT
BRANCH   1   2
ATOM      2  C   UNL A   1      36.685  21.772  25.750  1.00  0.00     0.116 C 
BRANCH   2   3
ATOM      3  N   UNL A   1      35.467  22.201  26.407  1.00  0.00    -0.355 N 
ATOM      4  O   UNL A   1      35.332  24.236  25.353  1.00  0.00    -0.274 OA
ATOM      5  C   UNL A   1      34.847  23.403  26.112  1.00  0.00     0.230 C 
ATOM      6  H   UNL A   1      35.065  21.615  27.089  1.00  0.00     0.163 HD
BRANCH   5   7
ATOM      7  C   UNL A   1      33.552  23.656  26.869  1.00  0.00     0.178 C 
BRANCH   7   8
ATOM      8  S   UNL A   1      32.129  23.714  25.743  1.00  0.00    -0.077 SA
BRANCH   8   9
ATOM      9  C   UNL A   1      32.217  22.162  25.005  1.00  0.00     0.184 A 
ATOM     10  N   UNL A   1      32.413  20.990  25.554  1.00  0.00    -0.201 NA
ATOM     11  N   UNL A   1      32.161  22.039  23.656  1.00  0.00    -0.254 N 
ATOM     12  C   UNL A   1      32.540  20.157  24.459  1.00  0.00     0.182 A 
ATOM     13  N   UNL A   1      32.381  20.775  23.275  1.00  0.00    -0.153 NA
ATOM     14  H   UNL A   1      31.983  22.784  23.036  1.00  0.00     0.192 HD
BRANCH  12  15
ATOM     15  C   UNL A   1      32.885  18.748  24.564  1.00  0.00     0.024 A 
ATOM     16  C   UNL A   1      32.566  18.008  25.710  1.00  0.00     0.012 A 
ATOM     17  C   UNL A   1      33.529  18.112  23.494  1.00  0.00     0.051 A 
ATOM     18  C   UNL A   1      32.869  16.642  25.775  1.00  0.00     0.004 A 
ATOM     19  C   UNL A   1      33.840  16.762  23.577  1.00  0.00     0.123 A 
ATOM     20  C   UNL A   1      33.510  16.019  24.704  1.00  0.00     0.039 A 
ATOM     21  F   UNL A   1      34.466  16.165  22.554  1.00  0.00    -0.207 F 
ENDBRANCH  12  15
ENDBRANCH   8   9
ENDBRANCH   7   8
ENDBRANCH   5   7
ENDBRANCH   2   3
ENDBRANCH   1   2
BRANCH   1  22
ATOM     22  C   UNL A   1      37.779  19.597  24.885  1.00  0.00     0.023 C 
BRANCH  22  23
ATOM     23  C   UNL A   1      38.949  20.018  25.769  1.00  0.00     0.116 C 
BRANCH  23  24
ATOM     24  N   UNL A   1      40.014  19.030  25.822  1.00  0.00    -0.352 N 
ATOM     25  C   UNL A   1      41.355  19.196  26.072  1.00  0.00     0.251 C 
ATOM     26  H   UNL A   1      39.731  18.101  25.654  1.00  0.00     0.163 HD
ATOM     27  O   UNL A   1      42.124  18.247  25.944  1.00  0.00    -0.269 OA
BRANCH  25  28
ATOM     28  C   UNL A   1      41.888  20.521  26.463  1.00  0.00     0.039 A 
ATOM     29  C   UNL A   1      42.361  21.377  25.463  1.00  0.00     0.014 A 
ATOM     30  C   UNL A   1      41.932  20.924  27.800  1.00  0.00     0.014 A 
ATOM     31  C   UNL A   1      42.803  22.661  25.797  1.00  0.00     0.010 A 
ATOM     32  C   UNL A   1      42.300  22.229  28.122  1.00  0.00     0.010 A 
ATOM     33  C   UNL A   1      42.734  23.115  27.124  1.00  0.00    -0.014 A 
BRANCH  33  34
ATOM     34  C   UNL A   1      43.092  24.513  27.481  1.00  0.00     0.031 A 
ATOM     35  C   UNL A   1      44.529  24.956  27.488  1.00  0.00     0.074 A 
ATOM     36  C   UNL A   1      42.125  25.372  27.859  1.00  0.00     0.049 A 
ATOM     37  N   UNL A   1      45.035  26.111  27.841  1.00  0.00    -0.248 NA
ATOM     38  C   UNL A   1      45.532  23.966  27.065  1.00  0.00     0.031 C 
ATOM     39  C   UNL A   1      40.697  25.058  27.932  1.00  0.00     0.029 A 
ATOM     40  N   UNL A   1      42.196  26.684  28.261  1.00  0.00    -0.354 N 
ATOM     41  C   UNL A   1      46.410  25.985  27.688  1.00  0.00     0.074 A 
ATOM     42  C   UNL A   1      46.664  24.625  27.267  1.00  0.00     0.031 C 
ATOM     43  C   UNL A   1      40.025  26.153  28.323  1.00  0.00     0.029 A 
ATOM     44  C   UNL A   1      40.975  27.233  28.574  1.00  0.00     0.049 A 
ATOM     45  H   UNL A   1      43.042  27.184  28.319  1.00  0.00     0.167 HD
ATOM     46  C   UNL A   1      47.370  26.925  27.857  1.00  0.00     0.037 A 
ATOM     47  C   UNL A   1      40.653  28.462  29.020  1.00  0.00     0.037 A 
ATOM     48  C   UNL A   1      47.113  28.284  28.256  1.00  0.00     0.049 A 
ATOM     49  C   UNL A   1      41.739  29.481  29.227  1.00  0.00     0.074 A 
ATOM     50  C   UNL A   1      48.019  29.320  28.407  1.00  0.00     0.029 A 
ATOM     51  N   UNL A   1      45.863  28.798  28.567  1.00  0.00    -0.354 N 
ATOM     52  N   UNL A   1      43.029  29.360  29.033  1.00  0.00    -0.248 NA
ATOM     53  C   UNL A   1      41.327  30.806  29.714  1.00  0.00     0.031 C 
ATOM     54  C   UNL A   1      47.326  30.445  28.862  1.00  0.00     0.029 A 
ATOM     55  C   UNL A   1      45.978  30.128  28.935  1.00  0.00     0.049 A 
ATOM     56  H   UNL A   1      45.020  28.292  28.533  1.00  0.00     0.167 HD
ATOM     57  C   UNL A   1      43.580  30.596  29.347  1.00  0.00     0.074 A 
ATOM     58  C   UNL A   1      42.482  31.457  29.736  1.00  0.00     0.031 C 
ATOM     59  C   UNL A   1      44.880  30.980  29.317  1.00  0.00     0.037 A 
BRANCH  46  60
ATOM     60  C   UNL A   1      48.794  26.525  27.597  1.00  0.00     0.057 A 
ATOM     61  C   UNL A   1      49.322  26.553  26.299  1.00  0.00     0.134 A 
ATOM     62  C   UNL A   1      49.621  26.041  28.619  1.00  0.00     0.134 A 
ATOM     63  F   UNL A   1      48.581  26.997  25.272  1.00  0.00    -0.206 F 
ATOM     64  C   UNL A   1      50.616  26.105  26.027  1.00  0.00     0.040 A 
ATOM     65  C   UNL A   1      50.927  25.618  28.364  1.00  0.00     0.040 A 
ATOM     66  F   UNL A   1      49.182  25.996  29.886  1.00  0.00    -0.206 F 
ATOM     67  C   UNL A   1      51.423  25.639  27.061  1.00  0.00     0.006 A 
ENDBRANCH  46  60
BRANCH  47  68
ATOM     68  C   UNL A   1      39.229  28.800  29.271  1.00  0.00     0.057 A 
ATOM     69  C   UNL A   1      38.434  29.408  28.291  1.00  0.00     0.134 A 
ATOM     70  C   UNL A   1      38.639  28.551  30.515  1.00  0.00     0.134 A 
ATOM     71  F   UNL A   1      38.942  29.680  27.080  1.00  0.00    -0.206 F 
ATOM     72  C   UNL A   1      37.113  29.779  28.547  1.00  0.00     0.040 A 
ATOM     73  C   UNL A   1      37.312  28.893  30.777  1.00  0.00     0.040 A 
ATOM     74  F   UNL A   1      39.343  27.954  31.488  1.00  0.00    -0.206 F 
ATOM     75  C   UNL A   1      36.547  29.518  29.794  1.00  0.00     0.006 A 
ENDBRANCH  47  68
BRANCH  59  76
ATOM     76  C   UNL A   1      45.201  32.398  29.690  1.00  0.00     0.057 A 
ATOM     77  C   UNL A   1      45.469  32.741  31.022  1.00  0.00     0.134 A 
ATOM     78  C   UNL A   1      45.158  33.435  28.752  1.00  0.00     0.134 A 
ATOM     79  F   UNL A   1      45.515  31.796  31.974  1.00  0.00    -0.206 F 
ATOM     80  C   UNL A   1      45.662  34.068  31.411  1.00  0.00     0.040 A 
ATOM     81  C   UNL A   1      45.376  34.763  29.124  1.00  0.00     0.040 A 
ATOM     82  F   UNL A   1      44.916  33.173  27.459  1.00  0.00    -0.206 F 
ATOM     83  C   UNL A   1      45.617  35.083  30.459  1.00  0.00     0.006 A 
ENDBRANCH  59  76
ENDBRANCH  33  34
ENDBRANCH  25  28
ENDBRANCH  23  24
ENDBRANCH  22  23
ENDBRANCH   1  22
TORSDOF 14
ENDMDL
