MODEL 1
REMARK VINA RESULT:      -9.8      0.000      0.000
REMARK SMILES O=C(COCCNC(=O)C1CCCC1)NCCCCNC(=O)c1ccc(-c2c3nc(c(-c4c(F)cccc4F)c4ccc([nH]4)c(-c4c(F)cccc4F)c4nc(c(-c5c(F)cccc5F)c5ccc2[nH]5)C=C4)C=C3)cc1
REMARK SMILES IDX 16 1 15 2 1 3 2 4 3 6 4 7 5 8 6 9 7 10 8 11 9 13 10 14 11 15
REMARK SMILES IDX 14 16 12 17 13 18 17 19 18 20 19 21 20 22 21 23 22 25 23 26
REMARK SMILES IDX 24 27 76 28 25 29 75 30 26 31 27 32 28 33 69 34 29 35 74 36
REMARK SMILES IDX 68 37 70 38 30 39 73 40 67 41 66 42 31 44 57 45 40 46 56 47
REMARK SMILES IDX 41 48 44 49 55 50 71 51 42 52 43 53 54 55 72 56 45 57 32 58
REMARK SMILES IDX 33 59 38 60 34 61 35 62 37 63 39 64 36 65 58 66 59 67 64 68
REMARK SMILES IDX 60 69 61 70 63 71 65 72 62 73 46 74 47 75 52 76 48 77 49 78
REMARK SMILES IDX 51 79 53 80 50 81
REMARK H PARENT 15 5 7 12 20 24 70 43 44 54
REMARK Flexibility Score: inf
ROOT
ATOM      1  C   UNL A   1      41.461  19.601  26.275  1.00  0.00     0.116 C 
ENDROOT
BRANCH   1   2
ATOM      2  N   UNL A   1      42.653  20.105  25.631  1.00  0.00    -0.354 N 
ATOM      3  O   UNL A   1      43.736  18.080  25.524  1.00  0.00    -0.272 OA
ATOM      4  C   UNL A   1      43.707  19.282  25.291  1.00  0.00     0.245 C 
ATOM      5  H   UNL A   1      42.715  21.067  25.427  1.00  0.00     0.163 HD
BRANCH   4   6
ATOM      6  C   UNL A   1      44.862  20.023  24.611  1.00  0.00     0.260 C 
BRANCH   6   7
ATOM      7  O   UNL A   1      44.528  20.833  23.494  1.00  0.00    -0.370 OA
BRANCH   7   8
ATOM      8  C   UNL A   1      44.964  22.197  23.561  1.00  0.00     0.182 C 
BRANCH   8   9
ATOM      9  C   UNL A   1      44.663  22.909  24.889  1.00  0.00     0.144 C 
BRANCH   9  10
ATOM     10  N   UNL A   1      45.856  23.204  25.668  1.00  0.00    -0.354 N 
ATOM     11  C   UNL A   1      46.006  23.913  26.822  1.00  0.00     0.223 C 
ATOM     12  H   UNL A   1      46.690  22.830  25.302  1.00  0.00     0.163 HD
ATOM     13  O   UNL A   1      47.144  24.074  27.261  1.00  0.00    -0.275 OA
BRANCH  11  14
ATOM     14  C   UNL A   1      44.770  24.392  27.560  1.00  0.00     0.078 C 
ATOM     15  C   UNL A   1      44.203  23.256  28.410  1.00  0.00     0.013 C 
ATOM     16  C   UNL A   1      45.069  25.467  28.607  1.00  0.00     0.013 C 
ATOM     17  C   UNL A   1      43.344  23.954  29.451  1.00  0.00     0.001 C 
ATOM     18  C   UNL A   1      43.964  25.334  29.650  1.00  0.00     0.001 C 
ENDBRANCH  11  14
ENDBRANCH   9  10
ENDBRANCH   8   9
ENDBRANCH   7   8
ENDBRANCH   6   7
ENDBRANCH   4   6
ENDBRANCH   1   2
BRANCH   1  19
ATOM     19  C   UNL A   1      40.416  20.690  26.505  1.00  0.00     0.023 C 
BRANCH  19  20
ATOM     20  C   UNL A   1      40.804  21.742  27.547  1.00  0.00     0.023 C 
BRANCH  20  21
ATOM     21  C   UNL A   1      40.380  23.171  27.225  1.00  0.00     0.116 C 
BRANCH  21  22
ATOM     22  N   UNL A   1      41.194  23.785  26.189  1.00  0.00    -0.352 N 
ATOM     23  C   UNL A   1      41.572  25.099  26.041  1.00  0.00     0.251 C 
ATOM     24  H   UNL A   1      41.521  23.172  25.493  1.00  0.00     0.163 HD
ATOM     25  O   UNL A   1      42.149  25.461  25.022  1.00  0.00    -0.269 OA
BRANCH  23  26
ATOM     26  C   UNL A   1      41.255  26.086  27.097  1.00  0.00     0.039 A 
ATOM     27  C   UNL A   1      40.217  25.804  27.991  1.00  0.00     0.014 A 
ATOM     28  C   UNL A   1      41.970  27.281  27.212  1.00  0.00     0.014 A 
ATOM     29  C   UNL A   1      39.947  26.684  29.042  1.00  0.00     0.010 A 
ATOM     30  C   UNL A   1      41.751  28.119  28.304  1.00  0.00     0.010 A 
ATOM     31  C   UNL A   1      40.738  27.830  29.231  1.00  0.00    -0.014 A 
BRANCH  31  32
ATOM     32  C   UNL A   1      40.527  28.726  30.398  1.00  0.00     0.031 A 
ATOM     33  C   UNL A   1      39.474  29.798  30.354  1.00  0.00     0.074 A 
ATOM     34  C   UNL A   1      41.327  28.616  31.477  1.00  0.00     0.049 A 
ATOM     35  N   UNL A   1      39.187  30.714  31.245  1.00  0.00    -0.248 NA
ATOM     36  C   UNL A   1      38.649  29.866  29.137  1.00  0.00     0.031 C 
ATOM     37  C   UNL A   1      42.416  27.649  31.629  1.00  0.00     0.029 A 
ATOM     38  N   UNL A   1      41.356  29.333  32.648  1.00  0.00    -0.354 N 
ATOM     39  C   UNL A   1      38.161  31.471  30.694  1.00  0.00     0.074 A 
ATOM     40  C   UNL A   1      37.915  30.944  29.369  1.00  0.00     0.031 C 
ATOM     41  C   UNL A   1      42.991  27.818  32.830  1.00  0.00     0.029 A 
ATOM     42  C   UNL A   1      42.342  28.930  33.516  1.00  0.00     0.049 A 
ATOM     43  H   UNL A   1      40.729  30.066  32.846  1.00  0.00     0.167 HD
ATOM     44  C   UNL A   1      37.469  32.494  31.249  1.00  0.00     0.037 A 
ATOM     45  C   UNL A   1      42.692  29.408  34.726  1.00  0.00     0.037 A 
ATOM     46  C   UNL A   1      37.706  33.008  32.574  1.00  0.00     0.049 A 
ATOM     47  C   UNL A   1      41.923  30.560  35.313  1.00  0.00     0.074 A 
ATOM     48  C   UNL A   1      37.024  34.009  33.244  1.00  0.00     0.029 A 
ATOM     49  N   UNL A   1      38.707  32.567  33.426  1.00  0.00    -0.354 N 
ATOM     50  N   UNL A   1      40.911  31.223  34.807  1.00  0.00    -0.248 NA
ATOM     51  C   UNL A   1      42.342  31.028  36.641  1.00  0.00     0.031 C 
ATOM     52  C   UNL A   1      37.646  34.209  34.481  1.00  0.00     0.029 A 
ATOM     53  C   UNL A   1      38.678  33.294  34.606  1.00  0.00     0.049 A 
ATOM     54  H   UNL A   1      39.344  31.845  33.223  1.00  0.00     0.167 HD
ATOM     55  C   UNL A   1      40.554  32.162  35.765  1.00  0.00     0.074 A 
ATOM     56  C   UNL A   1      41.449  31.975  36.888  1.00  0.00     0.031 C 
ATOM     57  C   UNL A   1      39.571  33.096  35.719  1.00  0.00     0.037 A 
BRANCH  44  58
ATOM     58  C   UNL A   1      36.386  33.127  30.422  1.00  0.00     0.057 A 
ATOM     59  C   UNL A   1      36.675  34.025  29.385  1.00  0.00     0.134 A 
ATOM     60  C   UNL A   1      35.039  32.813  30.643  1.00  0.00     0.134 A 
ATOM     61  F   UNL A   1      37.943  34.379  29.125  1.00  0.00    -0.206 F 
ATOM     62  C   UNL A   1      35.664  34.611  28.620  1.00  0.00     0.040 A 
ATOM     63  C   UNL A   1      34.021  33.368  29.865  1.00  0.00     0.040 A 
ATOM     64  F   UNL A   1      34.690  31.955  31.613  1.00  0.00    -0.206 F 
ATOM     65  C   UNL A   1      34.332  34.277  28.856  1.00  0.00     0.006 A 
ENDBRANCH  44  58
BRANCH  45  66
ATOM     66  C   UNL A   1      43.817  28.789  35.473  1.00  0.00     0.057 A 
ATOM     67  C   UNL A   1      45.137  29.208  35.271  1.00  0.00     0.134 A 
ATOM     68  C   UNL A   1      43.602  27.760  36.398  1.00  0.00     0.134 A 
ATOM     69  F   UNL A   1      45.409  30.177  34.384  1.00  0.00    -0.206 F 
ATOM     70  C   UNL A   1      46.205  28.616  35.947  1.00  0.00     0.040 A 
ATOM     71  C   UNL A   1      44.658  27.176  37.101  1.00  0.00     0.040 A 
ATOM     72  F   UNL A   1      42.360  27.317  36.642  1.00  0.00    -0.206 F 
ATOM     73  C   UNL A   1      45.964  27.599  36.870  1.00  0.00     0.006 A 
ENDBRANCH  45  66
BRANCH  57  74
ATOM     74  C   UNL A   1      39.387  33.962  36.932  1.00  0.00     0.057 A 
ATOM     75  C   UNL A   1      38.689  33.521  38.063  1.00  0.00     0.134 A 
ATOM     76  C   UNL A   1      39.952  35.244  36.981  1.00  0.00     0.134 A 
ATOM     77  F   UNL A   1      38.113  32.309  38.076  1.00  0.00    -0.206 F 
ATOM     78  C   UNL A   1      38.537  34.332  39.190  1.00  0.00     0.040 A 
ATOM     79  C   UNL A   1      39.832  36.053  38.114  1.00  0.00     0.040 A 
ATOM     80  F   UNL A   1      40.642  35.727  35.937  1.00  0.00    -0.206 F 
ATOM     81  C   UNL A   1      39.116  35.599  39.219  1.00  0.00     0.006 A 
ENDBRANCH  57  74
ENDBRANCH  31  32
ENDBRANCH  23  26
ENDBRANCH  21  22
ENDBRANCH  20  21
ENDBRANCH  19  20
ENDBRANCH   1  19
TORSDOF 16
ENDMDL
MODEL 2
REMARK VINA RESULT:      -9.7      5.305      9.210
REMARK SMILES O=C(COCCNC(=O)C1CCCC1)NCCCCNC(=O)c1ccc(-c2c3nc(c(-c4c(F)cccc4F)c4ccc([nH]4)c(-c4c(F)cccc4F)c4nc(c(-c5c(F)cccc5F)c5ccc2[nH]5)C=C4)C=C3)cc1
REMARK SMILES IDX 16 1 15 2 1 3 2 4 3 6 4 7 5 8 6 9 7 10 8 11 9 13 10 14 11 15
REMARK SMILES IDX 14 16 12 17 13 18 17 19 18 20 19 21 20 22 21 23 22 25 23 26
REMARK SMILES IDX 24 27 76 28 25 29 75 30 26 31 27 32 28 33 69 34 29 35 74 36
REMARK SMILES IDX 68 37 70 38 30 39 73 40 67 41 66 42 31 44 57 45 40 46 56 47
REMARK SMILES IDX 41 48 44 49 55 50 71 51 42 52 43 53 54 55 72 56 45 57 32 58
REMARK SMILES IDX 33 59 38 60 34 61 35 62 37 63 39 64 36 65 58 66 59 67 64 68
REMARK SMILES IDX 60 69 61 70 63 71 65 72 62 73 46 74 47 75 52 76 48 77 49 78
REMARK SMILES IDX 51 79 53 80 50 81
REMARK H PARENT 15 5 7 12 20 24 70 43 44 54
REMARK Flexibility Score: inf
ROOT
ATOM      1  C   UNL A   1      36.684  21.570  25.241  1.00  0.00     0.116 C 
ENDROOT
BRANCH   1   2
ATOM      2  N   UNL A   1      35.593  22.367  24.726  1.00  0.00    -0.354 N 
ATOM      3  O   UNL A   1      36.629  22.936  22.753  1.00  0.00    -0.272 OA
ATOM      4  C   UNL A   1      35.654  22.985  23.494  1.00  0.00     0.245 C 
ATOM      5  H   UNL A   1      34.780  22.472  25.272  1.00  0.00     0.163 HD
BRANCH   4   6
ATOM      6  C   UNL A   1      34.386  23.771  23.145  1.00  0.00     0.260 C 
BRANCH   6   7
ATOM      7  O   UNL A   1      33.153  23.207  23.565  1.00  0.00    -0.370 OA
BRANCH   7   8
ATOM      8  C   UNL A   1      32.528  22.312  22.636  1.00  0.00     0.182 C 
BRANCH   8   9
ATOM      9  C   UNL A   1      32.171  20.931  23.206  1.00  0.00     0.144 C 
BRANCH   9  10
ATOM     10  N   UNL A   1      32.657  20.724  24.562  1.00  0.00    -0.354 N 
ATOM     11  C   UNL A   1      32.879  19.572  25.256  1.00  0.00     0.223 C 
ATOM     12  H   UNL A   1      32.860  21.550  25.058  1.00  0.00     0.163 HD
ATOM     13  O   UNL A   1      33.240  19.662  26.429  1.00  0.00    -0.275 OA
BRANCH  11  14
ATOM     14  C   UNL A   1      32.759  18.241  24.537  1.00  0.00     0.078 C 
ATOM     15  C   UNL A   1      34.092  17.889  23.880  1.00  0.00     0.013 C 
ATOM     16  C   UNL A   1      32.536  17.060  25.482  1.00  0.00     0.013 C 
ATOM     17  C   UNL A   1      34.020  16.386  23.660  1.00  0.00     0.001 C 
ATOM     18  C   UNL A   1      33.103  15.846  24.753  1.00  0.00     0.001 C 
ENDBRANCH  11  14
ENDBRANCH   9  10
ENDBRANCH   8   9
ENDBRANCH   7   8
ENDBRANCH   6   7
ENDBRANCH   4   6
ENDBRANCH   1   2
BRANCH   1  19
ATOM     19  C   UNL A   1      36.498  20.079  24.969  1.00  0.00     0.023 C 
BRANCH  19  20
ATOM     20  C   UNL A   1      37.789  19.256  24.995  1.00  0.00     0.023 C 
BRANCH  20  21
ATOM     21  C   UNL A   1      38.952  19.886  25.754  1.00  0.00     0.116 C 
BRANCH  21  22
ATOM     22  N   UNL A   1      40.118  19.021  25.826  1.00  0.00    -0.352 N 
ATOM     23  C   UNL A   1      41.434  19.348  26.058  1.00  0.00     0.251 C 
ATOM     24  H   UNL A   1      39.940  18.063  25.689  1.00  0.00     0.163 HD
ATOM     25  O   UNL A   1      42.308  18.497  25.945  1.00  0.00    -0.269 OA
BRANCH  23  26
ATOM     26  C   UNL A   1      41.801  20.738  26.412  1.00  0.00     0.039 A 
ATOM     27  C   UNL A   1      42.012  21.055  27.757  1.00  0.00     0.014 A 
ATOM     28  C   UNL A   1      41.939  21.724  25.432  1.00  0.00     0.014 A 
ATOM     29  C   UNL A   1      42.432  22.340  28.111  1.00  0.00     0.010 A 
ATOM     30  C   UNL A   1      42.432  22.981  25.777  1.00  0.00     0.010 A 
ATOM     31  C   UNL A   1      42.684  23.303  27.119  1.00  0.00    -0.014 A 
BRANCH  31  32
ATOM     32  C   UNL A   1      43.223  24.643  27.468  1.00  0.00     0.031 A 
ATOM     33  C   UNL A   1      42.298  25.747  27.899  1.00  0.00     0.074 A 
ATOM     34  C   UNL A   1      44.542  24.887  27.337  1.00  0.00     0.049 A 
ATOM     35  N   UNL A   1      42.573  26.997  28.180  1.00  0.00    -0.248 NA
ATOM     36  C   UNL A   1      40.869  25.410  28.004  1.00  0.00     0.031 C 
ATOM     37  C   UNL A   1      45.541  23.918  26.886  1.00  0.00     0.029 A 
ATOM     38  N   UNL A   1      45.268  26.031  27.561  1.00  0.00    -0.354 N 
ATOM     39  C   UNL A   1      41.356  27.594  28.484  1.00  0.00     0.074 A 
ATOM     40  C   UNL A   1      40.334  26.587  28.296  1.00  0.00     0.031 C 
ATOM     41  C   UNL A   1      46.751  24.499  26.886  1.00  0.00     0.029 A 
ATOM     42  C   UNL A   1      46.609  25.893  27.297  1.00  0.00     0.049 A 
ATOM     43  H   UNL A   1      44.866  26.870  27.881  1.00  0.00     0.167 HD
ATOM     44  C   UNL A   1      41.113  28.859  28.905  1.00  0.00     0.037 A 
ATOM     45  C   UNL A   1      47.613  26.789  27.368  1.00  0.00     0.037 A 
ATOM     46  C   UNL A   1      42.133  29.856  29.105  1.00  0.00     0.049 A 
ATOM     47  C   UNL A   1      47.316  28.193  27.817  1.00  0.00     0.074 A 
ATOM     48  C   UNL A   1      41.992  31.149  29.578  1.00  0.00     0.029 A 
ATOM     49  N   UNL A   1      43.482  29.674  28.836  1.00  0.00    -0.354 N 
ATOM     50  N   UNL A   1      46.169  28.725  28.165  1.00  0.00    -0.248 NA
ATOM     51  C   UNL A   1      48.453  29.120  27.887  1.00  0.00     0.031 C 
ATOM     52  C   UNL A   1      43.247  31.766  29.544  1.00  0.00     0.029 A 
ATOM     53  C   UNL A   1      44.180  30.840  29.107  1.00  0.00     0.049 A 
ATOM     54  H   UNL A   1      43.883  28.839  28.501  1.00  0.00     0.167 HD
ATOM     55  C   UNL A   1      46.451  30.036  28.524  1.00  0.00     0.074 A 
ATOM     56  C   UNL A   1      47.879  30.215  28.365  1.00  0.00     0.031 C 
ATOM     57  C   UNL A   1      45.602  31.005  28.949  1.00  0.00     0.037 A 
BRANCH  44  58
ATOM     58  C   UNL A   1      39.684  29.234  29.179  1.00  0.00     0.057 A 
ATOM     59  C   UNL A   1      39.148  29.215  30.474  1.00  0.00     0.134 A 
ATOM     60  C   UNL A   1      38.841  29.649  28.140  1.00  0.00     0.134 A 
ATOM     61  F   UNL A   1      39.897  28.818  31.514  1.00  0.00    -0.206 F 
ATOM     62  C   UNL A   1      37.819  29.564  30.721  1.00  0.00     0.040 A 
ATOM     63  C   UNL A   1      37.520  30.030  28.379  1.00  0.00     0.040 A 
ATOM     64  F   UNL A   1      39.290  29.700  26.877  1.00  0.00    -0.206 F 
ATOM     65  C   UNL A   1      37.002  29.979  29.671  1.00  0.00     0.006 A 
ENDBRANCH  44  58
BRANCH  45  66
ATOM     66  C   UNL A   1      48.998  26.381  27.018  1.00  0.00     0.057 A 
ATOM     67  C   UNL A   1      49.890  25.935  28.000  1.00  0.00     0.134 A 
ATOM     68  C   UNL A   1      49.466  26.435  25.700  1.00  0.00     0.134 A 
ATOM     69  F   UNL A   1      49.508  25.879  29.284  1.00  0.00    -0.206 F 
ATOM     70  C   UNL A   1      51.203  25.575  27.687  1.00  0.00     0.040 A 
ATOM     71  C   UNL A   1      50.767  26.053  25.369  1.00  0.00     0.040 A 
ATOM     72  F   UNL A   1      48.659  26.847  24.711  1.00  0.00    -0.206 F 
ATOM     73  C   UNL A   1      51.641  25.628  26.366  1.00  0.00     0.006 A 
ENDBRANCH  45  66
BRANCH  57  74
ATOM     74  C   UNL A   1      46.200  32.335  29.308  1.00  0.00     0.057 A 
ATOM     75  C   UNL A   1      46.721  32.597  30.581  1.00  0.00     0.134 A 
ATOM     76  C   UNL A   1      46.290  33.355  28.351  1.00  0.00     0.134 A 
ATOM     77  F   UNL A   1      46.656  31.669  31.547  1.00  0.00    -0.206 F 
ATOM     78  C   UNL A   1      47.287  33.834  30.898  1.00  0.00     0.040 A 
ATOM     79  C   UNL A   1      46.881  34.586  28.647  1.00  0.00     0.040 A 
ATOM     80  F   UNL A   1      45.820  33.168  27.108  1.00  0.00    -0.206 F 
ATOM     81  C   UNL A   1      47.375  34.830  29.926  1.00  0.00     0.006 A 
ENDBRANCH  57  74
ENDBRANCH  31  32
ENDBRANCH  23  26
ENDBRANCH  21  22
ENDBRANCH  20  21
ENDBRANCH  19  20
ENDBRANCH   1  19
TORSDOF 16
ENDMDL
MODEL 3
REMARK VINA RESULT:      -9.6      2.559      6.991
REMARK SMILES O=C(COCCNC(=O)C1CCCC1)NCCCCNC(=O)c1ccc(-c2c3nc(c(-c4c(F)cccc4F)c4ccc([nH]4)c(-c4c(F)cccc4F)c4nc(c(-c5c(F)cccc5F)c5ccc2[nH]5)C=C4)C=C3)cc1
REMARK SMILES IDX 16 1 15 2 1 3 2 4 3 6 4 7 5 8 6 9 7 10 8 11 9 13 10 14 11 15
REMARK SMILES IDX 14 16 12 17 13 18 17 19 18 20 19 21 20 22 21 23 22 25 23 26
REMARK SMILES IDX 24 27 76 28 25 29 75 30 26 31 27 32 28 33 69 34 29 35 74 36
REMARK SMILES IDX 68 37 70 38 30 39 73 40 67 41 66 42 31 44 57 45 40 46 56 47
REMARK SMILES IDX 41 48 44 49 55 50 71 51 42 52 43 53 54 55 72 56 45 57 32 58
REMARK SMILES IDX 33 59 38 60 34 61 35 62 37 63 39 64 36 65 58 66 59 67 64 68
REMARK SMILES IDX 60 69 61 70 63 71 65 72 62 73 46 74 47 75 52 76 48 77 49 78
REMARK SMILES IDX 51 79 53 80 50 81
REMARK H PARENT 15 5 7 12 20 24 70 43 44 54
REMARK Flexibility Score: inf
ROOT
ATOM      1  C   UNL A   1      42.882  18.847  26.548  1.00  0.00     0.116 C 
ENDROOT
BRANCH   1   2
ATOM      2  N   UNL A   1      43.979  19.589  25.966  1.00  0.00    -0.354 N 
ATOM      3  O   UNL A   1      45.283  17.752  25.501  1.00  0.00    -0.272 OA
ATOM      4  C   UNL A   1      45.105  18.964  25.470  1.00  0.00     0.245 C 
ATOM      5  H   UNL A   1      43.921  20.571  25.922  1.00  0.00     0.163 HD
BRANCH   4   6
ATOM      6  C   UNL A   1      46.137  19.939  24.893  1.00  0.00     0.260 C 
BRANCH   6   7
ATOM      7  O   UNL A   1      46.108  21.266  25.397  1.00  0.00    -0.370 OA
BRANCH   7   8
ATOM      8  C   UNL A   1      46.077  22.305  24.410  1.00  0.00     0.182 C 
BRANCH   8   9
ATOM      9  C   UNL A   1      46.415  23.708  24.937  1.00  0.00     0.144 C 
BRANCH   9  10
ATOM     10  N   UNL A   1      46.338  23.814  26.386  1.00  0.00    -0.354 N 
ATOM     11  C   UNL A   1      46.123  24.899  27.184  1.00  0.00     0.223 C 
ATOM     12  H   UNL A   1      46.461  22.965  26.869  1.00  0.00     0.163 HD
ATOM     13  O   UNL A   1      46.163  24.739  28.403  1.00  0.00    -0.275 OA
BRANCH  11  14
ATOM     14  C   UNL A   1      45.757  26.225  26.545  1.00  0.00     0.078 C 
ATOM     15  C   UNL A   1      44.245  26.302  26.346  1.00  0.00     0.013 C 
ATOM     16  C   UNL A   1      46.032  27.429  27.448  1.00  0.00     0.013 C 
ATOM     17  C   UNL A   1      43.957  27.788  26.207  1.00  0.00     0.001 C 
ATOM     18  C   UNL A   1      45.046  28.503  27.001  1.00  0.00     0.001 C 
ENDBRANCH  11  14
ENDBRANCH   9  10
ENDBRANCH   8   9
ENDBRANCH   7   8
ENDBRANCH   6   7
ENDBRANCH   4   6
ENDBRANCH   1   2
BRANCH   1  19
ATOM     19  C   UNL A   1      41.520  19.381  26.112  1.00  0.00     0.023 C 
BRANCH  19  20
ATOM     20  C   UNL A   1      40.924  20.449  27.034  1.00  0.00     0.023 C 
BRANCH  20  21
ATOM     21  C   UNL A   1      40.889  21.862  26.463  1.00  0.00     0.116 C 
BRANCH  21  22
ATOM     22  N   UNL A   1      39.612  22.200  25.859  1.00  0.00    -0.352 N 
ATOM     23  C   UNL A   1      38.830  23.318  26.037  1.00  0.00     0.251 C 
ATOM     24  H   UNL A   1      39.254  21.532  25.231  1.00  0.00     0.163 HD
ATOM     25  O   UNL A   1      37.709  23.369  25.546  1.00  0.00    -0.269 OA
BRANCH  23  26
ATOM     26  C   UNL A   1      39.329  24.449  26.851  1.00  0.00     0.039 A 
ATOM     27  C   UNL A   1      40.110  25.430  26.231  1.00  0.00     0.014 A 
ATOM     28  C   UNL A   1      39.033  24.549  28.213  1.00  0.00     0.014 A 
ATOM     29  C   UNL A   1      40.530  26.546  26.959  1.00  0.00     0.010 A 
ATOM     30  C   UNL A   1      39.387  25.699  28.917  1.00  0.00     0.010 A 
ATOM     31  C   UNL A   1      40.139  26.709  28.299  1.00  0.00    -0.014 A 
BRANCH  31  32
ATOM     32  C   UNL A   1      40.495  27.934  29.060  1.00  0.00     0.031 A 
ATOM     33  C   UNL A   1      41.835  28.050  29.734  1.00  0.00     0.074 A 
ATOM     34  C   UNL A   1      39.588  28.922  29.199  1.00  0.00     0.049 A 
ATOM     35  N   UNL A   1      42.300  29.010  30.495  1.00  0.00    -0.248 NA
ATOM     36  C   UNL A   1      42.766  26.925  29.551  1.00  0.00     0.031 C 
ATOM     37  C   UNL A   1      38.238  28.916  28.634  1.00  0.00     0.029 A 
ATOM     38  N   UNL A   1      39.662  30.119  29.868  1.00  0.00    -0.354 N 
ATOM     39  C   UNL A   1      43.568  28.602  30.886  1.00  0.00     0.074 A 
ATOM     40  C   UNL A   1      43.777  27.283  30.329  1.00  0.00     0.031 C 
ATOM     41  C   UNL A   1      37.619  30.061  28.961  1.00  0.00     0.029 A 
ATOM     42  C   UNL A   1      38.510  30.864  29.793  1.00  0.00     0.049 A 
ATOM     43  H   UNL A   1      40.464  30.415  30.355  1.00  0.00     0.167 HD
ATOM     44  C   UNL A   1      44.486  29.274  31.622  1.00  0.00     0.037 A 
ATOM     45  C   UNL A   1      38.200  32.056  30.340  1.00  0.00     0.037 A 
ATOM     46  C   UNL A   1      44.282  30.592  32.165  1.00  0.00     0.049 A 
ATOM     47  C   UNL A   1      39.228  32.773  31.172  1.00  0.00     0.074 A 
ATOM     48  C   UNL A   1      45.170  31.377  32.880  1.00  0.00     0.029 A 
ATOM     49  N   UNL A   1      43.104  31.318  32.058  1.00  0.00    -0.354 N 
ATOM     50  N   UNL A   1      40.448  32.404  31.478  1.00  0.00    -0.248 NA
ATOM     51  C   UNL A   1      38.837  34.075  31.729  1.00  0.00     0.031 C 
ATOM     52  C   UNL A   1      44.513  32.554  33.252  1.00  0.00     0.029 A 
ATOM     53  C   UNL A   1      43.234  32.530  32.718  1.00  0.00     0.049 A 
ATOM     54  H   UNL A   1      42.296  31.016  31.584  1.00  0.00     0.167 HD
ATOM     55  C   UNL A   1      40.980  33.439  32.237  1.00  0.00     0.074 A 
ATOM     56  C   UNL A   1      39.953  34.456  32.332  1.00  0.00     0.031 C 
ATOM     57  C   UNL A   1      42.208  33.537  32.802  1.00  0.00     0.037 A 
BRANCH  44  58
ATOM     58  C   UNL A   1      45.799  28.590  31.883  1.00  0.00     0.057 A 
ATOM     59  C   UNL A   1      46.903  28.759  31.036  1.00  0.00     0.134 A 
ATOM     60  C   UNL A   1      45.971  27.777  33.010  1.00  0.00     0.134 A 
ATOM     61  F   UNL A   1      46.805  29.516  29.933  1.00  0.00    -0.206 F 
ATOM     62  C   UNL A   1      48.119  28.119  31.284  1.00  0.00     0.040 A 
ATOM     63  C   UNL A   1      47.191  27.157  33.285  1.00  0.00     0.040 A 
ATOM     64  F   UNL A   1      44.959  27.578  33.869  1.00  0.00    -0.206 F 
ATOM     65  C   UNL A   1      48.267  27.320  32.416  1.00  0.00     0.006 A 
ENDBRANCH  44  58
BRANCH  45  66
ATOM     66  C   UNL A   1      36.861  32.654  30.106  1.00  0.00     0.057 A 
ATOM     67  C   UNL A   1      35.799  32.417  30.986  1.00  0.00     0.134 A 
ATOM     68  C   UNL A   1      36.609  33.471  28.997  1.00  0.00     0.134 A 
ATOM     69  F   UNL A   1      35.973  31.627  32.056  1.00  0.00    -0.206 F 
ATOM     70  C   UNL A   1      34.529  32.953  30.763  1.00  0.00     0.040 A 
ATOM     71  C   UNL A   1      35.351  34.035  28.776  1.00  0.00     0.040 A 
ATOM     72  F   UNL A   1      37.585  33.744  28.120  1.00  0.00    -0.206 F 
ATOM     73  C   UNL A   1      34.305  33.770  29.656  1.00  0.00     0.006 A 
ENDBRANCH  45  66
BRANCH  57  74
ATOM     74  C   UNL A   1      42.525  34.804  33.544  1.00  0.00     0.057 A 
ATOM     75  C   UNL A   1      43.172  35.884  32.929  1.00  0.00     0.134 A 
ATOM     76  C   UNL A   1      42.142  34.959  34.883  1.00  0.00     0.134 A 
ATOM     77  F   UNL A   1      43.576  35.797  31.653  1.00  0.00    -0.206 F 
ATOM     78  C   UNL A   1      43.448  37.062  33.626  1.00  0.00     0.040 A 
ATOM     79  C   UNL A   1      42.386  36.143  35.582  1.00  0.00     0.040 A 
ATOM     80  F   UNL A   1      41.510  33.968  35.531  1.00  0.00    -0.206 F 
ATOM     81  C   UNL A   1      43.048  37.196  34.954  1.00  0.00     0.006 A 
ENDBRANCH  57  74
ENDBRANCH  31  32
ENDBRANCH  23  26
ENDBRANCH  21  22
ENDBRANCH  20  21
ENDBRANCH  19  20
ENDBRANCH   1  19
TORSDOF 16
ENDMDL
