MODEL 1
REMARK VINA RESULT:     -13.5      0.000      0.000
REMARK SMILES O=C(NCCCCNC(=O)[C@H](NC(=O)[C@H]1CC[C@@H](CNC(=O)[C@@H]2Cc3ccccc3C[NH2+]2)CC1)c1ccccc1)c1ccc(-c2c3nc(c(-c4c(F)cccc4F)c4ccc([nH]4)c(-c4c(F)cccc4F)c4nc(c(-c5c(F)cccc5F)c5ccc2[nH]5)C=C4)C=C3)cc1
REMARK SMILES IDX 7 1 6 2 5 3 4 4 3 5 1 6 2 7 41 9 42 10 94 11 43 12 93 13
REMARK SMILES IDX 44 14 45 15 46 16 87 17 47 18 92 19 86 20 88 21 48 22 91 23
REMARK SMILES IDX 85 24 84 25 49 27 75 28 58 29 74 30 59 31 62 32 73 33 89 34
REMARK SMILES IDX 60 35 61 36 72 38 90 39 63 40 50 41 51 42 56 43 52 44 53 45
REMARK SMILES IDX 55 46 57 47 54 48 76 49 77 50 82 51 78 52 79 53 81 54 83 55
REMARK SMILES IDX 80 56 64 57 65 58 70 59 66 60 67 61 69 62 71 63 68 64 8 65
REMARK SMILES IDX 9 66 10 68 11 69 35 70 36 71 40 72 37 73 39 74 38 75 12 76
REMARK SMILES IDX 13 77 14 79 15 80 34 81 16 82 33 83 17 84 18 85 19 86 20 87
REMARK SMILES IDX 21 88 22 90 23 91 24 92 32 93 25 94 31 95 26 98 30 99 27 100
REMARK SMILES IDX 29 101 28 102
REMARK H PARENT 3 8 88 26 62 37 8 67 12 78 20 89 32 96 32 97
REMARK Flexibility Score: inf
ROOT
ATOM      1  C   UNL A   1      36.092  21.492  25.377  1.00  0.00     0.116 C 
ENDROOT
BRANCH   1   2
ATOM      2  C   UNL A   1      36.565  20.100  24.974  1.00  0.00     0.023 C 
BRANCH   2   3
ATOM      3  C   UNL A   1      38.038  19.999  24.599  1.00  0.00     0.023 C 
BRANCH   3   4
ATOM      4  C   UNL A   1      39.014  20.237  25.743  1.00  0.00     0.116 C 
BRANCH   4   5
ATOM      5  N   UNL A   1      40.100  19.267  25.786  1.00  0.00    -0.352 N 
ATOM      6  O   UNL A   1      42.231  18.544  25.984  1.00  0.00    -0.269 OA
ATOM      7  C   UNL A   1      41.419  19.453  26.123  1.00  0.00     0.251 C 
ATOM      8  H   UNL A   1      39.855  18.347  25.537  1.00  0.00     0.163 HD
BRANCH   7   9
ATOM      9  C   UNL A   1      41.858  20.770  26.629  1.00  0.00     0.039 A 
ATOM     10  C   UNL A   1      41.818  21.046  27.996  1.00  0.00     0.014 A 
ATOM     11  C   UNL A   1      42.282  21.746  25.723  1.00  0.00     0.014 A 
ATOM     12  C   UNL A   1      42.035  22.343  28.440  1.00  0.00     0.010 A 
ATOM     13  C   UNL A   1      42.599  23.026  26.186  1.00  0.00     0.010 A 
ATOM     14  C   UNL A   1      42.443  23.344  27.544  1.00  0.00    -0.014 A 
BRANCH  14  15
ATOM     15  C   UNL A   1      42.768  24.692  28.070  1.00  0.00     0.031 A 
ATOM     16  C   UNL A   1      44.180  25.084  28.404  1.00  0.00     0.074 A 
ATOM     17  C   UNL A   1      41.764  25.579  28.218  1.00  0.00     0.049 A 
ATOM     18  N   UNL A   1      44.629  26.224  28.867  1.00  0.00    -0.248 NA
ATOM     19  C   UNL A   1      45.225  24.069  28.198  1.00  0.00     0.031 C 
ATOM     20  C   UNL A   1      40.353  25.306  27.932  1.00  0.00     0.029 A 
ATOM     21  N   UNL A   1      41.773  26.887  28.624  1.00  0.00    -0.354 N 
ATOM     22  C   UNL A   1      45.999  26.060  29.027  1.00  0.00     0.074 A 
ATOM     23  C   UNL A   1      46.307  24.701  28.633  1.00  0.00     0.031 C 
ATOM     24  C   UNL A   1      39.641  26.424  28.127  1.00  0.00     0.029 A 
ATOM     25  C   UNL A   1      40.529  27.469  28.617  1.00  0.00     0.049 A 
ATOM     26  H   UNL A   1      42.591  27.364  28.894  1.00  0.00     0.167 HD
ATOM     27  C   UNL A   1      46.913  26.963  29.458  1.00  0.00     0.037 A 
ATOM     28  C   UNL A   1      40.139  28.701  28.987  1.00  0.00     0.037 A 
ATOM     29  C   UNL A   1      46.598  28.318  29.834  1.00  0.00     0.049 A 
ATOM     30  C   UNL A   1      41.170  29.670  29.487  1.00  0.00     0.074 A 
ATOM     31  C   UNL A   1      47.458  29.320  30.252  1.00  0.00     0.029 A 
ATOM     32  N   UNL A   1      45.321  28.861  29.842  1.00  0.00    -0.354 N 
ATOM     33  N   UNL A   1      42.465  29.507  29.607  1.00  0.00    -0.248 NA
ATOM     34  C   UNL A   1      40.685  30.989  29.909  1.00  0.00     0.031 C 
ATOM     35  C   UNL A   1      46.697  30.453  30.557  1.00  0.00     0.029 A 
ATOM     36  C   UNL A   1      45.368  30.176  30.281  1.00  0.00     0.049 A 
ATOM     37  H   UNL A   1      44.502  28.384  29.576  1.00  0.00     0.167 HD
ATOM     38  C   UNL A   1      42.952  30.709  30.098  1.00  0.00     0.074 A 
ATOM     39  C   UNL A   1      41.815  31.597  30.236  1.00  0.00     0.031 C 
ATOM     40  C   UNL A   1      44.227  31.046  30.410  1.00  0.00     0.037 A 
BRANCH  27  41
ATOM     41  C   UNL A   1      48.343  26.516  29.565  1.00  0.00     0.057 A 
ATOM     42  C   UNL A   1      49.258  26.700  28.521  1.00  0.00     0.134 A 
ATOM     43  C   UNL A   1      48.826  25.952  30.753  1.00  0.00     0.134 A 
ATOM     44  F   UNL A   1      48.861  27.227  27.353  1.00  0.00    -0.206 F 
ATOM     45  C   UNL A   1      50.597  26.324  28.649  1.00  0.00     0.040 A 
ATOM     46  C   UNL A   1      50.167  25.593  30.901  1.00  0.00     0.040 A 
ATOM     47  F   UNL A   1      48.006  25.755  31.796  1.00  0.00    -0.206 F 
ATOM     48  C   UNL A   1      51.057  25.776  29.845  1.00  0.00     0.006 A 
ENDBRANCH  27  41
BRANCH  28  49
ATOM     49  C   UNL A   1      38.706  29.075  28.910  1.00  0.00     0.057 A 
ATOM     50  C   UNL A   1      38.142  29.542  27.718  1.00  0.00     0.134 A 
ATOM     51  C   UNL A   1      37.864  28.962  30.024  1.00  0.00     0.134 A 
ATOM     52  F   UNL A   1      38.901  29.686  26.623  1.00  0.00    -0.206 F 
ATOM     53  C   UNL A   1      36.795  29.900  27.641  1.00  0.00     0.040 A 
ATOM     54  C   UNL A   1      36.510  29.288  29.952  1.00  0.00     0.040 A 
ATOM     55  F   UNL A   1      38.343  28.510  31.192  1.00  0.00    -0.206 F 
ATOM     56  C   UNL A   1      35.973  29.767  28.759  1.00  0.00     0.006 A 
ENDBRANCH  28  49
BRANCH  40  57
ATOM     57  C   UNL A   1      44.458  32.444  30.899  1.00  0.00     0.057 A 
ATOM     58  C   UNL A   1      44.452  32.761  32.263  1.00  0.00     0.134 A 
ATOM     59  C   UNL A   1      44.714  33.482  29.994  1.00  0.00     0.134 A 
ATOM     60  F   UNL A   1      44.197  31.815  33.180  1.00  0.00    -0.206 F 
ATOM     61  C   UNL A   1      44.665  34.067  32.709  1.00  0.00     0.040 A 
ATOM     62  C   UNL A   1      44.954  34.786  30.429  1.00  0.00     0.040 A 
ATOM     63  F   UNL A   1      44.741  33.244  28.674  1.00  0.00    -0.206 F 
ATOM     64  C   UNL A   1      44.923  35.082  31.789  1.00  0.00     0.006 A 
ENDBRANCH  40  57
ENDBRANCH  14  15
ENDBRANCH   7   9
ENDBRANCH   4   5
ENDBRANCH   3   4
ENDBRANCH   2   3
ENDBRANCH   1   2
BRANCH   1  65
ATOM     65  N   UNL A   1      35.339  21.501  26.615  1.00  0.00    -0.354 N 
ATOM     66  C   UNL A   1      33.981  21.490  26.806  1.00  0.00     0.247 C 
ATOM     67  H   UNL A   1      35.880  21.518  27.438  1.00  0.00     0.163 HD
ATOM     68  O   UNL A   1      33.587  21.441  27.972  1.00  0.00    -0.272 OA
BRANCH  66  69
ATOM     69  C   UNL A   1      33.014  21.543  25.587  1.00  0.00     0.202 C 
BRANCH  69  70
ATOM     70  C   UNL A   1      32.762  20.194  24.936  1.00  0.00    -0.016 A 
ATOM     71  C   UNL A   1      32.503  20.041  23.564  1.00  0.00     0.006 A 
ATOM     72  C   UNL A   1      32.859  19.030  25.680  1.00  0.00     0.006 A 
ATOM     73  C   UNL A   1      32.374  18.770  22.986  1.00  0.00     0.000 A 
ATOM     74  C   UNL A   1      32.657  17.762  25.136  1.00  0.00     0.000 A 
ATOM     75  C   UNL A   1      32.439  17.628  23.775  1.00  0.00     0.000 A 
ENDBRANCH  69  70
BRANCH  69  76
ATOM     76  N   UNL A   1      31.857  22.455  25.764  1.00  0.00    -0.340 N 
ATOM     77  C   UNL A   1      31.493  23.723  26.022  1.00  0.00     0.224 C 
ATOM     78  H   UNL A   1      31.036  21.924  25.645  1.00  0.00     0.164 HD
ATOM     79  O   UNL A   1      30.264  23.895  25.922  1.00  0.00    -0.275 OA
BRANCH  77  80
ATOM     80  C   UNL A   1      32.333  24.945  26.426  1.00  0.00     0.078 C 
ATOM     81  C   UNL A   1      33.810  24.860  26.035  1.00  0.00     0.014 C 
ATOM     82  C   UNL A   1      31.655  26.291  26.215  1.00  0.00     0.014 C 
ATOM     83  C   UNL A   1      34.602  26.182  25.927  1.00  0.00     0.006 C 
ATOM     84  C   UNL A   1      32.552  27.450  26.639  1.00  0.00     0.006 C 
ATOM     85  C   UNL A   1      33.830  27.520  25.801  1.00  0.00     0.008 C 
BRANCH  85  86
ATOM     86  C   UNL A   1      33.604  27.951  24.333  1.00  0.00     0.119 C 
BRANCH  86  87
ATOM     87  N   UNL A   1      33.698  26.903  23.338  1.00  0.00    -0.351 N 
ATOM     88  C   UNL A   1      32.946  26.814  22.189  1.00  0.00     0.278 C 
ATOM     89  H   UNL A   1      34.359  26.191  23.499  1.00  0.00     0.163 HD
ATOM     90  O   UNL A   1      33.497  26.368  21.180  1.00  0.00    -0.268 OA
BRANCH  88  91
ATOM     91  C   UNL A   1      31.441  27.180  22.188  1.00  0.00     0.277 C 
ATOM     92  C   UNL A   1      31.133  28.629  22.612  1.00  0.00     0.111 C 
ATOM     93  N   UNL A   1      30.681  26.087  22.841  1.00  0.00    -0.332 N 
ATOM     94  C   UNL A   1      29.647  28.831  22.797  1.00  0.00    -0.033 A 
ATOM     95  C   UNL A   1      29.623  26.514  23.744  1.00  0.00     0.298 C 
ATOM     96  H   UNL A   1      31.340  25.521  23.375  1.00  0.00     0.347 HD
ATOM     97  H   UNL A   1      30.219  25.578  22.088  1.00  0.00     0.347 HD
ATOM     98  C   UNL A   1      29.013  30.047  22.515  1.00  0.00     0.004 A 
ATOM     99  C   UNL A   1      28.896  27.753  23.294  1.00  0.00     0.010 A 
ATOM    100  C   UNL A   1      27.630  30.167  22.679  1.00  0.00     0.000 A 
ATOM    101  C   UNL A   1      27.510  27.881  23.447  1.00  0.00     0.010 A 
ATOM    102  C   UNL A   1      26.878  29.082  23.129  1.00  0.00     0.001 A 
ENDBRANCH  88  91
ENDBRANCH  86  87
ENDBRANCH  85  86
ENDBRANCH  77  80
ENDBRANCH  69  76
ENDBRANCH  66  69
ENDBRANCH   1  65
TORSDOF 17
ENDMDL
MODEL 2
REMARK VINA RESULT:     -13.5      0.236      5.731
REMARK SMILES O=C(NCCCCNC(=O)[C@H](NC(=O)[C@H]1CC[C@@H](CNC(=O)[C@@H]2Cc3ccccc3C[NH2+]2)CC1)c1ccccc1)c1ccc(-c2c3nc(c(-c4c(F)cccc4F)c4ccc([nH]4)c(-c4c(F)cccc4F)c4nc(c(-c5c(F)cccc5F)c5ccc2[nH]5)C=C4)C=C3)cc1
REMARK SMILES IDX 7 1 6 2 5 3 4 4 3 5 1 6 2 7 41 9 42 10 94 11 43 12 93 13
REMARK SMILES IDX 44 14 45 15 46 16 87 17 47 18 92 19 86 20 88 21 48 22 91 23
REMARK SMILES IDX 85 24 84 25 49 27 75 28 58 29 74 30 59 31 62 32 73 33 89 34
REMARK SMILES IDX 60 35 61 36 72 38 90 39 63 40 50 41 51 42 56 43 52 44 53 45
REMARK SMILES IDX 55 46 57 47 54 48 76 49 77 50 82 51 78 52 79 53 81 54 83 55
REMARK SMILES IDX 80 56 64 57 65 58 70 59 66 60 67 61 69 62 71 63 68 64 8 65
REMARK SMILES IDX 9 66 10 68 11 69 35 70 36 71 40 72 37 73 39 74 38 75 12 76
REMARK SMILES IDX 13 77 14 79 15 80 34 81 16 82 33 83 17 84 18 85 19 86 20 87
REMARK SMILES IDX 21 88 22 90 23 91 24 92 32 93 25 94 31 95 26 98 30 99 27 100
REMARK SMILES IDX 29 101 28 102
REMARK H PARENT 3 8 88 26 62 37 8 67 12 78 20 89 32 96 32 97
REMARK Flexibility Score: inf
ROOT
ATOM      1  C   UNL A   1      36.024  21.409  25.276  1.00  0.00     0.116 C 
ENDROOT
BRANCH   1   2
ATOM      2  C   UNL A   1      36.600  20.030  24.977  1.00  0.00     0.023 C 
BRANCH   2   3
ATOM      3  C   UNL A   1      38.083  20.010  24.624  1.00  0.00     0.023 C 
BRANCH   3   4
ATOM      4  C   UNL A   1      39.029  20.209  25.800  1.00  0.00     0.116 C 
BRANCH   4   5
ATOM      5  N   UNL A   1      40.119  19.243  25.833  1.00  0.00    -0.352 N 
ATOM      6  O   UNL A   1      42.257  18.530  25.993  1.00  0.00    -0.269 OA
ATOM      7  C   UNL A   1      41.445  19.439  26.138  1.00  0.00     0.251 C 
ATOM      8  H   UNL A   1      39.872  18.319  25.601  1.00  0.00     0.163 HD
BRANCH   7   9
ATOM      9  C   UNL A   1      41.890  20.764  26.616  1.00  0.00     0.039 A 
ATOM     10  C   UNL A   1      41.880  21.058  27.981  1.00  0.00     0.014 A 
ATOM     11  C   UNL A   1      42.287  21.730  25.688  1.00  0.00     0.014 A 
ATOM     12  C   UNL A   1      42.102  22.361  28.402  1.00  0.00     0.010 A 
ATOM     13  C   UNL A   1      42.609  23.017  26.127  1.00  0.00     0.010 A 
ATOM     14  C   UNL A   1      42.484  23.352  27.484  1.00  0.00    -0.014 A 
BRANCH  14  15
ATOM     15  C   UNL A   1      42.815  24.709  27.984  1.00  0.00     0.031 A 
ATOM     16  C   UNL A   1      41.747  25.736  28.230  1.00  0.00     0.074 A 
ATOM     17  C   UNL A   1      44.106  24.995  28.245  1.00  0.00     0.049 A 
ATOM     18  N   UNL A   1      41.872  26.963  28.670  1.00  0.00    -0.248 NA
ATOM     19  C   UNL A   1      40.358  25.343  27.940  1.00  0.00     0.031 C 
ATOM     20  C   UNL A   1      45.229  24.077  28.038  1.00  0.00     0.029 A 
ATOM     21  N   UNL A   1      44.690  26.124  28.755  1.00  0.00    -0.354 N 
ATOM     22  C   UNL A   1      40.589  27.495  28.693  1.00  0.00     0.074 A 
ATOM     23  C   UNL A   1      39.699  26.465  28.199  1.00  0.00     0.031 C 
ATOM     24  C   UNL A   1      46.359  24.661  28.460  1.00  0.00     0.029 A 
ATOM     25  C   UNL A   1      46.052  26.016  28.900  1.00  0.00     0.049 A 
ATOM     26  H   UNL A   1      44.184  26.934  28.995  1.00  0.00     0.167 HD
ATOM     27  C   UNL A   1      40.193  28.727  29.094  1.00  0.00     0.037 A 
ATOM     28  C   UNL A   1      46.960  26.915  29.318  1.00  0.00     0.037 A 
ATOM     29  C   UNL A   1      41.086  29.741  29.598  1.00  0.00     0.049 A 
ATOM     30  C   UNL A   1      46.495  28.281  29.728  1.00  0.00     0.074 A 
ATOM     31  C   UNL A   1      40.777  31.010  30.061  1.00  0.00     0.029 A 
ATOM     32  N   UNL A   1      42.462  29.604  29.701  1.00  0.00    -0.354 N 
ATOM     33  N   UNL A   1      45.275  28.759  29.770  1.00  0.00    -0.248 NA
ATOM     34  C   UNL A   1      47.531  29.233  30.145  1.00  0.00     0.031 C 
ATOM     35  C   UNL A   1      41.971  31.655  30.399  1.00  0.00     0.029 A 
ATOM     36  C   UNL A   1      43.019  30.773  30.197  1.00  0.00     0.049 A 
ATOM     37  H   UNL A   1      42.970  28.796  29.458  1.00  0.00     0.167 HD
ATOM     38  C   UNL A   1      45.395  30.059  30.234  1.00  0.00     0.074 A 
ATOM     39  C   UNL A   1      46.804  30.289  30.479  1.00  0.00     0.031 C 
ATOM     40  C   UNL A   1      44.424  30.983  30.437  1.00  0.00     0.037 A 
BRANCH  27  41
ATOM     41  C   UNL A   1      38.732  29.063  28.991  1.00  0.00     0.057 A 
ATOM     42  C   UNL A   1      37.875  28.992  30.097  1.00  0.00     0.134 A 
ATOM     43  C   UNL A   1      38.191  29.522  27.784  1.00  0.00     0.134 A 
ATOM     44  F   UNL A   1      38.327  28.551  31.280  1.00  0.00    -0.206 F 
ATOM     45  C   UNL A   1      36.529  29.351  30.000  1.00  0.00     0.040 A 
ATOM     46  C   UNL A   1      36.852  29.906  27.681  1.00  0.00     0.040 A 
ATOM     47  F   UNL A   1      38.957  29.623  26.688  1.00  0.00    -0.206 F 
ATOM     48  C   UNL A   1      36.016  29.818  28.792  1.00  0.00     0.006 A 
ENDBRANCH  27  41
BRANCH  28  49
ATOM     49  C   UNL A   1      48.397  26.549  29.353  1.00  0.00     0.057 A 
ATOM     50  C   UNL A   1      49.248  26.849  28.284  1.00  0.00     0.134 A 
ATOM     51  C   UNL A   1      48.956  25.901  30.462  1.00  0.00     0.134 A 
ATOM     52  F   UNL A   1      48.767  27.455  27.189  1.00  0.00    -0.206 F 
ATOM     53  C   UNL A   1      50.600  26.503  28.309  1.00  0.00     0.040 A 
ATOM     54  C   UNL A   1      50.311  25.577  30.513  1.00  0.00     0.040 A 
ATOM     55  F   UNL A   1      48.195  25.597  31.523  1.00  0.00    -0.206 F 
ATOM     56  C   UNL A   1      51.137  25.871  29.430  1.00  0.00     0.006 A 
ENDBRANCH  28  49
BRANCH  40  57
ATOM     57  C   UNL A   1      44.856  32.312  30.980  1.00  0.00     0.057 A 
ATOM     58  C   UNL A   1      44.949  32.553  32.357  1.00  0.00     0.134 A 
ATOM     59  C   UNL A   1      45.205  33.357  30.114  1.00  0.00     0.134 A 
ATOM     60  F   UNL A   1      44.614  31.599  33.239  1.00  0.00    -0.206 F 
ATOM     61  C   UNL A   1      45.349  33.795  32.854  1.00  0.00     0.040 A 
ATOM     62  C   UNL A   1      45.631  34.593  30.599  1.00  0.00     0.040 A 
ATOM     63  F   UNL A   1      45.143  33.189  28.785  1.00  0.00    -0.206 F 
ATOM     64  C   UNL A   1      45.697  34.817  31.972  1.00  0.00     0.006 A 
ENDBRANCH  40  57
ENDBRANCH  14  15
ENDBRANCH   7   9
ENDBRANCH   4   5
ENDBRANCH   3   4
ENDBRANCH   2   3
ENDBRANCH   1   2
BRANCH   1  65
ATOM     65  N   UNL A   1      35.318  21.467  26.541  1.00  0.00    -0.354 N 
ATOM     66  C   UNL A   1      33.970  21.540  26.782  1.00  0.00     0.247 C 
ATOM     67  H   UNL A   1      35.890  21.453  27.343  1.00  0.00     0.163 HD
ATOM     68  O   UNL A   1      33.618  21.520  27.962  1.00  0.00    -0.272 OA
BRANCH  66  69
ATOM     69  C   UNL A   1      32.964  21.650  25.598  1.00  0.00     0.202 C 
BRANCH  69  70
ATOM     70  C   UNL A   1      32.686  20.332  24.896  1.00  0.00    -0.016 A 
ATOM     71  C   UNL A   1      32.392  20.240  23.527  1.00  0.00     0.006 A 
ATOM     72  C   UNL A   1      32.794  19.137  25.587  1.00  0.00     0.006 A 
ATOM     73  C   UNL A   1      32.240  18.996  22.898  1.00  0.00     0.000 A 
ATOM     74  C   UNL A   1      32.569  17.894  24.995  1.00  0.00     0.000 A 
ATOM     75  C   UNL A   1      32.316  17.821  23.635  1.00  0.00     0.000 A 
ENDBRANCH  69  70
BRANCH  69  76
ATOM     76  N   UNL A   1      31.817  22.555  25.854  1.00  0.00    -0.340 N 
ATOM     77  C   UNL A   1      31.465  23.819  26.150  1.00  0.00     0.224 C 
ATOM     78  H   UNL A   1      30.992  22.024  25.775  1.00  0.00     0.164 HD
ATOM     79  O   UNL A   1      30.232  23.987  26.123  1.00  0.00    -0.275 OA
BRANCH  77  80
ATOM     80  C   UNL A   1      32.323  25.038  26.522  1.00  0.00     0.078 C 
ATOM     81  C   UNL A   1      33.792  24.933  26.107  1.00  0.00     0.014 C 
ATOM     82  C   UNL A   1      31.654  26.388  26.305  1.00  0.00     0.014 C 
ATOM     83  C   UNL A   1      34.594  26.246  25.967  1.00  0.00     0.006 C 
ATOM     84  C   UNL A   1      32.569  27.543  26.698  1.00  0.00     0.006 C 
ATOM     85  C   UNL A   1      33.832  27.590  25.836  1.00  0.00     0.008 C 
BRANCH  85  86
ATOM     86  C   UNL A   1      33.585  28.003  24.367  1.00  0.00     0.119 C 
BRANCH  86  87
ATOM     87  N   UNL A   1      33.701  26.950  23.379  1.00  0.00    -0.351 N 
ATOM     88  C   UNL A   1      32.949  26.835  22.233  1.00  0.00     0.278 C 
ATOM     89  H   UNL A   1      34.379  26.254  23.543  1.00  0.00     0.163 HD
ATOM     90  O   UNL A   1      33.507  26.395  21.225  1.00  0.00    -0.268 OA
BRANCH  88  91
ATOM     91  C   UNL A   1      31.436  27.167  22.232  1.00  0.00     0.277 C 
ATOM     92  C   UNL A   1      31.093  28.601  22.678  1.00  0.00     0.111 C 
ATOM     93  N   UNL A   1      30.700  26.046  22.866  1.00  0.00    -0.332 N 
ATOM     94  C   UNL A   1      29.602  28.766  22.861  1.00  0.00    -0.033 A 
ATOM     95  C   UNL A   1      29.629  26.435  23.772  1.00  0.00     0.298 C 
ATOM     96  H   UNL A   1      31.370  25.487  23.394  1.00  0.00     0.347 HD
ATOM     97  H   UNL A   1      30.251  25.538  22.105  1.00  0.00     0.347 HD
ATOM     98  C   UNL A   1      28.940  29.970  22.596  1.00  0.00     0.004 A 
ATOM     99  C   UNL A   1      28.875  27.663  23.339  1.00  0.00     0.010 A 
ATOM    100  C   UNL A   1      27.555  30.056  22.758  1.00  0.00     0.000 A 
ATOM    101  C   UNL A   1      27.486  27.757  23.490  1.00  0.00     0.010 A 
ATOM    102  C   UNL A   1      26.827  28.948  23.189  1.00  0.00     0.001 A 
ENDBRANCH  88  91
ENDBRANCH  86  87
ENDBRANCH  85  86
ENDBRANCH  77  80
ENDBRANCH  69  76
ENDBRANCH  66  69
ENDBRANCH   1  65
TORSDOF 17
ENDMDL
MODEL 3
REMARK VINA RESULT:     -13.1      1.026      1.963
REMARK SMILES O=C(NCCCCNC(=O)[C@H](NC(=O)[C@H]1CC[C@@H](CNC(=O)[C@@H]2Cc3ccccc3C[NH2+]2)CC1)c1ccccc1)c1ccc(-c2c3nc(c(-c4c(F)cccc4F)c4ccc([nH]4)c(-c4c(F)cccc4F)c4nc(c(-c5c(F)cccc5F)c5ccc2[nH]5)C=C4)C=C3)cc1
REMARK SMILES IDX 7 1 6 2 5 3 4 4 3 5 1 6 2 7 41 9 42 10 94 11 43 12 93 13
REMARK SMILES IDX 44 14 45 15 46 16 87 17 47 18 92 19 86 20 88 21 48 22 91 23
REMARK SMILES IDX 85 24 84 25 49 27 75 28 58 29 74 30 59 31 62 32 73 33 89 34
REMARK SMILES IDX 60 35 61 36 72 38 90 39 63 40 50 41 51 42 56 43 52 44 53 45
REMARK SMILES IDX 55 46 57 47 54 48 76 49 77 50 82 51 78 52 79 53 81 54 83 55
REMARK SMILES IDX 80 56 64 57 65 58 70 59 66 60 67 61 69 62 71 63 68 64 8 65
REMARK SMILES IDX 9 66 10 68 11 69 35 70 36 71 40 72 37 73 39 74 38 75 12 76
REMARK SMILES IDX 13 77 14 79 15 80 34 81 16 82 33 83 17 84 18 85 19 86 20 87
REMARK SMILES IDX 21 88 22 90 23 91 24 92 32 93 25 94 31 95 26 98 30 99 27 100
REMARK SMILES IDX 29 101 28 102
REMARK H PARENT 3 8 88 26 62 37 8 67 12 78 20 89 32 96 32 97
REMARK Flexibility Score: inf
ROOT
ATOM      1  C   UNL A   1      35.722  21.347  25.048  1.00  0.00     0.116 C 
ENDROOT
BRANCH   1   2
ATOM      2  C   UNL A   1      37.175  21.413  24.593  1.00  0.00     0.023 C 
BRANCH   2   3
ATOM      3  C   UNL A   1      37.987  20.146  24.829  1.00  0.00     0.023 C 
BRANCH   3   4
ATOM      4  C   UNL A   1      38.946  20.203  26.011  1.00  0.00     0.116 C 
BRANCH   4   5
ATOM      5  N   UNL A   1      40.038  19.244  25.914  1.00  0.00    -0.352 N 
ATOM      6  O   UNL A   1      42.185  18.543  25.842  1.00  0.00    -0.269 OA
ATOM      7  C   UNL A   1      41.388  19.443  26.085  1.00  0.00     0.251 C 
ATOM      8  H   UNL A   1      39.773  18.322  25.693  1.00  0.00     0.163 HD
BRANCH   7   9
ATOM      9  C   UNL A   1      41.872  20.763  26.538  1.00  0.00     0.039 A 
ATOM     10  C   UNL A   1      41.879  21.081  27.897  1.00  0.00     0.014 A 
ATOM     11  C   UNL A   1      42.292  21.702  25.591  1.00  0.00     0.014 A 
ATOM     12  C   UNL A   1      42.140  22.384  28.295  1.00  0.00     0.010 A 
ATOM     13  C   UNL A   1      42.653  22.987  26.006  1.00  0.00     0.010 A 
ATOM     14  C   UNL A   1      42.546  23.348  27.357  1.00  0.00    -0.014 A 
BRANCH  14  15
ATOM     15  C   UNL A   1      42.918  24.703  27.833  1.00  0.00     0.031 A 
ATOM     16  C   UNL A   1      44.356  25.118  27.968  1.00  0.00     0.074 A 
ATOM     17  C   UNL A   1      41.930  25.573  28.117  1.00  0.00     0.049 A 
ATOM     18  N   UNL A   1      44.846  26.266  28.364  1.00  0.00    -0.248 NA
ATOM     19  C   UNL A   1      45.379  24.120  27.619  1.00  0.00     0.031 C 
ATOM     20  C   UNL A   1      40.498  25.277  28.030  1.00  0.00     0.029 A 
ATOM     21  N   UNL A   1      41.974  26.882  28.518  1.00  0.00    -0.354 N 
ATOM     22  C   UNL A   1      46.227  26.125  28.333  1.00  0.00     0.074 A 
ATOM     23  C   UNL A   1      46.500  24.771  27.900  1.00  0.00     0.031 C 
ATOM     24  C   UNL A   1      39.800  26.383  28.321  1.00  0.00     0.029 A 
ATOM     25  C   UNL A   1      40.730  27.444  28.683  1.00  0.00     0.049 A 
ATOM     26  H   UNL A   1      42.813  27.374  28.672  1.00  0.00     0.167 HD
ATOM     27  C   UNL A   1      47.177  27.044  28.632  1.00  0.00     0.037 A 
ATOM     28  C   UNL A   1      40.376  28.671  29.103  1.00  0.00     0.037 A 
ATOM     29  C   UNL A   1      46.895  28.395  29.048  1.00  0.00     0.049 A 
ATOM     30  C   UNL A   1      41.450  29.657  29.455  1.00  0.00     0.074 A 
ATOM     31  C   UNL A   1      47.788  29.412  29.342  1.00  0.00     0.029 A 
ATOM     32  N   UNL A   1      45.623  28.917  29.233  1.00  0.00    -0.354 N 
ATOM     33  N   UNL A   1      42.752  29.516  29.394  1.00  0.00    -0.248 NA
ATOM     34  C   UNL A   1      41.006  30.970  29.940  1.00  0.00     0.031 C 
ATOM     35  C   UNL A   1      47.058  30.533  29.749  1.00  0.00     0.029 A 
ATOM     36  C   UNL A   1      45.709  30.234  29.659  1.00  0.00     0.049 A 
ATOM     37  H   UNL A   1      44.783  28.426  29.083  1.00  0.00     0.167 HD
ATOM     38  C   UNL A   1      43.282  30.727  29.813  1.00  0.00     0.074 A 
ATOM     39  C   UNL A   1      42.161  31.597  30.107  1.00  0.00     0.031 C 
ATOM     40  C   UNL A   1      44.582  31.086  29.945  1.00  0.00     0.037 A 
BRANCH  27  41
ATOM     41  C   UNL A   1      48.616  26.621  28.541  1.00  0.00     0.057 A 
ATOM     42  C   UNL A   1      49.296  26.064  29.631  1.00  0.00     0.134 A 
ATOM     43  C   UNL A   1      49.310  26.715  27.327  1.00  0.00     0.134 A 
ATOM     44  F   UNL A   1      48.693  25.953  30.824  1.00  0.00    -0.206 F 
ATOM     45  C   UNL A   1      50.619  25.631  29.522  1.00  0.00     0.040 A 
ATOM     46  C   UNL A   1      50.625  26.264  27.200  1.00  0.00     0.040 A 
ATOM     47  F   UNL A   1      48.716  27.231  26.241  1.00  0.00    -0.206 F 
ATOM     48  C   UNL A   1      51.285  25.723  28.301  1.00  0.00     0.006 A 
ENDBRANCH  27  41
BRANCH  28  49
ATOM     49  C   UNL A   1      38.939  29.021  29.225  1.00  0.00     0.057 A 
ATOM     50  C   UNL A   1      38.247  28.836  30.425  1.00  0.00     0.134 A 
ATOM     51  C   UNL A   1      38.229  29.561  28.144  1.00  0.00     0.134 A 
ATOM     52  F   UNL A   1      38.869  28.309  31.489  1.00  0.00    -0.206 F 
ATOM     53  C   UNL A   1      36.894  29.160  30.543  1.00  0.00     0.040 A 
ATOM     54  C   UNL A   1      36.886  29.917  28.258  1.00  0.00     0.040 A 
ATOM     55  F   UNL A   1      38.840  29.774  26.970  1.00  0.00    -0.206 F 
ATOM     56  C   UNL A   1      36.211  29.709  29.459  1.00  0.00     0.006 A 
ENDBRANCH  28  49
BRANCH  40  57
ATOM     57  C   UNL A   1      44.856  32.489  30.397  1.00  0.00     0.057 A 
ATOM     58  C   UNL A   1      44.957  33.551  29.490  1.00  0.00     0.134 A 
ATOM     59  C   UNL A   1      44.998  32.784  31.759  1.00  0.00     0.134 A 
ATOM     60  F   UNL A   1      44.846  33.331  28.170  1.00  0.00    -0.206 F 
ATOM     61  C   UNL A   1      45.215  34.854  29.919  1.00  0.00     0.040 A 
ATOM     62  C   UNL A   1      45.230  34.086  32.202  1.00  0.00     0.040 A 
ATOM     63  F   UNL A   1      44.906  31.813  32.679  1.00  0.00    -0.206 F 
ATOM     64  C   UNL A   1      45.346  35.124  31.280  1.00  0.00     0.006 A 
ENDBRANCH  40  57
ENDBRANCH  14  15
ENDBRANCH   7   9
ENDBRANCH   4   5
ENDBRANCH   3   4
ENDBRANCH   2   3
ENDBRANCH   1   2
BRANCH   1  65
ATOM     65  N   UNL A   1      34.793  21.854  24.058  1.00  0.00    -0.354 N 
ATOM     66  C   UNL A   1      33.433  21.695  23.980  1.00  0.00     0.247 C 
ATOM     67  H   UNL A   1      35.197  22.390  23.337  1.00  0.00     0.163 HD
ATOM     68  O   UNL A   1      32.860  22.283  23.062  1.00  0.00    -0.272 OA
BRANCH  66  69
ATOM     69  C   UNL A   1      32.685  20.804  25.015  1.00  0.00     0.202 C 
BRANCH  69  70
ATOM     70  C   UNL A   1      32.783  19.314  24.736  1.00  0.00    -0.016 A 
ATOM     71  C   UNL A   1      32.912  18.783  23.442  1.00  0.00     0.006 A 
ATOM     72  C   UNL A   1      32.830  18.409  25.782  1.00  0.00     0.006 A 
ATOM     73  C   UNL A   1      33.100  17.409  23.236  1.00  0.00     0.000 A 
ATOM     74  C   UNL A   1      32.939  17.031  25.592  1.00  0.00     0.000 A 
ATOM     75  C   UNL A   1      33.101  16.529  24.312  1.00  0.00     0.000 A 
ENDBRANCH  69  70
BRANCH  69  76
ATOM     76  N   UNL A   1      32.820  21.256  26.421  1.00  0.00    -0.340 N 
ATOM     77  C   UNL A   1      32.771  22.324  27.237  1.00  0.00     0.224 C 
ATOM     78  H   UNL A   1      33.026  20.466  26.972  1.00  0.00     0.164 HD
ATOM     79  O   UNL A   1      32.874  22.010  28.437  1.00  0.00    -0.275 OA
BRANCH  77  80
ATOM     80  C   UNL A   1      32.630  23.821  26.922  1.00  0.00     0.078 C 
ATOM     81  C   UNL A   1      33.950  24.534  26.615  1.00  0.00     0.014 C 
ATOM     82  C   UNL A   1      31.445  24.185  26.039  1.00  0.00     0.014 C 
ATOM     83  C   UNL A   1      33.884  25.851  25.812  1.00  0.00     0.006 C 
ATOM     84  C   UNL A   1      31.377  25.686  25.774  1.00  0.00     0.006 C 
ATOM     85  C   UNL A   1      32.602  26.187  25.007  1.00  0.00     0.008 C 
BRANCH  85  86
ATOM     86  C   UNL A   1      32.671  25.713  23.537  1.00  0.00     0.119 C 
BRANCH  86  87
ATOM     87  N   UNL A   1      33.467  26.526  22.641  1.00  0.00    -0.351 N 
ATOM     88  C   UNL A   1      33.318  27.878  22.436  1.00  0.00     0.278 C 
ATOM     89  H   UNL A   1      34.176  26.069  22.133  1.00  0.00     0.163 HD
ATOM     90  O   UNL A   1      34.340  28.542  22.245  1.00  0.00    -0.268 OA
BRANCH  88  91
ATOM     91  C   UNL A   1      31.914  28.527  22.362  1.00  0.00     0.277 C 
ATOM     92  C   UNL A   1      31.554  29.417  23.567  1.00  0.00     0.111 C 
ATOM     93  N   UNL A   1      30.932  27.499  21.939  1.00  0.00    -0.332 N 
ATOM     94  C   UNL A   1      30.100  29.824  23.521  1.00  0.00    -0.033 A 
ATOM     95  C   UNL A   1      29.661  27.520  22.646  1.00  0.00     0.298 C 
ATOM     96  H   UNL A   1      31.356  26.582  22.082  1.00  0.00     0.347 HD
ATOM     97  H   UNL A   1      30.714  27.703  20.964  1.00  0.00     0.347 HD
ATOM     98  C   UNL A   1      29.649  31.060  23.997  1.00  0.00     0.004 A 
ATOM     99  C   UNL A   1      29.178  28.901  22.998  1.00  0.00     0.010 A 
ATOM    100  C   UNL A   1      28.295  31.393  23.903  1.00  0.00     0.000 A 
ATOM    101  C   UNL A   1      27.825  29.248  22.901  1.00  0.00     0.010 A 
ATOM    102  C   UNL A   1      27.387  30.495  23.342  1.00  0.00     0.001 A 
ENDBRANCH  88  91
ENDBRANCH  86  87
ENDBRANCH  85  86
ENDBRANCH  77  80
ENDBRANCH  69  76
ENDBRANCH  66  69
ENDBRANCH   1  65
TORSDOF 17
ENDMDL
