MODEL 1
REMARK VINA RESULT:     -11.6      0.000      0.000
REMARK SMILES O=C(CCc1cccnc1)Nc1ccsc1C(=O)NCCCCNC(=O)c1ccc(-c2c3nc(c(-c4c(F)cccc4F)c4ccc([nH]4)c(-c4c(F)cccc4F)c4nc(c(-c5c(F)cccc5F)c5ccc2[nH]5)C=C4)C=C3)cc1
REMARK SMILES IDX 20 1 19 2 17 3 18 4 16 6 12 7 13 8 14 9 15 10 11 11 1 12
REMARK SMILES IDX 2 13 3 15 4 16 5 17 6 18 10 19 7 20 9 21 8 22 21 23 22 24
REMARK SMILES IDX 23 25 24 26 25 27 26 29 27 30 28 31 80 32 29 33 79 34 30 35
REMARK SMILES IDX 31 36 32 37 73 38 33 39 78 40 72 41 74 42 34 43 77 44 71 45
REMARK SMILES IDX 70 46 35 48 61 49 44 50 60 51 45 52 48 53 59 54 75 55 46 56
REMARK SMILES IDX 47 57 58 59 76 60 49 61 36 62 37 63 42 64 38 65 39 66 41 67
REMARK SMILES IDX 43 68 40 69 62 70 63 71 68 72 64 73 65 74 67 75 69 76 66 77
REMARK SMILES IDX 50 78 51 79 56 80 52 81 53 82 55 83 57 84 54 85
REMARK H PARENT 19 5 11 14 24 28 74 47 48 58
REMARK Flexibility Score: inf
ROOT
ATOM      1  C   UNL A   1      33.590  28.978  26.295  1.00  0.00     0.116 C 
ENDROOT
BRANCH   1   2
ATOM      2  N   UNL A   1      33.926  29.022  24.889  1.00  0.00    -0.351 N 
ATOM      3  C   UNL A   1      33.669  28.069  23.903  1.00  0.00     0.263 C 
ATOM      4  O   UNL A   1      34.025  28.377  22.762  1.00  0.00    -0.268 OA
ATOM      5  H   UNL A   1      34.396  29.833  24.587  1.00  0.00     0.163 HD
BRANCH   3   6
ATOM      6  C   UNL A   1      33.056  26.778  24.224  1.00  0.00     0.115 A 
ATOM      7  C   UNL A   1      31.749  26.400  24.498  1.00  0.00     0.065 A 
ATOM      8  C   UNL A   1      31.656  25.038  24.927  1.00  0.00     0.038 A 
ATOM      9  C   UNL A   1      32.854  24.372  24.812  1.00  0.00     0.068 A 
ATOM     10  S   UNL A   1      34.106  25.407  24.288  1.00  0.00    -0.137 S 
BRANCH   7  11
ATOM     11  N   UNL A   1      30.664  27.245  24.315  1.00  0.00    -0.325 N 
ATOM     12  O   UNL A   1      30.679  27.337  22.010  1.00  0.00    -0.275 OA
ATOM     13  C   UNL A   1      30.214  27.693  23.093  1.00  0.00     0.224 C 
ATOM     14  H   UNL A   1      30.181  27.547  25.117  1.00  0.00     0.169 HD
BRANCH  13  15
ATOM     15  C   UNL A   1      29.065  28.695  23.138  1.00  0.00     0.105 C 
BRANCH  15  16
ATOM     16  C   UNL A   1      29.408  30.164  23.411  1.00  0.00     0.047 C 
BRANCH  16  17
ATOM     17  C   UNL A   1      28.852  31.167  22.431  1.00  0.00    -0.029 A 
ATOM     18  C   UNL A   1      28.508  30.804  21.125  1.00  0.00     0.007 A 
ATOM     19  C   UNL A   1      28.615  32.486  22.785  1.00  0.00     0.114 A 
ATOM     20  C   UNL A   1      27.912  31.711  20.259  1.00  0.00     0.020 A 
ATOM     21  N   UNL A   1      28.036  33.395  21.968  1.00  0.00    -0.264 NA
ATOM     22  C   UNL A   1      27.692  32.988  20.727  1.00  0.00     0.111 A 
ENDBRANCH  16  17
ENDBRANCH  15  16
ENDBRANCH  13  15
ENDBRANCH   7  11
ENDBRANCH   3   6
ENDBRANCH   1   2
BRANCH   1  23
ATOM     23  C   UNL A   1      32.287  29.623  26.777  1.00  0.00     0.023 C 
BRANCH  23  24
ATOM     24  C   UNL A   1      32.024  31.138  26.873  1.00  0.00     0.023 C 
BRANCH  24  25
ATOM     25  C   UNL A   1      33.021  32.204  27.348  1.00  0.00     0.116 C 
BRANCH  25  26
ATOM     26  N   UNL A   1      32.528  33.534  27.638  1.00  0.00    -0.352 N 
ATOM     27  C   UNL A   1      33.126  34.509  28.433  1.00  0.00     0.251 C 
ATOM     28  H   UNL A   1      31.669  33.778  27.223  1.00  0.00     0.163 HD
ATOM     29  O   UNL A   1      32.613  35.607  28.548  1.00  0.00    -0.269 OA
BRANCH  27  30
ATOM     30  C   UNL A   1      34.342  34.172  29.226  1.00  0.00     0.039 A 
ATOM     31  C   UNL A   1      34.164  33.541  30.462  1.00  0.00     0.014 A 
ATOM     32  C   UNL A   1      35.633  34.412  28.750  1.00  0.00     0.014 A 
ATOM     33  C   UNL A   1      35.269  33.028  31.153  1.00  0.00     0.010 A 
ATOM     34  C   UNL A   1      36.736  33.866  29.423  1.00  0.00     0.010 A 
ATOM     35  C   UNL A   1      36.559  33.126  30.605  1.00  0.00    -0.014 A 
BRANCH  35  36
ATOM     36  C   UNL A   1      37.688  32.347  31.189  1.00  0.00     0.031 A 
ATOM     37  C   UNL A   1      38.234  32.643  32.557  1.00  0.00     0.074 A 
ATOM     38  C   UNL A   1      38.270  31.388  30.438  1.00  0.00     0.049 A 
ATOM     39  N   UNL A   1      39.216  32.059  33.197  1.00  0.00    -0.248 NA
ATOM     40  C   UNL A   1      37.605  33.746  33.296  1.00  0.00     0.031 C 
ATOM     41  C   UNL A   1      37.876  31.031  29.073  1.00  0.00     0.029 A 
ATOM     42  N   UNL A   1      39.318  30.541  30.710  1.00  0.00    -0.354 N 
ATOM     43  C   UNL A   1      39.326  32.719  34.414  1.00  0.00     0.074 A 
ATOM     44  C   UNL A   1      38.335  33.776  34.403  1.00  0.00     0.031 C 
ATOM     45  C   UNL A   1      38.654  30.029  28.636  1.00  0.00     0.029 A 
ATOM     46  C   UNL A   1      39.622  29.689  29.674  1.00  0.00     0.049 A 
ATOM     47  H   UNL A   1      39.805  30.544  31.564  1.00  0.00     0.167 HD
ATOM     48  C   UNL A   1      40.163  32.461  35.448  1.00  0.00     0.037 A 
ATOM     49  C   UNL A   1      40.570  28.737  29.566  1.00  0.00     0.037 A 
ATOM     50  C   UNL A   1      41.148  31.408  35.463  1.00  0.00     0.049 A 
ATOM     51  C   UNL A   1      41.488  28.473  30.728  1.00  0.00     0.074 A 
ATOM     52  C   UNL A   1      42.005  31.042  36.489  1.00  0.00     0.029 A 
ATOM     53  N   UNL A   1      41.415  30.557  34.401  1.00  0.00    -0.354 N 
ATOM     54  N   UNL A   1      41.525  29.058  31.900  1.00  0.00    -0.248 NA
ATOM     55  C   UNL A   1      42.491  27.412  30.553  1.00  0.00     0.031 C 
ATOM     56  C   UNL A   1      42.817  29.997  36.032  1.00  0.00     0.029 A 
ATOM     57  C   UNL A   1      42.437  29.683  34.739  1.00  0.00     0.049 A 
ATOM     58  H   UNL A   1      40.948  30.573  33.535  1.00  0.00     0.167 HD
ATOM     59  C   UNL A   1      42.532  28.419  32.611  1.00  0.00     0.074 A 
ATOM     60  C   UNL A   1      43.073  27.394  31.743  1.00  0.00     0.031 C 
ATOM     61  C   UNL A   1      42.966  28.662  33.871  1.00  0.00     0.037 A 
BRANCH  48  62
ATOM     62  C   UNL A   1      40.050  33.337  36.663  1.00  0.00     0.057 A 
ATOM     63  C   UNL A   1      39.163  33.037  37.706  1.00  0.00     0.134 A 
ATOM     64  C   UNL A   1      40.864  34.467  36.813  1.00  0.00     0.134 A 
ATOM     65  F   UNL A   1      38.352  31.971  37.623  1.00  0.00    -0.206 F 
ATOM     66  C   UNL A   1      39.069  33.846  38.840  1.00  0.00     0.040 A 
ATOM     67  C   UNL A   1      40.796  35.270  37.953  1.00  0.00     0.040 A 
ATOM     68  F   UNL A   1      41.745  34.804  35.859  1.00  0.00    -0.206 F 
ATOM     69  C   UNL A   1      39.892  34.963  38.968  1.00  0.00     0.006 A 
ENDBRANCH  48  62
BRANCH  49  70
ATOM     70  C   UNL A   1      40.684  27.940  28.320  1.00  0.00     0.057 A 
ATOM     71  C   UNL A   1      40.026  26.711  28.186  1.00  0.00     0.134 A 
ATOM     72  C   UNL A   1      41.456  28.380  27.238  1.00  0.00     0.134 A 
ATOM     73  F   UNL A   1      39.289  26.228  29.195  1.00  0.00    -0.206 F 
ATOM     74  C   UNL A   1      40.145  25.940  27.028  1.00  0.00     0.040 A 
ATOM     75  C   UNL A   1      41.564  27.630  26.064  1.00  0.00     0.040 A 
ATOM     76  F   UNL A   1      42.105  29.552  27.300  1.00  0.00    -0.206 F 
ATOM     77  C   UNL A   1      40.913  26.402  25.961  1.00  0.00     0.006 A 
ENDBRANCH  49  70
BRANCH  61  78
ATOM     78  C   UNL A   1      44.063  27.784  34.400  1.00  0.00     0.057 A 
ATOM     79  C   UNL A   1      45.411  28.159  34.328  1.00  0.00     0.134 A 
ATOM     80  C   UNL A   1      43.763  26.564  35.020  1.00  0.00     0.134 A 
ATOM     81  F   UNL A   1      45.766  29.308  33.733  1.00  0.00    -0.206 F 
ATOM     82  C   UNL A   1      46.422  27.343  34.837  1.00  0.00     0.040 A 
ATOM     83  C   UNL A   1      44.765  25.752  35.554  1.00  0.00     0.040 A 
ATOM     84  F   UNL A   1      42.493  26.148  35.127  1.00  0.00    -0.206 F 
ATOM     85  C   UNL A   1      46.100  26.138  35.459  1.00  0.00     0.006 A 
ENDBRANCH  61  78
ENDBRANCH  35  36
ENDBRANCH  27  30
ENDBRANCH  25  26
ENDBRANCH  24  25
ENDBRANCH  23  24
ENDBRANCH   1  23
TORSDOF 15
ENDMDL
MODEL 2
REMARK VINA RESULT:     -11.5      1.733      2.277
REMARK SMILES O=C(CCc1cccnc1)Nc1ccsc1C(=O)NCCCCNC(=O)c1ccc(-c2c3nc(c(-c4c(F)cccc4F)c4ccc([nH]4)c(-c4c(F)cccc4F)c4nc(c(-c5c(F)cccc5F)c5ccc2[nH]5)C=C4)C=C3)cc1
REMARK SMILES IDX 20 1 19 2 17 3 18 4 16 6 12 7 13 8 14 9 15 10 11 11 1 12
REMARK SMILES IDX 2 13 3 15 4 16 5 17 6 18 10 19 7 20 9 21 8 22 21 23 22 24
REMARK SMILES IDX 23 25 24 26 25 27 26 29 27 30 28 31 80 32 29 33 79 34 30 35
REMARK SMILES IDX 31 36 32 37 73 38 33 39 78 40 72 41 74 42 34 43 77 44 71 45
REMARK SMILES IDX 70 46 35 48 61 49 44 50 60 51 45 52 48 53 59 54 75 55 46 56
REMARK SMILES IDX 47 57 58 59 76 60 49 61 36 62 37 63 42 64 38 65 39 66 41 67
REMARK SMILES IDX 43 68 40 69 62 70 63 71 68 72 64 73 65 74 67 75 69 76 66 77
REMARK SMILES IDX 50 78 51 79 56 80 52 81 53 82 55 83 57 84 54 85
REMARK H PARENT 19 5 11 14 24 28 74 47 48 58
REMARK Flexibility Score: inf
ROOT
ATOM      1  C   UNL A   1      32.404  27.889  26.860  1.00  0.00     0.116 C 
ENDROOT
BRANCH   1   2
ATOM      2  N   UNL A   1      31.657  26.672  27.085  1.00  0.00    -0.351 N 
ATOM      3  C   UNL A   1      31.692  25.483  26.355  1.00  0.00     0.263 C 
ATOM      4  O   UNL A   1      30.981  24.573  26.790  1.00  0.00    -0.268 OA
ATOM      5  H   UNL A   1      31.044  26.682  27.856  1.00  0.00     0.163 HD
BRANCH   3   6
ATOM      6  C   UNL A   1      32.490  25.355  25.134  1.00  0.00     0.115 A 
ATOM      7  C   UNL A   1      32.254  25.712  23.814  1.00  0.00     0.065 A 
ATOM      8  C   UNL A   1      33.270  25.229  22.931  1.00  0.00     0.038 A 
ATOM      9  C   UNL A   1      34.327  24.667  23.609  1.00  0.00     0.068 A 
ATOM     10  S   UNL A   1      34.051  24.630  25.292  1.00  0.00    -0.137 S 
BRANCH   7  11
ATOM     11  N   UNL A   1      31.178  26.496  23.425  1.00  0.00    -0.325 N 
ATOM     12  O   UNL A   1      32.258  28.531  23.300  1.00  0.00    -0.275 OA
ATOM     13  C   UNL A   1      31.230  27.858  23.226  1.00  0.00     0.224 C 
ATOM     14  H   UNL A   1      30.315  26.047  23.281  1.00  0.00     0.169 HD
BRANCH  13  15
ATOM     15  C   UNL A   1      29.900  28.529  22.896  1.00  0.00     0.105 C 
BRANCH  15  16
ATOM     16  C   UNL A   1      29.610  29.892  23.534  1.00  0.00     0.047 C 
BRANCH  16  17
ATOM     17  C   UNL A   1      29.022  30.939  22.621  1.00  0.00    -0.029 A 
ATOM     18  C   UNL A   1      28.588  30.626  21.329  1.00  0.00     0.007 A 
ATOM     19  C   UNL A   1      28.844  32.252  23.028  1.00  0.00     0.114 A 
ATOM     20  C   UNL A   1      27.965  31.575  20.529  1.00  0.00     0.020 A 
ATOM     21  N   UNL A   1      28.241  33.201  22.276  1.00  0.00    -0.264 NA
ATOM     22  C   UNL A   1      27.809  32.842  21.047  1.00  0.00     0.111 A 
ENDBRANCH  16  17
ENDBRANCH  15  16
ENDBRANCH  13  15
ENDBRANCH   7  11
ENDBRANCH   3   6
ENDBRANCH   1   2
BRANCH   1  23
ATOM     23  C   UNL A   1      31.769  29.237  27.216  1.00  0.00     0.023 C 
BRANCH  23  24
ATOM     24  C   UNL A   1      32.197  30.603  26.646  1.00  0.00     0.023 C 
BRANCH  24  25
ATOM     25  C   UNL A   1      33.097  31.634  27.341  1.00  0.00     0.116 C 
BRANCH  25  26
ATOM     26  N   UNL A   1      32.546  32.936  27.655  1.00  0.00    -0.352 N 
ATOM     27  C   UNL A   1      33.167  33.983  28.331  1.00  0.00     0.251 C 
ATOM     28  H   UNL A   1      31.622  33.100  27.354  1.00  0.00     0.163 HD
ATOM     29  O   UNL A   1      32.591  35.044  28.481  1.00  0.00    -0.269 OA
BRANCH  27  30
ATOM     30  C   UNL A   1      34.501  33.769  28.960  1.00  0.00     0.039 A 
ATOM     31  C   UNL A   1      34.543  33.129  30.204  1.00  0.00     0.014 A 
ATOM     32  C   UNL A   1      35.692  34.128  28.326  1.00  0.00     0.014 A 
ATOM     33  C   UNL A   1      35.771  32.728  30.745  1.00  0.00     0.010 A 
ATOM     34  C   UNL A   1      36.918  33.693  28.849  1.00  0.00     0.010 A 
ATOM     35  C   UNL A   1      36.965  32.946  30.039  1.00  0.00    -0.014 A 
BRANCH  35  36
ATOM     36  C   UNL A   1      38.229  32.282  30.468  1.00  0.00     0.031 A 
ATOM     37  C   UNL A   1      39.153  32.908  31.473  1.00  0.00     0.074 A 
ATOM     38  C   UNL A   1      38.574  31.111  29.891  1.00  0.00     0.049 A 
ATOM     39  N   UNL A   1      40.290  32.456  31.941  1.00  0.00    -0.248 NA
ATOM     40  C   UNL A   1      38.756  34.215  32.013  1.00  0.00     0.031 C 
ATOM     41  C   UNL A   1      37.796  30.417  28.862  1.00  0.00     0.029 A 
ATOM     42  N   UNL A   1      39.668  30.301  30.079  1.00  0.00    -0.354 N 
ATOM     43  C   UNL A   1      40.748  33.420  32.830  1.00  0.00     0.074 A 
ATOM     44  C   UNL A   1      39.783  34.501  32.802  1.00  0.00     0.031 C 
ATOM     45  C   UNL A   1      38.423  29.279  28.527  1.00  0.00     0.029 A 
ATOM     46  C   UNL A   1      39.662  29.173  29.291  1.00  0.00     0.049 A 
ATOM     47  H   UNL A   1      40.388  30.507  30.717  1.00  0.00     0.167 HD
ATOM     48  C   UNL A   1      41.860  33.401  33.605  1.00  0.00     0.037 A 
ATOM     49  C   UNL A   1      40.548  28.164  29.192  1.00  0.00     0.037 A 
ATOM     50  C   UNL A   1      42.820  32.326  33.637  1.00  0.00     0.049 A 
ATOM     51  C   UNL A   1      41.775  28.169  30.062  1.00  0.00     0.074 A 
ATOM     52  C   UNL A   1      43.950  32.200  34.430  1.00  0.00     0.029 A 
ATOM     53  N   UNL A   1      42.771  31.196  32.835  1.00  0.00    -0.354 N 
ATOM     54  N   UNL A   1      42.151  29.053  30.953  1.00  0.00    -0.248 NA
ATOM     55  C   UNL A   1      42.697  27.032  29.916  1.00  0.00     0.031 C 
ATOM     56  C   UNL A   1      44.604  31.013  34.078  1.00  0.00     0.029 A 
ATOM     57  C   UNL A   1      43.859  30.379  33.099  1.00  0.00     0.049 A 
ATOM     58  H   UNL A   1      42.067  31.002  32.175  1.00  0.00     0.167 HD
ATOM     59  C   UNL A   1      43.335  28.567  31.493  1.00  0.00     0.074 A 
ATOM     60  C   UNL A   1      43.607  27.304  30.840  1.00  0.00     0.031 C 
ATOM     61  C   UNL A   1      44.122  29.121  32.448  1.00  0.00     0.037 A 
BRANCH  48  62
ATOM     62  C   UNL A   1      42.102  34.588  34.495  1.00  0.00     0.057 A 
ATOM     63  C   UNL A   1      41.729  34.582  35.845  1.00  0.00     0.134 A 
ATOM     64  C   UNL A   1      42.750  35.729  34.009  1.00  0.00     0.134 A 
ATOM     65  F   UNL A   1      41.099  33.520  36.372  1.00  0.00    -0.206 F 
ATOM     66  C   UNL A   1      41.965  35.681  36.673  1.00  0.00     0.040 A 
ATOM     67  C   UNL A   1      43.015  36.825  34.833  1.00  0.00     0.040 A 
ATOM     68  F   UNL A   1      43.147  35.796  32.729  1.00  0.00    -0.206 F 
ATOM     69  C   UNL A   1      42.616  36.805  36.168  1.00  0.00     0.006 A 
ENDBRANCH  48  62
BRANCH  49  70
ATOM     70  C   UNL A   1      40.297  27.044  28.251  1.00  0.00     0.057 A 
ATOM     71  C   UNL A   1      40.865  27.035  26.971  1.00  0.00     0.134 A 
ATOM     72  C   UNL A   1      39.482  25.962  28.602  1.00  0.00     0.134 A 
ATOM     73  F   UNL A   1      41.639  28.053  26.570  1.00  0.00    -0.206 F 
ATOM     74  C   UNL A   1      40.617  25.999  26.068  1.00  0.00     0.040 A 
ATOM     75  C   UNL A   1      39.244  24.907  27.718  1.00  0.00     0.040 A 
ATOM     76  F   UNL A   1      38.914  25.907  29.816  1.00  0.00    -0.206 F 
ATOM     77  C   UNL A   1      39.808  24.929  26.443  1.00  0.00     0.006 A 
ENDBRANCH  49  70
BRANCH  61  78
ATOM     78  C   UNL A   1      45.339  28.349  32.865  1.00  0.00     0.057 A 
ATOM     79  C   UNL A   1      46.586  28.549  32.259  1.00  0.00     0.134 A 
ATOM     80  C   UNL A   1      45.270  27.418  33.911  1.00  0.00     0.134 A 
ATOM     81  F   UNL A   1      46.716  29.414  31.242  1.00  0.00    -0.206 F 
ATOM     82  C   UNL A   1      47.716  27.837  32.665  1.00  0.00     0.040 A 
ATOM     83  C   UNL A   1      46.398  26.719  34.341  1.00  0.00     0.040 A 
ATOM     84  F   UNL A   1      44.108  27.183  34.537  1.00  0.00    -0.206 F 
ATOM     85  C   UNL A   1      47.626  26.924  33.714  1.00  0.00     0.006 A 
ENDBRANCH  61  78
ENDBRANCH  35  36
ENDBRANCH  27  30
ENDBRANCH  25  26
ENDBRANCH  24  25
ENDBRANCH  23  24
ENDBRANCH   1  23
TORSDOF 15
ENDMDL
MODEL 3
REMARK VINA RESULT:     -11.5      3.705      5.229
REMARK SMILES O=C(CCc1cccnc1)Nc1ccsc1C(=O)NCCCCNC(=O)c1ccc(-c2c3nc(c(-c4c(F)cccc4F)c4ccc([nH]4)c(-c4c(F)cccc4F)c4nc(c(-c5c(F)cccc5F)c5ccc2[nH]5)C=C4)C=C3)cc1
REMARK SMILES IDX 20 1 19 2 17 3 18 4 16 6 12 7 13 8 14 9 15 10 11 11 1 12
REMARK SMILES IDX 2 13 3 15 4 16 5 17 6 18 10 19 7 20 9 21 8 22 21 23 22 24
REMARK SMILES IDX 23 25 24 26 25 27 26 29 27 30 28 31 80 32 29 33 79 34 30 35
REMARK SMILES IDX 31 36 32 37 73 38 33 39 78 40 72 41 74 42 34 43 77 44 71 45
REMARK SMILES IDX 70 46 35 48 61 49 44 50 60 51 45 52 48 53 59 54 75 55 46 56
REMARK SMILES IDX 47 57 58 59 76 60 49 61 36 62 37 63 42 64 38 65 39 66 41 67
REMARK SMILES IDX 43 68 40 69 62 70 63 71 68 72 64 73 65 74 67 75 69 76 66 77
REMARK SMILES IDX 50 78 51 79 56 80 52 81 53 82 55 83 57 84 54 85
REMARK H PARENT 19 5 11 14 24 28 74 47 48 58
REMARK Flexibility Score: inf
ROOT
ATOM      1  C   UNL A   1      31.889  26.374  26.467  1.00  0.00     0.116 C 
ENDROOT
BRANCH   1   2
ATOM      2  N   UNL A   1      31.054  25.351  27.058  1.00  0.00    -0.351 N 
ATOM      3  C   UNL A   1      30.716  24.100  26.541  1.00  0.00     0.263 C 
ATOM      4  O   UNL A   1      30.018  23.395  27.275  1.00  0.00    -0.268 OA
ATOM      5  H   UNL A   1      30.677  25.565  27.941  1.00  0.00     0.163 HD
BRANCH   3   6
ATOM      6  C   UNL A   1      31.134  23.684  25.201  1.00  0.00     0.115 A 
ATOM      7  C   UNL A   1      30.775  24.108  23.929  1.00  0.00     0.065 A 
ATOM      8  C   UNL A   1      31.329  23.281  22.903  1.00  0.00     0.038 A 
ATOM      9  C   UNL A   1      32.221  22.359  23.401  1.00  0.00     0.068 A 
ATOM     10  S   UNL A   1      32.311  22.422  25.104  1.00  0.00    -0.137 S 
BRANCH   7  11
ATOM     11  N   UNL A   1      30.010  25.242  23.700  1.00  0.00    -0.325 N 
ATOM     12  O   UNL A   1      31.683  26.649  22.963  1.00  0.00    -0.275 OA
ATOM     13  C   UNL A   1      30.507  26.452  23.268  1.00  0.00     0.224 C 
ATOM     14  H   UNL A   1      29.041  25.179  23.859  1.00  0.00     0.169 HD
BRANCH  13  15
ATOM     15  C   UNL A   1      29.494  27.589  23.179  1.00  0.00     0.105 C 
BRANCH  15  16
ATOM     16  C   UNL A   1      29.942  28.982  23.637  1.00  0.00     0.047 C 
BRANCH  16  17
ATOM     17  C   UNL A   1      29.241  30.150  22.989  1.00  0.00    -0.029 A 
ATOM     18  C   UNL A   1      29.039  31.355  23.669  1.00  0.00     0.007 A 
ATOM     19  C   UNL A   1      28.800  30.104  21.675  1.00  0.00     0.114 A 
ATOM     20  C   UNL A   1      28.475  32.454  23.034  1.00  0.00     0.020 A 
ATOM     21  N   UNL A   1      28.248  31.154  21.026  1.00  0.00    -0.264 NA
ATOM     22  C   UNL A   1      28.103  32.307  21.716  1.00  0.00     0.111 A 
ENDBRANCH  16  17
ENDBRANCH  15  16
ENDBRANCH  13  15
ENDBRANCH   7  11
ENDBRANCH   3   6
ENDBRANCH   1   2
BRANCH   1  23
ATOM     23  C   UNL A   1      31.628  27.845  26.806  1.00  0.00     0.023 C 
BRANCH  23  24
ATOM     24  C   UNL A   1      32.485  29.034  26.333  1.00  0.00     0.023 C 
BRANCH  24  25
ATOM     25  C   UNL A   1      33.825  29.481  26.933  1.00  0.00     0.116 C 
BRANCH  25  26
ATOM     26  N   UNL A   1      33.834  30.595  27.859  1.00  0.00    -0.352 N 
ATOM     27  C   UNL A   1      34.892  31.037  28.650  1.00  0.00     0.251 C 
ATOM     28  H   UNL A   1      32.992  31.100  27.938  1.00  0.00     0.163 HD
ATOM     29  O   UNL A   1      34.764  32.023  29.350  1.00  0.00    -0.269 OA
BRANCH  27  30
ATOM     30  C   UNL A   1      36.149  30.238  28.715  1.00  0.00     0.039 A 
ATOM     31  C   UNL A   1      37.007  30.275  27.610  1.00  0.00     0.014 A 
ATOM     32  C   UNL A   1      36.516  29.517  29.852  1.00  0.00     0.014 A 
ATOM     33  C   UNL A   1      38.284  29.708  27.694  1.00  0.00     0.010 A 
ATOM     34  C   UNL A   1      37.808  28.981  29.950  1.00  0.00     0.010 A 
ATOM     35  C   UNL A   1      38.721  29.115  28.891  1.00  0.00    -0.014 A 
BRANCH  35  36
ATOM     36  C   UNL A   1      40.158  28.764  29.078  1.00  0.00     0.031 A 
ATOM     37  C   UNL A   1      41.141  29.732  29.672  1.00  0.00     0.074 A 
ATOM     38  C   UNL A   1      40.594  27.562  28.646  1.00  0.00     0.049 A 
ATOM     39  N   UNL A   1      42.423  29.576  29.892  1.00  0.00    -0.248 NA
ATOM     40  C   UNL A   1      40.621  31.051  30.058  1.00  0.00     0.031 C 
ATOM     41  C   UNL A   1      39.758  26.545  28.002  1.00  0.00     0.029 A 
ATOM     42  N   UNL A   1      41.843  26.990  28.675  1.00  0.00    -0.354 N 
ATOM     43  C   UNL A   1      42.866  30.773  30.440  1.00  0.00     0.074 A 
ATOM     44  C   UNL A   1      41.721  31.659  30.481  1.00  0.00     0.031 C 
ATOM     45  C   UNL A   1      40.511  25.470  27.719  1.00  0.00     0.029 A 
ATOM     46  C   UNL A   1      41.887  25.728  28.131  1.00  0.00     0.049 A 
ATOM     47  H   UNL A   1      42.633  27.441  29.051  1.00  0.00     0.167 HD
ATOM     48  C   UNL A   1      44.106  31.097  30.882  1.00  0.00     0.037 A 
ATOM     49  C   UNL A   1      42.914  24.870  27.978  1.00  0.00     0.037 A 
ATOM     50  C   UNL A   1      45.247  30.216  30.845  1.00  0.00     0.049 A 
ATOM     51  C   UNL A   1      44.280  25.257  28.474  1.00  0.00     0.074 A 
ATOM     52  C   UNL A   1      46.530  30.445  31.318  1.00  0.00     0.029 A 
ATOM     53  N   UNL A   1      45.247  28.942  30.299  1.00  0.00    -0.354 N 
ATOM     54  N   UNL A   1      44.662  26.364  29.061  1.00  0.00    -0.248 NA
ATOM     55  C   UNL A   1      45.356  24.270  28.292  1.00  0.00     0.031 C 
ATOM     56  C   UNL A   1      47.314  29.324  31.020  1.00  0.00     0.029 A 
ATOM     57  C   UNL A   1      46.510  28.381  30.403  1.00  0.00     0.049 A 
ATOM     58  H   UNL A   1      44.464  28.500  29.897  1.00  0.00     0.167 HD
ATOM     59  C   UNL A   1      46.012  26.198  29.343  1.00  0.00     0.074 A 
ATOM     60  C   UNL A   1      46.379  24.878  28.875  1.00  0.00     0.031 C 
ATOM     61  C   UNL A   1      46.867  27.064  29.939  1.00  0.00     0.037 A 
BRANCH  48  62
ATOM     62  C   UNL A   1      44.298  32.475  31.450  1.00  0.00     0.057 A 
ATOM     63  C   UNL A   1      44.188  32.725  32.824  1.00  0.00     0.134 A 
ATOM     64  C   UNL A   1      44.636  33.552  30.622  1.00  0.00     0.134 A 
ATOM     65  F   UNL A   1      43.862  31.737  33.671  1.00  0.00    -0.206 F 
ATOM     66  C   UNL A   1      44.379  34.004  33.351  1.00  0.00     0.040 A 
ATOM     67  C   UNL A   1      44.854  34.831  31.140  1.00  0.00     0.040 A 
ATOM     68  F   UNL A   1      44.771  33.380  29.298  1.00  0.00    -0.206 F 
ATOM     69  C   UNL A   1      44.719  35.060  32.508  1.00  0.00     0.006 A 
ENDBRANCH  48  62
BRANCH  49  70
ATOM     70  C   UNL A   1      42.688  23.544  27.352  1.00  0.00     0.057 A 
ATOM     71  C   UNL A   1      42.313  22.436  28.122  1.00  0.00     0.134 A 
ATOM     72  C   UNL A   1      42.847  23.347  25.976  1.00  0.00     0.134 A 
ATOM     73  F   UNL A   1      42.164  22.557  29.449  1.00  0.00    -0.206 F 
ATOM     74  C   UNL A   1      42.120  21.178  27.549  1.00  0.00     0.040 A 
ATOM     75  C   UNL A   1      42.635  22.100  25.385  1.00  0.00     0.040 A 
ATOM     76  F   UNL A   1      43.198  24.370  25.182  1.00  0.00    -0.206 F 
ATOM     77  C   UNL A   1      42.277  21.008  26.175  1.00  0.00     0.006 A 
ENDBRANCH  49  70
BRANCH  61  78
ATOM     78  C   UNL A   1      48.279  26.600  30.146  1.00  0.00     0.057 A 
ATOM     79  C   UNL A   1      48.660  25.871  31.280  1.00  0.00     0.134 A 
ATOM     80  C   UNL A   1      49.263  26.857  29.181  1.00  0.00     0.134 A 
ATOM     81  F   UNL A   1      47.770  25.606  32.248  1.00  0.00    -0.206 F 
ATOM     82  C   UNL A   1      49.973  25.431  31.456  1.00  0.00     0.040 A 
ATOM     83  C   UNL A   1      50.572  26.401  29.336  1.00  0.00     0.040 A 
ATOM     84  F   UNL A   1      48.963  27.545  28.070  1.00  0.00    -0.206 F 
ATOM     85  C   UNL A   1      50.933  25.690  30.479  1.00  0.00     0.006 A 
ENDBRANCH  61  78
ENDBRANCH  35  36
ENDBRANCH  27  30
ENDBRANCH  25  26
ENDBRANCH  24  25
ENDBRANCH  23  24
ENDBRANCH   1  23
TORSDOF 15
ENDMDL
