MODEL 1
REMARK VINA RESULT:     -10.8      0.000      0.000
REMARK SMILES CCc1ncc(S(=O)(=O)NCc2ccc(C(=O)NCCCCNC(=O)c3ccc(-c4c5nc(c(-c6c(F)cccc6F)c6ccc([nH]6)c(-c6c(F)cccc6F)c6nc(c(-c7c(F)cccc7F)c7ccc4[nH]7)C=C6)C=C5)cc3)o2)[nH]1
REMARK SMILES IDX 19 1 18 2 16 3 17 4 15 6 12 7 13 8 80 9 14 10 11 11 10 12
REMARK SMILES IDX 7 14 8 15 9 16 6 17 3 18 4 19 81 20 5 21 2 23 1 24 20 25
REMARK SMILES IDX 21 26 22 27 23 28 24 29 25 31 26 32 27 33 79 34 28 35 78 36
REMARK SMILES IDX 29 37 30 38 31 39 72 40 32 41 77 42 71 43 73 44 33 45 76 46
REMARK SMILES IDX 70 47 69 48 34 50 60 51 43 52 59 53 44 54 47 55 58 56 74 57
REMARK SMILES IDX 45 58 46 59 57 61 75 62 48 63 35 64 36 65 41 66 37 67 38 68
REMARK SMILES IDX 40 69 42 70 39 71 61 72 62 73 67 74 63 75 64 76 66 77 68 78
REMARK SMILES IDX 65 79 49 80 50 81 55 82 51 83 52 84 54 85 56 86 53 87
REMARK H PARENT 18 5 10 13 81 22 23 30 73 49 47 60
REMARK Flexibility Score: inf
ROOT
ATOM      1  C   UNL A   1      35.357  19.845  24.871  1.00  0.00     0.116 C 
ENDROOT
BRANCH   1   2
ATOM      2  N   UNL A   1      34.208  19.055  25.245  1.00  0.00    -0.349 N 
ATOM      3  C   UNL A   1      32.884  19.173  24.896  1.00  0.00     0.286 C 
ATOM      4  O   UNL A   1      32.121  18.366  25.433  1.00  0.00    -0.266 OA
ATOM      5  H   UNL A   1      34.406  18.307  25.853  1.00  0.00     0.163 HD
BRANCH   3   6
ATOM      6  C   UNL A   1      32.438  20.171  23.938  1.00  0.00     0.191 A 
ATOM      7  C   UNL A   1      31.572  22.155  23.464  1.00  0.00     0.119 A 
ATOM      8  C   UNL A   1      31.739  21.513  22.259  1.00  0.00     0.048 A 
ATOM      9  O   UNL A   1      32.018  21.362  24.470  1.00  0.00    -0.455 OA
ATOM     10  C   UNL A   1      32.329  20.259  22.559  1.00  0.00     0.056 A 
BRANCH   7  11
ATOM     11  C   UNL A   1      31.100  23.503  23.846  1.00  0.00     0.174 C 
BRANCH  11  12
ATOM     12  N   UNL A   1      30.522  23.543  25.193  1.00  0.00    -0.202 NA
ATOM     13  H   UNL A   1      29.660  24.084  25.128  1.00  0.00     0.141 HD
BRANCH  12  14
ATOM     14  S   UNL A   1      31.405  24.188  26.465  1.00  0.00     0.258 S 
ATOM     15  O   UNL A   1      31.405  23.273  27.574  1.00  0.00    -0.205 OA
ATOM     16  O   UNL A   1      30.944  25.551  26.640  1.00  0.00    -0.205 OA
BRANCH  14  17
ATOM     17  C   UNL A   1      33.085  24.351  26.018  1.00  0.00     0.167 A 
ATOM     18  C   UNL A   1      35.213  23.748  25.773  1.00  0.00     0.106 A 
ATOM     19  N   UNL A   1      35.152  24.988  25.333  1.00  0.00    -0.240 NA
ATOM     20  N   UNL A   1      33.971  23.308  26.155  1.00  0.00    -0.332 N 
ATOM     21  C   UNL A   1      33.852  25.376  25.513  1.00  0.00     0.153 A 
ATOM     22  H   UNL A   1      33.751  22.403  26.474  1.00  0.00     0.169 HD
BRANCH  18  23
ATOM     23  C   UNL A   1      36.440  22.908  25.884  1.00  0.00     0.072 C 
ATOM     24  C   UNL A   1      37.685  23.777  25.996  1.00  0.00     0.012 C 
ENDBRANCH  18  23
ENDBRANCH  14  17
ENDBRANCH  12  14
ENDBRANCH  11  12
ENDBRANCH   7  11
ENDBRANCH   3   6
ENDBRANCH   1   2
BRANCH   1  25
ATOM     25  C   UNL A   1      36.596  18.959  24.760  1.00  0.00     0.023 C 
BRANCH  25  26
ATOM     26  C   UNL A   1      37.897  19.746  24.567  1.00  0.00     0.023 C 
BRANCH  26  27
ATOM     27  C   UNL A   1      38.758  19.880  25.821  1.00  0.00     0.116 C 
BRANCH  27  28
ATOM     28  N   UNL A   1      39.994  19.117  25.753  1.00  0.00    -0.352 N 
ATOM     29  C   UNL A   1      41.272  19.532  26.035  1.00  0.00     0.251 C 
ATOM     30  H   UNL A   1      39.903  18.179  25.466  1.00  0.00     0.163 HD
ATOM     31  O   UNL A   1      42.228  18.793  25.825  1.00  0.00    -0.269 OA
BRANCH  29  32
ATOM     32  C   UNL A   1      41.485  20.895  26.556  1.00  0.00     0.039 A 
ATOM     33  C   UNL A   1      41.341  21.119  27.927  1.00  0.00     0.014 A 
ATOM     34  C   UNL A   1      41.866  21.931  25.701  1.00  0.00     0.014 A 
ATOM     35  C   UNL A   1      41.648  22.375  28.453  1.00  0.00     0.010 A 
ATOM     36  C   UNL A   1      42.235  23.161  26.234  1.00  0.00     0.010 A 
ATOM     37  C   UNL A   1      42.134  23.392  27.615  1.00  0.00    -0.014 A 
BRANCH  37  38
ATOM     38  C   UNL A   1      42.555  24.703  28.165  1.00  0.00     0.031 A 
ATOM     39  C   UNL A   1      41.539  25.785  28.394  1.00  0.00     0.074 A 
ATOM     40  C   UNL A   1      43.862  24.940  28.388  1.00  0.00     0.049 A 
ATOM     41  N   UNL A   1      41.721  27.019  28.788  1.00  0.00    -0.248 NA
ATOM     42  C   UNL A   1      40.135  25.442  28.117  1.00  0.00     0.031 C 
ATOM     43  C   UNL A   1      44.949  23.984  28.157  1.00  0.00     0.029 A 
ATOM     44  N   UNL A   1      44.501  26.065  28.845  1.00  0.00    -0.354 N 
ATOM     45  C   UNL A   1      40.461  27.603  28.792  1.00  0.00     0.074 A 
ATOM     46  C   UNL A   1      39.530  26.604  28.313  1.00  0.00     0.031 C 
ATOM     47  C   UNL A   1      46.115  24.557  28.493  1.00  0.00     0.029 A 
ATOM     48  C   UNL A   1      45.865  25.928  28.927  1.00  0.00     0.049 A 
ATOM     49  H   UNL A   1      44.026  26.891  29.092  1.00  0.00     0.167 HD
ATOM     50  C   UNL A   1      40.110  28.851  29.182  1.00  0.00     0.037 A 
ATOM     51  C   UNL A   1      46.808  26.813  29.302  1.00  0.00     0.037 A 
ATOM     52  C   UNL A   1      41.035  29.832  29.682  1.00  0.00     0.049 A 
ATOM     53  C   UNL A   1      46.391  28.193  29.726  1.00  0.00     0.074 A 
ATOM     54  C   UNL A   1      40.770  31.105  30.159  1.00  0.00     0.029 A 
ATOM     55  N   UNL A   1      42.408  29.651  29.769  1.00  0.00    -0.354 N 
ATOM     56  N   UNL A   1      45.189  28.711  29.788  1.00  0.00    -0.248 NA
ATOM     57  C   UNL A   1      47.463  29.112  30.137  1.00  0.00     0.031 C 
ATOM     58  C   UNL A   1      41.985  31.707  30.498  1.00  0.00     0.029 A 
ATOM     59  C   UNL A   1      43.004  30.794  30.273  1.00  0.00     0.049 A 
ATOM     60  H   UNL A   1      42.886  28.831  29.509  1.00  0.00     0.167 HD
ATOM     61  C   UNL A   1      45.355  30.004  30.268  1.00  0.00     0.074 A 
ATOM     62  C   UNL A   1      46.774  30.186  30.494  1.00  0.00     0.031 C 
ATOM     63  C   UNL A   1      44.418  30.955  30.499  1.00  0.00     0.037 A 
BRANCH  50  64
ATOM     64  C   UNL A   1      38.658  29.220  29.089  1.00  0.00     0.057 A 
ATOM     65  C   UNL A   1      37.802  29.123  30.194  1.00  0.00     0.134 A 
ATOM     66  C   UNL A   1      38.118  29.706  27.893  1.00  0.00     0.134 A 
ATOM     67  F   UNL A   1      38.254  28.652  31.366  1.00  0.00    -0.206 F 
ATOM     68  C   UNL A   1      36.454  29.474  30.105  1.00  0.00     0.040 A 
ATOM     69  C   UNL A   1      36.778  30.085  27.798  1.00  0.00     0.040 A 
ATOM     70  F   UNL A   1      38.884  29.828  26.798  1.00  0.00    -0.206 F 
ATOM     71  C   UNL A   1      35.941  29.963  28.905  1.00  0.00     0.006 A 
ENDBRANCH  50  64
BRANCH  51  72
ATOM     72  C   UNL A   1      48.238  26.416  29.315  1.00  0.00     0.057 A 
ATOM     73  C   UNL A   1      48.802  25.793  30.434  1.00  0.00     0.134 A 
ATOM     74  C   UNL A   1      49.076  26.660  28.221  1.00  0.00     0.134 A 
ATOM     75  F   UNL A   1      48.053  25.551  31.519  1.00  0.00    -0.206 F 
ATOM     76  C   UNL A   1      50.153  25.444  30.474  1.00  0.00     0.040 A 
ATOM     77  C   UNL A   1      50.423  26.295  28.237  1.00  0.00     0.040 A 
ATOM     78  F   UNL A   1      48.593  27.247  27.116  1.00  0.00    -0.206 F 
ATOM     79  C   UNL A   1      50.967  25.692  29.369  1.00  0.00     0.006 A 
ENDBRANCH  51  72
BRANCH  63  80
ATOM     80  C   UNL A   1      44.894  32.265  31.052  1.00  0.00     0.057 A 
ATOM     81  C   UNL A   1      45.226  33.341  30.219  1.00  0.00     0.134 A 
ATOM     82  C   UNL A   1      44.987  32.462  32.436  1.00  0.00     0.134 A 
ATOM     83  F   UNL A   1      45.172  33.211  28.886  1.00  0.00    -0.206 F 
ATOM     84  C   UNL A   1      45.654  34.562  30.744  1.00  0.00     0.040 A 
ATOM     85  C   UNL A   1      45.389  33.685  32.972  1.00  0.00     0.040 A 
ATOM     86  F   UNL A   1      44.676  31.474  33.287  1.00  0.00    -0.206 F 
ATOM     87  C   UNL A   1      45.729  34.738  32.125  1.00  0.00     0.006 A 
ENDBRANCH  63  80
ENDBRANCH  37  38
ENDBRANCH  29  32
ENDBRANCH  27  28
ENDBRANCH  26  27
ENDBRANCH  25  26
ENDBRANCH   1  25
TORSDOF 16
ENDMDL
MODEL 2
REMARK VINA RESULT:     -10.7      2.329      6.865
REMARK SMILES CCc1ncc(S(=O)(=O)NCc2ccc(C(=O)NCCCCNC(=O)c3ccc(-c4c5nc(c(-c6c(F)cccc6F)c6ccc([nH]6)c(-c6c(F)cccc6F)c6nc(c(-c7c(F)cccc7F)c7ccc4[nH]7)C=C6)C=C5)cc3)o2)[nH]1
REMARK SMILES IDX 19 1 18 2 16 3 17 4 15 6 12 7 13 8 80 9 14 10 11 11 10 12
REMARK SMILES IDX 7 14 8 15 9 16 6 17 3 18 4 19 81 20 5 21 2 23 1 24 20 25
REMARK SMILES IDX 21 26 22 27 23 28 24 29 25 31 26 32 27 33 79 34 28 35 78 36
REMARK SMILES IDX 29 37 30 38 31 39 72 40 32 41 77 42 71 43 73 44 33 45 76 46
REMARK SMILES IDX 70 47 69 48 34 50 60 51 43 52 59 53 44 54 47 55 58 56 74 57
REMARK SMILES IDX 45 58 46 59 57 61 75 62 48 63 35 64 36 65 41 66 37 67 38 68
REMARK SMILES IDX 40 69 42 70 39 71 61 72 62 73 67 74 63 75 64 76 66 77 68 78
REMARK SMILES IDX 65 79 49 80 50 81 55 82 51 83 52 84 54 85 56 86 53 87
REMARK H PARENT 18 5 10 13 81 22 23 30 73 49 47 60
REMARK Flexibility Score: inf
ROOT
ATOM      1  C   UNL A   1      36.422  21.618  25.480  1.00  0.00     0.116 C 
ENDROOT
BRANCH   1   2
ATOM      2  N   UNL A   1      35.472  21.625  26.568  1.00  0.00    -0.349 N 
ATOM      3  C   UNL A   1      34.100  21.695  26.563  1.00  0.00     0.286 C 
ATOM      4  O   UNL A   1      33.568  21.738  27.675  1.00  0.00    -0.266 OA
ATOM      5  H   UNL A   1      35.876  21.571  27.464  1.00  0.00     0.163 HD
BRANCH   3   6
ATOM      6  C   UNL A   1      33.345  21.692  25.321  1.00  0.00     0.191 A 
ATOM      7  C   UNL A   1      32.049  22.704  23.836  1.00  0.00     0.119 A 
ATOM      8  C   UNL A   1      32.183  21.406  23.404  1.00  0.00     0.048 A 
ATOM      9  O   UNL A   1      32.769  22.885  24.971  1.00  0.00    -0.455 OA
ATOM     10  C   UNL A   1      33.043  20.768  24.333  1.00  0.00     0.056 A 
BRANCH   7  11
ATOM     11  C   UNL A   1      31.372  23.899  23.287  1.00  0.00     0.174 C 
BRANCH  11  12
ATOM     12  N   UNL A   1      32.119  24.521  22.189  1.00  0.00    -0.202 NA
ATOM     13  H   UNL A   1      32.761  23.814  21.831  1.00  0.00     0.141 HD
BRANCH  12  14
ATOM     14  S   UNL A   1      33.030  25.902  22.472  1.00  0.00     0.258 S 
ATOM     15  O   UNL A   1      33.653  26.334  21.251  1.00  0.00    -0.205 OA
ATOM     16  O   UNL A   1      33.831  25.635  23.649  1.00  0.00    -0.205 OA
BRANCH  14  17
ATOM     17  C   UNL A   1      31.994  27.227  22.941  1.00  0.00     0.167 A 
ATOM     18  C   UNL A   1      30.482  28.840  22.691  1.00  0.00     0.106 A 
ATOM     19  N   UNL A   1      30.855  28.908  23.952  1.00  0.00    -0.240 NA
ATOM     20  N   UNL A   1      31.116  27.804  22.054  1.00  0.00    -0.332 N 
ATOM     21  C   UNL A   1      31.811  27.940  24.104  1.00  0.00     0.153 A 
ATOM     22  H   UNL A   1      30.969  27.522  21.122  1.00  0.00     0.169 HD
BRANCH  18  23
ATOM     23  C   UNL A   1      29.528  29.754  21.999  1.00  0.00     0.072 C 
ATOM     24  C   UNL A   1      28.664  30.502  23.006  1.00  0.00     0.012 C 
ENDBRANCH  18  23
ENDBRANCH  14  17
ENDBRANCH  12  14
ENDBRANCH  11  12
ENDBRANCH   7  11
ENDBRANCH   3   6
ENDBRANCH   1   2
BRANCH   1  25
ATOM     25  C   UNL A   1      36.668  20.188  25.001  1.00  0.00     0.023 C 
BRANCH  25  26
ATOM     26  C   UNL A   1      38.128  19.912  24.622  1.00  0.00     0.023 C 
BRANCH  26  27
ATOM     27  C   UNL A   1      39.130  20.097  25.758  1.00  0.00     0.116 C 
BRANCH  27  28
ATOM     28  N   UNL A   1      40.132  19.044  25.817  1.00  0.00    -0.352 N 
ATOM     29  C   UNL A   1      41.477  19.155  26.069  1.00  0.00     0.251 C 
ATOM     30  H   UNL A   1      39.802  18.130  25.655  1.00  0.00     0.163 HD
ATOM     31  O   UNL A   1      42.212  18.178  25.978  1.00  0.00    -0.269 OA
BRANCH  29  32
ATOM     32  C   UNL A   1      42.035  20.477  26.410  1.00  0.00     0.039 A 
ATOM     33  C   UNL A   1      42.466  21.311  25.375  1.00  0.00     0.014 A 
ATOM     34  C   UNL A   1      42.090  20.905  27.739  1.00  0.00     0.014 A 
ATOM     35  C   UNL A   1      42.890  22.607  25.670  1.00  0.00     0.010 A 
ATOM     36  C   UNL A   1      42.450  22.217  28.023  1.00  0.00     0.010 A 
ATOM     37  C   UNL A   1      42.849  23.081  26.992  1.00  0.00    -0.014 A 
BRANCH  37  38
ATOM     38  C   UNL A   1      43.206  24.483  27.316  1.00  0.00     0.031 A 
ATOM     39  C   UNL A   1      44.643  24.917  27.295  1.00  0.00     0.074 A 
ATOM     40  C   UNL A   1      42.241  25.342  27.698  1.00  0.00     0.049 A 
ATOM     41  N   UNL A   1      45.161  26.073  27.626  1.00  0.00    -0.248 NA
ATOM     42  C   UNL A   1      45.631  23.913  26.873  1.00  0.00     0.031 C 
ATOM     43  C   UNL A   1      40.815  25.023  27.804  1.00  0.00     0.029 A 
ATOM     44  N   UNL A   1      42.317  26.656  28.083  1.00  0.00    -0.354 N 
ATOM     45  C   UNL A   1      46.533  25.929  27.467  1.00  0.00     0.074 A 
ATOM     46  C   UNL A   1      46.772  24.561  27.059  1.00  0.00     0.031 C 
ATOM     47  C   UNL A   1      40.150  26.117  28.206  1.00  0.00     0.029 A 
ATOM     48  C   UNL A   1      41.102  27.202  28.421  1.00  0.00     0.049 A 
ATOM     49  H   UNL A   1      43.161  27.161  28.112  1.00  0.00     0.167 HD
ATOM     50  C   UNL A   1      47.503  26.860  27.625  1.00  0.00     0.037 A 
ATOM     51  C   UNL A   1      40.794  28.435  28.863  1.00  0.00     0.037 A 
ATOM     52  C   UNL A   1      47.260  28.225  28.006  1.00  0.00     0.049 A 
ATOM     53  C   UNL A   1      41.891  29.448  29.033  1.00  0.00     0.074 A 
ATOM     54  C   UNL A   1      48.169  29.261  28.134  1.00  0.00     0.029 A 
ATOM     55  N   UNL A   1      46.014  28.746  28.322  1.00  0.00    -0.354 N 
ATOM     56  N   UNL A   1      43.178  29.318  28.816  1.00  0.00    -0.248 NA
ATOM     57  C   UNL A   1      41.494  30.782  29.507  1.00  0.00     0.031 C 
ATOM     58  C   UNL A   1      47.480  30.398  28.565  1.00  0.00     0.029 A 
ATOM     59  C   UNL A   1      46.134  30.083  28.663  1.00  0.00     0.049 A 
ATOM     60  H   UNL A   1      45.170  28.240  28.306  1.00  0.00     0.167 HD
ATOM     61  C   UNL A   1      43.739  30.557  29.101  1.00  0.00     0.074 A 
ATOM     62  C   UNL A   1      42.650  31.428  29.492  1.00  0.00     0.031 C 
ATOM     63  C   UNL A   1      45.038  30.938  29.044  1.00  0.00     0.037 A 
BRANCH  50  64
ATOM     64  C   UNL A   1      48.920  26.430  27.376  1.00  0.00     0.057 A 
ATOM     65  C   UNL A   1      49.503  26.517  26.105  1.00  0.00     0.134 A 
ATOM     66  C   UNL A   1      49.717  25.952  28.423  1.00  0.00     0.134 A 
ATOM     67  F   UNL A   1      48.788  26.954  25.057  1.00  0.00    -0.206 F 
ATOM     68  C   UNL A   1      50.823  26.122  25.880  1.00  0.00     0.040 A 
ATOM     69  C   UNL A   1      51.046  25.578  28.215  1.00  0.00     0.040 A 
ATOM     70  F   UNL A   1      49.222  25.847  29.665  1.00  0.00    -0.206 F 
ATOM     71  C   UNL A   1      51.600  25.657  26.939  1.00  0.00     0.006 A 
ENDBRANCH  50  64
BRANCH  51  72
ATOM     72  C   UNL A   1      39.384  28.791  29.156  1.00  0.00     0.057 A 
ATOM     73  C   UNL A   1      38.558  29.333  28.166  1.00  0.00     0.134 A 
ATOM     74  C   UNL A   1      38.832  28.611  30.430  1.00  0.00     0.134 A 
ATOM     75  F   UNL A   1      39.036  29.546  26.931  1.00  0.00    -0.206 F 
ATOM     76  C   UNL A   1      37.238  29.703  28.434  1.00  0.00     0.040 A 
ATOM     77  C   UNL A   1      37.508  28.953  30.707  1.00  0.00     0.040 A 
ATOM     78  F   UNL A   1      39.570  28.087  31.420  1.00  0.00    -0.206 F 
ATOM     79  C   UNL A   1      36.709  29.508  29.709  1.00  0.00     0.006 A 
ENDBRANCH  51  72
BRANCH  63  80
ATOM     80  C   UNL A   1      45.348  32.365  29.383  1.00  0.00     0.057 A 
ATOM     81  C   UNL A   1      45.295  33.380  28.421  1.00  0.00     0.134 A 
ATOM     82  C   UNL A   1      45.668  32.731  30.696  1.00  0.00     0.134 A 
ATOM     83  F   UNL A   1      45.009  33.092  27.143  1.00  0.00    -0.206 F 
ATOM     84  C   UNL A   1      45.571  34.709  28.749  1.00  0.00     0.040 A 
ATOM     85  C   UNL A   1      45.920  34.059  31.042  1.00  0.00     0.040 A 
ATOM     86  F   UNL A   1      45.728  31.807  31.666  1.00  0.00    -0.206 F 
ATOM     87  C   UNL A   1      45.877  35.052  30.065  1.00  0.00     0.006 A 
ENDBRANCH  63  80
ENDBRANCH  37  38
ENDBRANCH  29  32
ENDBRANCH  27  28
ENDBRANCH  26  27
ENDBRANCH  25  26
ENDBRANCH   1  25
TORSDOF 16
ENDMDL
MODEL 3
REMARK VINA RESULT:     -10.7      1.661      2.769
REMARK SMILES CCc1ncc(S(=O)(=O)NCc2ccc(C(=O)NCCCCNC(=O)c3ccc(-c4c5nc(c(-c6c(F)cccc6F)c6ccc([nH]6)c(-c6c(F)cccc6F)c6nc(c(-c7c(F)cccc7F)c7ccc4[nH]7)C=C6)C=C5)cc3)o2)[nH]1
REMARK SMILES IDX 19 1 18 2 16 3 17 4 15 6 12 7 13 8 80 9 14 10 11 11 10 12
REMARK SMILES IDX 7 14 8 15 9 16 6 17 3 18 4 19 81 20 5 21 2 23 1 24 20 25
REMARK SMILES IDX 21 26 22 27 23 28 24 29 25 31 26 32 27 33 79 34 28 35 78 36
REMARK SMILES IDX 29 37 30 38 31 39 72 40 32 41 77 42 71 43 73 44 33 45 76 46
REMARK SMILES IDX 70 47 69 48 34 50 60 51 43 52 59 53 44 54 47 55 58 56 74 57
REMARK SMILES IDX 45 58 46 59 57 61 75 62 48 63 35 64 36 65 41 66 37 67 38 68
REMARK SMILES IDX 40 69 42 70 39 71 61 72 62 73 67 74 63 75 64 76 66 77 68 78
REMARK SMILES IDX 65 79 49 80 50 81 55 82 51 83 52 84 54 85 56 86 53 87
REMARK H PARENT 18 5 10 13 81 22 23 30 73 49 47 60
REMARK Flexibility Score: inf
ROOT
ATOM      1  C   UNL A   1      34.917  21.443  24.542  1.00  0.00     0.116 C 
ENDROOT
BRANCH   1   2
ATOM      2  N   UNL A   1      33.940  20.392  24.704  1.00  0.00    -0.349 N 
ATOM      3  C   UNL A   1      32.601  20.449  25.009  1.00  0.00     0.286 C 
ATOM      4  O   UNL A   1      32.040  19.358  25.135  1.00  0.00    -0.266 OA
ATOM      5  H   UNL A   1      34.292  19.483  24.575  1.00  0.00     0.163 HD
BRANCH   3   6
ATOM      6  C   UNL A   1      31.907  21.719  25.145  1.00  0.00     0.191 A 
ATOM      7  C   UNL A   1      31.092  23.587  24.276  1.00  0.00     0.119 A 
ATOM      8  C   UNL A   1      30.884  23.674  25.633  1.00  0.00     0.048 A 
ATOM      9  O   UNL A   1      31.679  22.402  23.979  1.00  0.00    -0.455 OA
ATOM     10  C   UNL A   1      31.371  22.462  26.184  1.00  0.00     0.056 A 
BRANCH   7  11
ATOM     11  C   UNL A   1      30.742  24.456  23.132  1.00  0.00     0.174 C 
BRANCH  11  12
ATOM     12  N   UNL A   1      31.857  24.642  22.198  1.00  0.00    -0.202 NA
ATOM     13  H   UNL A   1      32.283  23.726  22.061  1.00  0.00     0.141 HD
BRANCH  12  14
ATOM     14  S   UNL A   1      33.101  25.702  22.578  1.00  0.00     0.258 S 
ATOM     15  O   UNL A   1      33.588  26.332  21.382  1.00  0.00    -0.205 OA
ATOM     16  O   UNL A   1      34.008  24.981  23.449  1.00  0.00    -0.205 OA
BRANCH  14  17
ATOM     17  C   UNL A   1      32.502  27.013  23.564  1.00  0.00     0.167 A 
ATOM     18  C   UNL A   1      32.050  28.140  25.428  1.00  0.00     0.106 A 
ATOM     19  N   UNL A   1      31.577  28.886  24.451  1.00  0.00    -0.240 NA
ATOM     20  N   UNL A   1      32.659  27.017  24.930  1.00  0.00    -0.332 N 
ATOM     21  C   UNL A   1      31.822  28.181  23.303  1.00  0.00     0.153 A 
ATOM     22  H   UNL A   1      33.128  26.331  25.459  1.00  0.00     0.169 HD
BRANCH  18  23
ATOM     23  C   UNL A   1      31.938  28.422  26.889  1.00  0.00     0.072 C 
ATOM     24  C   UNL A   1      32.493  29.800  27.221  1.00  0.00     0.012 C 
ENDBRANCH  18  23
ENDBRANCH  14  17
ENDBRANCH  12  14
ENDBRANCH  11  12
ENDBRANCH   7  11
ENDBRANCH   3   6
ENDBRANCH   1   2
BRANCH   1  25
ATOM     25  C   UNL A   1      36.061  21.262  25.539  1.00  0.00     0.023 C 
BRANCH  25  26
ATOM     26  C   UNL A   1      37.310  20.619  24.926  1.00  0.00     0.023 C 
BRANCH  26  27
ATOM     27  C   UNL A   1      38.615  20.932  25.655  1.00  0.00     0.116 C 
BRANCH  27  28
ATOM     28  N   UNL A   1      39.567  19.832  25.625  1.00  0.00    -0.352 N 
ATOM     29  C   UNL A   1      40.888  19.834  25.998  1.00  0.00     0.251 C 
ATOM     30  H   UNL A   1      39.219  18.973  25.292  1.00  0.00     0.163 HD
ATOM     31  O   UNL A   1      41.591  18.847  25.811  1.00  0.00    -0.269 OA
BRANCH  29  32
ATOM     32  C   UNL A   1      41.463  21.056  26.591  1.00  0.00     0.039 A 
ATOM     33  C   UNL A   1      41.997  22.027  25.741  1.00  0.00     0.014 A 
ATOM     34  C   UNL A   1      41.434  21.257  27.973  1.00  0.00     0.014 A 
ATOM     35  C   UNL A   1      42.441  23.237  26.275  1.00  0.00     0.010 A 
ATOM     36  C   UNL A   1      41.816  22.488  28.495  1.00  0.00     0.010 A 
ATOM     37  C   UNL A   1      42.318  23.490  27.651  1.00  0.00    -0.014 A 
BRANCH  37  38
ATOM     38  C   UNL A   1      42.697  24.803  28.227  1.00  0.00     0.031 A 
ATOM     39  C   UNL A   1      41.655  25.865  28.426  1.00  0.00     0.074 A 
ATOM     40  C   UNL A   1      43.991  25.058  28.502  1.00  0.00     0.049 A 
ATOM     41  N   UNL A   1      41.802  27.099  28.837  1.00  0.00    -0.248 NA
ATOM     42  C   UNL A   1      40.269  25.503  28.093  1.00  0.00     0.031 C 
ATOM     43  C   UNL A   1      45.101  24.122  28.305  1.00  0.00     0.029 A 
ATOM     44  N   UNL A   1      44.593  26.189  28.992  1.00  0.00    -0.354 N 
ATOM     45  C   UNL A   1      40.534  27.663  28.797  1.00  0.00     0.074 A 
ATOM     46  C   UNL A   1      39.638  26.653  28.275  1.00  0.00     0.031 C 
ATOM     47  C   UNL A   1      46.244  24.711  28.690  1.00  0.00     0.029 A 
ATOM     48  C   UNL A   1      45.955  26.074  29.125  1.00  0.00     0.049 A 
ATOM     49  H   UNL A   1      44.095  27.005  29.227  1.00  0.00     0.167 HD
ATOM     50  C   UNL A   1      40.148  28.901  29.183  1.00  0.00     0.037 A 
ATOM     51  C   UNL A   1      46.868  26.970  29.542  1.00  0.00     0.037 A 
ATOM     52  C   UNL A   1      41.037  29.893  29.726  1.00  0.00     0.049 A 
ATOM     53  C   UNL A   1      46.413  28.340  29.962  1.00  0.00     0.074 A 
ATOM     54  C   UNL A   1      40.734  31.157  30.202  1.00  0.00     0.029 A 
ATOM     55  N   UNL A   1      42.408  29.734  29.863  1.00  0.00    -0.354 N 
ATOM     56  N   UNL A   1      45.201  28.838  29.981  1.00  0.00    -0.248 NA
ATOM     57  C   UNL A   1      47.454  29.272  30.420  1.00  0.00     0.031 C 
ATOM     58  C   UNL A   1      41.925  31.776  30.592  1.00  0.00     0.029 A 
ATOM     59  C   UNL A   1      42.966  30.882  30.399  1.00  0.00     0.049 A 
ATOM     60  H   UNL A   1      42.910  28.923  29.616  1.00  0.00     0.167 HD
ATOM     61  C   UNL A   1      45.328  30.130  30.477  1.00  0.00     0.074 A 
ATOM     62  C   UNL A   1      46.734  30.332  30.759  1.00  0.00     0.031 C 
ATOM     63  C   UNL A   1      44.368  31.063  30.680  1.00  0.00     0.037 A 
BRANCH  50  64
ATOM     64  C   UNL A   1      38.695  29.249  29.038  1.00  0.00     0.057 A 
ATOM     65  C   UNL A   1      38.148  29.626  27.804  1.00  0.00     0.134 A 
ATOM     66  C   UNL A   1      37.828  29.176  30.134  1.00  0.00     0.134 A 
ATOM     67  F   UNL A   1      38.928  29.728  26.717  1.00  0.00    -0.206 F 
ATOM     68  C   UNL A   1      36.795  29.942  27.672  1.00  0.00     0.040 A 
ATOM     69  C   UNL A   1      36.468  29.465  30.009  1.00  0.00     0.040 A 
ATOM     70  F   UNL A   1      38.286  28.817  31.343  1.00  0.00    -0.206 F 
ATOM     71  C   UNL A   1      35.950  29.855  28.777  1.00  0.00     0.006 A 
ENDBRANCH  50  64
BRANCH  51  72
ATOM     72  C   UNL A   1      48.303  26.597  29.607  1.00  0.00     0.057 A 
ATOM     73  C   UNL A   1      49.170  26.879  28.546  1.00  0.00     0.134 A 
ATOM     74  C   UNL A   1      48.839  25.939  30.721  1.00  0.00     0.134 A 
ATOM     75  F   UNL A   1      48.710  27.490  27.445  1.00  0.00    -0.206 F 
ATOM     76  C   UNL A   1      50.514  26.505  28.578  1.00  0.00     0.040 A 
ATOM     77  C   UNL A   1      50.187  25.580  30.779  1.00  0.00     0.040 A 
ATOM     78  F   UNL A   1      48.062  25.647  31.774  1.00  0.00    -0.206 F 
ATOM     79  C   UNL A   1      51.027  25.857  29.701  1.00  0.00     0.006 A 
ENDBRANCH  51  72
BRANCH  63  80
ATOM     80  C   UNL A   1      44.801  32.376  31.261  1.00  0.00     0.057 A 
ATOM     81  C   UNL A   1      44.859  32.587  32.644  1.00  0.00     0.134 A 
ATOM     82  C   UNL A   1      45.200  33.428  30.426  1.00  0.00     0.134 A 
ATOM     83  F   UNL A   1      44.477  31.624  33.496  1.00  0.00    -0.206 F 
ATOM     84  C   UNL A   1      45.279  33.808  33.177  1.00  0.00     0.040 A 
ATOM     85  C   UNL A   1      45.645  34.643  30.947  1.00  0.00     0.040 A 
ATOM     86  F   UNL A   1      45.174  33.286  29.093  1.00  0.00    -0.206 F 
ATOM     87  C   UNL A   1      45.680  34.837  32.327  1.00  0.00     0.006 A 
ENDBRANCH  63  80
ENDBRANCH  37  38
ENDBRANCH  29  32
ENDBRANCH  27  28
ENDBRANCH  26  27
ENDBRANCH  25  26
ENDBRANCH   1  25
TORSDOF 16
ENDMDL
