MODEL 1
REMARK VINA RESULT:     -12.1      0.000      0.000
REMARK SMILES Cc1c(Cl)cc2c(c1C)O[C@H](C(F)(F)F)C(C(=O)NCCCCNC(=O)c1ccc(-c3c4nc(c(-c5c(F)cccc5F)c5ccc([nH]5)c(-c5c(F)cccc5F)c5nc(c(-c6c(F)cccc6F)c6ccc3[nH]6)C=C5)C=C4)cc1)=C2
REMARK SMILES IDX 22 1 21 2 20 3 19 4 17 5 18 6 16 8 1 9 2 10 3 11 8 12 4 13
REMARK SMILES IDX 5 14 7 15 9 16 6 17 10 18 81 19 11 20 12 21 13 22 14 23
REMARK SMILES IDX 15 24 23 25 24 26 25 27 26 29 27 30 28 31 80 32 29 33 79 34
REMARK SMILES IDX 30 35 31 36 32 37 73 38 33 39 78 40 72 41 74 42 34 43 77 44
REMARK SMILES IDX 71 45 70 46 35 48 61 49 44 50 60 51 45 52 48 53 59 54 75 55
REMARK SMILES IDX 46 56 47 57 58 59 76 60 49 61 36 62 37 63 42 64 38 65 39 66
REMARK SMILES IDX 41 67 43 68 40 69 62 70 63 71 68 72 64 73 65 74 67 75 69 76
REMARK SMILES IDX 66 77 50 78 51 79 56 80 52 81 53 82 55 83 57 84 54 85
REMARK H PARENT 19 7 24 28 74 47 48 58
REMARK Flexibility Score: inf
ROOT
ATOM      1  C   UNL A   1      33.766  28.787  25.510  1.00  0.00     0.023 C 
ENDROOT
BRANCH   1   2
ATOM      2  C   UNL A   1      33.731  27.407  24.847  1.00  0.00     0.023 C 
BRANCH   2   3
ATOM      3  C   UNL A   1      32.345  26.975  24.378  1.00  0.00     0.116 C 
BRANCH   3   4
ATOM      4  N   UNL A   1      31.594  26.322  25.435  1.00  0.00    -0.352 N 
ATOM      5  C   UNL A   1      31.589  25.110  26.038  1.00  0.00     0.251 C 
ATOM      6  O   UNL A   1      30.739  24.970  26.924  1.00  0.00    -0.270 OA
ATOM      7  H   UNL A   1      30.907  26.918  25.813  1.00  0.00     0.163 HD
BRANCH   5   8
ATOM      8  C   UNL A   1      32.505  23.978  25.711  1.00  0.00     0.067 C 
ATOM      9  C   UNL A   1      37.542  19.871  24.925  1.00  0.00     0.046 C 
ATOM     10  C   UNL A   1      36.569  20.983  25.231  1.00  0.00    -0.026 A 
ATOM     11  C   UNL A   1      37.010  22.227  25.727  1.00  0.00     0.045 A 
ATOM     12  C   UNL A   1      35.177  20.775  25.071  1.00  0.00    -0.004 A 
ATOM     13  Cl  UNL A   1      38.681  22.558  26.039  1.00  0.00    -0.084 Cl
ATOM     14  C   UNL A   1      36.107  23.257  26.010  1.00  0.00     0.032 A 
ATOM     15  C   UNL A   1      34.289  21.837  25.333  1.00  0.00     0.131 A 
ATOM     16  C   UNL A   1      34.602  19.467  24.583  1.00  0.00     0.049 C 
ATOM     17  C   UNL A   1      34.742  23.069  25.805  1.00  0.00     0.019 A 
ATOM     18  O   UNL A   1      32.953  21.593  25.157  1.00  0.00    -0.475 OA
ATOM     19  C   UNL A   1      33.781  24.122  26.115  1.00  0.00     0.025 C 
ATOM     20  C   UNL A   1      32.103  22.751  24.945  1.00  0.00     0.314 C 
BRANCH  20  21
ATOM     21  C   UNL A   1      31.960  23.013  23.434  1.00  0.00     0.429 C 
ATOM     22  F   UNL A   1      30.724  23.500  23.153  1.00  0.00    -0.167 F 
ATOM     23  F   UNL A   1      32.843  23.933  22.981  1.00  0.00    -0.167 F 
ATOM     24  F   UNL A   1      32.134  21.899  22.689  1.00  0.00    -0.167 F 
ENDBRANCH  20  21
ENDBRANCH   5   8
ENDBRANCH   3   4
ENDBRANCH   2   3
ENDBRANCH   1   2
BRANCH   1  25
ATOM     25  C   UNL A   1      33.743  28.782  27.037  1.00  0.00     0.116 C 
BRANCH  25  26
ATOM     26  N   UNL A   1      33.700  30.110  27.633  1.00  0.00    -0.352 N 
ATOM     27  C   UNL A   1      34.706  30.766  28.301  1.00  0.00     0.251 C 
ATOM     28  H   UNL A   1      32.848  30.595  27.548  1.00  0.00     0.163 HD
ATOM     29  O   UNL A   1      34.513  31.862  28.815  1.00  0.00    -0.269 OA
BRANCH  27  30
ATOM     30  C   UNL A   1      36.015  30.101  28.431  1.00  0.00     0.039 A 
ATOM     31  C   UNL A   1      36.919  30.187  27.371  1.00  0.00     0.014 A 
ATOM     32  C   UNL A   1      36.371  29.477  29.629  1.00  0.00     0.014 A 
ATOM     33  C   UNL A   1      38.220  29.715  27.543  1.00  0.00     0.010 A 
ATOM     34  C   UNL A   1      37.683  29.059  29.819  1.00  0.00     0.010 A 
ATOM     35  C   UNL A   1      38.621  29.188  28.782  1.00  0.00    -0.014 A 
BRANCH  35  36
ATOM     36  C   UNL A   1      40.025  28.784  29.020  1.00  0.00     0.031 A 
ATOM     37  C   UNL A   1      40.977  29.733  29.686  1.00  0.00     0.074 A 
ATOM     38  C   UNL A   1      40.455  27.587  28.578  1.00  0.00     0.049 A 
ATOM     39  N   UNL A   1      42.256  29.589  29.918  1.00  0.00    -0.248 NA
ATOM     40  C   UNL A   1      40.422  31.022  30.129  1.00  0.00     0.031 C 
ATOM     41  C   UNL A   1      39.631  26.596  27.882  1.00  0.00     0.029 A 
ATOM     42  N   UNL A   1      41.693  27.001  28.646  1.00  0.00    -0.354 N 
ATOM     43  C   UNL A   1      42.661  30.771  30.526  1.00  0.00     0.074 A 
ATOM     44  C   UNL A   1      41.505  31.639  30.581  1.00  0.00     0.031 C 
ATOM     45  C   UNL A   1      40.380  25.513  27.614  1.00  0.00     0.029 A 
ATOM     46  C   UNL A   1      41.741  25.747  28.090  1.00  0.00     0.049 A 
ATOM     47  H   UNL A   1      42.474  27.439  29.056  1.00  0.00     0.167 HD
ATOM     48  C   UNL A   1      43.881  31.092  31.013  1.00  0.00     0.037 A 
ATOM     49  C   UNL A   1      42.766  24.882  27.978  1.00  0.00     0.037 A 
ATOM     50  C   UNL A   1      45.023  30.218  30.977  1.00  0.00     0.049 A 
ATOM     51  C   UNL A   1      44.113  25.264  28.523  1.00  0.00     0.074 A 
ATOM     52  C   UNL A   1      46.294  30.440  31.479  1.00  0.00     0.029 A 
ATOM     53  N   UNL A   1      45.030  28.953  30.409  1.00  0.00    -0.354 N 
ATOM     54  N   UNL A   1      44.473  26.370  29.127  1.00  0.00    -0.248 NA
ATOM     55  C   UNL A   1      45.195  24.280  28.371  1.00  0.00     0.031 C 
ATOM     56  C   UNL A   1      47.077  29.317  31.194  1.00  0.00     0.029 A 
ATOM     57  C   UNL A   1      46.284  28.384  30.543  1.00  0.00     0.049 A 
ATOM     58  H   UNL A   1      44.257  28.524  29.977  1.00  0.00     0.167 HD
ATOM     59  C   UNL A   1      45.814  26.208  29.448  1.00  0.00     0.074 A 
ATOM     60  C   UNL A   1      46.202  24.894  28.978  1.00  0.00     0.031 C 
ATOM     61  C   UNL A   1      46.649  27.072  30.075  1.00  0.00     0.037 A 
BRANCH  48  62
ATOM     62  C   UNL A   1      44.036  32.443  31.642  1.00  0.00     0.057 A 
ATOM     63  C   UNL A   1      43.819  32.640  33.012  1.00  0.00     0.134 A 
ATOM     64  C   UNL A   1      44.436  33.549  30.882  1.00  0.00     0.134 A 
ATOM     65  F   UNL A   1      43.419  31.623  33.789  1.00  0.00    -0.206 F 
ATOM     66  C   UNL A   1      43.975  33.895  33.600  1.00  0.00     0.040 A 
ATOM     67  C   UNL A   1      44.617  34.804  31.464  1.00  0.00     0.040 A 
ATOM     68  F   UNL A   1      44.662  33.425  29.566  1.00  0.00    -0.206 F 
ATOM     69  C   UNL A   1      44.382  34.981  32.827  1.00  0.00     0.006 A 
ENDBRANCH  48  62
BRANCH  49  70
ATOM     70  C   UNL A   1      42.546  23.551  27.362  1.00  0.00     0.057 A 
ATOM     71  C   UNL A   1      42.720  23.363  25.986  1.00  0.00     0.134 A 
ATOM     72  C   UNL A   1      42.178  22.439  28.127  1.00  0.00     0.134 A 
ATOM     73  F   UNL A   1      43.056  24.397  25.202  1.00  0.00    -0.206 F 
ATOM     74  C   UNL A   1      42.527  22.116  25.390  1.00  0.00     0.040 A 
ATOM     75  C   UNL A   1      41.999  21.182  27.546  1.00  0.00     0.040 A 
ATOM     76  F   UNL A   1      42.004  22.555  29.451  1.00  0.00    -0.206 F 
ATOM     77  C   UNL A   1      42.171  21.019  26.172  1.00  0.00     0.006 A 
ENDBRANCH  49  70
BRANCH  61  78
ATOM     78  C   UNL A   1      48.056  26.620  30.311  1.00  0.00     0.057 A 
ATOM     79  C   UNL A   1      48.408  25.872  31.441  1.00  0.00     0.134 A 
ATOM     80  C   UNL A   1      49.055  26.875  29.363  1.00  0.00     0.134 A 
ATOM     81  F   UNL A   1      47.496  25.605  32.390  1.00  0.00    -0.206 F 
ATOM     82  C   UNL A   1      49.708  25.401  31.625  1.00  0.00     0.040 A 
ATOM     83  C   UNL A   1      50.354  26.392  29.527  1.00  0.00     0.040 A 
ATOM     84  F   UNL A   1      48.778  27.579  28.255  1.00  0.00    -0.206 F 
ATOM     85  C   UNL A   1      50.684  25.653  30.661  1.00  0.00     0.006 A 
ENDBRANCH  61  78
ENDBRANCH  35  36
ENDBRANCH  27  30
ENDBRANCH  25  26
ENDBRANCH   1  25
TORSDOF 12
ENDMDL
MODEL 2
REMARK VINA RESULT:     -11.8      3.531      5.261
REMARK SMILES Cc1c(Cl)cc2c(c1C)O[C@H](C(F)(F)F)C(C(=O)NCCCCNC(=O)c1ccc(-c3c4nc(c(-c5c(F)cccc5F)c5ccc([nH]5)c(-c5c(F)cccc5F)c5nc(c(-c6c(F)cccc6F)c6ccc3[nH]6)C=C5)C=C4)cc1)=C2
REMARK SMILES IDX 22 1 21 2 20 3 19 4 17 5 18 6 16 8 1 9 2 10 3 11 8 12 4 13
REMARK SMILES IDX 5 14 7 15 9 16 6 17 10 18 81 19 11 20 12 21 13 22 14 23
REMARK SMILES IDX 15 24 23 25 24 26 25 27 26 29 27 30 28 31 80 32 29 33 79 34
REMARK SMILES IDX 30 35 31 36 32 37 73 38 33 39 78 40 72 41 74 42 34 43 77 44
REMARK SMILES IDX 71 45 70 46 35 48 61 49 44 50 60 51 45 52 48 53 59 54 75 55
REMARK SMILES IDX 46 56 47 57 58 59 76 60 49 61 36 62 37 63 42 64 38 65 39 66
REMARK SMILES IDX 41 67 43 68 40 69 62 70 63 71 68 72 64 73 65 74 67 75 69 76
REMARK SMILES IDX 66 77 50 78 51 79 56 80 52 81 53 82 55 83 57 84 54 85
REMARK H PARENT 19 7 24 28 74 47 48 58
REMARK Flexibility Score: inf
ROOT
ATOM      1  C   UNL A   1      31.626  31.989  26.764  1.00  0.00     0.023 C 
ENDROOT
BRANCH   1   2
ATOM      2  C   UNL A   1      31.867  30.477  26.746  1.00  0.00     0.023 C 
BRANCH   2   3
ATOM      3  C   UNL A   1      33.191  30.065  26.109  1.00  0.00     0.116 C 
BRANCH   3   4
ATOM      4  N   UNL A   1      33.037  29.732  24.704  1.00  0.00    -0.352 N 
ATOM      5  C   UNL A   1      32.851  28.609  23.971  1.00  0.00     0.251 C 
ATOM      6  O   UNL A   1      32.778  28.787  22.751  1.00  0.00    -0.270 OA
ATOM      7  H   UNL A   1      33.079  30.534  24.135  1.00  0.00     0.163 HD
BRANCH   5   8
ATOM      8  C   UNL A   1      32.734  27.226  24.522  1.00  0.00     0.067 C 
ATOM      9  C   UNL A   1      33.700  21.192  26.867  1.00  0.00     0.046 C 
ATOM     10  C   UNL A   1      33.757  22.595  26.313  1.00  0.00    -0.026 A 
ATOM     11  C   UNL A   1      34.967  23.153  25.855  1.00  0.00     0.045 A 
ATOM     12  C   UNL A   1      32.591  23.399  26.292  1.00  0.00    -0.004 A 
ATOM     13  Cl  UNL A   1      36.466  22.287  25.914  1.00  0.00    -0.084 Cl
ATOM     14  C   UNL A   1      35.018  24.453  25.341  1.00  0.00     0.032 A 
ATOM     15  C   UNL A   1      32.660  24.694  25.742  1.00  0.00     0.131 A 
ATOM     16  C   UNL A   1      31.255  22.907  26.796  1.00  0.00     0.049 C 
ATOM     17  C   UNL A   1      33.862  25.226  25.273  1.00  0.00     0.019 A 
ATOM     18  O   UNL A   1      31.506  25.432  25.735  1.00  0.00    -0.475 OA
ATOM     19  C   UNL A   1      33.896  26.592  24.762  1.00  0.00     0.025 C 
ATOM     20  C   UNL A   1      31.435  26.516  24.771  1.00  0.00     0.314 C 
BRANCH  20  21
ATOM     21  C   UNL A   1      30.776  26.008  23.475  1.00  0.00     0.429 C 
ATOM     22  F   UNL A   1      30.102  27.014  22.861  1.00  0.00    -0.167 F 
ATOM     23  F   UNL A   1      31.681  25.553  22.577  1.00  0.00    -0.167 F 
ATOM     24  F   UNL A   1      29.897  25.004  23.691  1.00  0.00    -0.167 F 
ENDBRANCH  20  21
ENDBRANCH   5   8
ENDBRANCH   3   4
ENDBRANCH   2   3
ENDBRANCH   1   2
BRANCH   1  25
ATOM     25  C   UNL A   1      32.754  32.826  27.362  1.00  0.00     0.116 C 
BRANCH  25  26
ATOM     26  N   UNL A   1      32.364  34.187  27.704  1.00  0.00    -0.352 N 
ATOM     27  C   UNL A   1      32.968  35.037  28.601  1.00  0.00     0.251 C 
ATOM     28  H   UNL A   1      31.573  34.541  27.238  1.00  0.00     0.163 HD
ATOM     29  O   UNL A   1      32.493  36.139  28.844  1.00  0.00    -0.269 OA
BRANCH  27  30
ATOM     30  C   UNL A   1      34.177  34.572  29.305  1.00  0.00     0.039 A 
ATOM     31  C   UNL A   1      34.034  33.967  30.555  1.00  0.00     0.014 A 
ATOM     32  C   UNL A   1      35.428  34.657  28.687  1.00  0.00     0.014 A 
ATOM     33  C   UNL A   1      35.141  33.368  31.154  1.00  0.00     0.010 A 
ATOM     34  C   UNL A   1      36.517  34.011  29.259  1.00  0.00     0.010 A 
ATOM     35  C   UNL A   1      36.379  33.349  30.489  1.00  0.00    -0.014 A 
BRANCH  35  36
ATOM     36  C   UNL A   1      37.538  32.624  31.057  1.00  0.00     0.031 A 
ATOM     37  C   UNL A   1      38.174  33.102  32.329  1.00  0.00     0.074 A 
ATOM     38  C   UNL A   1      38.055  31.574  30.391  1.00  0.00     0.049 A 
ATOM     39  N   UNL A   1      39.234  32.645  32.943  1.00  0.00    -0.248 NA
ATOM     40  C   UNL A   1      37.548  34.262  32.983  1.00  0.00     0.031 C 
ATOM     41  C   UNL A   1      37.547  31.041  29.125  1.00  0.00     0.029 A 
ATOM     42  N   UNL A   1      39.125  30.768  30.685  1.00  0.00    -0.354 N 
ATOM     43  C   UNL A   1      39.407  33.464  34.050  1.00  0.00     0.074 A 
ATOM     44  C   UNL A   1      38.374  34.476  33.997  1.00  0.00     0.031 C 
ATOM     45  C   UNL A   1      38.287  29.979  28.766  1.00  0.00     0.029 A 
ATOM     46  C   UNL A   1      39.339  29.776  29.759  1.00  0.00     0.049 A 
ATOM     47  H   UNL A   1      39.687  30.889  31.484  1.00  0.00     0.167 HD
ATOM     48  C   UNL A   1      40.331  33.367  35.034  1.00  0.00     0.037 A 
ATOM     49  C   UNL A   1      40.276  28.812  29.717  1.00  0.00     0.037 A 
ATOM     50  C   UNL A   1      41.343  32.347  35.096  1.00  0.00     0.049 A 
ATOM     51  C   UNL A   1      41.294  28.727  30.819  1.00  0.00     0.074 A 
ATOM     52  C   UNL A   1      42.301  32.142  36.073  1.00  0.00     0.029 A 
ATOM     53  N   UNL A   1      41.523  31.357  34.142  1.00  0.00    -0.354 N 
ATOM     54  N   UNL A   1      41.424  29.486  31.879  1.00  0.00    -0.248 NA
ATOM     55  C   UNL A   1      42.293  27.654  30.720  1.00  0.00     0.031 C 
ATOM     56  C   UNL A   1      43.078  31.042  35.698  1.00  0.00     0.029 A 
ATOM     57  C   UNL A   1      42.582  30.542  34.504  1.00  0.00     0.049 A 
ATOM     58  H   UNL A   1      40.979  31.249  33.329  1.00  0.00     0.167 HD
ATOM     59  C   UNL A   1      42.503  28.971  32.585  1.00  0.00     0.074 A 
ATOM     60  C   UNL A   1      42.987  27.830  31.836  1.00  0.00     0.031 C 
ATOM     61  C   UNL A   1      43.044  29.406  33.749  1.00  0.00     0.037 A 
BRANCH  48  62
ATOM     62  C   UNL A   1      40.276  34.386  36.132  1.00  0.00     0.057 A 
ATOM     63  C   UNL A   1      40.998  35.583  36.054  1.00  0.00     0.134 A 
ATOM     64  C   UNL A   1      39.471  34.185  37.259  1.00  0.00     0.134 A 
ATOM     65  F   UNL A   1      41.799  35.827  35.006  1.00  0.00    -0.206 F 
ATOM     66  C   UNL A   1      40.937  36.537  37.070  1.00  0.00     0.040 A 
ATOM     67  C   UNL A   1      39.384  35.142  38.271  1.00  0.00     0.040 A 
ATOM     68  F   UNL A   1      38.752  33.059  37.391  1.00  0.00    -0.206 F 
ATOM     69  C   UNL A   1      40.123  36.321  38.180  1.00  0.00     0.006 A 
ENDBRANCH  48  62
BRANCH  49  70
ATOM     70  C   UNL A   1      40.267  27.821  28.614  1.00  0.00     0.057 A 
ATOM     71  C   UNL A   1      40.957  28.071  27.423  1.00  0.00     0.134 A 
ATOM     72  C   UNL A   1      39.591  26.600  28.727  1.00  0.00     0.134 A 
ATOM     73  F   UNL A   1      41.608  29.231  27.252  1.00  0.00    -0.206 F 
ATOM     74  C   UNL A   1      40.969  27.147  26.377  1.00  0.00     0.040 A 
ATOM     75  C   UNL A   1      39.610  25.659  27.697  1.00  0.00     0.040 A 
ATOM     76  F   UNL A   1      38.919  26.300  29.847  1.00  0.00    -0.206 F 
ATOM     77  C   UNL A   1      40.298  25.933  26.516  1.00  0.00     0.006 A 
ENDBRANCH  49  70
BRANCH  61  78
ATOM     78  C   UNL A   1      44.205  28.637  34.298  1.00  0.00     0.057 A 
ATOM     79  C   UNL A   1      45.527  29.001  34.016  1.00  0.00     0.134 A 
ATOM     80  C   UNL A   1      43.998  27.563  35.174  1.00  0.00     0.134 A 
ATOM     81  F   UNL A   1      45.788  30.014  33.175  1.00  0.00    -0.206 F 
ATOM     82  C   UNL A   1      46.605  28.319  34.580  1.00  0.00     0.040 A 
ATOM     83  C   UNL A   1      45.068  26.886  35.759  1.00  0.00     0.040 A 
ATOM     84  F   UNL A   1      42.755  27.172  35.489  1.00  0.00    -0.206 F 
ATOM     85  C   UNL A   1      46.377  27.263  35.462  1.00  0.00     0.006 A 
ENDBRANCH  61  78
ENDBRANCH  35  36
ENDBRANCH  27  30
ENDBRANCH  25  26
ENDBRANCH   1  25
TORSDOF 12
ENDMDL
MODEL 3
REMARK VINA RESULT:     -11.8      3.565      5.303
REMARK SMILES Cc1c(Cl)cc2c(c1C)O[C@H](C(F)(F)F)C(C(=O)NCCCCNC(=O)c1ccc(-c3c4nc(c(-c5c(F)cccc5F)c5ccc([nH]5)c(-c5c(F)cccc5F)c5nc(c(-c6c(F)cccc6F)c6ccc3[nH]6)C=C5)C=C4)cc1)=C2
REMARK SMILES IDX 22 1 21 2 20 3 19 4 17 5 18 6 16 8 1 9 2 10 3 11 8 12 4 13
REMARK SMILES IDX 5 14 7 15 9 16 6 17 10 18 81 19 11 20 12 21 13 22 14 23
REMARK SMILES IDX 15 24 23 25 24 26 25 27 26 29 27 30 28 31 80 32 29 33 79 34
REMARK SMILES IDX 30 35 31 36 32 37 73 38 33 39 78 40 72 41 74 42 34 43 77 44
REMARK SMILES IDX 71 45 70 46 35 48 61 49 44 50 60 51 45 52 48 53 59 54 75 55
REMARK SMILES IDX 46 56 47 57 58 59 76 60 49 61 36 62 37 63 42 64 38 65 39 66
REMARK SMILES IDX 41 67 43 68 40 69 62 70 63 71 68 72 64 73 65 74 67 75 69 76
REMARK SMILES IDX 66 77 50 78 51 79 56 80 52 81 53 82 55 83 57 84 54 85
REMARK H PARENT 19 7 24 28 74 47 48 58
REMARK Flexibility Score: inf
ROOT
ATOM      1  C   UNL A   1      31.589  31.946  26.764  1.00  0.00     0.023 C 
ENDROOT
BRANCH   1   2
ATOM      2  C   UNL A   1      31.861  30.443  26.667  1.00  0.00     0.023 C 
BRANCH   2   3
ATOM      3  C   UNL A   1      33.234  30.093  26.101  1.00  0.00     0.116 C 
BRANCH   3   4
ATOM      4  N   UNL A   1      33.168  29.745  24.693  1.00  0.00    -0.352 N 
ATOM      5  C   UNL A   1      33.021  28.616  23.962  1.00  0.00     0.251 C 
ATOM      6  O   UNL A   1      33.028  28.780  22.737  1.00  0.00    -0.270 OA
ATOM      7  H   UNL A   1      33.251  30.540  24.119  1.00  0.00     0.163 HD
BRANCH   5   8
ATOM      8  C   UNL A   1      32.860  27.239  24.519  1.00  0.00     0.067 C 
ATOM      9  C   UNL A   1      33.630  21.176  26.861  1.00  0.00     0.046 C 
ATOM     10  C   UNL A   1      33.732  22.574  26.302  1.00  0.00    -0.026 A 
ATOM     11  C   UNL A   1      34.954  23.082  25.816  1.00  0.00     0.045 A 
ATOM     12  C   UNL A   1      32.599  23.425  26.303  1.00  0.00    -0.004 A 
ATOM     13  Cl  UNL A   1      36.417  22.156  25.846  1.00  0.00    -0.084 Cl
ATOM     14  C   UNL A   1      35.046  24.377  25.297  1.00  0.00     0.032 A 
ATOM     15  C   UNL A   1      32.709  24.715  25.748  1.00  0.00     0.131 A 
ATOM     16  C   UNL A   1      31.256  22.989  26.836  1.00  0.00     0.049 C 
ATOM     17  C   UNL A   1      33.921  25.196  25.252  1.00  0.00     0.019 A 
ATOM     18  O   UNL A   1      31.586  25.499  25.763  1.00  0.00    -0.475 OA
ATOM     19  C   UNL A   1      34.000  26.559  24.737  1.00  0.00     0.025 C 
ATOM     20  C   UNL A   1      31.538  26.584  24.797  1.00  0.00     0.314 C 
BRANCH  20  21
ATOM     21  C   UNL A   1      30.832  26.100  23.517  1.00  0.00     0.429 C 
ATOM     22  F   UNL A   1      29.935  25.124  23.812  1.00  0.00    -0.167 F 
ATOM     23  F   UNL A   1      30.134  27.086  22.906  1.00  0.00    -0.167 F 
ATOM     24  F   UNL A   1      31.690  25.598  22.601  1.00  0.00    -0.167 F 
ENDBRANCH  20  21
ENDBRANCH   5   8
ENDBRANCH   3   4
ENDBRANCH   2   3
ENDBRANCH   1   2
BRANCH   1  25
ATOM     25  C   UNL A   1      32.721  32.781  27.361  1.00  0.00     0.116 C 
BRANCH  25  26
ATOM     26  N   UNL A   1      32.342  34.151  27.678  1.00  0.00    -0.352 N 
ATOM     27  C   UNL A   1      32.949  35.009  28.564  1.00  0.00     0.251 C 
ATOM     28  H   UNL A   1      31.557  34.504  27.201  1.00  0.00     0.163 HD
ATOM     29  O   UNL A   1      32.483  36.120  28.786  1.00  0.00    -0.269 OA
BRANCH  27  30
ATOM     30  C   UNL A   1      34.149  34.545  29.283  1.00  0.00     0.039 A 
ATOM     31  C   UNL A   1      33.990  33.929  30.525  1.00  0.00     0.014 A 
ATOM     32  C   UNL A   1      35.409  34.640  28.685  1.00  0.00     0.014 A 
ATOM     33  C   UNL A   1      35.091  33.331  31.137  1.00  0.00     0.010 A 
ATOM     34  C   UNL A   1      36.492  33.994  29.268  1.00  0.00     0.010 A 
ATOM     35  C   UNL A   1      36.338  33.322  30.491  1.00  0.00    -0.014 A 
BRANCH  35  36
ATOM     36  C   UNL A   1      37.493  32.598  31.070  1.00  0.00     0.031 A 
ATOM     37  C   UNL A   1      38.106  33.069  32.356  1.00  0.00     0.074 A 
ATOM     38  C   UNL A   1      38.025  31.556  30.404  1.00  0.00     0.049 A 
ATOM     39  N   UNL A   1      39.159  32.612  32.982  1.00  0.00    -0.248 NA
ATOM     40  C   UNL A   1      37.465  34.220  33.010  1.00  0.00     0.031 C 
ATOM     41  C   UNL A   1      37.539  31.032  29.126  1.00  0.00     0.029 A 
ATOM     42  N   UNL A   1      39.094  30.753  30.708  1.00  0.00    -0.354 N 
ATOM     43  C   UNL A   1      39.311  33.423  34.099  1.00  0.00     0.074 A 
ATOM     44  C   UNL A   1      38.274  34.430  34.038  1.00  0.00     0.031 C 
ATOM     45  C   UNL A   1      38.290  29.976  28.770  1.00  0.00     0.029 A 
ATOM     46  C   UNL A   1      39.327  29.770  29.777  1.00  0.00     0.049 A 
ATOM     47  H   UNL A   1      39.643  30.870  31.517  1.00  0.00     0.167 HD
ATOM     48  C   UNL A   1      40.220  33.322  35.096  1.00  0.00     0.037 A 
ATOM     49  C   UNL A   1      40.270  28.810  29.742  1.00  0.00     0.037 A 
ATOM     50  C   UNL A   1      41.236  32.306  35.165  1.00  0.00     0.049 A 
ATOM     51  C   UNL A   1      41.270  28.721  30.859  1.00  0.00     0.074 A 
ATOM     52  C   UNL A   1      42.180  32.098  36.156  1.00  0.00     0.029 A 
ATOM     53  N   UNL A   1      41.436  31.325  34.207  1.00  0.00    -0.354 N 
ATOM     54  N   UNL A   1      41.381  29.472  31.928  1.00  0.00    -0.248 NA
ATOM     55  C   UNL A   1      42.277  27.653  30.766  1.00  0.00     0.031 C 
ATOM     56  C   UNL A   1      42.968  31.004  35.784  1.00  0.00     0.029 A 
ATOM     57  C   UNL A   1      42.493  30.512  34.578  1.00  0.00     0.049 A 
ATOM     58  H   UNL A   1      40.904  31.221  33.385  1.00  0.00     0.167 HD
ATOM     59  C   UNL A   1      42.451  28.956  32.646  1.00  0.00     0.074 A 
ATOM     60  C   UNL A   1      42.953  27.824  31.895  1.00  0.00     0.031 C 
ATOM     61  C   UNL A   1      42.972  29.384  33.821  1.00  0.00     0.037 A 
BRANCH  48  62
ATOM     62  C   UNL A   1      40.143  34.331  36.201  1.00  0.00     0.057 A 
ATOM     63  C   UNL A   1      40.811  35.559  36.116  1.00  0.00     0.134 A 
ATOM     64  C   UNL A   1      39.371  34.089  37.343  1.00  0.00     0.134 A 
ATOM     65  F   UNL A   1      41.580  35.843  35.055  1.00  0.00    -0.206 F 
ATOM     66  C   UNL A   1      40.730  36.504  37.140  1.00  0.00     0.040 A 
ATOM     67  C   UNL A   1      39.263  35.036  38.363  1.00  0.00     0.040 A 
ATOM     68  F   UNL A   1      38.704  32.933  37.482  1.00  0.00    -0.206 F 
ATOM     69  C   UNL A   1      39.948  36.246  38.264  1.00  0.00     0.006 A 
ENDBRANCH  48  62
BRANCH  49  70
ATOM     70  C   UNL A   1      40.282  27.828  28.631  1.00  0.00     0.057 A 
ATOM     71  C   UNL A   1      39.582  26.622  28.735  1.00  0.00     0.134 A 
ATOM     72  C   UNL A   1      40.971  28.077  27.438  1.00  0.00     0.134 A 
ATOM     73  F   UNL A   1      38.917  26.323  29.861  1.00  0.00    -0.206 F 
ATOM     74  C   UNL A   1      39.573  25.690  27.696  1.00  0.00     0.040 A 
ATOM     75  C   UNL A   1      40.956  27.162  26.384  1.00  0.00     0.040 A 
ATOM     76  F   UNL A   1      41.654  29.219  27.276  1.00  0.00    -0.206 F 
ATOM     77  C   UNL A   1      40.258  25.963  26.513  1.00  0.00     0.006 A 
ENDBRANCH  49  70
BRANCH  61  78
ATOM     78  C   UNL A   1      44.128  28.616  34.382  1.00  0.00     0.057 A 
ATOM     79  C   UNL A   1      43.938  27.493  35.196  1.00  0.00     0.134 A 
ATOM     80  C   UNL A   1      45.444  28.962  34.046  1.00  0.00     0.134 A 
ATOM     81  F   UNL A   1      42.701  27.120  35.560  1.00  0.00    -0.206 F 
ATOM     82  C   UNL A   1      45.018  26.745  35.665  1.00  0.00     0.040 A 
ATOM     83  C   UNL A   1      46.529  28.209  34.493  1.00  0.00     0.040 A 
ATOM     84  F   UNL A   1      45.690  30.023  33.263  1.00  0.00    -0.206 F 
ATOM     85  C   UNL A   1      46.319  27.097  35.306  1.00  0.00     0.006 A 
ENDBRANCH  61  78
ENDBRANCH  35  36
ENDBRANCH  27  30
ENDBRANCH  25  26
ENDBRANCH   1  25
TORSDOF 12
ENDMDL
