MODEL 1
REMARK VINA RESULT:     -12.2      0.000      0.000
REMARK SMILES CCOc1cccc(C(=O)Nc2ccc(Cl)c(C(=O)NCCCCNC(=O)c3ccc(-c4c5nc(c(-c6c(F)cccc6F)c6ccc([nH]6)c(-c6c(F)cccc6F)c6nc(c(-c7c(F)cccc7F)c7ccc4[nH]7)C=C6)C=C5)cc3)c2)c1
REMARK SMILES IDX 21 1 20 2 18 3 19 4 17 6 12 7 13 8 82 9 14 10 15 11 16 12
REMARK SMILES IDX 11 13 9 14 10 15 8 17 4 18 5 19 83 20 6 21 7 22 3 23 2 24
REMARK SMILES IDX 1 25 22 26 23 27 24 28 25 29 26 30 27 32 28 33 29 34 81 35
REMARK SMILES IDX 30 36 80 37 31 38 32 39 33 40 74 41 34 42 79 43 73 44 75 45
REMARK SMILES IDX 35 46 78 47 72 48 71 49 36 51 62 52 45 53 61 54 46 55 49 56
REMARK SMILES IDX 60 57 76 58 47 59 48 60 59 62 77 63 50 64 37 65 38 66 43 67
REMARK SMILES IDX 39 68 40 69 42 70 44 71 41 72 63 73 64 74 69 75 65 76 66 77
REMARK SMILES IDX 68 78 70 79 67 80 51 81 52 82 57 83 53 84 54 85 56 86 58 87
REMARK SMILES IDX 55 88
REMARK H PARENT 20 5 11 16 25 31 75 50 49 61
REMARK Flexibility Score: inf
ROOT
ATOM      1  C   UNL A   1      32.644  30.229  26.288  1.00  0.00     0.116 C 
ENDROOT
BRANCH   1   2
ATOM      2  N   UNL A   1      33.278  29.684  25.107  1.00  0.00    -0.352 N 
ATOM      3  C   UNL A   1      33.018  28.597  24.309  1.00  0.00     0.252 C 
ATOM      4  O   UNL A   1      33.904  28.321  23.501  1.00  0.00    -0.269 OA
ATOM      5  H   UNL A   1      34.062  30.201  24.815  1.00  0.00     0.163 HD
BRANCH   3   6
ATOM      6  C   UNL A   1      31.760  27.781  24.365  1.00  0.00     0.060 A 
ATOM      7  C   UNL A   1      30.365  26.046  25.391  1.00  0.00     0.042 A 
ATOM      8  C   UNL A   1      29.369  26.260  24.446  1.00  0.00     0.028 A 
ATOM      9  C   UNL A   1      31.583  26.726  25.280  1.00  0.00     0.041 A 
ATOM     10  C   UNL A   1      29.529  27.269  23.502  1.00  0.00     0.023 A 
ATOM     11  C   UNL A   1      30.694  28.053  23.481  1.00  0.00     0.053 A 
ATOM     12  Cl  UNL A   1      30.654  29.380  22.367  1.00  0.00    -0.083 Cl
BRANCH   7  13
ATOM     13  N   UNL A   1      30.081  25.159  26.438  1.00  0.00    -0.322 N 
ATOM     14  C   UNL A   1      30.446  23.842  26.648  1.00  0.00     0.255 C 
ATOM     15  O   UNL A   1      29.849  23.205  27.517  1.00  0.00    -0.269 OA
ATOM     16  H   UNL A   1      29.521  25.541  27.153  1.00  0.00     0.170 HD
BRANCH  14  17
ATOM     17  C   UNL A   1      31.597  23.186  25.951  1.00  0.00     0.043 A 
ATOM     18  C   UNL A   1      33.932  22.545  25.758  1.00  0.00     0.120 A 
ATOM     19  C   UNL A   1      33.687  22.028  24.487  1.00  0.00     0.046 A 
ATOM     20  C   UNL A   1      32.878  23.065  26.513  1.00  0.00     0.060 A 
ATOM     21  C   UNL A   1      32.396  22.030  23.965  1.00  0.00     0.005 A 
ATOM     22  C   UNL A   1      31.359  22.623  24.688  1.00  0.00     0.014 A 
BRANCH  18  23
ATOM     23  O   UNL A   1      35.250  22.684  26.095  1.00  0.00    -0.494 OA
BRANCH  23  24
ATOM     24  C   UNL A   1      35.915  23.875  25.680  1.00  0.00     0.226 C 
ATOM     25  C   UNL A   1      37.422  23.698  25.600  1.00  0.00     0.049 C 
ENDBRANCH  23  24
ENDBRANCH  18  23
ENDBRANCH  14  17
ENDBRANCH   7  13
ENDBRANCH   3   6
ENDBRANCH   1   2
BRANCH   1  26
ATOM     26  C   UNL A   1      31.308  30.878  25.920  1.00  0.00     0.023 C 
BRANCH  26  27
ATOM     27  C   UNL A   1      31.145  32.279  26.508  1.00  0.00     0.023 C 
BRANCH  27  28
ATOM     28  C   UNL A   1      32.454  32.919  26.955  1.00  0.00     0.116 C 
BRANCH  28  29
ATOM     29  N   UNL A   1      32.267  34.200  27.621  1.00  0.00    -0.352 N 
ATOM     30  C   UNL A   1      33.015  34.733  28.644  1.00  0.00     0.251 C 
ATOM     31  H   UNL A   1      31.516  34.750  27.301  1.00  0.00     0.163 HD
ATOM     32  O   UNL A   1      32.695  35.787  29.182  1.00  0.00    -0.269 OA
BRANCH  30  33
ATOM     33  C   UNL A   1      34.197  33.985  29.109  1.00  0.00     0.039 A 
ATOM     34  C   UNL A   1      35.469  34.437  28.753  1.00  0.00     0.014 A 
ATOM     35  C   UNL A   1      34.038  32.893  29.965  1.00  0.00     0.014 A 
ATOM     36  C   UNL A   1      36.593  33.831  29.318  1.00  0.00     0.010 A 
ATOM     37  C   UNL A   1      35.154  32.336  30.577  1.00  0.00     0.010 A 
ATOM     38  C   UNL A   1      36.441  32.802  30.261  1.00  0.00    -0.014 A 
BRANCH  38  39
ATOM     39  C   UNL A   1      37.610  32.187  30.935  1.00  0.00     0.031 A 
ATOM     40  C   UNL A   1      38.382  31.103  30.236  1.00  0.00     0.074 A 
ATOM     41  C   UNL A   1      37.916  32.533  32.201  1.00  0.00     0.049 A 
ATOM     42  N   UNL A   1      39.345  30.346  30.696  1.00  0.00    -0.248 NA
ATOM     43  C   UNL A   1      37.996  30.808  28.846  1.00  0.00     0.031 C 
ATOM     44  C   UNL A   1      37.214  33.537  33.001  1.00  0.00     0.029 A 
ATOM     45  N   UNL A   1      38.889  32.058  33.044  1.00  0.00    -0.354 N 
ATOM     46  C   UNL A   1      39.656  29.468  29.666  1.00  0.00     0.074 A 
ATOM     47  C   UNL A   1      38.759  29.759  28.570  1.00  0.00     0.031 C 
ATOM     48  C   UNL A   1      37.786  33.612  34.215  1.00  0.00     0.029 A 
ATOM     49  C   UNL A   1      38.869  32.637  34.291  1.00  0.00     0.049 A 
ATOM     50  H   UNL A   1      39.540  31.369  32.781  1.00  0.00     0.167 HD
ATOM     51  C   UNL A   1      40.615  28.515  29.633  1.00  0.00     0.037 A 
ATOM     52  C   UNL A   1      39.631  32.396  35.374  1.00  0.00     0.037 A 
ATOM     53  C   UNL A   1      41.544  28.265  30.702  1.00  0.00     0.049 A 
ATOM     54  C   UNL A   1      40.704  31.344  35.300  1.00  0.00     0.074 A 
ATOM     55  C   UNL A   1      42.609  27.383  30.728  1.00  0.00     0.029 A 
ATOM     56  N   UNL A   1      41.520  28.905  31.931  1.00  0.00    -0.354 N 
ATOM     57  N   UNL A   1      41.036  30.572  34.293  1.00  0.00    -0.248 NA
ATOM     58  C   UNL A   1      41.511  31.131  36.511  1.00  0.00     0.031 C 
ATOM     59  C   UNL A   1      43.210  27.464  31.987  1.00  0.00     0.029 A 
ATOM     60  C   UNL A   1      42.543  28.423  32.731  1.00  0.00     0.049 A 
ATOM     61  H   UNL A   1      40.872  29.597  32.197  1.00  0.00     0.167 HD
ATOM     62  C   UNL A   1      42.110  29.812  34.736  1.00  0.00     0.074 A 
ATOM     63  C   UNL A   1      42.379  30.218  36.100  1.00  0.00     0.031 C 
ATOM     64  C   UNL A   1      42.813  28.862  34.074  1.00  0.00     0.037 A 
BRANCH  51  65
ATOM     65  C   UNL A   1      40.722  27.674  28.396  1.00  0.00     0.057 A 
ATOM     66  C   UNL A   1      41.552  28.034  27.328  1.00  0.00     0.134 A 
ATOM     67  C   UNL A   1      40.031  26.459  28.300  1.00  0.00     0.134 A 
ATOM     68  F   UNL A   1      42.230  29.191  27.355  1.00  0.00    -0.206 F 
ATOM     69  C   UNL A   1      41.681  27.222  26.200  1.00  0.00     0.040 A 
ATOM     70  C   UNL A   1      40.170  25.628  27.188  1.00  0.00     0.040 A 
ATOM     71  F   UNL A   1      39.222  26.055  29.291  1.00  0.00    -0.206 F 
ATOM     72  C   UNL A   1      40.995  26.011  26.133  1.00  0.00     0.006 A 
ENDBRANCH  51  65
BRANCH  52  73
ATOM     73  C   UNL A   1      39.427  33.169  36.627  1.00  0.00     0.057 A 
ATOM     74  C   UNL A   1      38.538  32.719  37.611  1.00  0.00     0.134 A 
ATOM     75  C   UNL A   1      40.077  34.387  36.851  1.00  0.00     0.134 A 
ATOM     76  F   UNL A   1      37.870  31.569  37.442  1.00  0.00    -0.206 F 
ATOM     77  C   UNL A   1      38.281  33.468  38.760  1.00  0.00     0.040 A 
ATOM     78  C   UNL A   1      39.848  35.134  38.009  1.00  0.00     0.040 A 
ATOM     79  F   UNL A   1      40.945  34.870  35.950  1.00  0.00    -0.206 F 
ATOM     80  C   UNL A   1      38.939  34.679  38.962  1.00  0.00     0.006 A 
ENDBRANCH  52  73
BRANCH  64  81
ATOM     81  C   UNL A   1      43.971  28.236  34.789  1.00  0.00     0.057 A 
ATOM     82  C   UNL A   1      43.834  27.057  35.530  1.00  0.00     0.134 A 
ATOM     83  C   UNL A   1      45.252  28.795  34.685  1.00  0.00     0.134 A 
ATOM     84  F   UNL A   1      42.631  26.482  35.675  1.00  0.00    -0.206 F 
ATOM     85  C   UNL A   1      44.929  26.462  36.157  1.00  0.00     0.040 A 
ATOM     86  C   UNL A   1      46.358  28.195  35.288  1.00  0.00     0.040 A 
ATOM     87  F   UNL A   1      45.451  29.919  33.982  1.00  0.00    -0.206 F 
ATOM     88  C   UNL A   1      46.197  27.026  36.030  1.00  0.00     0.006 A 
ENDBRANCH  64  81
ENDBRANCH  38  39
ENDBRANCH  30  33
ENDBRANCH  28  29
ENDBRANCH  27  28
ENDBRANCH  26  27
ENDBRANCH   1  26
TORSDOF 15
ENDMDL
MODEL 2
REMARK VINA RESULT:     -12.1      0.693      6.109
REMARK SMILES CCOc1cccc(C(=O)Nc2ccc(Cl)c(C(=O)NCCCCNC(=O)c3ccc(-c4c5nc(c(-c6c(F)cccc6F)c6ccc([nH]6)c(-c6c(F)cccc6F)c6nc(c(-c7c(F)cccc7F)c7ccc4[nH]7)C=C6)C=C5)cc3)c2)c1
REMARK SMILES IDX 21 1 20 2 18 3 19 4 17 6 12 7 13 8 82 9 14 10 15 11 16 12
REMARK SMILES IDX 11 13 9 14 10 15 8 17 4 18 5 19 83 20 6 21 7 22 3 23 2 24
REMARK SMILES IDX 1 25 22 26 23 27 24 28 25 29 26 30 27 32 28 33 29 34 81 35
REMARK SMILES IDX 30 36 80 37 31 38 32 39 33 40 74 41 34 42 79 43 73 44 75 45
REMARK SMILES IDX 35 46 78 47 72 48 71 49 36 51 62 52 45 53 61 54 46 55 49 56
REMARK SMILES IDX 60 57 76 58 47 59 48 60 59 62 77 63 50 64 37 65 38 66 43 67
REMARK SMILES IDX 39 68 40 69 42 70 44 71 41 72 63 73 64 74 69 75 65 76 66 77
REMARK SMILES IDX 68 78 70 79 67 80 51 81 52 82 57 83 53 84 54 85 56 86 58 87
REMARK SMILES IDX 55 88
REMARK H PARENT 20 5 11 16 25 31 75 50 49 61
REMARK Flexibility Score: inf
ROOT
ATOM      1  C   UNL A   1      32.908  30.001  26.539  1.00  0.00     0.116 C 
ENDROOT
BRANCH   1   2
ATOM      2  N   UNL A   1      33.283  29.819  25.154  1.00  0.00    -0.352 N 
ATOM      3  C   UNL A   1      32.888  28.943  24.173  1.00  0.00     0.252 C 
ATOM      4  O   UNL A   1      33.582  28.952  23.156  1.00  0.00    -0.269 OA
ATOM      5  H   UNL A   1      33.967  30.459  24.850  1.00  0.00     0.163 HD
BRANCH   3   6
ATOM      6  C   UNL A   1      31.700  28.032  24.273  1.00  0.00     0.060 A 
ATOM      7  C   UNL A   1      30.489  26.185  25.337  1.00  0.00     0.042 A 
ATOM      8  C   UNL A   1      29.440  26.329  24.437  1.00  0.00     0.028 A 
ATOM      9  C   UNL A   1      31.645  26.959  25.182  1.00  0.00     0.041 A 
ATOM     10  C   UNL A   1      29.481  27.355  23.499  1.00  0.00     0.023 A 
ATOM     11  C   UNL A   1      30.580  28.228  23.438  1.00  0.00     0.053 A 
ATOM     12  Cl  UNL A   1      30.389  29.557  22.343  1.00  0.00    -0.083 Cl
BRANCH   7  13
ATOM     13  N   UNL A   1      30.320  25.271  26.385  1.00  0.00    -0.322 N 
ATOM     14  C   UNL A   1      30.666  23.937  26.501  1.00  0.00     0.255 C 
ATOM     15  O   UNL A   1      30.171  23.287  27.424  1.00  0.00    -0.269 OA
ATOM     16  H   UNL A   1      29.876  25.643  27.181  1.00  0.00     0.170 HD
BRANCH  14  17
ATOM     17  C   UNL A   1      31.690  23.273  25.634  1.00  0.00     0.043 A 
ATOM     18  C   UNL A   1      33.894  22.348  25.205  1.00  0.00     0.120 A 
ATOM     19  C   UNL A   1      33.550  22.139  23.870  1.00  0.00     0.046 A 
ATOM     20  C   UNL A   1      32.946  22.854  26.098  1.00  0.00     0.060 A 
ATOM     21  C   UNL A   1      32.265  22.437  23.423  1.00  0.00     0.005 A 
ATOM     22  C   UNL A   1      31.345  23.018  24.298  1.00  0.00     0.014 A 
BRANCH  18  23
ATOM     23  O   UNL A   1      35.224  22.220  25.498  1.00  0.00    -0.494 OA
BRANCH  23  24
ATOM     24  C   UNL A   1      35.870  23.327  26.122  1.00  0.00     0.226 C 
ATOM     25  C   UNL A   1      37.207  23.655  25.477  1.00  0.00     0.049 C 
ENDBRANCH  23  24
ENDBRANCH  18  23
ENDBRANCH  14  17
ENDBRANCH   7  13
ENDBRANCH   3   6
ENDBRANCH   1   2
BRANCH   1  26
ATOM     26  C   UNL A   1      31.508  30.612  26.634  1.00  0.00     0.023 C 
BRANCH  26  27
ATOM     27  C   UNL A   1      31.513  32.135  26.505  1.00  0.00     0.023 C 
BRANCH  27  28
ATOM     28  C   UNL A   1      32.624  32.818  27.293  1.00  0.00     0.116 C 
BRANCH  28  29
ATOM     29  N   UNL A   1      32.323  34.204  27.623  1.00  0.00    -0.352 N 
ATOM     30  C   UNL A   1      32.941  34.999  28.560  1.00  0.00     0.251 C 
ATOM     31  H   UNL A   1      31.589  34.621  27.116  1.00  0.00     0.163 HD
ATOM     32  O   UNL A   1      32.528  36.126  28.806  1.00  0.00    -0.269 OA
BRANCH  30  33
ATOM     33  C   UNL A   1      34.096  34.447  29.292  1.00  0.00     0.039 A 
ATOM     34  C   UNL A   1      33.874  33.745  30.477  1.00  0.00     0.014 A 
ATOM     35  C   UNL A   1      35.378  34.555  28.751  1.00  0.00     0.014 A 
ATOM     36  C   UNL A   1      34.941  33.084  31.090  1.00  0.00     0.010 A 
ATOM     37  C   UNL A   1      36.424  33.843  29.325  1.00  0.00     0.010 A 
ATOM     38  C   UNL A   1      36.214  33.099  30.498  1.00  0.00    -0.014 A 
BRANCH  38  39
ATOM     39  C   UNL A   1      37.351  32.349  31.083  1.00  0.00     0.031 A 
ATOM     40  C   UNL A   1      37.985  32.836  32.356  1.00  0.00     0.074 A 
ATOM     41  C   UNL A   1      37.871  31.293  30.425  1.00  0.00     0.049 A 
ATOM     42  N   UNL A   1      39.065  32.409  32.958  1.00  0.00    -0.248 NA
ATOM     43  C   UNL A   1      37.336  33.978  33.021  1.00  0.00     0.031 C 
ATOM     44  C   UNL A   1      37.374  30.753  29.158  1.00  0.00     0.029 A 
ATOM     45  N   UNL A   1      38.949  30.499  30.724  1.00  0.00    -0.354 N 
ATOM     46  C   UNL A   1      39.242  33.249  34.050  1.00  0.00     0.074 A 
ATOM     47  C   UNL A   1      38.181  34.230  34.011  1.00  0.00     0.031 C 
ATOM     48  C   UNL A   1      38.138  29.709  28.795  1.00  0.00     0.029 A 
ATOM     49  C   UNL A   1      39.199  29.530  29.782  1.00  0.00     0.049 A 
ATOM     50  H   UNL A   1      39.492  30.612  31.536  1.00  0.00     0.167 HD
ATOM     51  C   UNL A   1      40.194  33.193  35.009  1.00  0.00     0.037 A 
ATOM     52  C   UNL A   1      40.182  28.612  29.717  1.00  0.00     0.037 A 
ATOM     53  C   UNL A   1      41.214  32.182  35.078  1.00  0.00     0.049 A 
ATOM     54  C   UNL A   1      41.215  28.563  30.809  1.00  0.00     0.074 A 
ATOM     55  C   UNL A   1      42.169  31.988  36.060  1.00  0.00     0.029 A 
ATOM     56  N   UNL A   1      41.405  31.191  34.129  1.00  0.00    -0.354 N 
ATOM     57  N   UNL A   1      41.326  29.316  31.877  1.00  0.00    -0.248 NA
ATOM     58  C   UNL A   1      42.259  27.533  30.691  1.00  0.00     0.031 C 
ATOM     59  C   UNL A   1      42.961  30.899  35.689  1.00  0.00     0.029 A 
ATOM     60  C   UNL A   1      42.475  30.392  34.494  1.00  0.00     0.049 A 
ATOM     61  H   UNL A   1      40.862  31.072  33.316  1.00  0.00     0.167 HD
ATOM     62  C   UNL A   1      42.424  28.829  32.572  1.00  0.00     0.074 A 
ATOM     63  C   UNL A   1      42.944  27.712  31.810  1.00  0.00     0.031 C 
ATOM     64  C   UNL A   1      42.957  29.267  33.739  1.00  0.00     0.037 A 
BRANCH  51  65
ATOM     65  C   UNL A   1      40.177  34.250  36.073  1.00  0.00     0.057 A 
ATOM     66  C   UNL A   1      40.881  35.451  35.931  1.00  0.00     0.134 A 
ATOM     67  C   UNL A   1      39.397  34.087  37.225  1.00  0.00     0.134 A 
ATOM     68  F   UNL A   1      41.655  35.662  34.856  1.00  0.00    -0.206 F 
ATOM     69  C   UNL A   1      40.823  36.449  36.905  1.00  0.00     0.040 A 
ATOM     70  C   UNL A   1      39.313  35.086  38.195  1.00  0.00     0.040 A 
ATOM     71  F   UNL A   1      38.696  32.960  37.420  1.00  0.00    -0.206 F 
ATOM     72  C   UNL A   1      40.029  36.271  38.037  1.00  0.00     0.006 A 
ENDBRANCH  51  65
BRANCH  52  73
ATOM     73  C   UNL A   1      40.240  27.648  28.588  1.00  0.00     0.057 A 
ATOM     74  C   UNL A   1      39.600  26.406  28.670  1.00  0.00     0.134 A 
ATOM     75  C   UNL A   1      40.967  27.925  27.424  1.00  0.00     0.134 A 
ATOM     76  F   UNL A   1      38.906  26.076  29.769  1.00  0.00    -0.206 F 
ATOM     77  C   UNL A   1      39.704  25.461  27.648  1.00  0.00     0.040 A 
ATOM     78  C   UNL A   1      41.058  26.999  26.383  1.00  0.00     0.040 A 
ATOM     79  F   UNL A   1      41.598  29.100  27.281  1.00  0.00    -0.206 F 
ATOM     80  C   UNL A   1      40.434  25.758  26.499  1.00  0.00     0.006 A 
ENDBRANCH  52  73
BRANCH  64  81
ATOM     81  C   UNL A   1      44.124  28.507  34.292  1.00  0.00     0.057 A 
ATOM     82  C   UNL A   1      45.445  28.881  34.022  1.00  0.00     0.134 A 
ATOM     83  C   UNL A   1      43.917  27.420  35.152  1.00  0.00     0.134 A 
ATOM     84  F   UNL A   1      45.707  29.906  33.198  1.00  0.00    -0.206 F 
ATOM     85  C   UNL A   1      46.523  28.191  34.578  1.00  0.00     0.040 A 
ATOM     86  C   UNL A   1      44.987  26.737  35.731  1.00  0.00     0.040 A 
ATOM     87  F   UNL A   1      42.675  27.018  35.455  1.00  0.00    -0.206 F 
ATOM     88  C   UNL A   1      46.296  27.121  35.441  1.00  0.00     0.006 A 
ENDBRANCH  64  81
ENDBRANCH  38  39
ENDBRANCH  30  33
ENDBRANCH  28  29
ENDBRANCH  27  28
ENDBRANCH  26  27
ENDBRANCH   1  26
TORSDOF 15
ENDMDL
MODEL 3
REMARK VINA RESULT:     -12.0      0.792      6.235
REMARK SMILES CCOc1cccc(C(=O)Nc2ccc(Cl)c(C(=O)NCCCCNC(=O)c3ccc(-c4c5nc(c(-c6c(F)cccc6F)c6ccc([nH]6)c(-c6c(F)cccc6F)c6nc(c(-c7c(F)cccc7F)c7ccc4[nH]7)C=C6)C=C5)cc3)c2)c1
REMARK SMILES IDX 21 1 20 2 18 3 19 4 17 6 12 7 13 8 82 9 14 10 15 11 16 12
REMARK SMILES IDX 11 13 9 14 10 15 8 17 4 18 5 19 83 20 6 21 7 22 3 23 2 24
REMARK SMILES IDX 1 25 22 26 23 27 24 28 25 29 26 30 27 32 28 33 29 34 81 35
REMARK SMILES IDX 30 36 80 37 31 38 32 39 33 40 74 41 34 42 79 43 73 44 75 45
REMARK SMILES IDX 35 46 78 47 72 48 71 49 36 51 62 52 45 53 61 54 46 55 49 56
REMARK SMILES IDX 60 57 76 58 47 59 48 60 59 62 77 63 50 64 37 65 38 66 43 67
REMARK SMILES IDX 39 68 40 69 42 70 44 71 41 72 63 73 64 74 69 75 65 76 66 77
REMARK SMILES IDX 68 78 70 79 67 80 51 81 52 82 57 83 53 84 54 85 56 86 58 87
REMARK SMILES IDX 55 88
REMARK H PARENT 20 5 11 16 25 31 75 50 49 61
REMARK Flexibility Score: inf
ROOT
ATOM      1  C   UNL A   1      32.837  29.986  26.340  1.00  0.00     0.116 C 
ENDROOT
BRANCH   1   2
ATOM      2  N   UNL A   1      33.461  29.406  25.171  1.00  0.00    -0.352 N 
ATOM      3  C   UNL A   1      33.154  28.339  24.364  1.00  0.00     0.252 C 
ATOM      4  O   UNL A   1      34.038  28.012  23.573  1.00  0.00    -0.269 OA
ATOM      5  H   UNL A   1      34.281  29.877  24.897  1.00  0.00     0.163 HD
BRANCH   3   6
ATOM      6  C   UNL A   1      31.848  27.599  24.392  1.00  0.00     0.060 A 
ATOM      7  C   UNL A   1      30.333  25.945  25.381  1.00  0.00     0.042 A 
ATOM      8  C   UNL A   1      29.369  26.224  24.419  1.00  0.00     0.028 A 
ATOM      9  C   UNL A   1      31.591  26.552  25.297  1.00  0.00     0.041 A 
ATOM     10  C   UNL A   1      29.607  27.226  23.485  1.00  0.00     0.023 A 
ATOM     11  C   UNL A   1      30.817  27.939  23.490  1.00  0.00     0.053 A 
ATOM     12  Cl  UNL A   1      30.877  29.272  22.384  1.00  0.00    -0.083 Cl
BRANCH   7  13
ATOM     13  N   UNL A   1      29.977  25.072  26.417  1.00  0.00    -0.322 N 
ATOM     14  C   UNL A   1      30.388  23.786  26.713  1.00  0.00     0.255 C 
ATOM     15  O   UNL A   1      29.729  23.138  27.528  1.00  0.00    -0.269 OA
ATOM     16  H   UNL A   1      29.315  25.439  27.048  1.00  0.00     0.170 HD
BRANCH  14  17
ATOM     17  C   UNL A   1      31.650  23.182  26.179  1.00  0.00     0.043 A 
ATOM     18  C   UNL A   1      32.893  21.736  24.675  1.00  0.00     0.120 A 
ATOM     19  C   UNL A   1      34.071  22.034  25.357  1.00  0.00     0.046 A 
ATOM     20  C   UNL A   1      31.697  22.356  25.045  1.00  0.00     0.060 A 
ATOM     21  C   UNL A   1      34.061  22.947  26.409  1.00  0.00     0.005 A 
ATOM     22  C   UNL A   1      32.851  23.505  26.829  1.00  0.00     0.014 A 
BRANCH  18  23
ATOM     23  O   UNL A   1      32.966  20.686  23.803  1.00  0.00    -0.494 OA
BRANCH  23  24
ATOM     24  C   UNL A   1      32.455  19.428  24.240  1.00  0.00     0.226 C 
ATOM     25  C   UNL A   1      33.449  18.297  24.034  1.00  0.00     0.049 C 
ENDBRANCH  23  24
ENDBRANCH  18  23
ENDBRANCH  14  17
ENDBRANCH   7  13
ENDBRANCH   3   6
ENDBRANCH   1   2
BRANCH   1  26
ATOM     26  C   UNL A   1      31.645  30.853  25.930  1.00  0.00     0.023 C 
BRANCH  26  27
ATOM     27  C   UNL A   1      31.398  32.018  26.887  1.00  0.00     0.023 C 
BRANCH  27  28
ATOM     28  C   UNL A   1      32.660  32.777  27.277  1.00  0.00     0.116 C 
BRANCH  28  29
ATOM     29  N   UNL A   1      32.414  34.180  27.582  1.00  0.00    -0.352 N 
ATOM     30  C   UNL A   1      33.056  34.963  28.511  1.00  0.00     0.251 C 
ATOM     31  H   UNL A   1      31.704  34.619  27.060  1.00  0.00     0.163 HD
ATOM     32  O   UNL A   1      32.689  36.111  28.735  1.00  0.00    -0.269 OA
BRANCH  30  33
ATOM     33  C   UNL A   1      34.180  34.376  29.264  1.00  0.00     0.039 A 
ATOM     34  C   UNL A   1      33.908  33.587  30.382  1.00  0.00     0.014 A 
ATOM     35  C   UNL A   1      35.487  34.541  28.803  1.00  0.00     0.014 A 
ATOM     36  C   UNL A   1      34.952  32.899  31.004  1.00  0.00     0.010 A 
ATOM     37  C   UNL A   1      36.513  33.804  29.381  1.00  0.00     0.010 A 
ATOM     38  C   UNL A   1      36.254  32.974  30.484  1.00  0.00    -0.014 A 
BRANCH  38  39
ATOM     39  C   UNL A   1      37.372  32.199  31.075  1.00  0.00     0.031 A 
ATOM     40  C   UNL A   1      37.904  32.579  32.429  1.00  0.00     0.074 A 
ATOM     41  C   UNL A   1      37.966  31.223  30.361  1.00  0.00     0.049 A 
ATOM     42  N   UNL A   1      38.953  32.124  33.063  1.00  0.00    -0.248 NA
ATOM     43  C   UNL A   1      37.177  33.638  33.150  1.00  0.00     0.031 C 
ATOM     44  C   UNL A   1      37.572  30.793  29.018  1.00  0.00     0.029 A 
ATOM     45  N   UNL A   1      39.045  30.430  30.659  1.00  0.00    -0.354 N 
ATOM     46  C   UNL A   1      39.031  32.860  34.237  1.00  0.00     0.074 A 
ATOM     47  C   UNL A   1      37.946  33.816  34.215  1.00  0.00     0.031 C 
ATOM     48  C   UNL A   1      38.390  29.806  28.614  1.00  0.00     0.029 A 
ATOM     49  C   UNL A   1      39.388  29.561  29.651  1.00  0.00     0.049 A 
ATOM     50  H   UNL A   1      39.529  30.479  31.515  1.00  0.00     0.167 HD
ATOM     51  C   UNL A   1      39.918  32.738  35.252  1.00  0.00     0.037 A 
ATOM     52  C   UNL A   1      40.399  28.676  29.570  1.00  0.00     0.037 A 
ATOM     53  C   UNL A   1      40.960  31.748  35.298  1.00  0.00     0.049 A 
ATOM     54  C   UNL A   1      41.358  28.549  30.723  1.00  0.00     0.074 A 
ATOM     55  C   UNL A   1      41.853  31.486  36.322  1.00  0.00     0.029 A 
ATOM     56  N   UNL A   1      41.245  30.856  34.276  1.00  0.00    -0.354 N 
ATOM     57  N   UNL A   1      41.374  29.200  31.861  1.00  0.00    -0.248 NA
ATOM     58  C   UNL A   1      42.438  27.560  30.583  1.00  0.00     0.031 C 
ATOM     59  C   UNL A   1      42.701  30.456  35.907  1.00  0.00     0.029 A 
ATOM     60  C   UNL A   1      42.312  30.052  34.640  1.00  0.00     0.049 A 
ATOM     61  H   UNL A   1      40.762  30.802  33.420  1.00  0.00     0.167 HD
ATOM     62  C   UNL A   1      42.437  28.676  32.583  1.00  0.00     0.074 A 
ATOM     63  C   UNL A   1      43.040  27.649  31.759  1.00  0.00     0.031 C 
ATOM     64  C   UNL A   1      42.877  29.015  33.819  1.00  0.00     0.037 A 
BRANCH  51  65
ATOM     65  C   UNL A   1      39.797  33.689  36.404  1.00  0.00     0.057 A 
ATOM     66  C   UNL A   1      40.452  34.925  36.412  1.00  0.00     0.134 A 
ATOM     67  C   UNL A   1      38.967  33.387  37.492  1.00  0.00     0.134 A 
ATOM     68  F   UNL A   1      41.271  35.267  35.406  1.00  0.00    -0.206 F 
ATOM     69  C   UNL A   1      40.298  35.825  37.469  1.00  0.00     0.040 A 
ATOM     70  C   UNL A   1      38.787  34.287  38.542  1.00  0.00     0.040 A 
ATOM     71  F   UNL A   1      38.308  32.219  37.543  1.00  0.00    -0.206 F 
ATOM     72  C   UNL A   1      39.455  35.509  38.533  1.00  0.00     0.006 A 
ENDBRANCH  51  65
BRANCH  52  73
ATOM     73  C   UNL A   1      40.562  27.825  28.364  1.00  0.00     0.057 A 
ATOM     74  C   UNL A   1      41.299  28.274  27.262  1.00  0.00     0.134 A 
ATOM     75  C   UNL A   1      39.955  26.568  28.266  1.00  0.00     0.134 A 
ATOM     76  F   UNL A   1      41.886  29.480  27.289  1.00  0.00    -0.206 F 
ATOM     77  C   UNL A   1      41.403  27.517  26.094  1.00  0.00     0.040 A 
ATOM     78  C   UNL A   1      40.072  25.789  27.113  1.00  0.00     0.040 A 
ATOM     79  F   UNL A   1      39.241  26.077  29.290  1.00  0.00    -0.206 F 
ATOM     80  C   UNL A   1      40.789  26.269  26.019  1.00  0.00     0.006 A 
ENDBRANCH  52  73
BRANCH  64  81
ATOM     81  C   UNL A   1      44.026  28.234  34.380  1.00  0.00     0.057 A 
ATOM     82  C   UNL A   1      43.838  27.024  35.058  1.00  0.00     0.134 A 
ATOM     83  C   UNL A   1      45.343  28.675  34.187  1.00  0.00     0.134 A 
ATOM     84  F   UNL A   1      42.601  26.557  35.283  1.00  0.00    -0.206 F 
ATOM     85  C   UNL A   1      44.920  26.285  35.539  1.00  0.00     0.040 A 
ATOM     86  C   UNL A   1      46.432  27.933  34.643  1.00  0.00     0.040 A 
ATOM     87  F   UNL A   1      45.589  29.822  33.538  1.00  0.00    -0.206 F 
ATOM     88  C   UNL A   1      46.222  26.735  35.324  1.00  0.00     0.006 A 
ENDBRANCH  64  81
ENDBRANCH  38  39
ENDBRANCH  30  33
ENDBRANCH  28  29
ENDBRANCH  27  28
ENDBRANCH  26  27
ENDBRANCH   1  26
TORSDOF 15
ENDMDL
