MODEL 1
REMARK VINA RESULT:      -9.7      0.000      0.000
REMARK SMILES COc1ccc(/C=C2\SC(=O)N(CC(=O)N[C@H](C)C(=O)NCCCCNC(=O)c3ccc(-c4c5nc(c(-c6c(F)cccc6F)c6ccc([nH]6)c(-c6c(F)cccc6F)c6nc(c(-c7c(F)cccc7F)c7ccc4[nH]7)C=C6)C=C5)cc3)C2=O)cc1OC
REMARK SMILES IDX 22 1 21 2 19 3 20 4 17 6 18 7 16 8 14 9 15 10 13 12 12 13
REMARK SMILES IDX 7 14 8 15 9 16 83 17 10 18 84 19 11 20 6 21 3 22 4 23 86 24
REMARK SMILES IDX 5 25 85 26 2 27 1 28 87 29 88 30 23 31 24 32 25 33 26 34
REMARK SMILES IDX 27 35 28 37 29 38 30 39 82 40 31 41 81 42 32 43 33 44 34 45
REMARK SMILES IDX 75 46 35 47 80 48 74 49 76 50 36 51 79 52 73 53 72 54 37 56
REMARK SMILES IDX 63 57 46 58 62 59 47 60 50 61 61 62 77 63 48 64 49 65 60 67
REMARK SMILES IDX 78 68 51 69 38 70 39 71 44 72 40 73 41 74 43 75 45 76 42 77
REMARK SMILES IDX 64 78 65 79 70 80 66 81 67 82 69 83 71 84 68 85 52 86 53 87
REMARK SMILES IDX 58 88 54 89 55 90 57 91 59 92 56 93
REMARK H PARENT 21 5 16 11 26 36 76 55 50 66
REMARK Flexibility Score: inf
ROOT
ATOM      1  C   UNL A   1      33.280  36.223  29.556  1.00  0.00     0.116 C 
ENDROOT
BRANCH   1   2
ATOM      2  N   UNL A   1      32.331  35.892  30.602  1.00  0.00    -0.354 N 
ATOM      3  C   UNL A   1      32.528  35.703  31.935  1.00  0.00     0.242 C 
ATOM      4  O   UNL A   1      31.571  35.326  32.616  1.00  0.00    -0.273 OA
ATOM      5  H   UNL A   1      31.400  35.787  30.299  1.00  0.00     0.163 HD
BRANCH   3   6
ATOM      6  C   UNL A   1      33.889  35.994  32.582  1.00  0.00     0.168 C 
ATOM      7  C   UNL A   1      34.028  37.412  33.124  1.00  0.00     0.041 C 
BRANCH   6   8
ATOM      8  N   UNL A   1      34.147  34.978  33.601  1.00  0.00    -0.343 N 
ATOM      9  C   UNL A   1      35.037  33.955  33.645  1.00  0.00     0.240 C 
ATOM     10  O   UNL A   1      35.257  33.454  34.751  1.00  0.00    -0.273 OA
ATOM     11  H   UNL A   1      33.573  35.048  34.398  1.00  0.00     0.164 HD
BRANCH   9  12
ATOM     12  C   UNL A   1      35.840  33.533  32.420  1.00  0.00     0.229 C 
BRANCH  12  13
ATOM     13  N   UNL A   1      37.124  32.956  32.766  1.00  0.00    -0.259 N 
ATOM     14  C   UNL A   1      39.102  30.010  33.448  1.00  0.00     0.029 C 
ATOM     15  C   UNL A   1      38.680  31.272  33.264  1.00  0.00     0.083 C 
ATOM     16  S   UNL A   1      39.549  32.735  33.550  1.00  0.00    -0.022 SA
ATOM     17  C   UNL A   1      37.301  31.591  32.807  1.00  0.00     0.268 C 
ATOM     18  C   UNL A   1      38.167  33.732  33.181  1.00  0.00     0.294 C 
ATOM     19  O   UNL A   1      36.458  30.750  32.540  1.00  0.00    -0.268 OA
ATOM     20  O   UNL A   1      38.180  34.953  33.273  1.00  0.00    -0.261 OA
BRANCH  14  21
ATOM     21  C   UNL A   1      40.398  29.646  34.037  1.00  0.00    -0.020 A 
ATOM     22  C   UNL A   1      42.839  28.749  35.101  1.00  0.00     0.160 A 
ATOM     23  C   UNL A   1      41.864  29.323  35.933  1.00  0.00     0.051 A 
ATOM     24  C   UNL A   1      42.615  28.655  33.725  1.00  0.00     0.161 A 
ATOM     25  C   UNL A   1      40.648  29.774  35.403  1.00  0.00     0.012 A 
ATOM     26  C   UNL A   1      41.408  29.137  33.210  1.00  0.00     0.058 A 
BRANCH  22  27
ATOM     27  O   UNL A   1      43.916  28.154  35.699  1.00  0.00    -0.493 OA
ATOM     28  C   UNL A   1      43.539  27.047  36.517  1.00  0.00     0.278 C 
ENDBRANCH  22  27
BRANCH  24  29
ATOM     29  O   UNL A   1      43.391  28.091  32.754  1.00  0.00    -0.493 OA
ATOM     30  C   UNL A   1      43.420  26.681  32.636  1.00  0.00     0.278 C 
ENDBRANCH  24  29
ENDBRANCH  14  21
ENDBRANCH  12  13
ENDBRANCH   9  12
ENDBRANCH   6   8
ENDBRANCH   3   6
ENDBRANCH   1   2
BRANCH   1  31
ATOM     31  C   UNL A   1      33.578  35.016  28.674  1.00  0.00     0.023 C 
BRANCH  31  32
ATOM     32  C   UNL A   1      34.064  33.785  29.439  1.00  0.00     0.023 C 
BRANCH  32  33
ATOM     33  C   UNL A   1      34.823  32.770  28.598  1.00  0.00     0.116 C 
BRANCH  33  34
ATOM     34  N   UNL A   1      34.028  31.594  28.283  1.00  0.00    -0.352 N 
ATOM     35  C   UNL A   1      34.448  30.312  28.033  1.00  0.00     0.251 C 
ATOM     36  H   UNL A   1      33.054  31.738  28.244  1.00  0.00     0.163 HD
ATOM     37  O   UNL A   1      33.652  29.472  27.626  1.00  0.00    -0.269 OA
BRANCH  35  38
ATOM     38  C   UNL A   1      35.867  29.955  28.234  1.00  0.00     0.039 A 
ATOM     39  C   UNL A   1      36.257  29.409  29.458  1.00  0.00     0.014 A 
ATOM     40  C   UNL A   1      36.809  30.160  27.223  1.00  0.00     0.014 A 
ATOM     41  C   UNL A   1      37.588  29.040  29.654  1.00  0.00     0.010 A 
ATOM     42  C   UNL A   1      38.112  29.703  27.385  1.00  0.00     0.010 A 
ATOM     43  C   UNL A   1      38.523  29.167  28.613  1.00  0.00    -0.014 A 
BRANCH  43  44
ATOM     44  C   UNL A   1      39.949  28.805  28.818  1.00  0.00     0.031 A 
ATOM     45  C   UNL A   1      40.882  29.791  29.472  1.00  0.00     0.074 A 
ATOM     46  C   UNL A   1      40.408  27.609  28.403  1.00  0.00     0.049 A 
ATOM     47  N   UNL A   1      42.163  29.680  29.720  1.00  0.00    -0.248 NA
ATOM     48  C   UNL A   1      40.307  31.085  29.877  1.00  0.00     0.031 C 
ATOM     49  C   UNL A   1      39.615  26.584  27.721  1.00  0.00     0.029 A 
ATOM     50  N   UNL A   1      41.658  27.051  28.500  1.00  0.00    -0.354 N 
ATOM     51  C   UNL A   1      42.540  30.883  30.305  1.00  0.00     0.074 A 
ATOM     52  C   UNL A   1      41.376  31.739  30.302  1.00  0.00     0.031 C 
ATOM     53  C   UNL A   1      40.388  25.508  27.496  1.00  0.00     0.029 A 
ATOM     54  C   UNL A   1      41.737  25.781  27.981  1.00  0.00     0.049 A 
ATOM     55  H   UNL A   1      42.426  27.517  28.903  1.00  0.00     0.167 HD
ATOM     56  C   UNL A   1      43.736  31.232  30.836  1.00  0.00     0.037 A 
ATOM     57  C   UNL A   1      42.782  24.935  27.910  1.00  0.00     0.037 A 
ATOM     58  C   UNL A   1      44.890  30.373  30.856  1.00  0.00     0.049 A 
ATOM     59  C   UNL A   1      44.108  25.363  28.481  1.00  0.00     0.074 A 
ATOM     60  C   UNL A   1      46.141  30.623  31.388  1.00  0.00     0.029 A 
ATOM     61  N   UNL A   1      44.928  29.093  30.324  1.00  0.00    -0.354 N 
ATOM     62  N   UNL A   1      44.433  26.481  29.082  1.00  0.00    -0.248 NA
ATOM     63  C   UNL A   1      45.211  24.398  28.375  1.00  0.00     0.031 C 
ATOM     64  C   UNL A   1      46.951  29.510  31.141  1.00  0.00     0.029 A 
ATOM     65  C   UNL A   1      46.187  28.544  30.507  1.00  0.00     0.049 A 
ATOM     66  H   UNL A   1      44.173  28.641  29.882  1.00  0.00     0.167 HD
ATOM     67  C   UNL A   1      45.761  26.337  29.463  1.00  0.00     0.074 A 
ATOM     68  C   UNL A   1      46.173  25.013  29.044  1.00  0.00     0.031 C 
ATOM     69  C   UNL A   1      46.572  27.218  30.101  1.00  0.00     0.037 A 
BRANCH  56  70
ATOM     70  C   UNL A   1      43.846  32.596  31.457  1.00  0.00     0.057 A 
ATOM     71  C   UNL A   1      44.230  33.716  30.706  1.00  0.00     0.134 A 
ATOM     72  C   UNL A   1      43.532  32.800  32.805  1.00  0.00     0.134 A 
ATOM     73  F   UNL A   1      44.560  33.587  29.412  1.00  0.00    -0.206 F 
ATOM     74  C   UNL A   1      44.320  34.984  31.280  1.00  0.00     0.040 A 
ATOM     75  C   UNL A   1      43.589  34.071  33.383  1.00  0.00     0.040 A 
ATOM     76  F   UNL A   1      43.154  31.774  33.583  1.00  0.00    -0.206 F 
ATOM     77  C   UNL A   1      43.990  35.166  32.621  1.00  0.00     0.006 A 
ENDBRANCH  56  70
BRANCH  57  78
ATOM     78  C   UNL A   1      42.628  23.588  27.301  1.00  0.00     0.057 A 
ATOM     79  C   UNL A   1      42.319  22.470  28.086  1.00  0.00     0.134 A 
ATOM     80  C   UNL A   1      42.847  23.372  25.935  1.00  0.00     0.134 A 
ATOM     81  F   UNL A   1      42.115  22.607  29.404  1.00  0.00    -0.206 F 
ATOM     82  C   UNL A   1      42.278  21.183  27.547  1.00  0.00     0.040 A 
ATOM     83  C   UNL A   1      42.776  22.094  25.376  1.00  0.00     0.040 A 
ATOM     84  F   UNL A   1      43.136  24.399  25.124  1.00  0.00    -0.206 F 
ATOM     85  C   UNL A   1      42.507  20.993  26.185  1.00  0.00     0.006 A 
ENDBRANCH  57  78
BRANCH  69  86
ATOM     86  C   UNL A   1      47.960  26.750  30.438  1.00  0.00     0.057 A 
ATOM     87  C   UNL A   1      49.055  26.993  29.598  1.00  0.00     0.134 A 
ATOM     88  C   UNL A   1      48.202  26.048  31.626  1.00  0.00     0.134 A 
ATOM     89  F   UNL A   1      48.891  27.652  28.440  1.00  0.00    -0.206 F 
ATOM     90  C   UNL A   1      50.329  26.515  29.905  1.00  0.00     0.040 A 
ATOM     91  C   UNL A   1      49.479  25.596  31.961  1.00  0.00     0.040 A 
ATOM     92  F   UNL A   1      47.202  25.793  32.483  1.00  0.00    -0.206 F 
ATOM     93  C   UNL A   1      50.544  25.817  31.092  1.00  0.00     0.006 A 
ENDBRANCH  69  86
ENDBRANCH  43  44
ENDBRANCH  35  38
ENDBRANCH  33  34
ENDBRANCH  32  33
ENDBRANCH  31  32
ENDBRANCH   1  31
TORSDOF 17
ENDMDL
MODEL 2
REMARK VINA RESULT:      -9.3      0.600      5.952
REMARK SMILES COc1ccc(/C=C2\SC(=O)N(CC(=O)N[C@H](C)C(=O)NCCCCNC(=O)c3ccc(-c4c5nc(c(-c6c(F)cccc6F)c6ccc([nH]6)c(-c6c(F)cccc6F)c6nc(c(-c7c(F)cccc7F)c7ccc4[nH]7)C=C6)C=C5)cc3)C2=O)cc1OC
REMARK SMILES IDX 22 1 21 2 19 3 20 4 17 6 18 7 16 8 14 9 15 10 13 12 12 13
REMARK SMILES IDX 7 14 8 15 9 16 83 17 10 18 84 19 11 20 6 21 3 22 4 23 86 24
REMARK SMILES IDX 5 25 85 26 2 27 1 28 87 29 88 30 23 31 24 32 25 33 26 34
REMARK SMILES IDX 27 35 28 37 29 38 30 39 82 40 31 41 81 42 32 43 33 44 34 45
REMARK SMILES IDX 75 46 35 47 80 48 74 49 76 50 36 51 79 52 73 53 72 54 37 56
REMARK SMILES IDX 63 57 46 58 62 59 47 60 50 61 61 62 77 63 48 64 49 65 60 67
REMARK SMILES IDX 78 68 51 69 38 70 39 71 44 72 40 73 41 74 43 75 45 76 42 77
REMARK SMILES IDX 64 78 65 79 70 80 66 81 67 82 69 83 71 84 68 85 52 86 53 87
REMARK SMILES IDX 58 88 54 89 55 90 57 91 59 92 56 93
REMARK H PARENT 21 5 16 11 26 36 76 55 50 66
REMARK Flexibility Score: inf
ROOT
ATOM      1  C   UNL A   1      33.652  36.243  29.264  1.00  0.00     0.116 C 
ENDROOT
BRANCH   1   2
ATOM      2  N   UNL A   1      32.659  35.818  30.232  1.00  0.00    -0.354 N 
ATOM      3  C   UNL A   1      32.756  35.678  31.582  1.00  0.00     0.242 C 
ATOM      4  O   UNL A   1      31.793  35.201  32.187  1.00  0.00    -0.273 OA
ATOM      5  H   UNL A   1      31.779  35.596  29.852  1.00  0.00     0.163 HD
BRANCH   3   6
ATOM      6  C   UNL A   1      34.008  36.144  32.337  1.00  0.00     0.168 C 
ATOM      7  C   UNL A   1      33.985  37.617  32.729  1.00  0.00     0.041 C 
BRANCH   6   8
ATOM      8  N   UNL A   1      34.215  35.262  33.485  1.00  0.00    -0.343 N 
ATOM      9  C   UNL A   1      34.988  34.160  33.644  1.00  0.00     0.240 C 
ATOM     10  O   UNL A   1      35.219  33.801  34.801  1.00  0.00    -0.273 OA
ATOM     11  H   UNL A   1      33.701  35.514  34.286  1.00  0.00     0.164 HD
BRANCH   9  12
ATOM     12  C   UNL A   1      35.665  33.474  32.462  1.00  0.00     0.229 C 
BRANCH  12  13
ATOM     13  N   UNL A   1      36.975  32.952  32.796  1.00  0.00    -0.259 N 
ATOM     14  C   UNL A   1      39.055  30.105  33.590  1.00  0.00     0.029 C 
ATOM     15  C   UNL A   1      38.593  31.342  33.341  1.00  0.00     0.083 C 
ATOM     16  S   UNL A   1      39.432  32.841  33.500  1.00  0.00    -0.022 SA
ATOM     17  C   UNL A   1      37.190  31.597  32.917  1.00  0.00     0.268 C 
ATOM     18  C   UNL A   1      38.012  33.779  33.119  1.00  0.00     0.294 C 
ATOM     19  O   UNL A   1      36.360  30.720  32.737  1.00  0.00    -0.268 OA
ATOM     20  O   UNL A   1      37.995  35.003  33.132  1.00  0.00    -0.261 OA
BRANCH  14  21
ATOM     21  C   UNL A   1      40.381  29.812  34.151  1.00  0.00    -0.020 A 
ATOM     22  C   UNL A   1      42.890  29.050  35.160  1.00  0.00     0.160 A 
ATOM     23  C   UNL A   1      41.897  29.554  36.016  1.00  0.00     0.051 A 
ATOM     24  C   UNL A   1      42.647  28.959  33.787  1.00  0.00     0.161 A 
ATOM     25  C   UNL A   1      40.647  29.938  35.514  1.00  0.00     0.012 A 
ATOM     26  C   UNL A   1      41.404  29.375  33.300  1.00  0.00     0.058 A 
BRANCH  22  27
ATOM     27  O   UNL A   1      44.010  28.512  35.731  1.00  0.00    -0.493 OA
ATOM     28  C   UNL A   1      45.140  29.377  35.630  1.00  0.00     0.278 C 
ENDBRANCH  22  27
BRANCH  24  29
ATOM     29  O   UNL A   1      43.437  28.455  32.795  1.00  0.00    -0.493 OA
ATOM     30  C   UNL A   1      43.420  27.061  32.551  1.00  0.00     0.278 C 
ENDBRANCH  24  29
ENDBRANCH  14  21
ENDBRANCH  12  13
ENDBRANCH   9  12
ENDBRANCH   6   8
ENDBRANCH   3   6
ENDBRANCH   1   2
BRANCH   1  31
ATOM     31  C   UNL A   1      34.509  35.071  28.796  1.00  0.00     0.023 C 
BRANCH  31  32
ATOM     32  C   UNL A   1      33.982  33.701  29.222  1.00  0.00     0.023 C 
BRANCH  32  33
ATOM     33  C   UNL A   1      34.921  32.539  28.933  1.00  0.00     0.116 C 
BRANCH  33  34
ATOM     34  N   UNL A   1      34.218  31.345  28.492  1.00  0.00    -0.352 N 
ATOM     35  C   UNL A   1      34.733  30.120  28.151  1.00  0.00     0.251 C 
ATOM     36  H   UNL A   1      33.239  31.428  28.429  1.00  0.00     0.163 HD
ATOM     37  O   UNL A   1      34.009  29.267  27.645  1.00  0.00    -0.269 OA
BRANCH  35  38
ATOM     38  C   UNL A   1      36.166  29.840  28.374  1.00  0.00     0.039 A 
ATOM     39  C   UNL A   1      36.570  29.341  29.613  1.00  0.00     0.014 A 
ATOM     40  C   UNL A   1      37.107  30.073  27.367  1.00  0.00     0.014 A 
ATOM     41  C   UNL A   1      37.916  29.045  29.830  1.00  0.00     0.010 A 
ATOM     42  C   UNL A   1      38.430  29.687  27.553  1.00  0.00     0.010 A 
ATOM     43  C   UNL A   1      38.855  29.198  28.796  1.00  0.00    -0.014 A 
BRANCH  43  44
ATOM     44  C   UNL A   1      40.294  28.915  29.023  1.00  0.00     0.031 A 
ATOM     45  C   UNL A   1      40.862  27.575  28.630  1.00  0.00     0.074 A 
ATOM     46  C   UNL A   1      41.084  29.845  29.594  1.00  0.00     0.049 A 
ATOM     47  N   UNL A   1      42.083  27.121  28.765  1.00  0.00    -0.248 NA
ATOM     48  C   UNL A   1      39.929  26.606  28.031  1.00  0.00     0.031 C 
ATOM     49  C   UNL A   1      40.646  31.164  30.055  1.00  0.00     0.029 A 
ATOM     50  N   UNL A   1      42.425  29.822  29.881  1.00  0.00    -0.354 N 
ATOM     51  C   UNL A   1      42.060  25.823  28.270  1.00  0.00     0.074 A 
ATOM     52  C   UNL A   1      40.691  25.531  27.908  1.00  0.00     0.031 C 
ATOM     53  C   UNL A   1      41.706  31.837  30.531  1.00  0.00     0.029 A 
ATOM     54  C   UNL A   1      42.888  30.986  30.445  1.00  0.00     0.049 A 
ATOM     55  H   UNL A   1      43.001  29.044  29.699  1.00  0.00     0.167 HD
ATOM     56  C   UNL A   1      43.090  24.962  28.094  1.00  0.00     0.037 A 
ATOM     57  C   UNL A   1      44.129  31.324  30.844  1.00  0.00     0.037 A 
ATOM     58  C   UNL A   1      44.455  25.258  28.437  1.00  0.00     0.049 A 
ATOM     59  C   UNL A   1      45.250  30.334  30.663  1.00  0.00     0.074 A 
ATOM     60  C   UNL A   1      45.576  24.464  28.280  1.00  0.00     0.029 A 
ATOM     61  N   UNL A   1      44.884  26.449  29.003  1.00  0.00    -0.354 N 
ATOM     62  N   UNL A   1      45.222  29.132  30.142  1.00  0.00    -0.248 NA
ATOM     63  C   UNL A   1      46.581  30.759  31.117  1.00  0.00     0.031 C 
ATOM     64  C   UNL A   1      46.679  25.158  28.788  1.00  0.00     0.029 A 
ATOM     65  C   UNL A   1      46.254  26.407  29.210  1.00  0.00     0.049 A 
ATOM     66  H   UNL A   1      44.302  27.212  29.225  1.00  0.00     0.167 HD
ATOM     67  C   UNL A   1      46.534  28.677  30.165  1.00  0.00     0.074 A 
ATOM     68  C   UNL A   1      47.335  29.742  30.731  1.00  0.00     0.031 C 
ATOM     69  C   UNL A   1      47.036  27.485  29.756  1.00  0.00     0.037 A 
BRANCH  56  70
ATOM     70  C   UNL A   1      42.778  23.625  27.483  1.00  0.00     0.057 A 
ATOM     71  C   UNL A   1      42.758  23.439  26.094  1.00  0.00     0.134 A 
ATOM     72  C   UNL A   1      42.532  22.506  28.287  1.00  0.00     0.134 A 
ATOM     73  F   UNL A   1      42.969  24.473  25.265  1.00  0.00    -0.206 F 
ATOM     74  C   UNL A   1      42.480  22.194  25.527  1.00  0.00     0.040 A 
ATOM     75  C   UNL A   1      42.284  21.249  27.732  1.00  0.00     0.040 A 
ATOM     76  F   UNL A   1      42.540  22.611  29.625  1.00  0.00    -0.206 F 
ATOM     77  C   UNL A   1      42.251  21.092  26.348  1.00  0.00     0.006 A 
ENDBRANCH  56  70
BRANCH  57  78
ATOM     78  C   UNL A   1      44.400  32.663  31.430  1.00  0.00     0.057 A 
ATOM     79  C   UNL A   1      44.818  33.733  30.629  1.00  0.00     0.134 A 
ATOM     80  C   UNL A   1      44.308  32.892  32.808  1.00  0.00     0.134 A 
ATOM     81  F   UNL A   1      44.942  33.575  29.303  1.00  0.00    -0.206 F 
ATOM     82  C   UNL A   1      45.179  34.964  31.178  1.00  0.00     0.040 A 
ATOM     83  C   UNL A   1      44.635  34.128  33.368  1.00  0.00     0.040 A 
ATOM     84  F   UNL A   1      43.904  31.914  33.633  1.00  0.00    -0.206 F 
ATOM     85  C   UNL A   1      45.088  35.164  32.554  1.00  0.00     0.006 A 
ENDBRANCH  57  78
BRANCH  69  86
ATOM     86  C   UNL A   1      48.525  27.301  29.850  1.00  0.00     0.057 A 
ATOM     87  C   UNL A   1      49.394  27.715  28.832  1.00  0.00     0.134 A 
ATOM     88  C   UNL A   1      49.095  26.702  30.980  1.00  0.00     0.134 A 
ATOM     89  F   UNL A   1      48.913  28.287  27.717  1.00  0.00    -0.206 F 
ATOM     90  C   UNL A   1      50.770  27.498  28.914  1.00  0.00     0.040 A 
ATOM     91  C   UNL A   1      50.473  26.512  31.090  1.00  0.00     0.040 A 
ATOM     92  F   UNL A   1      48.323  26.294  31.999  1.00  0.00    -0.206 F 
ATOM     93  C   UNL A   1      51.313  26.898  30.049  1.00  0.00     0.006 A 
ENDBRANCH  69  86
ENDBRANCH  43  44
ENDBRANCH  35  38
ENDBRANCH  33  34
ENDBRANCH  32  33
ENDBRANCH  31  32
ENDBRANCH   1  31
TORSDOF 17
ENDMDL
MODEL 3
REMARK VINA RESULT:      -9.0      2.151      3.737
REMARK SMILES COc1ccc(/C=C2\SC(=O)N(CC(=O)N[C@H](C)C(=O)NCCCCNC(=O)c3ccc(-c4c5nc(c(-c6c(F)cccc6F)c6ccc([nH]6)c(-c6c(F)cccc6F)c6nc(c(-c7c(F)cccc7F)c7ccc4[nH]7)C=C6)C=C5)cc3)C2=O)cc1OC
REMARK SMILES IDX 22 1 21 2 19 3 20 4 17 6 18 7 16 8 14 9 15 10 13 12 12 13
REMARK SMILES IDX 7 14 8 15 9 16 83 17 10 18 84 19 11 20 6 21 3 22 4 23 86 24
REMARK SMILES IDX 5 25 85 26 2 27 1 28 87 29 88 30 23 31 24 32 25 33 26 34
REMARK SMILES IDX 27 35 28 37 29 38 30 39 82 40 31 41 81 42 32 43 33 44 34 45
REMARK SMILES IDX 75 46 35 47 80 48 74 49 76 50 36 51 79 52 73 53 72 54 37 56
REMARK SMILES IDX 63 57 46 58 62 59 47 60 50 61 61 62 77 63 48 64 49 65 60 67
REMARK SMILES IDX 78 68 51 69 38 70 39 71 44 72 40 73 41 74 43 75 45 76 42 77
REMARK SMILES IDX 64 78 65 79 70 80 66 81 67 82 69 83 71 84 68 85 52 86 53 87
REMARK SMILES IDX 58 88 54 89 55 90 57 91 59 92 56 93
REMARK H PARENT 21 5 16 11 26 36 76 55 50 66
REMARK Flexibility Score: inf
ROOT
ATOM      1  C   UNL A   1      32.988  35.677  29.815  1.00  0.00     0.116 C 
ENDROOT
BRANCH   1   2
ATOM      2  N   UNL A   1      33.541  36.736  30.637  1.00  0.00    -0.354 N 
ATOM      3  C   UNL A   1      33.403  36.972  31.970  1.00  0.00     0.242 C 
ATOM      4  O   UNL A   1      33.895  38.006  32.431  1.00  0.00    -0.273 OA
ATOM      5  H   UNL A   1      34.105  37.384  30.155  1.00  0.00     0.163 HD
BRANCH   3   6
ATOM      6  C   UNL A   1      32.696  35.961  32.883  1.00  0.00     0.168 C 
ATOM      7  C   UNL A   1      31.175  36.067  32.866  1.00  0.00     0.041 C 
BRANCH   6   8
ATOM      8  N   UNL A   1      33.168  34.619  32.545  1.00  0.00    -0.343 N 
ATOM      9  C   UNL A   1      34.063  33.802  33.154  1.00  0.00     0.240 C 
ATOM     10  O   UNL A   1      34.033  32.609  32.839  1.00  0.00    -0.273 OA
ATOM     11  H   UNL A   1      32.764  34.241  31.731  1.00  0.00     0.164 HD
BRANCH   9  12
ATOM     12  C   UNL A   1      34.967  34.293  34.278  1.00  0.00     0.229 C 
BRANCH  12  13
ATOM     13  N   UNL A   1      36.373  34.224  33.934  1.00  0.00    -0.259 N 
ATOM     14  C   UNL A   1      38.968  34.630  31.452  1.00  0.00     0.029 C 
ATOM     15  C   UNL A   1      38.284  34.379  32.581  1.00  0.00     0.083 C 
ATOM     16  S   UNL A   1      38.874  33.696  34.051  1.00  0.00    -0.022 SA
ATOM     17  C   UNL A   1      36.822  34.629  32.697  1.00  0.00     0.268 C 
ATOM     18  C   UNL A   1      37.286  33.648  34.770  1.00  0.00     0.294 C 
ATOM     19  O   UNL A   1      36.136  35.098  31.803  1.00  0.00    -0.268 OA
ATOM     20  O   UNL A   1      37.067  33.175  35.878  1.00  0.00    -0.261 OA
BRANCH  14  21
ATOM     21  C   UNL A   1      40.375  34.265  31.236  1.00  0.00    -0.020 A 
ATOM     22  C   UNL A   1      43.092  33.758  30.733  1.00  0.00     0.160 A 
ATOM     23  C   UNL A   1      42.096  32.945  30.167  1.00  0.00     0.051 A 
ATOM     24  C   UNL A   1      42.737  34.806  31.585  1.00  0.00     0.161 A 
ATOM     25  C   UNL A   1      40.741  33.195  30.421  1.00  0.00     0.012 A 
ATOM     26  C   UNL A   1      41.381  35.021  31.850  1.00  0.00     0.058 A 
BRANCH  22  27
ATOM     27  O   UNL A   1      44.377  33.587  30.295  1.00  0.00    -0.493 OA
ATOM     28  C   UNL A   1      44.646  34.320  29.101  1.00  0.00     0.278 C 
ENDBRANCH  22  27
BRANCH  24  29
ATOM     29  O   UNL A   1      43.527  35.741  32.191  1.00  0.00    -0.493 OA
ATOM     30  C   UNL A   1      43.650  35.721  33.601  1.00  0.00     0.278 C 
ENDBRANCH  24  29
ENDBRANCH  14  21
ENDBRANCH  12  13
ENDBRANCH   9  12
ENDBRANCH   6   8
ENDBRANCH   3   6
ENDBRANCH   1   2
BRANCH   1  31
ATOM     31  C   UNL A   1      33.779  35.507  28.522  1.00  0.00     0.023 C 
BRANCH  31  32
ATOM     32  C   UNL A   1      34.962  34.546  28.634  1.00  0.00     0.023 C 
BRANCH  32  33
ATOM     33  C   UNL A   1      34.636  33.204  29.273  1.00  0.00     0.116 C 
BRANCH  33  34
ATOM     34  N   UNL A   1      34.004  32.280  28.346  1.00  0.00    -0.352 N 
ATOM     35  C   UNL A   1      34.498  31.109  27.828  1.00  0.00     0.251 C 
ATOM     36  H   UNL A   1      33.099  32.528  28.049  1.00  0.00     0.163 HD
ATOM     37  O   UNL A   1      33.894  30.530  26.930  1.00  0.00    -0.269 OA
BRANCH  35  38
ATOM     38  C   UNL A   1      35.772  30.562  28.339  1.00  0.00     0.039 A 
ATOM     39  C   UNL A   1      35.738  29.651  29.395  1.00  0.00     0.014 A 
ATOM     40  C   UNL A   1      36.993  30.948  27.781  1.00  0.00     0.014 A 
ATOM     41  C   UNL A   1      36.930  29.103  29.870  1.00  0.00     0.010 A 
ATOM     42  C   UNL A   1      38.169  30.329  28.190  1.00  0.00     0.010 A 
ATOM     43  C   UNL A   1      38.154  29.424  29.260  1.00  0.00    -0.014 A 
BRANCH  43  44
ATOM     44  C   UNL A   1      39.432  28.871  29.775  1.00  0.00     0.031 A 
ATOM     45  C   UNL A   1      40.041  29.442  31.030  1.00  0.00     0.074 A 
ATOM     46  C   UNL A   1      40.054  27.877  29.111  1.00  0.00     0.049 A 
ATOM     47  N   UNL A   1      41.158  29.119  31.630  1.00  0.00    -0.248 NA
ATOM     48  C   UNL A   1      39.310  30.541  31.683  1.00  0.00     0.031 C 
ATOM     49  C   UNL A   1      39.589  27.267  27.864  1.00  0.00     0.029 A 
ATOM     50  N   UNL A   1      41.213  27.202  29.399  1.00  0.00    -0.354 N 
ATOM     51  C   UNL A   1      41.261  29.971  32.723  1.00  0.00     0.074 A 
ATOM     52  C   UNL A   1      40.138  30.878  32.659  1.00  0.00     0.031 C 
ATOM     53  C   UNL A   1      40.433  26.282  27.515  1.00  0.00     0.029 A 
ATOM     54  C   UNL A   1      41.517  26.217  28.489  1.00  0.00     0.049 A 
ATOM     55  H   UNL A   1      41.774  27.404  30.182  1.00  0.00     0.167 HD
ATOM     56  C   UNL A   1      42.183  29.974  33.714  1.00  0.00     0.037 A 
ATOM     57  C   UNL A   1      42.554  25.359  28.453  1.00  0.00     0.037 A 
ATOM     58  C   UNL A   1      43.291  29.059  33.788  1.00  0.00     0.049 A 
ATOM     59  C   UNL A   1      43.581  25.407  29.554  1.00  0.00     0.074 A 
ATOM     60  C   UNL A   1      44.269  28.966  34.761  1.00  0.00     0.029 A 
ATOM     61  N   UNL A   1      43.562  28.075  32.850  1.00  0.00    -0.354 N 
ATOM     62  N   UNL A   1      43.633  26.181  30.610  1.00  0.00    -0.248 NA
ATOM     63  C   UNL A   1      44.689  24.446  29.460  1.00  0.00     0.031 C 
ATOM     64  C   UNL A   1      45.157  27.950  34.391  1.00  0.00     0.029 A 
ATOM     65  C   UNL A   1      44.699  27.374  33.217  1.00  0.00     0.049 A 
ATOM     66  H   UNL A   1      43.026  27.899  32.042  1.00  0.00     0.167 HD
ATOM     67  C   UNL A   1      44.750  25.772  31.327  1.00  0.00     0.074 A 
ATOM     68  C   UNL A   1      45.333  24.667  30.595  1.00  0.00     0.031 C 
ATOM     69  C   UNL A   1      45.253  26.264  32.486  1.00  0.00     0.037 A 
BRANCH  56  70
ATOM     70  C   UNL A   1      42.017  30.989  34.810  1.00  0.00     0.057 A 
ATOM     71  C   UNL A   1      41.161  30.761  35.898  1.00  0.00     0.134 A 
ATOM     72  C   UNL A   1      42.743  32.185  34.800  1.00  0.00     0.134 A 
ATOM     73  F   UNL A   1      40.424  29.643  35.962  1.00  0.00    -0.206 F 
ATOM     74  C   UNL A   1      41.016  31.699  36.922  1.00  0.00     0.040 A 
ATOM     75  C   UNL A   1      42.629  33.116  35.834  1.00  0.00     0.040 A 
ATOM     76  F   UNL A   1      43.582  32.466  33.791  1.00  0.00    -0.206 F 
ATOM     77  C   UNL A   1      41.759  32.877  36.896  1.00  0.00     0.006 A 
ENDBRANCH  56  70
BRANCH  57  78
ATOM     78  C   UNL A   1      42.675  24.360  27.359  1.00  0.00     0.057 A 
ATOM     79  C   UNL A   1      43.300  24.685  26.148  1.00  0.00     0.134 A 
ATOM     80  C   UNL A   1      42.118  23.081  27.469  1.00  0.00     0.134 A 
ATOM     81  F   UNL A   1      43.839  25.901  25.972  1.00  0.00    -0.206 F 
ATOM     82  C   UNL A   1      43.326  23.796  25.073  1.00  0.00     0.040 A 
ATOM     83  C   UNL A   1      42.165  22.168  26.413  1.00  0.00     0.040 A 
ATOM     84  F   UNL A   1      41.514  22.699  28.604  1.00  0.00    -0.206 F 
ATOM     85  C   UNL A   1      42.756  22.530  25.206  1.00  0.00     0.006 A 
ENDBRANCH  57  78
BRANCH  69  86
ATOM     86  C   UNL A   1      46.455  25.568  33.062  1.00  0.00     0.057 A 
ATOM     87  C   UNL A   1      47.764  25.950  32.740  1.00  0.00     0.134 A 
ATOM     88  C   UNL A   1      46.295  24.500  33.954  1.00  0.00     0.134 A 
ATOM     89  F   UNL A   1      47.988  26.958  31.884  1.00  0.00    -0.206 F 
ATOM     90  C   UNL A   1      48.869  25.265  33.249  1.00  0.00     0.040 A 
ATOM     91  C   UNL A   1      47.392  23.831  34.498  1.00  0.00     0.040 A 
ATOM     92  F   UNL A   1      45.069  24.092  34.316  1.00  0.00    -0.206 F 
ATOM     93  C   UNL A   1      48.683  24.205  34.134  1.00  0.00     0.006 A 
ENDBRANCH  69  86
ENDBRANCH  43  44
ENDBRANCH  35  38
ENDBRANCH  33  34
ENDBRANCH  32  33
ENDBRANCH  31  32
ENDBRANCH   1  31
TORSDOF 17
ENDMDL
