MODEL 1
REMARK VINA RESULT:     -10.9      0.000      0.000
REMARK SMILES CN(C(=O)[C@H]1CCCC[C@H]1C(=O)NCCCCNC(=O)c1ccc(-c2c3nc(c(-c4c(F)cccc4F)c4ccc([nH]4)c(-c4c(F)cccc4F)c4nc(c(-c5c(F)cccc5F)c5ccc2[nH]5)C=C4)C=C3)cc1)C1CC1
REMARK SMILES IDX 15 1 14 2 13 3 11 4 12 5 10 7 5 8 6 9 7 10 9 11 8 12 3 13
REMARK SMILES IDX 4 14 2 15 1 16 75 17 76 18 77 19 16 20 17 21 18 22 19 23
REMARK SMILES IDX 20 25 21 26 22 27 74 28 23 29 73 30 24 31 25 32 26 33 67 34
REMARK SMILES IDX 27 35 72 36 66 37 68 38 28 39 71 40 65 41 64 42 29 44 55 45
REMARK SMILES IDX 38 46 54 47 39 48 42 49 53 50 69 51 40 52 41 53 52 55 70 56
REMARK SMILES IDX 43 57 30 58 31 59 36 60 32 61 33 62 35 63 37 64 34 65 56 66
REMARK SMILES IDX 57 67 62 68 58 69 59 70 61 71 63 72 60 73 44 74 45 75 50 76
REMARK SMILES IDX 46 77 47 78 49 79 51 80 48 81
REMARK H PARENT 13 6 18 24 68 43 42 54
REMARK Flexibility Score: inf
ROOT
ATOM      1  C   UNL A   1      31.823  30.558  26.316  1.00  0.00     0.023 C 
ENDROOT
BRANCH   1   2
ATOM      2  C   UNL A   1      33.248  30.149  26.685  1.00  0.00     0.116 C 
BRANCH   2   3
ATOM      3  N   UNL A   1      33.958  29.502  25.600  1.00  0.00    -0.356 N 
ATOM      4  C   UNL A   1      33.651  28.421  24.849  1.00  0.00     0.223 C 
ATOM      5  O   UNL A   1      33.930  28.526  23.645  1.00  0.00    -0.275 OA
ATOM      6  H   UNL A   1      34.817  29.924  25.371  1.00  0.00     0.163 HD
BRANCH   4   7
ATOM      7  C   UNL A   1      33.109  27.080  25.361  1.00  0.00     0.091 C 
ATOM      8  C   UNL A   1      31.614  26.783  25.478  1.00  0.00     0.091 C 
ATOM      9  C   UNL A   1      31.376  25.602  26.440  1.00  0.00     0.014 C 
ATOM     10  C   UNL A   1      32.188  24.362  26.100  1.00  0.00     0.001 C 
ATOM     11  C   UNL A   1      34.031  25.886  25.091  1.00  0.00     0.014 C 
ATOM     12  C   UNL A   1      33.678  24.647  25.924  1.00  0.00     0.001 C 
BRANCH   8  13
ATOM     13  C   UNL A   1      30.593  26.723  24.332  1.00  0.00     0.226 C 
ATOM     14  O   UNL A   1      29.512  26.184  24.622  1.00  0.00    -0.275 OA
BRANCH  13  15
ATOM     15  N   UNL A   1      30.820  27.149  23.031  1.00  0.00    -0.343 N 
ATOM     16  C   UNL A   1      31.500  26.416  21.975  1.00  0.00     0.147 C 
BRANCH  15  17
ATOM     17  C   UNL A   1      30.591  28.545  22.689  1.00  0.00     0.084 C 
ATOM     18  C   UNL A   1      29.202  29.044  22.382  1.00  0.00     0.027 C 
ATOM     19  C   UNL A   1      29.927  29.553  23.587  1.00  0.00     0.027 C 
ENDBRANCH  15  17
ENDBRANCH  13  15
ENDBRANCH   8  13
ENDBRANCH   4   7
ENDBRANCH   2   3
ENDBRANCH   1   2
BRANCH   1  20
ATOM     20  C   UNL A   1      31.360  31.886  26.916  1.00  0.00     0.023 C 
BRANCH  20  21
ATOM     21  C   UNL A   1      32.261  33.086  26.643  1.00  0.00     0.116 C 
BRANCH  21  22
ATOM     22  N   UNL A   1      32.174  34.152  27.625  1.00  0.00    -0.352 N 
ATOM     23  C   UNL A   1      33.107  34.518  28.575  1.00  0.00     0.251 C 
ATOM     24  H   UNL A   1      31.344  34.683  27.612  1.00  0.00     0.163 HD
ATOM     25  O   UNL A   1      32.917  35.482  29.306  1.00  0.00    -0.269 OA
BRANCH  23  26
ATOM     26  C   UNL A   1      34.295  33.655  28.775  1.00  0.00     0.039 A 
ATOM     27  C   UNL A   1      35.557  34.238  28.638  1.00  0.00     0.014 A 
ATOM     28  C   UNL A   1      34.168  32.345  29.241  1.00  0.00     0.014 A 
ATOM     29  C   UNL A   1      36.684  33.558  29.103  1.00  0.00     0.010 A 
ATOM     30  C   UNL A   1      35.281  31.701  29.775  1.00  0.00     0.010 A 
ATOM     31  C   UNL A   1      36.542  32.318  29.746  1.00  0.00    -0.014 A 
BRANCH  31  32
ATOM     32  C   UNL A   1      37.685  31.689  30.458  1.00  0.00     0.031 A 
ATOM     33  C   UNL A   1      38.522  30.645  29.780  1.00  0.00     0.074 A 
ATOM     34  C   UNL A   1      37.908  31.995  31.752  1.00  0.00     0.049 A 
ATOM     35  N   UNL A   1      39.496  29.922  30.269  1.00  0.00    -0.248 NA
ATOM     36  C   UNL A   1      38.199  30.350  28.374  1.00  0.00     0.031 C 
ATOM     37  C   UNL A   1      37.123  32.941  32.549  1.00  0.00     0.029 A 
ATOM     38  N   UNL A   1      38.858  31.534  32.630  1.00  0.00    -0.354 N 
ATOM     39  C   UNL A   1      39.888  29.074  29.241  1.00  0.00     0.074 A 
ATOM     40  C   UNL A   1      39.017  29.341  28.117  1.00  0.00     0.031 C 
ATOM     41  C   UNL A   1      37.639  33.009  33.787  1.00  0.00     0.029 A 
ATOM     42  C   UNL A   1      38.768  32.091  33.884  1.00  0.00     0.049 A 
ATOM     43  H   UNL A   1      39.539  30.866  32.385  1.00  0.00     0.167 HD
ATOM     44  C   UNL A   1      40.895  28.169  29.229  1.00  0.00     0.037 A 
ATOM     45  C   UNL A   1      39.512  31.885  34.987  1.00  0.00     0.037 A 
ATOM     46  C   UNL A   1      41.785  27.927  30.334  1.00  0.00     0.049 A 
ATOM     47  C   UNL A   1      40.653  30.910  34.932  1.00  0.00     0.074 A 
ATOM     48  C   UNL A   1      42.869  27.070  30.398  1.00  0.00     0.029 A 
ATOM     49  N   UNL A   1      41.694  28.552  31.568  1.00  0.00    -0.354 N 
ATOM     50  N   UNL A   1      41.047  30.156  33.936  1.00  0.00    -0.248 NA
ATOM     51  C   UNL A   1      41.457  30.760  36.155  1.00  0.00     0.031 C 
ATOM     52  C   UNL A   1      43.425  27.162  31.680  1.00  0.00     0.029 A 
ATOM     53  C   UNL A   1      42.702  28.097  32.402  1.00  0.00     0.049 A 
ATOM     54  H   UNL A   1      41.015  29.220  31.816  1.00  0.00     0.167 HD
ATOM     55  C   UNL A   1      42.154  29.460  34.400  1.00  0.00     0.074 A 
ATOM     56  C   UNL A   1      42.378  29.890  35.765  1.00  0.00     0.031 C 
ATOM     57  C   UNL A   1      42.915  28.544  33.754  1.00  0.00     0.037 A 
BRANCH  44  58
ATOM     58  C   UNL A   1      41.090  27.384  27.968  1.00  0.00     0.057 A 
ATOM     59  C   UNL A   1      41.894  27.860  26.924  1.00  0.00     0.134 A 
ATOM     60  C   UNL A   1      40.478  26.136  27.797  1.00  0.00     0.134 A 
ATOM     61  F   UNL A   1      42.496  29.055  27.021  1.00  0.00    -0.206 F 
ATOM     62  C   UNL A   1      42.060  27.136  25.742  1.00  0.00     0.040 A 
ATOM     63  C   UNL A   1      40.654  25.392  26.629  1.00  0.00     0.040 A 
ATOM     64  F   UNL A   1      39.698  25.622  28.759  1.00  0.00    -0.206 F 
ATOM     65  C   UNL A   1      41.441  25.895  25.595  1.00  0.00     0.006 A 
ENDBRANCH  44  58
BRANCH  45  66
ATOM     66  C   UNL A   1      39.223  32.642  36.229  1.00  0.00     0.057 A 
ATOM     67  C   UNL A   1      39.837  33.876  36.477  1.00  0.00     0.134 A 
ATOM     68  C   UNL A   1      38.337  32.154  37.196  1.00  0.00     0.134 A 
ATOM     69  F   UNL A   1      40.709  34.384  35.595  1.00  0.00    -0.206 F 
ATOM     70  C   UNL A   1      39.591  34.591  37.649  1.00  0.00     0.040 A 
ATOM     71  C   UNL A   1      38.067  32.869  38.365  1.00  0.00     0.040 A 
ATOM     72  F   UNL A   1      37.714  30.981  37.013  1.00  0.00    -0.206 F 
ATOM     73  C   UNL A   1      38.700  34.089  38.596  1.00  0.00     0.006 A 
ENDBRANCH  45  66
BRANCH  57  74
ATOM     74  C   UNL A   1      44.075  27.968  34.506  1.00  0.00     0.057 A 
ATOM     75  C   UNL A   1      43.969  26.762  35.209  1.00  0.00     0.134 A 
ATOM     76  C   UNL A   1      45.321  28.608  34.495  1.00  0.00     0.134 A 
ATOM     77  F   UNL A   1      42.798  26.110  35.268  1.00  0.00    -0.206 F 
ATOM     78  C   UNL A   1      45.061  26.217  35.887  1.00  0.00     0.040 A 
ATOM     79  C   UNL A   1      46.424  28.064  35.153  1.00  0.00     0.040 A 
ATOM     80  F   UNL A   1      45.486  29.765  33.836  1.00  0.00    -0.206 F 
ATOM     81  C   UNL A   1      46.294  26.867  35.854  1.00  0.00     0.006 A 
ENDBRANCH  57  74
ENDBRANCH  31  32
ENDBRANCH  23  26
ENDBRANCH  21  22
ENDBRANCH  20  21
ENDBRANCH   1  20
TORSDOF 14
ENDMDL
MODEL 2
REMARK VINA RESULT:     -10.9      0.471      6.399
REMARK SMILES CN(C(=O)[C@H]1CCCC[C@H]1C(=O)NCCCCNC(=O)c1ccc(-c2c3nc(c(-c4c(F)cccc4F)c4ccc([nH]4)c(-c4c(F)cccc4F)c4nc(c(-c5c(F)cccc5F)c5ccc2[nH]5)C=C4)C=C3)cc1)C1CC1
REMARK SMILES IDX 15 1 14 2 13 3 11 4 12 5 10 7 5 8 6 9 7 10 9 11 8 12 3 13
REMARK SMILES IDX 4 14 2 15 1 16 75 17 76 18 77 19 16 20 17 21 18 22 19 23
REMARK SMILES IDX 20 25 21 26 22 27 74 28 23 29 73 30 24 31 25 32 26 33 67 34
REMARK SMILES IDX 27 35 72 36 66 37 68 38 28 39 71 40 65 41 64 42 29 44 55 45
REMARK SMILES IDX 38 46 54 47 39 48 42 49 53 50 69 51 40 52 41 53 52 55 70 56
REMARK SMILES IDX 43 57 30 58 31 59 36 60 32 61 33 62 35 63 37 64 34 65 56 66
REMARK SMILES IDX 57 67 62 68 58 69 59 70 61 71 63 72 60 73 44 74 45 75 50 76
REMARK SMILES IDX 46 77 47 78 49 79 51 80 48 81
REMARK H PARENT 13 6 18 24 68 43 42 54
REMARK Flexibility Score: inf
ROOT
ATOM      1  C   UNL A   1      31.773  30.632  26.375  1.00  0.00     0.023 C 
ENDROOT
BRANCH   1   2
ATOM      2  C   UNL A   1      33.146  30.123  26.812  1.00  0.00     0.116 C 
BRANCH   2   3
ATOM      3  N   UNL A   1      33.907  29.525  25.734  1.00  0.00    -0.356 N 
ATOM      4  C   UNL A   1      33.645  28.469  24.932  1.00  0.00     0.223 C 
ATOM      5  O   UNL A   1      33.969  28.623  23.745  1.00  0.00    -0.275 OA
ATOM      6  H   UNL A   1      34.768  29.966  25.554  1.00  0.00     0.163 HD
BRANCH   4   7
ATOM      7  C   UNL A   1      33.101  27.104  25.372  1.00  0.00     0.091 C 
ATOM      8  C   UNL A   1      31.606  26.798  25.463  1.00  0.00     0.091 C 
ATOM      9  C   UNL A   1      31.363  25.571  26.364  1.00  0.00     0.014 C 
ATOM     10  C   UNL A   1      32.180  24.351  25.969  1.00  0.00     0.001 C 
ATOM     11  C   UNL A   1      34.028  25.926  25.051  1.00  0.00     0.014 C 
ATOM     12  C   UNL A   1      33.672  24.647  25.818  1.00  0.00     0.001 C 
BRANCH   8  13
ATOM     13  C   UNL A   1      30.594  26.793  24.307  1.00  0.00     0.226 C 
ATOM     14  O   UNL A   1      29.478  26.328  24.592  1.00  0.00    -0.275 OA
BRANCH  13  15
ATOM     15  N   UNL A   1      30.861  27.191  23.005  1.00  0.00    -0.343 N 
ATOM     16  C   UNL A   1      31.616  26.457  22.001  1.00  0.00     0.147 C 
BRANCH  15  17
ATOM     17  C   UNL A   1      30.590  28.565  22.611  1.00  0.00     0.084 C 
ATOM     18  C   UNL A   1      29.176  29.034  22.376  1.00  0.00     0.027 C 
ATOM     19  C   UNL A   1      29.975  29.610  23.501  1.00  0.00     0.027 C 
ENDBRANCH  15  17
ENDBRANCH  13  15
ENDBRANCH   8  13
ENDBRANCH   4   7
ENDBRANCH   2   3
ENDBRANCH   1   2
BRANCH   1  20
ATOM     20  C   UNL A   1      31.403  32.018  26.906  1.00  0.00     0.023 C 
BRANCH  20  21
ATOM     21  C   UNL A   1      32.419  33.122  26.638  1.00  0.00     0.116 C 
BRANCH  21  22
ATOM     22  N   UNL A   1      32.441  34.187  27.626  1.00  0.00    -0.352 N 
ATOM     23  C   UNL A   1      33.423  34.475  28.553  1.00  0.00     0.251 C 
ATOM     24  H   UNL A   1      31.654  34.780  27.636  1.00  0.00     0.163 HD
ATOM     25  O   UNL A   1      33.327  35.446  29.291  1.00  0.00    -0.269 OA
BRANCH  23  26
ATOM     26  C   UNL A   1      34.545  33.521  28.717  1.00  0.00     0.039 A 
ATOM     27  C   UNL A   1      35.846  34.012  28.577  1.00  0.00     0.014 A 
ATOM     28  C   UNL A   1      34.327  32.214  29.157  1.00  0.00     0.014 A 
ATOM     29  C   UNL A   1      36.924  33.241  29.012  1.00  0.00     0.010 A 
ATOM     30  C   UNL A   1      35.395  31.478  29.662  1.00  0.00     0.010 A 
ATOM     31  C   UNL A   1      36.698  32.000  29.630  1.00  0.00    -0.014 A 
BRANCH  31  32
ATOM     32  C   UNL A   1      37.799  31.272  30.312  1.00  0.00     0.031 A 
ATOM     33  C   UNL A   1      38.125  31.558  31.748  1.00  0.00     0.074 A 
ATOM     34  C   UNL A   1      38.567  30.418  29.605  1.00  0.00     0.049 A 
ATOM     35  N   UNL A   1      39.104  31.093  32.481  1.00  0.00    -0.248 NA
ATOM     36  C   UNL A   1      37.255  32.520  32.443  1.00  0.00     0.031 C 
ATOM     37  C   UNL A   1      38.400  30.104  28.183  1.00  0.00     0.029 A 
ATOM     38  N   UNL A   1      39.649  29.663  29.983  1.00  0.00    -0.354 N 
ATOM     39  C   UNL A   1      38.981  31.720  33.714  1.00  0.00     0.074 A 
ATOM     40  C   UNL A   1      37.861  32.631  33.616  1.00  0.00     0.031 C 
ATOM     41  C   UNL A   1      39.329  29.205  27.818  1.00  0.00     0.029 A 
ATOM     42  C   UNL A   1      40.175  28.902  28.966  1.00  0.00     0.049 A 
ATOM     43  H   UNL A   1      40.016  29.668  30.897  1.00  0.00     0.167 HD
ATOM     44  C   UNL A   1      39.722  31.539  34.833  1.00  0.00     0.037 A 
ATOM     45  C   UNL A   1      41.221  28.053  28.961  1.00  0.00     0.037 A 
ATOM     46  C   UNL A   1      40.814  30.608  34.943  1.00  0.00     0.049 A 
ATOM     47  C   UNL A   1      41.997  27.834  30.228  1.00  0.00     0.074 A 
ATOM     48  C   UNL A   1      41.589  30.314  36.051  1.00  0.00     0.029 A 
ATOM     49  N   UNL A   1      41.279  29.815  33.906  1.00  0.00    -0.354 N 
ATOM     50  N   UNL A   1      41.833  28.393  31.402  1.00  0.00    -0.248 NA
ATOM     51  C   UNL A   1      43.100  26.863  30.171  1.00  0.00     0.031 C 
ATOM     52  C   UNL A   1      42.538  29.354  35.678  1.00  0.00     0.029 A 
ATOM     53  C   UNL A   1      42.334  29.033  34.346  1.00  0.00     0.049 A 
ATOM     54  H   UNL A   1      40.915  29.808  32.991  1.00  0.00     0.167 HD
ATOM     55  C   UNL A   1      42.795  27.829  32.228  1.00  0.00     0.074 A 
ATOM     56  C   UNL A   1      43.531  26.874  31.424  1.00  0.00     0.031 C 
ATOM     57  C   UNL A   1      43.047  28.081  33.535  1.00  0.00     0.037 A 
BRANCH  44  58
ATOM     58  C   UNL A   1      39.359  32.362  36.031  1.00  0.00     0.057 A 
ATOM     59  C   UNL A   1      39.961  33.603  36.278  1.00  0.00     0.134 A 
ATOM     60  C   UNL A   1      38.394  31.917  36.943  1.00  0.00     0.134 A 
ATOM     61  F   UNL A   1      40.905  34.077  35.450  1.00  0.00    -0.206 F 
ATOM     62  C   UNL A   1      39.636  34.360  37.404  1.00  0.00     0.040 A 
ATOM     63  C   UNL A   1      38.044  32.676  38.060  1.00  0.00     0.040 A 
ATOM     64  F   UNL A   1      37.778  30.740  36.762  1.00  0.00    -0.206 F 
ATOM     65  C   UNL A   1      38.671  33.897  38.298  1.00  0.00     0.006 A 
ENDBRANCH  44  58
BRANCH  45  66
ATOM     66  C   UNL A   1      41.575  27.321  27.721  1.00  0.00     0.057 A 
ATOM     67  C   UNL A   1      41.079  26.034  27.481  1.00  0.00     0.134 A 
ATOM     68  C   UNL A   1      42.416  27.881  26.754  1.00  0.00     0.134 A 
ATOM     69  F   UNL A   1      40.283  25.439  28.381  1.00  0.00    -0.206 F 
ATOM     70  C   UNL A   1      41.418  25.323  26.329  1.00  0.00     0.040 A 
ATOM     71  C   UNL A   1      42.748  27.188  25.587  1.00  0.00     0.040 A 
ATOM     72  F   UNL A   1      42.919  29.112  26.923  1.00  0.00    -0.206 F 
ATOM     73  C   UNL A   1      42.253  25.903  25.376  1.00  0.00     0.006 A 
ENDBRANCH  45  66
BRANCH  57  74
ATOM     74  C   UNL A   1      44.145  27.294  34.182  1.00  0.00     0.057 A 
ATOM     75  C   UNL A   1      45.457  27.779  34.246  1.00  0.00     0.134 A 
ATOM     76  C   UNL A   1      43.878  26.057  34.781  1.00  0.00     0.134 A 
ATOM     77  F   UNL A   1      45.777  28.952  33.679  1.00  0.00    -0.206 F 
ATOM     78  C   UNL A   1      46.470  27.053  34.874  1.00  0.00     0.040 A 
ATOM     79  C   UNL A   1      44.878  25.330  35.427  1.00  0.00     0.040 A 
ATOM     80  F   UNL A   1      42.639  25.541  34.755  1.00  0.00    -0.206 F 
ATOM     81  C   UNL A   1      46.179  25.826  35.471  1.00  0.00     0.006 A 
ENDBRANCH  57  74
ENDBRANCH  31  32
ENDBRANCH  23  26
ENDBRANCH  21  22
ENDBRANCH  20  21
ENDBRANCH   1  20
TORSDOF 14
ENDMDL
MODEL 3
REMARK VINA RESULT:     -10.8      4.062      7.891
REMARK SMILES CN(C(=O)[C@H]1CCCC[C@H]1C(=O)NCCCCNC(=O)c1ccc(-c2c3nc(c(-c4c(F)cccc4F)c4ccc([nH]4)c(-c4c(F)cccc4F)c4nc(c(-c5c(F)cccc5F)c5ccc2[nH]5)C=C4)C=C3)cc1)C1CC1
REMARK SMILES IDX 15 1 14 2 13 3 11 4 12 5 10 7 5 8 6 9 7 10 9 11 8 12 3 13
REMARK SMILES IDX 4 14 2 15 1 16 75 17 76 18 77 19 16 20 17 21 18 22 19 23
REMARK SMILES IDX 20 25 21 26 22 27 74 28 23 29 73 30 24 31 25 32 26 33 67 34
REMARK SMILES IDX 27 35 72 36 66 37 68 38 28 39 71 40 65 41 64 42 29 44 55 45
REMARK SMILES IDX 38 46 54 47 39 48 42 49 53 50 69 51 40 52 41 53 52 55 70 56
REMARK SMILES IDX 43 57 30 58 31 59 36 60 32 61 33 62 35 63 37 64 34 65 56 66
REMARK SMILES IDX 57 67 62 68 58 69 59 70 61 71 63 72 60 73 44 74 45 75 50 76
REMARK SMILES IDX 46 77 47 78 49 79 51 80 48 81
REMARK H PARENT 13 6 18 24 68 43 42 54
REMARK Flexibility Score: inf
ROOT
ATOM      1  C   UNL A   1      32.619  27.431  26.368  1.00  0.00     0.023 C 
ENDROOT
BRANCH   1   2
ATOM      2  C   UNL A   1      33.653  27.424  25.242  1.00  0.00     0.116 C 
BRANCH   2   3
ATOM      3  N   UNL A   1      33.289  26.565  24.135  1.00  0.00    -0.356 N 
ATOM      4  C   UNL A   1      33.378  25.225  23.974  1.00  0.00     0.223 C 
ATOM      5  O   UNL A   1      32.410  24.703  23.402  1.00  0.00    -0.275 OA
ATOM      6  H   UNL A   1      32.910  27.040  23.361  1.00  0.00     0.163 HD
BRANCH   4   7
ATOM      7  C   UNL A   1      34.583  24.344  24.328  1.00  0.00     0.091 C 
ATOM      8  C   UNL A   1      34.812  23.779  25.731  1.00  0.00     0.091 C 
ATOM      9  C   UNL A   1      36.286  23.364  25.907  1.00  0.00     0.014 C 
ATOM     10  C   UNL A   1      36.794  22.432  24.818  1.00  0.00     0.001 C 
ATOM     11  C   UNL A   1      35.122  23.518  23.155  1.00  0.00     0.014 C 
ATOM     12  C   UNL A   1      36.525  22.951  23.406  1.00  0.00     0.001 C 
BRANCH   8  13
ATOM     13  C   UNL A   1      33.908  22.794  26.487  1.00  0.00     0.226 C 
ATOM     14  O   UNL A   1      34.405  22.318  27.521  1.00  0.00    -0.275 OA
BRANCH  13  15
ATOM     15  N   UNL A   1      32.657  22.368  26.067  1.00  0.00    -0.343 N 
ATOM     16  C   UNL A   1      31.369  22.937  26.434  1.00  0.00     0.147 C 
BRANCH  15  17
ATOM     17  C   UNL A   1      32.532  21.092  25.380  1.00  0.00     0.084 C 
ATOM     18  C   UNL A   1      32.591  21.019  23.875  1.00  0.00     0.027 C 
ATOM     19  C   UNL A   1      33.660  20.370  24.695  1.00  0.00     0.027 C 
ENDBRANCH  15  17
ENDBRANCH  13  15
ENDBRANCH   8  13
ENDBRANCH   4   7
ENDBRANCH   2   3
ENDBRANCH   1   2
BRANCH   1  20
ATOM     20  C   UNL A   1      32.545  28.735  27.164  1.00  0.00     0.023 C 
BRANCH  20  21
ATOM     21  C   UNL A   1      33.726  29.683  26.993  1.00  0.00     0.116 C 
BRANCH  21  22
ATOM     22  N   UNL A   1      33.826  30.726  27.999  1.00  0.00    -0.352 N 
ATOM     23  C   UNL A   1      34.916  31.066  28.775  1.00  0.00     0.251 C 
ATOM     24  H   UNL A   1      33.010  31.258  28.148  1.00  0.00     0.163 HD
ATOM     25  O   UNL A   1      34.868  32.012  29.549  1.00  0.00    -0.269 OA
BRANCH  23  26
ATOM     26  C   UNL A   1      36.114  30.195  28.736  1.00  0.00     0.039 A 
ATOM     27  C   UNL A   1      36.937  30.264  27.609  1.00  0.00     0.014 A 
ATOM     28  C   UNL A   1      36.504  29.448  29.850  1.00  0.00     0.014 A 
ATOM     29  C   UNL A   1      38.214  29.702  27.653  1.00  0.00     0.010 A 
ATOM     30  C   UNL A   1      37.803  28.956  29.920  1.00  0.00     0.010 A 
ATOM     31  C   UNL A   1      38.683  29.112  28.837  1.00  0.00    -0.014 A 
BRANCH  31  32
ATOM     32  C   UNL A   1      40.110  28.723  28.986  1.00  0.00     0.031 A 
ATOM     33  C   UNL A   1      41.116  29.705  29.507  1.00  0.00     0.074 A 
ATOM     34  C   UNL A   1      40.512  27.508  28.561  1.00  0.00     0.049 A 
ATOM     35  N   UNL A   1      42.414  29.578  29.619  1.00  0.00    -0.248 NA
ATOM     36  C   UNL A   1      40.600  31.018  29.928  1.00  0.00     0.031 C 
ATOM     37  C   UNL A   1      39.646  26.485  27.969  1.00  0.00     0.029 A 
ATOM     38  N   UNL A   1      41.757  26.930  28.552  1.00  0.00    -0.354 N 
ATOM     39  C   UNL A   1      42.871  30.797  30.100  1.00  0.00     0.074 A 
ATOM     40  C   UNL A   1      41.719  31.666  30.218  1.00  0.00     0.031 C 
ATOM     41  C   UNL A   1      40.381  25.398  27.680  1.00  0.00     0.029 A 
ATOM     42  C   UNL A   1      41.772  25.656  28.034  1.00  0.00     0.049 A 
ATOM     43  H   UNL A   1      42.565  27.385  28.885  1.00  0.00     0.167 HD
ATOM     44  C   UNL A   1      44.134  31.155  30.434  1.00  0.00     0.037 A 
ATOM     45  C   UNL A   1      42.792  24.793  27.865  1.00  0.00     0.037 A 
ATOM     46  C   UNL A   1      45.275  30.282  30.352  1.00  0.00     0.049 A 
ATOM     47  C   UNL A   1      44.175  25.197  28.287  1.00  0.00     0.074 A 
ATOM     48  C   UNL A   1      46.585  30.536  30.719  1.00  0.00     0.029 A 
ATOM     49  N   UNL A   1      45.238  28.981  29.874  1.00  0.00    -0.354 N 
ATOM     50  N   UNL A   1      44.583  26.335  28.794  1.00  0.00    -0.248 NA
ATOM     51  C   UNL A   1      45.240  24.197  28.119  1.00  0.00     0.031 C 
ATOM     52  C   UNL A   1      47.346  29.393  30.445  1.00  0.00     0.029 A 
ATOM     53  C   UNL A   1      46.502  28.420  29.934  1.00  0.00     0.049 A 
ATOM     54  H   UNL A   1      44.431  28.524  29.541  1.00  0.00     0.167 HD
ATOM     55  C   UNL A   1      45.943  26.182  29.025  1.00  0.00     0.074 A 
ATOM     56  C   UNL A   1      46.289  24.836  28.614  1.00  0.00     0.031 C 
ATOM     57  C   UNL A   1      46.826  27.076  29.530  1.00  0.00     0.037 A 
BRANCH  44  58
ATOM     58  C   UNL A   1      44.337  32.554  30.932  1.00  0.00     0.057 A 
ATOM     59  C   UNL A   1      44.241  32.868  32.294  1.00  0.00     0.134 A 
ATOM     60  C   UNL A   1      44.640  33.595  30.046  1.00  0.00     0.134 A 
ATOM     61  F   UNL A   1      43.938  31.918  33.191  1.00  0.00    -0.206 F 
ATOM     62  C   UNL A   1      44.412  34.175  32.755  1.00  0.00     0.040 A 
ATOM     63  C   UNL A   1      44.836  34.901  30.497  1.00  0.00     0.040 A 
ATOM     64  F   UNL A   1      44.749  33.360  28.730  1.00  0.00    -0.206 F 
ATOM     65  C   UNL A   1      44.714  35.195  31.854  1.00  0.00     0.006 A 
ENDBRANCH  44  58
BRANCH  45  66
ATOM     66  C   UNL A   1      42.537  23.446  27.298  1.00  0.00     0.057 A 
ATOM     67  C   UNL A   1      42.690  23.203  25.928  1.00  0.00     0.134 A 
ATOM     68  C   UNL A   1      42.132  22.377  28.104  1.00  0.00     0.134 A 
ATOM     69  F   UNL A   1      43.058  24.195  25.104  1.00  0.00    -0.206 F 
ATOM     70  C   UNL A   1      42.435  21.947  25.376  1.00  0.00     0.040 A 
ATOM     71  C   UNL A   1      41.892  21.110  27.568  1.00  0.00     0.040 A 
ATOM     72  F   UNL A   1      41.973  22.545  29.425  1.00  0.00    -0.206 F 
ATOM     73  C   UNL A   1      42.039  20.894  26.199  1.00  0.00     0.006 A 
ENDBRANCH  45  66
BRANCH  57  74
ATOM     74  C   UNL A   1      48.243  26.620  29.691  1.00  0.00     0.057 A 
ATOM     75  C   UNL A   1      48.673  25.951  30.842  1.00  0.00     0.134 A 
ATOM     76  C   UNL A   1      49.177  26.821  28.666  1.00  0.00     0.134 A 
ATOM     77  F   UNL A   1      47.828  25.742  31.863  1.00  0.00    -0.206 F 
ATOM     78  C   UNL A   1      49.990  25.506  30.976  1.00  0.00     0.040 A 
ATOM     79  C   UNL A   1      50.490  26.365  28.780  1.00  0.00     0.040 A 
ATOM     80  F   UNL A   1      48.824  27.454  27.537  1.00  0.00    -0.206 F 
ATOM     81  C   UNL A   1      50.900  25.708  29.939  1.00  0.00     0.006 A 
ENDBRANCH  57  74
ENDBRANCH  31  32
ENDBRANCH  23  26
ENDBRANCH  21  22
ENDBRANCH  20  21
ENDBRANCH   1  20
TORSDOF 14
ENDMDL
