MODEL 1
REMARK VINA RESULT:     -11.6      0.000      0.000
REMARK SMILES CC(=O)N[C@@H](CS[C@H]1CC(=O)N(c2ccc(Cl)cc2Cl)C1=O)C(=O)NCCCCNC(=O)c1ccc(-c2c3nc(c(-c4c(F)cccc4F)c4ccc([nH]4)c(-c4c(F)cccc4F)c4nc(c(-c5c(F)cccc5F)c5ccc2[nH]5)C=C4)C=C3)cc1
REMARK SMILES IDX 26 1 25 2 23 3 24 4 5 6 4 7 1 8 2 9 3 10 6 12 7 13 8 14 9 15
REMARK SMILES IDX 21 16 10 17 12 18 22 19 11 20 13 21 14 22 19 23 15 24 18 25
REMARK SMILES IDX 20 26 16 27 17 28 27 29 28 30 29 31 30 32 31 33 32 35 33 36
REMARK SMILES IDX 34 37 86 38 35 39 85 40 36 41 37 42 38 43 79 44 39 45 84 46
REMARK SMILES IDX 78 47 80 48 40 49 83 50 77 51 76 52 41 54 67 55 50 56 66 57
REMARK SMILES IDX 51 58 54 59 65 60 81 61 52 62 53 63 64 65 82 66 55 67 42 68
REMARK SMILES IDX 43 69 48 70 44 71 45 72 47 73 49 74 46 75 68 76 69 77 74 78
REMARK SMILES IDX 70 79 71 80 73 81 75 82 72 83 56 84 57 85 62 86 58 87 59 88
REMARK SMILES IDX 61 89 63 90 60 91
REMARK H PARENT 25 5 4 11 30 34 80 53 54 64
REMARK Flexibility Score: inf
ROOT
ATOM      1  C   UNL A   1      36.244  21.745  25.389  1.00  0.00     0.116 C 
ENDROOT
BRANCH   1   2
ATOM      2  N   UNL A   1      35.152  20.812  25.132  1.00  0.00    -0.354 N 
ATOM      3  C   UNL A   1      33.878  21.017  24.685  1.00  0.00     0.243 C 
ATOM      4  O   UNL A   1      33.246  20.025  24.305  1.00  0.00    -0.273 OA
ATOM      5  H   UNL A   1      35.373  19.870  25.311  1.00  0.00     0.163 HD
BRANCH   3   6
ATOM      6  C   UNL A   1      33.235  22.401  24.528  1.00  0.00     0.181 C 
BRANCH   6   7
ATOM      7  N   UNL A   1      33.014  22.988  25.847  1.00  0.00    -0.344 N 
ATOM      8  C   UNL A   1      30.628  22.316  25.958  1.00  0.00     0.114 C 
ATOM      9  C   UNL A   1      31.896  22.800  26.620  1.00  0.00     0.217 C 
ATOM     10  O   UNL A   1      31.947  23.052  27.821  1.00  0.00    -0.275 OA
ATOM     11  H   UNL A   1      33.725  23.564  26.210  1.00  0.00     0.164 HD
ENDBRANCH   6   7
BRANCH   6  12
ATOM     12  C   UNL A   1      33.858  23.341  23.477  1.00  0.00     0.105 C 
BRANCH  12  13
ATOM     13  S   UNL A   1      32.935  23.882  21.986  1.00  0.00    -0.145 SA
BRANCH  13  14
ATOM     14  C   UNL A   1      31.927  25.324  22.520  1.00  0.00     0.146 C 
ATOM     15  C   UNL A   1      30.766  25.006  23.448  1.00  0.00     0.125 C 
ATOM     16  C   UNL A   1      32.672  26.428  23.213  1.00  0.00     0.247 C 
ATOM     17  C   UNL A   1      30.984  25.851  24.663  1.00  0.00     0.235 C 
ATOM     18  N   UNL A   1      32.078  26.641  24.433  1.00  0.00    -0.248 N 
ATOM     19  O   UNL A   1      33.642  27.013  22.749  1.00  0.00    -0.273 OA
ATOM     20  O   UNL A   1      30.236  25.842  25.625  1.00  0.00    -0.274 OA
BRANCH  18  21
ATOM     21  C   UNL A   1      32.428  27.709  25.270  1.00  0.00     0.070 A 
ATOM     22  C   UNL A   1      33.384  27.511  26.271  1.00  0.00     0.030 A 
ATOM     23  C   UNL A   1      31.846  28.976  25.096  1.00  0.00     0.066 A 
ATOM     24  C   UNL A   1      33.800  28.591  27.051  1.00  0.00     0.023 A 
ATOM     25  C   UNL A   1      32.249  30.047  25.887  1.00  0.00     0.043 A 
ATOM     26  Cl  UNL A   1      30.559  29.233  23.965  1.00  0.00    -0.082 Cl
ATOM     27  C   UNL A   1      33.237  29.854  26.849  1.00  0.00     0.042 A 
ATOM     28  Cl  UNL A   1      33.767  31.184  27.800  1.00  0.00    -0.084 Cl
ENDBRANCH  18  21
ENDBRANCH  13  14
ENDBRANCH  12  13
ENDBRANCH   6  12
ENDBRANCH   3   6
ENDBRANCH   1   2
BRANCH   1  29
ATOM     29  C   UNL A   1      37.534  21.422  24.629  1.00  0.00     0.023 C 
BRANCH  29  30
ATOM     30  C   UNL A   1      38.101  20.006  24.798  1.00  0.00     0.023 C 
BRANCH  30  31
ATOM     31  C   UNL A   1      38.927  19.721  26.054  1.00  0.00     0.116 C 
BRANCH  31  32
ATOM     32  N   UNL A   1      40.132  18.950  25.824  1.00  0.00    -0.352 N 
ATOM     33  C   UNL A   1      41.451  19.265  26.041  1.00  0.00     0.251 C 
ATOM     34  H   UNL A   1      39.979  18.052  25.449  1.00  0.00     0.163 HD
ATOM     35  O   UNL A   1      42.315  18.434  25.770  1.00  0.00    -0.269 OA
BRANCH  33  36
ATOM     36  C   UNL A   1      41.867  20.595  26.548  1.00  0.00     0.039 A 
ATOM     37  C   UNL A   1      42.163  21.582  25.603  1.00  0.00     0.014 A 
ATOM     38  C   UNL A   1      42.030  20.876  27.908  1.00  0.00     0.014 A 
ATOM     39  C   UNL A   1      42.564  22.857  26.014  1.00  0.00     0.010 A 
ATOM     40  C   UNL A   1      42.372  22.171  28.322  1.00  0.00     0.010 A 
ATOM     41  C   UNL A   1      42.644  23.176  27.380  1.00  0.00    -0.014 A 
BRANCH  41  42
ATOM     42  C   UNL A   1      43.004  24.559  27.804  1.00  0.00     0.031 A 
ATOM     43  C   UNL A   1      44.441  25.002  27.872  1.00  0.00     0.074 A 
ATOM     44  C   UNL A   1      42.029  25.430  28.136  1.00  0.00     0.049 A 
ATOM     45  N   UNL A   1      44.933  26.174  28.193  1.00  0.00    -0.248 NA
ATOM     46  C   UNL A   1      45.462  23.993  27.551  1.00  0.00     0.031 C 
ATOM     47  C   UNL A   1      40.597  25.128  28.150  1.00  0.00     0.029 A 
ATOM     48  N   UNL A   1      42.092  26.748  28.521  1.00  0.00    -0.354 N 
ATOM     49  C   UNL A   1      46.314  26.043  28.116  1.00  0.00     0.074 A 
ATOM     50  C   UNL A   1      46.584  24.664  27.769  1.00  0.00     0.031 C 
ATOM     51  C   UNL A   1      39.917  26.234  28.493  1.00  0.00     0.029 A 
ATOM     52  C   UNL A   1      40.863  27.313  28.760  1.00  0.00     0.049 A 
ATOM     53  H   UNL A   1      42.940  27.240  28.616  1.00  0.00     0.167 HD
ATOM     54  C   UNL A   1      47.269  26.988  28.294  1.00  0.00     0.037 A 
ATOM     55  C   UNL A   1      40.529  28.558  29.154  1.00  0.00     0.037 A 
ATOM     56  C   UNL A   1      47.006  28.365  28.630  1.00  0.00     0.049 A 
ATOM     57  C   UNL A   1      41.611  29.582  29.368  1.00  0.00     0.074 A 
ATOM     58  C   UNL A   1      47.909  29.404  28.783  1.00  0.00     0.029 A 
ATOM     59  N   UNL A   1      45.747  28.894  28.874  1.00  0.00    -0.354 N 
ATOM     60  N   UNL A   1      42.907  29.460  29.221  1.00  0.00    -0.248 NA
ATOM     61  C   UNL A   1      41.179  30.921  29.794  1.00  0.00     0.031 C 
ATOM     62  C   UNL A   1      47.203  30.547  29.172  1.00  0.00     0.029 A 
ATOM     63  C   UNL A   1      45.853  30.238  29.201  1.00  0.00     0.049 A 
ATOM     64  H   UNL A   1      44.902  28.391  28.821  1.00  0.00     0.167 HD
ATOM     65  C   UNL A   1      43.442  30.711  29.506  1.00  0.00     0.074 A 
ATOM     66  C   UNL A   1      42.328  31.581  29.818  1.00  0.00     0.031 C 
ATOM     67  C   UNL A   1      44.740  31.101  29.507  1.00  0.00     0.037 A 
BRANCH  54  68
ATOM     68  C   UNL A   1      48.703  26.564  28.135  1.00  0.00     0.057 A 
ATOM     69  C   UNL A   1      49.463  26.100  29.218  1.00  0.00     0.134 A 
ATOM     70  C   UNL A   1      49.319  26.578  26.877  1.00  0.00     0.134 A 
ATOM     71  F   UNL A   1      48.937  26.067  30.452  1.00  0.00    -0.206 F 
ATOM     72  C   UNL A   1      50.789  25.695  29.060  1.00  0.00     0.040 A 
ATOM     73  C   UNL A   1      50.636  26.146  26.702  1.00  0.00     0.040 A 
ATOM     74  F   UNL A   1      48.648  26.998  25.794  1.00  0.00    -0.206 F 
ATOM     75  C   UNL A   1      51.377  25.710  27.797  1.00  0.00     0.006 A 
ENDBRANCH  54  68
BRANCH  55  76
ATOM     76  C   UNL A   1      39.102  28.918  29.354  1.00  0.00     0.057 A 
ATOM     77  C   UNL A   1      38.345  29.488  28.324  1.00  0.00     0.134 A 
ATOM     78  C   UNL A   1      38.466  28.719  30.586  1.00  0.00     0.134 A 
ATOM     79  F   UNL A   1      38.904  29.724  27.128  1.00  0.00    -0.206 F 
ATOM     80  C   UNL A   1      37.015  29.868  28.517  1.00  0.00     0.040 A 
ATOM     81  C   UNL A   1      37.129  29.067  30.784  1.00  0.00     0.040 A 
ATOM     82  F   UNL A   1      39.134  28.172  31.613  1.00  0.00    -0.206 F 
ATOM     83  C   UNL A   1      36.403  29.653  29.749  1.00  0.00     0.006 A 
ENDBRANCH  55  76
BRANCH  67  84
ATOM     84  C   UNL A   1      45.027  32.543  29.816  1.00  0.00     0.057 A 
ATOM     85  C   UNL A   1      44.996  33.537  28.829  1.00  0.00     0.134 A 
ATOM     86  C   UNL A   1      45.314  32.948  31.127  1.00  0.00     0.134 A 
ATOM     87  F   UNL A   1      44.742  33.219  27.551  1.00  0.00    -0.206 F 
ATOM     88  C   UNL A   1      45.267  34.874  29.129  1.00  0.00     0.040 A 
ATOM     89  C   UNL A   1      45.557  34.285  31.444  1.00  0.00     0.040 A 
ATOM     90  F   UNL A   1      45.352  32.050  32.124  1.00  0.00    -0.206 F 
ATOM     91  C   UNL A   1      45.542  35.252  30.442  1.00  0.00     0.006 A 
ENDBRANCH  67  84
ENDBRANCH  41  42
ENDBRANCH  33  36
ENDBRANCH  31  32
ENDBRANCH  30  31
ENDBRANCH  29  30
ENDBRANCH   1  29
TORSDOF 16
ENDMDL
MODEL 2
REMARK VINA RESULT:     -11.4      0.707      6.008
REMARK SMILES CC(=O)N[C@@H](CS[C@H]1CC(=O)N(c2ccc(Cl)cc2Cl)C1=O)C(=O)NCCCCNC(=O)c1ccc(-c2c3nc(c(-c4c(F)cccc4F)c4ccc([nH]4)c(-c4c(F)cccc4F)c4nc(c(-c5c(F)cccc5F)c5ccc2[nH]5)C=C4)C=C3)cc1
REMARK SMILES IDX 26 1 25 2 23 3 24 4 5 6 4 7 1 8 2 9 3 10 6 12 7 13 8 14 9 15
REMARK SMILES IDX 21 16 10 17 12 18 22 19 11 20 13 21 14 22 19 23 15 24 18 25
REMARK SMILES IDX 20 26 16 27 17 28 27 29 28 30 29 31 30 32 31 33 32 35 33 36
REMARK SMILES IDX 34 37 86 38 35 39 85 40 36 41 37 42 38 43 79 44 39 45 84 46
REMARK SMILES IDX 78 47 80 48 40 49 83 50 77 51 76 52 41 54 67 55 50 56 66 57
REMARK SMILES IDX 51 58 54 59 65 60 81 61 52 62 53 63 64 65 82 66 55 67 42 68
REMARK SMILES IDX 43 69 48 70 44 71 45 72 47 73 49 74 46 75 68 76 69 77 74 78
REMARK SMILES IDX 70 79 71 80 73 81 75 82 72 83 56 84 57 85 62 86 58 87 59 88
REMARK SMILES IDX 61 89 63 90 60 91
REMARK H PARENT 25 5 4 11 30 34 80 53 54 64
REMARK Flexibility Score: inf
ROOT
ATOM      1  C   UNL A   1      36.268  22.036  25.307  1.00  0.00     0.116 C 
ENDROOT
BRANCH   1   2
ATOM      2  N   UNL A   1      35.170  21.110  25.055  1.00  0.00    -0.354 N 
ATOM      3  C   UNL A   1      33.889  21.324  24.632  1.00  0.00     0.243 C 
ATOM      4  O   UNL A   1      33.249  20.339  24.248  1.00  0.00    -0.273 OA
ATOM      5  H   UNL A   1      35.391  20.164  25.216  1.00  0.00     0.163 HD
BRANCH   3   6
ATOM      6  C   UNL A   1      33.246  22.712  24.506  1.00  0.00     0.181 C 
BRANCH   6   7
ATOM      7  N   UNL A   1      33.036  23.273  25.837  1.00  0.00    -0.344 N 
ATOM      8  C   UNL A   1      30.686  22.494  26.004  1.00  0.00     0.114 C 
ATOM      9  C   UNL A   1      31.949  23.027  26.637  1.00  0.00     0.217 C 
ATOM     10  O   UNL A   1      32.021  23.268  27.840  1.00  0.00    -0.275 OA
ATOM     11  H   UNL A   1      33.730  23.877  26.189  1.00  0.00     0.164 HD
ENDBRANCH   6   7
BRANCH   6  12
ATOM     12  C   UNL A   1      33.864  23.671  23.469  1.00  0.00     0.105 C 
BRANCH  12  13
ATOM     13  S   UNL A   1      32.911  24.291  22.028  1.00  0.00    -0.145 SA
BRANCH  13  14
ATOM     14  C   UNL A   1      31.926  25.711  22.658  1.00  0.00     0.146 C 
ATOM     15  C   UNL A   1      30.819  25.359  23.638  1.00  0.00     0.125 C 
ATOM     16  C   UNL A   1      32.701  26.800  23.340  1.00  0.00     0.247 C 
ATOM     17  C   UNL A   1      31.099  26.171  24.863  1.00  0.00     0.235 C 
ATOM     18  N   UNL A   1      32.174  26.975  24.597  1.00  0.00    -0.248 N 
ATOM     19  O   UNL A   1      33.642  27.404  22.841  1.00  0.00    -0.273 OA
ATOM     20  O   UNL A   1      30.404  26.130  25.864  1.00  0.00    -0.274 OA
BRANCH  18  21
ATOM     21  C   UNL A   1      32.564  28.021  25.443  1.00  0.00     0.070 A 
ATOM     22  C   UNL A   1      33.558  27.795  26.400  1.00  0.00     0.030 A 
ATOM     23  C   UNL A   1      31.982  29.294  25.323  1.00  0.00     0.066 A 
ATOM     24  C   UNL A   1      34.011  28.854  27.188  1.00  0.00     0.023 A 
ATOM     25  C   UNL A   1      32.423  30.345  26.121  1.00  0.00     0.043 A 
ATOM     26  Cl  UNL A   1      30.652  29.584  24.251  1.00  0.00    -0.082 Cl
ATOM     27  C   UNL A   1      33.448  30.124  27.038  1.00  0.00     0.042 A 
ATOM     28  Cl  UNL A   1      34.023  31.429  27.998  1.00  0.00    -0.084 Cl
ENDBRANCH  18  21
ENDBRANCH  13  14
ENDBRANCH  12  13
ENDBRANCH   6  12
ENDBRANCH   3   6
ENDBRANCH   1   2
BRANCH   1  29
ATOM     29  C   UNL A   1      37.588  21.637  24.642  1.00  0.00     0.023 C 
BRANCH  29  30
ATOM     30  C   UNL A   1      38.039  20.181  24.816  1.00  0.00     0.023 C 
BRANCH  30  31
ATOM     31  C   UNL A   1      38.833  19.833  26.077  1.00  0.00     0.116 C 
BRANCH  31  32
ATOM     32  N   UNL A   1      39.972  18.967  25.856  1.00  0.00    -0.352 N 
ATOM     33  C   UNL A   1      41.317  19.204  25.998  1.00  0.00     0.251 C 
ATOM     34  H   UNL A   1      39.744  18.058  25.554  1.00  0.00     0.163 HD
ATOM     35  O   UNL A   1      42.112  18.299  25.753  1.00  0.00    -0.269 OA
BRANCH  33  36
ATOM     36  C   UNL A   1      41.843  20.534  26.391  1.00  0.00     0.039 A 
ATOM     37  C   UNL A   1      42.147  21.436  25.365  1.00  0.00     0.014 A 
ATOM     38  C   UNL A   1      42.098  20.892  27.717  1.00  0.00     0.014 A 
ATOM     39  C   UNL A   1      42.648  22.706  25.667  1.00  0.00     0.010 A 
ATOM     40  C   UNL A   1      42.543  22.186  28.024  1.00  0.00     0.010 A 
ATOM     41  C   UNL A   1      42.824  23.108  27.002  1.00  0.00    -0.014 A 
BRANCH  41  42
ATOM     42  C   UNL A   1      43.292  24.488  27.311  1.00  0.00     0.031 A 
ATOM     43  C   UNL A   1      42.325  25.559  27.742  1.00  0.00     0.074 A 
ATOM     44  C   UNL A   1      44.603  24.788  27.202  1.00  0.00     0.049 A 
ATOM     45  N   UNL A   1      42.563  26.804  28.076  1.00  0.00    -0.248 NA
ATOM     46  C   UNL A   1      40.903  25.187  27.791  1.00  0.00     0.031 C 
ATOM     47  C   UNL A   1      45.647  23.861  26.762  1.00  0.00     0.029 A 
ATOM     48  N   UNL A   1      45.283  25.955  27.455  1.00  0.00    -0.354 N 
ATOM     49  C   UNL A   1      41.326  27.364  28.371  1.00  0.00     0.074 A 
ATOM     50  C   UNL A   1      40.334  26.337  28.126  1.00  0.00     0.031 C 
ATOM     51  C   UNL A   1      46.835  24.483  26.805  1.00  0.00     0.029 A 
ATOM     52  C   UNL A   1      46.637  25.863  27.239  1.00  0.00     0.049 A 
ATOM     53  H   UNL A   1      44.841  26.780  27.762  1.00  0.00     0.167 HD
ATOM     54  C   UNL A   1      41.041  28.608  28.825  1.00  0.00     0.037 A 
ATOM     55  C   UNL A   1      47.613  26.783  27.372  1.00  0.00     0.037 A 
ATOM     56  C   UNL A   1      42.025  29.630  29.081  1.00  0.00     0.049 A 
ATOM     57  C   UNL A   1      47.268  28.165  27.856  1.00  0.00     0.074 A 
ATOM     58  C   UNL A   1      41.833  30.905  29.588  1.00  0.00     0.029 A 
ATOM     59  N   UNL A   1      43.385  29.500  28.840  1.00  0.00    -0.354 N 
ATOM     60  N   UNL A   1      46.101  28.655  28.199  1.00  0.00    -0.248 NA
ATOM     61  C   UNL A   1      48.378  29.120  27.981  1.00  0.00     0.031 C 
ATOM     62  C   UNL A   1      43.067  31.564  29.604  1.00  0.00     0.029 A 
ATOM     63  C   UNL A   1      44.038  30.679  29.164  1.00  0.00     0.049 A 
ATOM     64  H   UNL A   1      43.822  28.689  28.491  1.00  0.00     0.167 HD
ATOM     65  C   UNL A   1      46.342  29.961  28.607  1.00  0.00     0.074 A 
ATOM     66  C   UNL A   1      47.767  30.182  28.486  1.00  0.00     0.031 C 
ATOM     67  C   UNL A   1      45.459  30.892  29.045  1.00  0.00     0.037 A 
BRANCH  54  68
ATOM     68  C   UNL A   1      39.596  28.943  29.075  1.00  0.00     0.057 A 
ATOM     69  C   UNL A   1      38.752  29.391  28.049  1.00  0.00     0.134 A 
ATOM     70  C   UNL A   1      39.030  28.774  30.345  1.00  0.00     0.134 A 
ATOM     71  F   UNL A   1      39.231  29.580  26.810  1.00  0.00    -0.206 F 
ATOM     72  C   UNL A   1      37.408  29.686  28.284  1.00  0.00     0.040 A 
ATOM     73  C   UNL A   1      37.680  29.037  30.585  1.00  0.00     0.040 A 
ATOM     74  F   UNL A   1      39.776  28.337  31.371  1.00  0.00    -0.206 F 
ATOM     75  C   UNL A   1      36.867  29.502  29.554  1.00  0.00     0.006 A 
ENDBRANCH  54  68
BRANCH  55  76
ATOM     76  C   UNL A   1      49.021  26.426  27.060  1.00  0.00     0.057 A 
ATOM     77  C   UNL A   1      49.532  26.552  25.764  1.00  0.00     0.134 A 
ATOM     78  C   UNL A   1      49.883  25.931  28.046  1.00  0.00     0.134 A 
ATOM     79  F   UNL A   1      48.749  27.000  24.770  1.00  0.00    -0.206 F 
ATOM     80  C   UNL A   1      50.841  26.180  25.453  1.00  0.00     0.040 A 
ATOM     81  C   UNL A   1      51.203  25.582  27.756  1.00  0.00     0.040 A 
ATOM     82  F   UNL A   1      49.457  25.791  29.311  1.00  0.00    -0.206 F 
ATOM     83  C   UNL A   1      51.682  25.697  26.453  1.00  0.00     0.006 A 
ENDBRANCH  55  76
BRANCH  67  84
ATOM     84  C   UNL A   1      46.012  32.224  29.466  1.00  0.00     0.057 A 
ATOM     85  C   UNL A   1      46.116  33.303  28.577  1.00  0.00     0.134 A 
ATOM     86  C   UNL A   1      46.424  32.439  30.789  1.00  0.00     0.134 A 
ATOM     87  F   UNL A   1      45.752  33.163  27.294  1.00  0.00    -0.206 F 
ATOM     88  C   UNL A   1      46.634  34.535  28.981  1.00  0.00     0.040 A 
ATOM     89  C   UNL A   1      46.915  33.676  31.211  1.00  0.00     0.040 A 
ATOM     90  F   UNL A   1      46.345  31.454  31.696  1.00  0.00    -0.206 F 
ATOM     91  C   UNL A   1      47.029  34.726  30.304  1.00  0.00     0.006 A 
ENDBRANCH  67  84
ENDBRANCH  41  42
ENDBRANCH  33  36
ENDBRANCH  31  32
ENDBRANCH  30  31
ENDBRANCH  29  30
ENDBRANCH   1  29
TORSDOF 16
ENDMDL
MODEL 3
REMARK VINA RESULT:     -11.3      4.656      8.244
REMARK SMILES CC(=O)N[C@@H](CS[C@H]1CC(=O)N(c2ccc(Cl)cc2Cl)C1=O)C(=O)NCCCCNC(=O)c1ccc(-c2c3nc(c(-c4c(F)cccc4F)c4ccc([nH]4)c(-c4c(F)cccc4F)c4nc(c(-c5c(F)cccc5F)c5ccc2[nH]5)C=C4)C=C3)cc1
REMARK SMILES IDX 26 1 25 2 23 3 24 4 5 6 4 7 1 8 2 9 3 10 6 12 7 13 8 14 9 15
REMARK SMILES IDX 21 16 10 17 12 18 22 19 11 20 13 21 14 22 19 23 15 24 18 25
REMARK SMILES IDX 20 26 16 27 17 28 27 29 28 30 29 31 30 32 31 33 32 35 33 36
REMARK SMILES IDX 34 37 86 38 35 39 85 40 36 41 37 42 38 43 79 44 39 45 84 46
REMARK SMILES IDX 78 47 80 48 40 49 83 50 77 51 76 52 41 54 67 55 50 56 66 57
REMARK SMILES IDX 51 58 54 59 65 60 81 61 52 62 53 63 64 65 82 66 55 67 42 68
REMARK SMILES IDX 43 69 48 70 44 71 45 72 47 73 49 74 46 75 68 76 69 77 74 78
REMARK SMILES IDX 70 79 71 80 73 81 75 82 72 83 56 84 57 85 62 86 58 87 59 88
REMARK SMILES IDX 61 89 63 90 60 91
REMARK H PARENT 25 5 4 11 30 34 80 53 54 64
REMARK Flexibility Score: inf
ROOT
ATOM      1  C   UNL A   1      36.588  21.900  25.570  1.00  0.00     0.116 C 
ENDROOT
BRANCH   1   2
ATOM      2  N   UNL A   1      35.621  21.848  26.660  1.00  0.00    -0.354 N 
ATOM      3  C   UNL A   1      34.289  21.543  26.671  1.00  0.00     0.243 C 
ATOM      4  O   UNL A   1      33.770  21.318  27.770  1.00  0.00    -0.273 OA
ATOM      5  H   UNL A   1      35.993  22.071  27.544  1.00  0.00     0.163 HD
BRANCH   3   6
ATOM      6  C   UNL A   1      33.440  21.360  25.407  1.00  0.00     0.181 C 
BRANCH   6   7
ATOM      7  N   UNL A   1      32.563  20.205  25.574  1.00  0.00    -0.344 N 
ATOM      8  C   UNL A   1      34.117  18.622  24.461  1.00  0.00     0.114 C 
ATOM      9  C   UNL A   1      32.917  18.901  25.334  1.00  0.00     0.217 C 
ATOM     10  O   UNL A   1      32.237  17.996  25.813  1.00  0.00    -0.275 OA
ATOM     11  H   UNL A   1      31.644  20.375  25.883  1.00  0.00     0.164 HD
ENDBRANCH   6   7
BRANCH   6  12
ATOM     12  C   UNL A   1      32.774  22.624  24.828  1.00  0.00     0.105 C 
BRANCH  12  13
ATOM     13  S   UNL A   1      32.996  23.128  23.078  1.00  0.00    -0.145 SA
BRANCH  13  14
ATOM     14  C   UNL A   1      31.985  24.649  22.866  1.00  0.00     0.146 C 
ATOM     15  C   UNL A   1      30.539  24.546  23.323  1.00  0.00     0.125 C 
ATOM     16  C   UNL A   1      32.506  25.885  23.540  1.00  0.00     0.247 C 
ATOM     17  C   UNL A   1      30.357  25.647  24.320  1.00  0.00     0.235 C 
ATOM     18  N   UNL A   1      31.519  26.369  24.365  1.00  0.00    -0.248 N 
ATOM     19  O   UNL A   1      33.625  26.353  23.371  1.00  0.00    -0.273 OA
ATOM     20  O   UNL A   1      29.305  25.855  24.900  1.00  0.00    -0.274 OA
BRANCH  18  21
ATOM     21  C   UNL A   1      31.619  27.600  25.024  1.00  0.00     0.070 A 
ATOM     22  C   UNL A   1      32.093  27.638  26.339  1.00  0.00     0.030 A 
ATOM     23  C   UNL A   1      31.269  28.794  24.370  1.00  0.00     0.066 A 
ATOM     24  C   UNL A   1      32.276  28.868  26.972  1.00  0.00     0.023 A 
ATOM     25  C   UNL A   1      31.436  30.018  25.009  1.00  0.00     0.043 A 
ATOM     26  Cl  UNL A   1      30.546  28.785  22.796  1.00  0.00    -0.082 Cl
ATOM     27  C   UNL A   1      31.955  30.051  26.301  1.00  0.00     0.042 A 
ATOM     28  Cl  UNL A   1      32.200  31.564  27.079  1.00  0.00    -0.084 Cl
ENDBRANCH  18  21
ENDBRANCH  13  14
ENDBRANCH  12  13
ENDBRANCH   6  12
ENDBRANCH   3   6
ENDBRANCH   1   2
BRANCH   1  29
ATOM     29  C   UNL A   1      37.765  22.846  25.823  1.00  0.00     0.023 C 
BRANCH  29  30
ATOM     30  C   UNL A   1      39.055  22.217  26.365  1.00  0.00     0.023 C 
BRANCH  30  31
ATOM     31  C   UNL A   1      40.109  23.159  26.951  1.00  0.00     0.116 C 
BRANCH  31  32
ATOM     32  N   UNL A   1      40.849  23.925  25.970  1.00  0.00    -0.352 N 
ATOM     33  C   UNL A   1      41.351  25.202  26.025  1.00  0.00     0.251 C 
ATOM     34  H   UNL A   1      41.019  23.452  25.123  1.00  0.00     0.163 HD
ATOM     35  O   UNL A   1      41.959  25.646  25.054  1.00  0.00    -0.269 OA
BRANCH  33  36
ATOM     36  C   UNL A   1      41.139  26.079  27.202  1.00  0.00     0.039 A 
ATOM     37  C   UNL A   1      42.044  27.127  27.398  1.00  0.00     0.014 A 
ATOM     38  C   UNL A   1      40.123  25.866  28.138  1.00  0.00     0.014 A 
ATOM     39  C   UNL A   1      41.902  27.989  28.489  1.00  0.00     0.010 A 
ATOM     40  C   UNL A   1      39.944  26.766  29.198  1.00  0.00     0.010 A 
ATOM     41  C   UNL A   1      40.832  27.838  29.386  1.00  0.00    -0.014 A 
BRANCH  41  42
ATOM     42  C   UNL A   1      40.652  28.806  30.505  1.00  0.00     0.031 A 
ATOM     43  C   UNL A   1      39.590  29.872  30.447  1.00  0.00     0.074 A 
ATOM     44  C   UNL A   1      41.453  28.732  31.587  1.00  0.00     0.049 A 
ATOM     45  N   UNL A   1      39.277  30.778  31.341  1.00  0.00    -0.248 NA
ATOM     46  C   UNL A   1      38.783  29.938  29.220  1.00  0.00     0.031 C 
ATOM     47  C   UNL A   1      42.546  27.773  31.763  1.00  0.00     0.029 A 
ATOM     48  N   UNL A   1      41.472  29.471  32.746  1.00  0.00    -0.354 N 
ATOM     49  C   UNL A   1      38.243  31.522  30.785  1.00  0.00     0.074 A 
ATOM     50  C   UNL A   1      38.017  30.994  29.456  1.00  0.00     0.031 C 
ATOM     51  C   UNL A   1      43.107  27.962  32.968  1.00  0.00     0.029 A 
ATOM     52  C   UNL A   1      42.442  29.076  33.636  1.00  0.00     0.049 A 
ATOM     53  H   UNL A   1      40.849  30.213  32.921  1.00  0.00     0.167 HD
ATOM     54  C   UNL A   1      37.531  32.535  31.337  1.00  0.00     0.037 A 
ATOM     55  C   UNL A   1      42.764  29.556  34.854  1.00  0.00     0.037 A 
ATOM     56  C   UNL A   1      37.745  33.057  32.663  1.00  0.00     0.049 A 
ATOM     57  C   UNL A   1      41.973  30.697  35.434  1.00  0.00     0.074 A 
ATOM     58  C   UNL A   1      37.040  34.050  33.323  1.00  0.00     0.029 A 
ATOM     59  N   UNL A   1      38.743  32.637  33.529  1.00  0.00    -0.354 N 
ATOM     60  N   UNL A   1      40.952  31.341  34.923  1.00  0.00    -0.248 NA
ATOM     61  C   UNL A   1      42.376  31.171  36.766  1.00  0.00     0.031 C 
ATOM     62  C   UNL A   1      37.644  34.268  34.566  1.00  0.00     0.029 A 
ATOM     63  C   UNL A   1      38.688  33.368  34.706  1.00  0.00     0.049 A 
ATOM     64  H   UNL A   1      39.395  31.924  33.337  1.00  0.00     0.167 HD
ATOM     65  C   UNL A   1      40.572  32.272  35.882  1.00  0.00     0.074 A 
ATOM     66  C   UNL A   1      41.461  32.099  37.010  1.00  0.00     0.031 C 
ATOM     67  C   UNL A   1      39.574  33.188  35.829  1.00  0.00     0.037 A 
BRANCH  54  68
ATOM     68  C   UNL A   1      36.446  33.157  30.501  1.00  0.00     0.057 A 
ATOM     69  C   UNL A   1      36.735  34.049  29.459  1.00  0.00     0.134 A 
ATOM     70  C   UNL A   1      35.101  32.827  30.711  1.00  0.00     0.134 A 
ATOM     71  F   UNL A   1      38.001  34.413  29.207  1.00  0.00    -0.206 F 
ATOM     72  C   UNL A   1      35.724  34.612  28.677  1.00  0.00     0.040 A 
ATOM     73  C   UNL A   1      34.085  33.360  29.916  1.00  0.00     0.040 A 
ATOM     74  F   UNL A   1      34.753  31.970  31.682  1.00  0.00    -0.206 F 
ATOM     75  C   UNL A   1      34.394  34.262  28.900  1.00  0.00     0.006 A 
ENDBRANCH  54  68
BRANCH  55  76
ATOM     76  C   UNL A   1      43.881  28.948  35.622  1.00  0.00     0.057 A 
ATOM     77  C   UNL A   1      45.202  29.375  35.445  1.00  0.00     0.134 A 
ATOM     78  C   UNL A   1      43.657  27.912  36.537  1.00  0.00     0.134 A 
ATOM     79  F   UNL A   1      45.484  30.349  34.566  1.00  0.00    -0.206 F 
ATOM     80  C   UNL A   1      46.262  28.781  36.131  1.00  0.00     0.040 A 
ATOM     81  C   UNL A   1      44.704  27.328  37.253  1.00  0.00     0.040 A 
ATOM     82  F   UNL A   1      42.413  27.460  36.758  1.00  0.00    -0.206 F 
ATOM     83  C   UNL A   1      46.013  27.757  37.042  1.00  0.00     0.006 A 
ENDBRANCH  55  76
BRANCH  67  84
ATOM     84  C   UNL A   1      39.361  34.048  37.043  1.00  0.00     0.057 A 
ATOM     85  C   UNL A   1      38.700  33.575  38.184  1.00  0.00     0.134 A 
ATOM     86  C   UNL A   1      39.848  35.361  37.080  1.00  0.00     0.134 A 
ATOM     87  F   UNL A   1      38.196  32.332  38.212  1.00  0.00    -0.206 F 
ATOM     88  C   UNL A   1      38.506  34.385  39.305  1.00  0.00     0.040 A 
ATOM     89  C   UNL A   1      39.687  36.170  38.207  1.00  0.00     0.040 A 
ATOM     90  F   UNL A   1      40.499  35.877  36.026  1.00  0.00    -0.206 F 
ATOM     91  C   UNL A   1      39.008  35.686  39.320  1.00  0.00     0.006 A 
ENDBRANCH  67  84
ENDBRANCH  41  42
ENDBRANCH  33  36
ENDBRANCH  31  32
ENDBRANCH  30  31
ENDBRANCH  29  30
ENDBRANCH   1  29
TORSDOF 16
ENDMDL
