MODEL 1
REMARK VINA RESULT:     -11.2      0.000      0.000
REMARK SMILES CCC(CC)(NC(=O)N[C@H]1CCCNC1=O)C(=O)NCCCCNC(=O)c1ccc(-c2c3nc(c(-c4c(F)cccc4F)c4ccc([nH]4)c(-c4c(F)cccc4F)c4nc(c(-c5c(F)cccc5F)c5ccc2[nH]5)C=C4)C=C3)cc1
REMARK SMILES IDX 21 1 20 2 19 3 17 4 18 5 3 7 2 8 1 9 4 10 5 11 6 12 7 13
REMARK SMILES IDX 8 15 9 16 10 18 11 19 15 20 12 21 14 22 16 23 13 24 22 26
REMARK SMILES IDX 23 27 24 28 25 29 26 31 27 32 28 33 80 34 29 35 79 36 30 37
REMARK SMILES IDX 31 38 32 39 73 40 33 41 78 42 72 43 74 44 34 45 77 46 71 47
REMARK SMILES IDX 70 48 35 50 61 51 44 52 60 53 45 54 48 55 59 56 75 57 46 58
REMARK SMILES IDX 47 59 58 61 76 62 49 63 36 64 37 65 42 66 38 67 39 68 41 69
REMARK SMILES IDX 43 70 40 71 62 72 63 73 68 74 64 75 65 76 67 77 69 78 66 79
REMARK SMILES IDX 50 80 51 81 56 82 52 83 53 84 55 85 57 86 54 87
REMARK H PARENT 19 6 6 14 9 17 14 25 24 30 74 49 48 60
REMARK Flexibility Score: inf
ROOT
ATOM      1  C   UNL A   1      36.995  21.035  24.582  1.00  0.00     0.023 C 
ENDROOT
BRANCH   1   2
ATOM      2  C   UNL A   1      36.067  21.620  25.648  1.00  0.00     0.116 C 
BRANCH   2   3
ATOM      3  N   UNL A   1      34.967  20.792  26.126  1.00  0.00    -0.354 N 
ATOM      4  C   UNL A   1      33.628  20.792  25.805  1.00  0.00     0.245 C 
ATOM      5  O   UNL A   1      33.008  19.731  25.930  1.00  0.00    -0.272 OA
ATOM      6  H   UNL A   1      35.225  20.116  26.794  1.00  0.00     0.163 HD
BRANCH   4   7
ATOM      7  C   UNL A   1      32.980  22.004  25.101  1.00  0.00     0.120 C 
BRANCH   7   8
ATOM      8  C   UNL A   1      31.457  22.201  25.354  1.00  0.00     0.035 C 
ATOM      9  C   UNL A   1      31.005  22.860  26.646  1.00  0.00     0.007 C 
ENDBRANCH   7   8
BRANCH   7  10
ATOM     10  C   UNL A   1      33.248  21.686  23.586  1.00  0.00     0.035 C 
ATOM     11  C   UNL A   1      32.074  21.651  22.625  1.00  0.00     0.007 C 
ENDBRANCH   7  10
BRANCH   7  12
ATOM     12  N   UNL A   1      33.621  23.253  25.588  1.00  0.00    -0.324 N 
ATOM     13  C   UNL A   1      33.786  24.418  24.880  1.00  0.00     0.316 C 
ATOM     14  H   UNL A   1      33.960  23.245  26.512  1.00  0.00     0.166 HD
ATOM     15  O   UNL A   1      34.843  25.035  25.028  1.00  0.00    -0.249 OA
ATOM     16  N   UNL A   1      32.688  25.107  24.488  1.00  0.00    -0.326 N 
ATOM     17  H   UNL A   1      32.221  25.531  25.244  1.00  0.00     0.166 HD
BRANCH  16  18
ATOM     18  C   UNL A   1      32.017  25.375  23.189  1.00  0.00     0.173 C 
ATOM     19  C   UNL A   1      30.498  25.473  23.232  1.00  0.00     0.037 C 
ATOM     20  C   UNL A   1      32.619  26.406  22.225  1.00  0.00     0.242 C 
ATOM     21  C   UNL A   1      30.043  26.897  23.501  1.00  0.00     0.024 C 
ATOM     22  N   UNL A   1      31.991  27.618  22.138  1.00  0.00    -0.354 N 
ATOM     23  O   UNL A   1      33.653  26.181  21.592  1.00  0.00    -0.273 OA
ATOM     24  C   UNL A   1      30.600  27.846  22.448  1.00  0.00     0.116 C 
ATOM     25  H   UNL A   1      32.526  28.390  21.842  1.00  0.00     0.163 HD
ENDBRANCH  16  18
ENDBRANCH   7  12
ENDBRANCH   4   7
ENDBRANCH   2   3
ENDBRANCH   1   2
BRANCH   1  26
ATOM     26  C   UNL A   1      37.853  19.849  25.000  1.00  0.00     0.023 C 
BRANCH  26  27
ATOM     27  C   UNL A   1      38.980  20.188  25.957  1.00  0.00     0.116 C 
BRANCH  27  28
ATOM     28  N   UNL A   1      40.027  19.178  25.954  1.00  0.00    -0.352 N 
ATOM     29  C   UNL A   1      41.382  19.323  26.063  1.00  0.00     0.251 C 
ATOM     30  H   UNL A   1      39.712  18.249  25.861  1.00  0.00     0.163 HD
ATOM     31  O   UNL A   1      42.120  18.356  25.854  1.00  0.00    -0.269 OA
BRANCH  29  32
ATOM     32  C   UNL A   1      41.968  20.633  26.407  1.00  0.00     0.039 A 
ATOM     33  C   UNL A   1      42.273  21.525  25.376  1.00  0.00     0.014 A 
ATOM     34  C   UNL A   1      42.228  20.981  27.735  1.00  0.00     0.014 A 
ATOM     35  C   UNL A   1      42.788  22.784  25.681  1.00  0.00     0.010 A 
ATOM     36  C   UNL A   1      42.653  22.269  28.044  1.00  0.00     0.010 A 
ATOM     37  C   UNL A   1      42.951  23.179  27.020  1.00  0.00    -0.014 A 
BRANCH  37  38
ATOM     38  C   UNL A   1      43.448  24.532  27.368  1.00  0.00     0.031 A 
ATOM     39  C   UNL A   1      42.482  25.598  27.806  1.00  0.00     0.074 A 
ATOM     40  C   UNL A   1      44.757  24.816  27.234  1.00  0.00     0.049 A 
ATOM     41  N   UNL A   1      42.711  26.855  28.089  1.00  0.00    -0.248 NA
ATOM     42  C   UNL A   1      41.067  25.207  27.914  1.00  0.00     0.031 C 
ATOM     43  C   UNL A   1      45.785  23.880  26.774  1.00  0.00     0.029 A 
ATOM     44  N   UNL A   1      45.447  25.980  27.464  1.00  0.00    -0.354 N 
ATOM     45  C   UNL A   1      41.472  27.404  28.396  1.00  0.00     0.074 A 
ATOM     46  C   UNL A   1      40.488  26.362  28.205  1.00  0.00     0.031 C 
ATOM     47  C   UNL A   1      46.976  24.500  26.775  1.00  0.00     0.029 A 
ATOM     48  C   UNL A   1      46.791  25.885  27.196  1.00  0.00     0.049 A 
ATOM     49  H   UNL A   1      45.019  26.805  27.789  1.00  0.00     0.167 HD
ATOM     50  C   UNL A   1      41.183  28.656  28.822  1.00  0.00     0.037 A 
ATOM     51  C   UNL A   1      47.762  26.814  27.271  1.00  0.00     0.037 A 
ATOM     52  C   UNL A   1      42.168  29.686  29.025  1.00  0.00     0.049 A 
ATOM     53  C   UNL A   1      47.415  28.201  27.733  1.00  0.00     0.074 A 
ATOM     54  C   UNL A   1      41.986  30.972  29.501  1.00  0.00     0.029 A 
ATOM     55  N   UNL A   1      43.522  29.547  28.757  1.00  0.00    -0.354 N 
ATOM     56  N   UNL A   1      46.250  28.689  28.083  1.00  0.00    -0.248 NA
ATOM     57  C   UNL A   1      48.520  29.167  27.818  1.00  0.00     0.031 C 
ATOM     58  C   UNL A   1      43.221  31.627  29.476  1.00  0.00     0.029 A 
ATOM     59  C   UNL A   1      44.184  30.732  29.038  1.00  0.00     0.049 A 
ATOM     60  H   UNL A   1      43.950  28.727  28.418  1.00  0.00     0.167 HD
ATOM     61  C   UNL A   1      46.484  30.007  28.456  1.00  0.00     0.074 A 
ATOM     62  C   UNL A   1      47.906  30.236  28.304  1.00  0.00     0.031 C 
ATOM     63  C   UNL A   1      45.601  30.942  28.885  1.00  0.00     0.037 A 
BRANCH  50  64
ATOM     64  C   UNL A   1      39.743  28.977  29.100  1.00  0.00     0.057 A 
ATOM     65  C   UNL A   1      38.872  29.408  28.089  1.00  0.00     0.134 A 
ATOM     66  C   UNL A   1      39.210  28.829  30.387  1.00  0.00     0.134 A 
ATOM     67  F   UNL A   1      39.320  29.583  26.836  1.00  0.00    -0.206 F 
ATOM     68  C   UNL A   1      37.536  29.709  28.353  1.00  0.00     0.040 A 
ATOM     69  C   UNL A   1      37.867  29.097  30.657  1.00  0.00     0.040 A 
ATOM     70  F   UNL A   1      39.983  28.413  31.401  1.00  0.00    -0.206 F 
ATOM     71  C   UNL A   1      37.028  29.546  29.639  1.00  0.00     0.006 A 
ENDBRANCH  50  64
BRANCH  51  72
ATOM     72  C   UNL A   1      49.159  26.456  26.916  1.00  0.00     0.057 A 
ATOM     73  C   UNL A   1      50.026  25.898  27.862  1.00  0.00     0.134 A 
ATOM     74  C   UNL A   1      49.662  26.666  25.625  1.00  0.00     0.134 A 
ATOM     75  F   UNL A   1      49.609  25.688  29.119  1.00  0.00    -0.206 F 
ATOM     76  C   UNL A   1      51.348  25.579  27.545  1.00  0.00     0.040 A 
ATOM     77  C   UNL A   1      50.973  26.328  25.287  1.00  0.00     0.040 A 
ATOM     78  F   UNL A   1      48.879  27.190  24.670  1.00  0.00    -0.206 F 
ATOM     79  C   UNL A   1      51.823  25.790  26.252  1.00  0.00     0.006 A 
ENDBRANCH  51  72
BRANCH  63  80
ATOM     80  C   UNL A   1      46.154  32.288  29.256  1.00  0.00     0.057 A 
ATOM     81  C   UNL A   1      46.227  33.339  28.334  1.00  0.00     0.134 A 
ATOM     82  C   UNL A   1      46.580  32.545  30.566  1.00  0.00     0.134 A 
ATOM     83  F   UNL A   1      45.847  33.154  27.060  1.00  0.00    -0.206 F 
ATOM     84  C   UNL A   1      46.728  34.591  28.695  1.00  0.00     0.040 A 
ATOM     85  C   UNL A   1      47.055  33.801  30.946  1.00  0.00     0.040 A 
ATOM     86  F   UNL A   1      46.526  31.585  31.501  1.00  0.00    -0.206 F 
ATOM     87  C   UNL A   1      47.138  34.826  30.006  1.00  0.00     0.006 A 
ENDBRANCH  63  80
ENDBRANCH  37  38
ENDBRANCH  29  32
ENDBRANCH  27  28
ENDBRANCH  26  27
ENDBRANCH   1  26
TORSDOF 15
ENDMDL
MODEL 2
REMARK VINA RESULT:     -11.2      1.476      2.243
REMARK SMILES CCC(CC)(NC(=O)N[C@H]1CCCNC1=O)C(=O)NCCCCNC(=O)c1ccc(-c2c3nc(c(-c4c(F)cccc4F)c4ccc([nH]4)c(-c4c(F)cccc4F)c4nc(c(-c5c(F)cccc5F)c5ccc2[nH]5)C=C4)C=C3)cc1
REMARK SMILES IDX 21 1 20 2 19 3 17 4 18 5 3 7 2 8 1 9 4 10 5 11 6 12 7 13
REMARK SMILES IDX 8 15 9 16 10 18 11 19 15 20 12 21 14 22 16 23 13 24 22 26
REMARK SMILES IDX 23 27 24 28 25 29 26 31 27 32 28 33 80 34 29 35 79 36 30 37
REMARK SMILES IDX 31 38 32 39 73 40 33 41 78 42 72 43 74 44 34 45 77 46 71 47
REMARK SMILES IDX 70 48 35 50 61 51 44 52 60 53 45 54 48 55 59 56 75 57 46 58
REMARK SMILES IDX 47 59 58 61 76 62 49 63 36 64 37 65 42 66 38 67 39 68 41 69
REMARK SMILES IDX 43 70 40 71 62 72 63 73 68 74 64 75 65 76 67 77 69 78 66 79
REMARK SMILES IDX 50 80 51 81 56 82 52 83 53 84 55 85 57 86 54 87
REMARK H PARENT 19 6 6 14 9 17 14 25 24 30 74 49 48 60
REMARK Flexibility Score: inf
ROOT
ATOM      1  C   UNL A   1      36.578  19.505  24.997  1.00  0.00     0.023 C 
ENDROOT
BRANCH   1   2
ATOM      2  C   UNL A   1      35.450  20.538  25.005  1.00  0.00     0.116 C 
BRANCH   2   3
ATOM      3  N   UNL A   1      34.105  20.080  25.326  1.00  0.00    -0.354 N 
ATOM      4  C   UNL A   1      32.903  20.752  25.358  1.00  0.00     0.245 C 
ATOM      5  O   UNL A   1      31.874  20.096  25.161  1.00  0.00    -0.272 OA
ATOM      6  H   UNL A   1      34.044  19.126  25.563  1.00  0.00     0.163 HD
BRANCH   4   7
ATOM      7  C   UNL A   1      32.857  22.294  25.411  1.00  0.00     0.120 C 
BRANCH   7   8
ATOM      8  C   UNL A   1      33.253  23.029  24.096  1.00  0.00     0.035 C 
ATOM      9  C   UNL A   1      32.888  22.399  22.763  1.00  0.00     0.007 C 
ENDBRANCH   7   8
BRANCH   7  10
ATOM     10  C   UNL A   1      33.889  22.615  26.550  1.00  0.00     0.035 C 
ATOM     11  C   UNL A   1      33.561  22.207  27.975  1.00  0.00     0.007 C 
ENDBRANCH   7  10
BRANCH   7  12
ATOM     12  N   UNL A   1      31.467  22.734  25.699  1.00  0.00    -0.324 N 
ATOM     13  C   UNL A   1      31.092  23.831  26.434  1.00  0.00     0.316 C 
ATOM     14  H   UNL A   1      30.743  22.183  25.324  1.00  0.00     0.166 HD
ATOM     15  O   UNL A   1      30.118  23.717  27.179  1.00  0.00    -0.249 OA
ATOM     16  N   UNL A   1      31.412  25.066  25.976  1.00  0.00    -0.326 N 
ATOM     17  H   UNL A   1      30.894  25.316  25.177  1.00  0.00     0.166 HD
BRANCH  16  18
ATOM     18  C   UNL A   1      32.359  26.132  26.392  1.00  0.00     0.173 C 
ATOM     19  C   UNL A   1      33.646  26.232  25.582  1.00  0.00     0.037 C 
ATOM     20  C   UNL A   1      31.821  27.521  26.761  1.00  0.00     0.242 C 
ATOM     21  C   UNL A   1      33.479  27.159  24.391  1.00  0.00     0.024 C 
ATOM     22  N   UNL A   1      32.000  28.523  25.847  1.00  0.00    -0.354 N 
ATOM     23  O   UNL A   1      31.206  27.723  27.811  1.00  0.00    -0.273 OA
ATOM     24  C   UNL A   1      33.039  28.543  24.845  1.00  0.00     0.116 C 
ATOM     25  H   UNL A   1      31.375  29.284  25.875  1.00  0.00     0.163 HD
ENDBRANCH  16  18
ENDBRANCH   7  12
ENDBRANCH   4   7
ENDBRANCH   2   3
ENDBRANCH   1   2
BRANCH   1  26
ATOM     26  C   UNL A   1      37.976  20.021  24.685  1.00  0.00     0.023 C 
BRANCH  26  27
ATOM     27  C   UNL A   1      38.883  20.162  25.893  1.00  0.00     0.116 C 
BRANCH  27  28
ATOM     28  N   UNL A   1      39.937  19.159  25.909  1.00  0.00    -0.352 N 
ATOM     29  C   UNL A   1      41.286  19.312  26.066  1.00  0.00     0.251 C 
ATOM     30  H   UNL A   1      39.632  18.230  25.790  1.00  0.00     0.163 HD
ATOM     31  O   UNL A   1      42.039  18.355  25.866  1.00  0.00    -0.269 OA
BRANCH  29  32
ATOM     32  C   UNL A   1      41.850  20.621  26.451  1.00  0.00     0.039 A 
ATOM     33  C   UNL A   1      42.161  21.541  25.447  1.00  0.00     0.014 A 
ATOM     34  C   UNL A   1      42.083  20.940  27.791  1.00  0.00     0.014 A 
ATOM     35  C   UNL A   1      42.655  22.799  25.791  1.00  0.00     0.010 A 
ATOM     36  C   UNL A   1      42.487  22.225  28.138  1.00  0.00     0.010 A 
ATOM     37  C   UNL A   1      42.791  23.163  27.141  1.00  0.00    -0.014 A 
BRANCH  37  38
ATOM     38  C   UNL A   1      43.265  24.513  27.530  1.00  0.00     0.031 A 
ATOM     39  C   UNL A   1      42.277  25.564  27.956  1.00  0.00     0.074 A 
ATOM     40  C   UNL A   1      44.576  24.810  27.445  1.00  0.00     0.049 A 
ATOM     41  N   UNL A   1      42.486  26.817  28.268  1.00  0.00    -0.248 NA
ATOM     42  C   UNL A   1      40.862  25.160  28.010  1.00  0.00     0.031 C 
ATOM     43  C   UNL A   1      45.625  23.891  27.001  1.00  0.00     0.029 A 
ATOM     44  N   UNL A   1      45.248  25.975  27.718  1.00  0.00    -0.354 N 
ATOM     45  C   UNL A   1      41.232  27.351  28.544  1.00  0.00     0.074 A 
ATOM     46  C   UNL A   1      40.264  26.305  28.303  1.00  0.00     0.031 C 
ATOM     47  C   UNL A   1      46.810  24.519  27.052  1.00  0.00     0.029 A 
ATOM     48  C   UNL A   1      46.601  25.895  27.492  1.00  0.00     0.049 A 
ATOM     49  H   UNL A   1      44.803  26.790  28.044  1.00  0.00     0.167 HD
ATOM     50  C   UNL A   1      40.920  28.593  28.984  1.00  0.00     0.037 A 
ATOM     51  C   UNL A   1      47.561  26.829  27.616  1.00  0.00     0.037 A 
ATOM     52  C   UNL A   1      41.890  29.626  29.237  1.00  0.00     0.049 A 
ATOM     53  C   UNL A   1      47.187  28.206  28.091  1.00  0.00     0.074 A 
ATOM     54  C   UNL A   1      41.681  30.902  29.731  1.00  0.00     0.029 A 
ATOM     55  N   UNL A   1      43.253  29.502  29.012  1.00  0.00    -0.354 N 
ATOM     56  N   UNL A   1      46.008  28.678  28.412  1.00  0.00    -0.248 NA
ATOM     57  C   UNL A   1      48.281  29.178  28.230  1.00  0.00     0.031 C 
ATOM     58  C   UNL A   1      42.911  31.566  29.758  1.00  0.00     0.029 A 
ATOM     59  C   UNL A   1      43.895  30.687  29.336  1.00  0.00     0.049 A 
ATOM     60  H   UNL A   1      43.698  28.692  28.672  1.00  0.00     0.167 HD
ATOM     61  C   UNL A   1      46.218  29.990  28.816  1.00  0.00     0.074 A 
ATOM     62  C   UNL A   1      47.643  30.233  28.715  1.00  0.00     0.031 C 
ATOM     63  C   UNL A   1      45.315  30.910  29.233  1.00  0.00     0.037 A 
BRANCH  50  64
ATOM     64  C   UNL A   1      39.469  28.898  29.220  1.00  0.00     0.057 A 
ATOM     65  C   UNL A   1      38.633  29.359  28.194  1.00  0.00     0.134 A 
ATOM     66  C   UNL A   1      38.891  28.702  30.481  1.00  0.00     0.134 A 
ATOM     67  F   UNL A   1      39.124  29.580  26.965  1.00  0.00    -0.206 F 
ATOM     68  C   UNL A   1      37.286  29.645  28.419  1.00  0.00     0.040 A 
ATOM     69  C   UNL A   1      37.537  28.955  30.712  1.00  0.00     0.040 A 
ATOM     70  F   UNL A   1      39.629  28.255  31.508  1.00  0.00    -0.206 F 
ATOM     71  C   UNL A   1      36.733  29.435  29.680  1.00  0.00     0.006 A 
ENDBRANCH  50  64
BRANCH  51  72
ATOM     72  C   UNL A   1      48.972  26.490  27.300  1.00  0.00     0.057 A 
ATOM     73  C   UNL A   1      49.502  26.714  26.025  1.00  0.00     0.134 A 
ATOM     74  C   UNL A   1      49.822  25.931  28.263  1.00  0.00     0.134 A 
ATOM     75  F   UNL A   1      48.734  27.231  25.055  1.00  0.00    -0.206 F 
ATOM     76  C   UNL A   1      50.820  26.378  25.711  1.00  0.00     0.040 A 
ATOM     77  C   UNL A   1      51.149  25.614  27.971  1.00  0.00     0.040 A 
ATOM     78  F   UNL A   1      49.377  25.699  29.507  1.00  0.00    -0.206 F 
ATOM     79  C   UNL A   1      51.650  25.830  26.688  1.00  0.00     0.006 A 
ENDBRANCH  51  72
BRANCH  63  80
ATOM     80  C   UNL A   1      45.844  32.254  29.647  1.00  0.00     0.057 A 
ATOM     81  C   UNL A   1      46.238  32.521  30.963  1.00  0.00     0.134 A 
ATOM     82  C   UNL A   1      45.997  33.278  28.703  1.00  0.00     0.134 A 
ATOM     83  F   UNL A   1      46.105  31.587  31.917  1.00  0.00    -0.206 F 
ATOM     84  C   UNL A   1      46.744  33.770  31.332  1.00  0.00     0.040 A 
ATOM     85  C   UNL A   1      46.529  34.520  29.054  1.00  0.00     0.040 A 
ATOM     86  F   UNL A   1      45.648  33.084  27.423  1.00  0.00    -0.206 F 
ATOM     87  C   UNL A   1      46.896  34.771  30.375  1.00  0.00     0.006 A 
ENDBRANCH  63  80
ENDBRANCH  37  38
ENDBRANCH  29  32
ENDBRANCH  27  28
ENDBRANCH  26  27
ENDBRANCH   1  26
TORSDOF 15
ENDMDL
MODEL 3
REMARK VINA RESULT:     -11.1      4.952     10.227
REMARK SMILES CCC(CC)(NC(=O)N[C@H]1CCCNC1=O)C(=O)NCCCCNC(=O)c1ccc(-c2c3nc(c(-c4c(F)cccc4F)c4ccc([nH]4)c(-c4c(F)cccc4F)c4nc(c(-c5c(F)cccc5F)c5ccc2[nH]5)C=C4)C=C3)cc1
REMARK SMILES IDX 21 1 20 2 19 3 17 4 18 5 3 7 2 8 1 9 4 10 5 11 6 12 7 13
REMARK SMILES IDX 8 15 9 16 10 18 11 19 15 20 12 21 14 22 16 23 13 24 22 26
REMARK SMILES IDX 23 27 24 28 25 29 26 31 27 32 28 33 80 34 29 35 79 36 30 37
REMARK SMILES IDX 31 38 32 39 73 40 33 41 78 42 72 43 74 44 34 45 77 46 71 47
REMARK SMILES IDX 70 48 35 50 61 51 44 52 60 53 45 54 48 55 59 56 75 57 46 58
REMARK SMILES IDX 47 59 58 61 76 62 49 63 36 64 37 65 42 66 38 67 39 68 41 69
REMARK SMILES IDX 43 70 40 71 62 72 63 73 68 74 64 75 65 76 67 77 69 78 66 79
REMARK SMILES IDX 50 80 51 81 56 82 52 83 53 84 55 85 57 86 54 87
REMARK H PARENT 19 6 6 14 9 17 14 25 24 30 74 49 48 60
REMARK Flexibility Score: inf
ROOT
ATOM      1  C   UNL A   1      30.921  31.386  25.473  1.00  0.00     0.023 C 
ENDROOT
BRANCH   1   2
ATOM      2  C   UNL A   1      31.152  29.966  24.956  1.00  0.00     0.116 C 
BRANCH   2   3
ATOM      3  N   UNL A   1      30.890  29.699  23.547  1.00  0.00    -0.354 N 
ATOM      4  C   UNL A   1      31.007  28.544  22.807  1.00  0.00     0.245 C 
ATOM      5  O   UNL A   1      30.281  28.423  21.815  1.00  0.00    -0.272 OA
ATOM      6  H   UNL A   1      30.575  30.480  23.036  1.00  0.00     0.163 HD
BRANCH   4   7
ATOM      7  C   UNL A   1      31.843  27.352  23.323  1.00  0.00     0.120 C 
BRANCH   7   8
ATOM      8  C   UNL A   1      31.301  26.647  24.600  1.00  0.00     0.035 C 
ATOM      9  C   UNL A   1      29.901  26.057  24.577  1.00  0.00     0.007 C 
ENDBRANCH   7   8
BRANCH   7  10
ATOM     10  C   UNL A   1      33.230  28.028  23.616  1.00  0.00     0.035 C 
ATOM     11  C   UNL A   1      34.038  28.580  22.456  1.00  0.00     0.007 C 
ENDBRANCH   7  10
BRANCH   7  12
ATOM     12  N   UNL A   1      31.883  26.295  22.280  1.00  0.00    -0.324 N 
ATOM     13  C   UNL A   1      32.938  25.462  21.999  1.00  0.00     0.316 C 
ATOM     14  H   UNL A   1      31.070  26.178  21.738  1.00  0.00     0.166 HD
ATOM     15  O   UNL A   1      33.163  25.200  20.817  1.00  0.00    -0.249 OA
ATOM     16  N   UNL A   1      33.345  24.579  22.943  1.00  0.00    -0.326 N 
ATOM     17  H   UNL A   1      32.696  23.852  23.082  1.00  0.00     0.166 HD
BRANCH  16  18
ATOM     18  C   UNL A   1      34.536  24.448  23.821  1.00  0.00     0.173 C 
ATOM     19  C   UNL A   1      34.343  24.869  25.272  1.00  0.00     0.037 C 
ATOM     20  C   UNL A   1      35.422  23.199  23.713  1.00  0.00     0.242 C 
ATOM     21  C   UNL A   1      33.868  23.707  26.127  1.00  0.00     0.024 C 
ATOM     22  N   UNL A   1      35.308  22.265  24.705  1.00  0.00    -0.354 N 
ATOM     23  O   UNL A   1      36.169  23.012  22.749  1.00  0.00    -0.273 OA
ATOM     24  C   UNL A   1      34.847  22.544  26.044  1.00  0.00     0.116 C 
ATOM     25  H   UNL A   1      35.557  21.337  24.491  1.00  0.00     0.163 HD
ENDBRANCH  16  18
ENDBRANCH   7  12
ENDBRANCH   4   7
ENDBRANCH   2   3
ENDBRANCH   1   2
BRANCH   1  26
ATOM     26  C   UNL A   1      31.403  31.687  26.886  1.00  0.00     0.023 C 
BRANCH  26  27
ATOM     27  C   UNL A   1      32.701  32.468  26.960  1.00  0.00     0.116 C 
BRANCH  27  28
ATOM     28  N   UNL A   1      32.493  33.839  27.401  1.00  0.00    -0.352 N 
ATOM     29  C   UNL A   1      33.091  34.531  28.416  1.00  0.00     0.251 C 
ATOM     30  H   UNL A   1      31.819  34.345  26.890  1.00  0.00     0.163 HD
ATOM     31  O   UNL A   1      32.646  35.632  28.753  1.00  0.00    -0.269 OA
BRANCH  29  32
ATOM     32  C   UNL A   1      34.252  33.959  29.127  1.00  0.00     0.039 A 
ATOM     33  C   UNL A   1      34.029  32.998  30.115  1.00  0.00     0.014 A 
ATOM     34  C   UNL A   1      35.554  34.374  28.833  1.00  0.00     0.014 A 
ATOM     35  C   UNL A   1      35.114  32.414  30.769  1.00  0.00     0.010 A 
ATOM     36  C   UNL A   1      36.636  33.727  29.418  1.00  0.00     0.010 A 
ATOM     37  C   UNL A   1      36.428  32.751  30.403  1.00  0.00    -0.014 A 
BRANCH  37  38
ATOM     38  C   UNL A   1      37.596  32.105  31.048  1.00  0.00     0.031 A 
ATOM     39  C   UNL A   1      38.335  31.004  30.338  1.00  0.00     0.074 A 
ATOM     40  C   UNL A   1      37.955  32.468  32.294  1.00  0.00     0.049 A 
ATOM     41  N   UNL A   1      39.335  30.273  30.761  1.00  0.00    -0.248 NA
ATOM     42  C   UNL A   1      37.871  30.660  28.985  1.00  0.00     0.031 C 
ATOM     43  C   UNL A   1      37.287  33.490  33.104  1.00  0.00     0.029 A 
ATOM     44  N   UNL A   1      38.964  32.010  33.103  1.00  0.00    -0.354 N 
ATOM     45  C   UNL A   1      39.610  29.380  29.733  1.00  0.00     0.074 A 
ATOM     46  C   UNL A   1      38.634  29.618  28.693  1.00  0.00     0.031 C 
ATOM     47  C   UNL A   1      37.918  33.596  34.284  1.00  0.00     0.029 A 
ATOM     48  C   UNL A   1      39.007  32.625  34.332  1.00  0.00     0.049 A 
ATOM     49  H   UNL A   1      39.598  31.309  32.829  1.00  0.00     0.167 HD
ATOM     50  C   UNL A   1      40.602  28.461  29.652  1.00  0.00     0.037 A 
ATOM     51  C   UNL A   1      39.823  32.419  35.381  1.00  0.00     0.037 A 
ATOM     52  C   UNL A   1      41.581  28.239  30.684  1.00  0.00     0.049 A 
ATOM     53  C   UNL A   1      40.908  31.383  35.273  1.00  0.00     0.074 A 
ATOM     54  C   UNL A   1      42.655  27.368  30.679  1.00  0.00     0.029 A 
ATOM     55  N   UNL A   1      41.599  28.892  31.908  1.00  0.00    -0.354 N 
ATOM     56  N   UNL A   1      41.198  30.591  34.270  1.00  0.00    -0.248 NA
ATOM     57  C   UNL A   1      41.785  31.219  36.441  1.00  0.00     0.031 C 
ATOM     58  C   UNL A   1      43.295  27.458  31.919  1.00  0.00     0.029 A 
ATOM     59  C   UNL A   1      42.655  28.426  32.675  1.00  0.00     0.049 A 
ATOM     60  H   UNL A   1      40.958  29.584  32.189  1.00  0.00     0.167 HD
ATOM     61  C   UNL A   1      42.305  29.855  34.673  1.00  0.00     0.074 A 
ATOM     62  C   UNL A   1      42.643  30.307  36.007  1.00  0.00     0.031 C 
ATOM     63  C   UNL A   1      42.980  28.891  34.000  1.00  0.00     0.037 A 
BRANCH  50  64
ATOM     64  C   UNL A   1      40.676  27.632  28.402  1.00  0.00     0.057 A 
ATOM     65  C   UNL A   1      41.429  28.035  27.291  1.00  0.00     0.134 A 
ATOM     66  C   UNL A   1      40.010  26.403  28.316  1.00  0.00     0.134 A 
ATOM     67  F   UNL A   1      42.082  29.208  27.301  1.00  0.00    -0.206 F 
ATOM     68  C   UNL A   1      41.492  27.263  26.130  1.00  0.00     0.040 A 
ATOM     69  C   UNL A   1      40.091  25.607  27.172  1.00  0.00     0.040 A 
ATOM     70  F   UNL A   1      39.277  25.951  29.344  1.00  0.00    -0.206 F 
ATOM     71  C   UNL A   1      40.828  26.041  26.072  1.00  0.00     0.006 A 
ENDBRANCH  50  64
BRANCH  51  72
ATOM     72  C   UNL A   1      39.657  33.222  36.619  1.00  0.00     0.057 A 
ATOM     73  C   UNL A   1      40.382  34.403  36.817  1.00  0.00     0.134 A 
ATOM     74  C   UNL A   1      38.774  32.829  37.632  1.00  0.00     0.134 A 
ATOM     75  F   UNL A   1      41.256  34.823  35.891  1.00  0.00    -0.206 F 
ATOM     76  C   UNL A   1      40.251  35.154  37.987  1.00  0.00     0.040 A 
ATOM     77  C   UNL A   1      38.613  33.584  38.795  1.00  0.00     0.040 A 
ATOM     78  F   UNL A   1      38.043  31.712  37.499  1.00  0.00    -0.206 F 
ATOM     79  C   UNL A   1      39.360  34.746  38.978  1.00  0.00     0.006 A 
ENDBRANCH  51  72
BRANCH  63  80
ATOM     80  C   UNL A   1      44.175  28.287  34.681  1.00  0.00     0.057 A 
ATOM     81  C   UNL A   1      44.079  27.122  35.451  1.00  0.00     0.134 A 
ATOM     82  C   UNL A   1      45.445  28.860  34.528  1.00  0.00     0.134 A 
ATOM     83  F   UNL A   1      42.889  26.532  35.646  1.00  0.00    -0.206 F 
ATOM     84  C   UNL A   1      45.200  26.561  36.066  1.00  0.00     0.040 A 
ATOM     85  C   UNL A   1      46.577  28.291  35.113  1.00  0.00     0.040 A 
ATOM     86  F   UNL A   1      45.608  29.970  33.794  1.00  0.00    -0.206 F 
ATOM     87  C   UNL A   1      46.454  27.142  35.892  1.00  0.00     0.006 A 
ENDBRANCH  63  80
ENDBRANCH  37  38
ENDBRANCH  29  32
ENDBRANCH  27  28
ENDBRANCH  26  27
ENDBRANCH   1  26
TORSDOF 15
ENDMDL
