MODEL 1
REMARK VINA RESULT:     -15.1      0.000      0.000
REMARK SMILES COc1ccc(/C=C2/C(=O)N(c3ccccc3)C(=O)[NH+]=C2NCCCCNC(=O)c2ccc(-c3c4nc(c(-c5c(F)cccc5F)c5ccc([nH]5)c(-c5c(F)cccc5F)c5nc(c(-c6c(F)cccc6F)c6ccc3[nH]6)C=C5)C=C4)cc2)cc1C(=O)[O-]
REMARK SMILES IDX 25 1 24 2 23 3 22 4 7 5 8 6 9 7 21 8 10 9 11 10 20 11 18 12
REMARK SMILES IDX 19 15 6 16 3 17 4 18 85 19 5 20 84 21 2 22 1 23 86 24 87 25
REMARK SMILES IDX 88 26 12 27 13 28 17 29 14 30 16 31 15 32 26 33 27 34 28 35
REMARK SMILES IDX 29 37 30 38 31 39 83 40 32 41 82 42 33 43 34 44 35 45 76 46
REMARK SMILES IDX 36 47 81 48 75 49 77 50 37 51 80 52 74 53 73 54 38 56 64 57
REMARK SMILES IDX 47 58 63 59 48 60 51 61 62 62 78 63 49 64 50 65 61 67 79 68
REMARK SMILES IDX 52 69 39 70 40 71 45 72 41 73 42 74 44 75 46 76 43 77 65 78
REMARK SMILES IDX 66 79 71 80 67 81 68 82 70 83 72 84 69 85 53 86 54 87 59 88
REMARK SMILES IDX 55 89 56 90 58 91 60 92 57 93
REMARK H PARENT 20 13 22 14 27 36 77 55 51 66
REMARK Flexibility Score: inf
ROOT
ATOM      1  C   UNL A   1      33.923  29.936  26.934  1.00  0.00     0.024 C 
ENDROOT
BRANCH   1   2
ATOM      2  C   UNL A   1      32.763  29.132  25.800  1.00  0.00     0.039 C 
BRANCH   2   3
ATOM      3  C   UNL A   1      32.537  27.113  24.980  1.00  0.00     0.194 C 
BRANCH   3   4
ATOM      4  N   UNL A   1      32.261  25.698  25.763  1.00  0.00    -0.305 N 
ATOM      5  C   UNL A   1      31.965  24.965  22.839  1.00  0.00     0.030 C 
ATOM      6  C   UNL A   1      32.371  24.122  23.796  1.00  0.00     0.129 C 
ATOM      7  C   UNL A   1      32.955  22.799  23.514  1.00  0.00     0.328 C 
ATOM      8  C   UNL A   1      32.152  24.427  25.227  1.00  0.00     0.236 C 
ATOM      9  O   UNL A   1      33.678  22.624  22.539  1.00  0.00    -0.249 OA
ATOM     10  N   UNL A   1      32.555  21.855  24.442  1.00  0.00    -0.155 N 
ATOM     11  N   UNL A   1      31.778  23.446  26.001  1.00  0.00    -0.209 N 
ATOM     12  C   UNL A   1      31.623  22.196  25.421  1.00  0.00     0.448 C 
ATOM     13  H   UNL A   1      31.614  23.587  26.961  1.00  0.00     0.270 HD
ATOM     14  H   UNL A   1      32.160  25.761  26.740  1.00  0.00     0.256 HD
ATOM     15  O   UNL A   1      30.698  21.458  25.749  1.00  0.00    -0.212 OA
BRANCH   5  16
ATOM     16  C   UNL A   1      31.613  26.314  23.275  1.00  0.00    -0.024 A 
ATOM     17  C   UNL A   1      29.792  29.378  22.804  1.00  0.00     0.127 A 
ATOM     18  C   UNL A   1      31.565  29.312  22.376  1.00  0.00     0.048 A 
ATOM     19  C   UNL A   1      28.945  27.911  23.353  1.00  0.00     0.040 A 
ATOM     20  C   UNL A   1      32.517  27.793  22.725  1.00  0.00     0.012 A 
ATOM     21  C   UNL A   1      29.861  26.421  23.650  1.00  0.00     0.022 A 
BRANCH  17  22
ATOM     22  O   UNL A   1      29.172  30.598  22.912  1.00  0.00    -0.496 OA
ATOM     23  C   UNL A   1      28.701  31.091  21.626  1.00  0.00     0.278 C 
ENDBRANCH  17  22
BRANCH  19  24
ATOM     24  C   UNL A   1      27.489  27.868  23.545  1.00  0.00     0.075 C 
ATOM     25  O   UNL A   1      26.705  28.696  23.131  1.00  0.00    -0.545 OA
ATOM     26  O   UNL A   1      27.112  26.791  24.248  1.00  0.00    -0.545 OA
ENDBRANCH  19  24
ENDBRANCH   5  16
BRANCH  10  27
ATOM     27  C   UNL A   1      32.879  20.501  24.200  1.00  0.00     0.111 A 
ATOM     28  C   UNL A   1      32.153  19.727  23.291  1.00  0.00     0.044 A 
ATOM     29  C   UNL A   1      33.984  19.953  24.863  1.00  0.00     0.044 A 
ATOM     30  C   UNL A   1      32.543  18.410  23.040  1.00  0.00     0.004 A 
ATOM     31  C   UNL A   1      34.354  18.630  24.626  1.00  0.00     0.004 A 
ATOM     32  C   UNL A   1      33.638  17.862  23.710  1.00  0.00     0.000 A 
ENDBRANCH  10  27
ENDBRANCH   3   4
ENDBRANCH   2   3
ENDBRANCH   1   2
BRANCH   1  33
ATOM     33  C   UNL A   1      35.220  29.427  27.666  1.00  0.00     0.116 C 
BRANCH  33  34
ATOM     34  N   UNL A   1      35.392  29.861  29.044  1.00  0.00    -0.352 N 
ATOM     35  C   UNL A   1      36.373  29.696  29.965  1.00  0.00     0.251 C 
ATOM     36  H   UNL A   1      34.631  30.388  29.380  1.00  0.00     0.163 HD
ATOM     37  O   UNL A   1      36.199  29.886  31.162  1.00  0.00    -0.269 OA
BRANCH  35  38
ATOM     38  C   UNL A   1      37.697  29.422  29.479  1.00  0.00     0.039 A 
ATOM     39  C   UNL A   1      38.004  29.668  28.144  1.00  0.00     0.014 A 
ATOM     40  C   UNL A   1      38.574  28.827  30.386  1.00  0.00     0.014 A 
ATOM     41  C   UNL A   1      39.267  29.331  27.706  1.00  0.00     0.010 A 
ATOM     42  C   UNL A   1      39.840  28.530  29.959  1.00  0.00     0.010 A 
ATOM     43  C   UNL A   1      40.173  28.774  28.620  1.00  0.00    -0.014 A 
BRANCH  43  44
ATOM     44  C   UNL A   1      41.520  28.404  28.200  1.00  0.00     0.031 A 
ATOM     45  C   UNL A   1      41.776  26.979  27.843  1.00  0.00     0.074 A 
ATOM     46  C   UNL A   1      42.469  29.345  28.307  1.00  0.00     0.049 A 
ATOM     47  N   UNL A   1      42.911  26.387  27.612  1.00  0.00    -0.248 NA
ATOM     48  C   UNL A   1      40.604  26.083  27.798  1.00  0.00     0.031 C 
ATOM     49  C   UNL A   1      42.244  30.729  28.745  1.00  0.00     0.029 A 
ATOM     50  N   UNL A   1      43.811  29.277  28.094  1.00  0.00    -0.354 N 
ATOM     51  C   UNL A   1      42.597  25.048  27.425  1.00  0.00     0.074 A 
ATOM     52  C   UNL A   1      41.174  24.902  27.613  1.00  0.00     0.031 C 
ATOM     53  C   UNL A   1      43.417  31.379  28.764  1.00  0.00     0.029 A 
ATOM     54  C   UNL A   1      44.466  30.449  28.372  1.00  0.00     0.049 A 
ATOM     55  H   UNL A   1      44.268  28.465  27.772  1.00  0.00     0.167 HD
ATOM     56  C   UNL A   1      43.446  24.047  27.108  1.00  0.00     0.037 A 
ATOM     57  C   UNL A   1      45.780  30.715  28.317  1.00  0.00     0.037 A 
ATOM     58  C   UNL A   1      44.849  24.271  26.891  1.00  0.00     0.049 A 
ATOM     59  C   UNL A   1      46.681  29.600  27.870  1.00  0.00     0.074 A 
ATOM     60  C   UNL A   1      45.815  23.380  26.472  1.00  0.00     0.029 A 
ATOM     61  N   UNL A   1      45.478  25.498  27.076  1.00  0.00    -0.354 N 
ATOM     62  N   UNL A   1      46.374  28.351  27.602  1.00  0.00    -0.248 NA
ATOM     63  C   UNL A   1      48.099  29.925  27.699  1.00  0.00     0.031 C 
ATOM     64  C   UNL A   1      47.035  24.061  26.430  1.00  0.00     0.029 A 
ATOM     65  C   UNL A   1      46.823  25.386  26.783  1.00  0.00     0.049 A 
ATOM     66  H   UNL A   1      45.031  26.324  27.371  1.00  0.00     0.167 HD
ATOM     67  C   UNL A   1      47.553  27.745  27.204  1.00  0.00     0.074 A 
ATOM     68  C   UNL A   1      48.577  28.774  27.249  1.00  0.00     0.031 C 
ATOM     69  C   UNL A   1      47.785  26.459  26.839  1.00  0.00     0.037 A 
BRANCH  56  70
ATOM     70  C   UNL A   1      42.886  22.664  26.970  1.00  0.00     0.057 A 
ATOM     71  C   UNL A   1      42.725  22.049  25.720  1.00  0.00     0.134 A 
ATOM     72  C   UNL A   1      42.528  21.922  28.102  1.00  0.00     0.134 A 
ATOM     73  F   UNL A   1      43.028  22.710  24.594  1.00  0.00    -0.206 F 
ATOM     74  C   UNL A   1      42.216  20.753  25.602  1.00  0.00     0.040 A 
ATOM     75  C   UNL A   1      42.042  20.616  27.999  1.00  0.00     0.040 A 
ATOM     76  F   UNL A   1      42.647  22.451  29.330  1.00  0.00    -0.206 F 
ATOM     77  C   UNL A   1      41.882  20.030  26.745  1.00  0.00     0.006 A 
ENDBRANCH  56  70
BRANCH  57  78
ATOM     78  C   UNL A   1      46.288  32.068  28.645  1.00  0.00     0.057 A 
ATOM     79  C   UNL A   1      46.703  32.388  29.942  1.00  0.00     0.134 A 
ATOM     80  C   UNL A   1      46.397  33.067  27.669  1.00  0.00     0.134 A 
ATOM     81  F   UNL A   1      46.630  31.472  30.918  1.00  0.00    -0.206 F 
ATOM     82  C   UNL A   1      47.172  33.662  30.268  1.00  0.00     0.040 A 
ATOM     83  C   UNL A   1      46.888  34.338  27.976  1.00  0.00     0.040 A 
ATOM     84  F   UNL A   1      46.047  32.817  26.400  1.00  0.00    -0.206 F 
ATOM     85  C   UNL A   1      47.267  34.641  29.282  1.00  0.00     0.006 A 
ENDBRANCH  57  78
BRANCH  69  86
ATOM     86  C   UNL A   1      49.187  26.128  26.439  1.00  0.00     0.057 A 
ATOM     87  C   UNL A   1      49.668  26.411  25.155  1.00  0.00     0.134 A 
ATOM     88  C   UNL A   1      50.072  25.564  27.364  1.00  0.00     0.134 A 
ATOM     89  F   UNL A   1      48.857  26.939  24.227  1.00  0.00    -0.206 F 
ATOM     90  C   UNL A   1      50.982  26.120  24.797  1.00  0.00     0.040 A 
ATOM     91  C   UNL A   1      51.397  25.296  27.027  1.00  0.00     0.040 A 
ATOM     92  F   UNL A   1      49.668  25.282  28.612  1.00  0.00    -0.206 F 
ATOM     93  C   UNL A   1      51.853  25.569  25.738  1.00  0.00     0.006 A 
ENDBRANCH  69  86
ENDBRANCH  43  44
ENDBRANCH  35  38
ENDBRANCH  33  34
ENDBRANCH   1  33
TORSDOF 14
ENDMDL
MODEL 2
REMARK VINA RESULT:     -15.1      2.513      8.077
REMARK SMILES COc1ccc(/C=C2/C(=O)N(c3ccccc3)C(=O)[NH+]=C2NCCCCNC(=O)c2ccc(-c3c4nc(c(-c5c(F)cccc5F)c5ccc([nH]5)c(-c5c(F)cccc5F)c5nc(c(-c6c(F)cccc6F)c6ccc3[nH]6)C=C5)C=C4)cc2)cc1C(=O)[O-]
REMARK SMILES IDX 25 1 24 2 23 3 22 4 7 5 8 6 9 7 21 8 10 9 11 10 20 11 18 12
REMARK SMILES IDX 19 15 6 16 3 17 4 18 85 19 5 20 84 21 2 22 1 23 86 24 87 25
REMARK SMILES IDX 88 26 12 27 13 28 17 29 14 30 16 31 15 32 26 33 27 34 28 35
REMARK SMILES IDX 29 37 30 38 31 39 83 40 32 41 82 42 33 43 34 44 35 45 76 46
REMARK SMILES IDX 36 47 81 48 75 49 77 50 37 51 80 52 74 53 73 54 38 56 64 57
REMARK SMILES IDX 47 58 63 59 48 60 51 61 62 62 78 63 49 64 50 65 61 67 79 68
REMARK SMILES IDX 52 69 39 70 40 71 45 72 41 73 42 74 44 75 46 76 43 77 65 78
REMARK SMILES IDX 66 79 71 80 67 81 68 82 70 83 72 84 69 85 53 86 54 87 59 88
REMARK SMILES IDX 55 89 56 90 58 91 60 92 57 93
REMARK H PARENT 20 13 22 14 27 36 77 55 51 66
REMARK Flexibility Score: inf
ROOT
ATOM      1  C   UNL A   1      37.533  21.938  26.027  1.00  0.00     0.024 C 
ENDROOT
BRANCH   1   2
ATOM      2  C   UNL A   1      36.505  23.425  25.923  1.00  0.00     0.039 C 
BRANCH   2   3
ATOM      3  C   UNL A   1      34.535  23.898  25.092  1.00  0.00     0.194 C 
BRANCH   3   4
ATOM      4  N   UNL A   1      34.133  24.960  23.908  1.00  0.00    -0.305 N 
ATOM      5  C   UNL A   1      31.520  24.499  25.368  1.00  0.00     0.030 C 
ATOM      6  C   UNL A   1      31.842  25.629  24.727  1.00  0.00     0.129 C 
ATOM      7  C   UNL A   1      31.070  26.877  24.851  1.00  0.00     0.328 C 
ATOM      8  C   UNL A   1      32.951  25.662  23.748  1.00  0.00     0.236 C 
ATOM      9  O   UNL A   1      30.551  27.195  25.915  1.00  0.00    -0.249 OA
ATOM     10  N   UNL A   1      31.007  27.561  23.650  1.00  0.00    -0.155 N 
ATOM     11  N   UNL A   1      32.768  26.347  22.654  1.00  0.00    -0.209 N 
ATOM     12  C   UNL A   1      31.550  26.992  22.499  1.00  0.00     0.448 C 
ATOM     13  H   UNL A   1      33.467  26.404  21.964  1.00  0.00     0.270 HD
ATOM     14  H   UNL A   1      34.822  25.119  23.223  1.00  0.00     0.256 HD
ATOM     15  O   UNL A   1      30.989  27.029  21.407  1.00  0.00    -0.212 OA
BRANCH   5  16
ATOM     16  C   UNL A   1      32.504  23.421  25.309  1.00  0.00    -0.024 A 
ATOM     17  C   UNL A   1      33.307  19.916  25.291  1.00  0.00     0.127 A 
ATOM     18  C   UNL A   1      33.545  20.884  26.820  1.00  0.00     0.048 A 
ATOM     19  C   UNL A   1      32.587  20.675  23.850  1.00  0.00     0.040 A 
ATOM     20  C   UNL A   1      33.249  22.686  26.797  1.00  0.00     0.012 A 
ATOM     21  C   UNL A   1      32.258  22.419  23.841  1.00  0.00     0.022 A 
BRANCH  17  22
ATOM     22  O   UNL A   1      33.881  18.674  25.185  1.00  0.00    -0.496 OA
ATOM     23  C   UNL A   1      32.997  17.618  25.653  1.00  0.00     0.278 C 
ENDBRANCH  17  22
BRANCH  19  24
ATOM     24  C   UNL A   1      32.216  19.904  22.655  1.00  0.00     0.075 C 
ATOM     25  O   UNL A   1      32.219  18.693  22.576  1.00  0.00    -0.545 OA
ATOM     26  O   UNL A   1      31.870  20.702  21.635  1.00  0.00    -0.545 OA
ENDBRANCH  19  24
ENDBRANCH   5  16
BRANCH  10  27
ATOM     27  C   UNL A   1      30.147  28.678  23.561  1.00  0.00     0.111 A 
ATOM     28  C   UNL A   1      28.878  28.579  22.986  1.00  0.00     0.044 A 
ATOM     29  C   UNL A   1      30.576  29.892  24.109  1.00  0.00     0.044 A 
ATOM     30  C   UNL A   1      28.038  29.694  22.970  1.00  0.00     0.004 A 
ATOM     31  C   UNL A   1      29.743  31.010  24.070  1.00  0.00     0.004 A 
ATOM     32  C   UNL A   1      28.471  30.908  23.506  1.00  0.00     0.000 A 
ENDBRANCH  10  27
ENDBRANCH   3   4
ENDBRANCH   2   3
ENDBRANCH   1   2
BRANCH   1  33
ATOM     33  C   UNL A   1      38.293  21.091  24.940  1.00  0.00     0.116 C 
BRANCH  33  34
ATOM     34  N   UNL A   1      39.103  19.990  25.434  1.00  0.00    -0.352 N 
ATOM     35  C   UNL A   1      40.360  19.899  25.935  1.00  0.00     0.251 C 
ATOM     36  H   UNL A   1      38.639  19.122  25.396  1.00  0.00     0.163 HD
ATOM     37  O   UNL A   1      40.967  18.839  26.019  1.00  0.00    -0.269 OA
BRANCH  35  38
ATOM     38  C   UNL A   1      40.928  21.085  26.513  1.00  0.00     0.039 A 
ATOM     39  C   UNL A   1      40.949  21.235  27.896  1.00  0.00     0.014 A 
ATOM     40  C   UNL A   1      41.345  22.068  25.614  1.00  0.00     0.014 A 
ATOM     41  C   UNL A   1      41.445  22.416  28.405  1.00  0.00     0.010 A 
ATOM     42  C   UNL A   1      41.874  23.224  26.121  1.00  0.00     0.010 A 
ATOM     43  C   UNL A   1      41.910  23.394  27.512  1.00  0.00    -0.014 A 
BRANCH  43  44
ATOM     44  C   UNL A   1      42.444  24.658  28.007  1.00  0.00     0.031 A 
ATOM     45  C   UNL A   1      41.477  25.733  28.370  1.00  0.00     0.074 A 
ATOM     46  C   UNL A   1      43.775  24.814  27.957  1.00  0.00     0.049 A 
ATOM     47  N   UNL A   1      41.713  26.978  28.663  1.00  0.00    -0.248 NA
ATOM     48  C   UNL A   1      40.045  25.376  28.346  1.00  0.00     0.031 C 
ATOM     49  C   UNL A   1      44.732  23.792  27.514  1.00  0.00     0.029 A 
ATOM     50  N   UNL A   1      44.550  25.895  28.246  1.00  0.00    -0.354 N 
ATOM     51  C   UNL A   1      40.465  27.561  28.826  1.00  0.00     0.074 A 
ATOM     52  C   UNL A   1      39.471  26.551  28.557  1.00  0.00     0.031 C 
ATOM     53  C   UNL A   1      45.972  24.302  27.563  1.00  0.00     0.029 A 
ATOM     54  C   UNL A   1      45.885  25.685  28.011  1.00  0.00     0.049 A 
ATOM     55  H   UNL A   1      44.188  26.745  28.589  1.00  0.00     0.167 HD
ATOM     56  C   UNL A   1      40.200  28.835  29.186  1.00  0.00     0.037 A 
ATOM     57  C   UNL A   1      46.909  26.541  28.140  1.00  0.00     0.037 A 
ATOM     58  C   UNL A   1      41.241  29.781  29.483  1.00  0.00     0.049 A 
ATOM     59  C   UNL A   1      46.583  27.922  28.633  1.00  0.00     0.074 A 
ATOM     60  C   UNL A   1      41.131  31.074  29.952  1.00  0.00     0.029 A 
ATOM     61  N   UNL A   1      42.598  29.513  29.340  1.00  0.00    -0.354 N 
ATOM     62  N   UNL A   1      45.406  28.451  28.878  1.00  0.00    -0.248 NA
ATOM     63  C   UNL A   1      47.714  28.818  28.886  1.00  0.00     0.031 C 
ATOM     64  C   UNL A   1      42.422  31.598  30.066  1.00  0.00     0.029 A 
ATOM     65  C   UNL A   1      43.339  30.619  29.707  1.00  0.00     0.049 A 
ATOM     66  H   UNL A   1      42.976  28.661  29.024  1.00  0.00     0.167 HD
ATOM     67  C   UNL A   1      45.652  29.733  29.339  1.00  0.00     0.074 A 
ATOM     68  C   UNL A   1      47.095  29.891  29.356  1.00  0.00     0.031 C 
ATOM     69  C   UNL A   1      44.778  30.702  29.711  1.00  0.00     0.037 A 
BRANCH  56  70
ATOM     70  C   UNL A   1      38.765  29.257  29.286  1.00  0.00     0.057 A 
ATOM     71  C   UNL A   1      38.038  29.686  28.167  1.00  0.00     0.134 A 
ATOM     72  C   UNL A   1      38.090  29.208  30.512  1.00  0.00     0.134 A 
ATOM     73  F   UNL A   1      38.628  29.778  26.967  1.00  0.00    -0.206 F 
ATOM     74  C   UNL A   1      36.696  30.063  28.267  1.00  0.00     0.040 A 
ATOM     75  C   UNL A   1      36.742  29.558  30.619  1.00  0.00     0.040 A 
ATOM     76  F   UNL A   1      38.726  28.816  31.626  1.00  0.00    -0.206 F 
ATOM     77  C   UNL A   1      36.042  29.991  29.495  1.00  0.00     0.006 A 
ENDBRANCH  56  70
BRANCH  57  78
ATOM     78  C   UNL A   1      48.295  26.106  27.848  1.00  0.00     0.057 A 
ATOM     79  C   UNL A   1      49.099  25.543  28.845  1.00  0.00     0.134 A 
ATOM     80  C   UNL A   1      48.845  26.217  26.565  1.00  0.00     0.134 A 
ATOM     81  F   UNL A   1      48.628  25.403  30.093  1.00  0.00    -0.206 F 
ATOM     82  C   UNL A   1      50.411  25.139  28.588  1.00  0.00     0.040 A 
ATOM     83  C   UNL A   1      50.147  25.794  26.287  1.00  0.00     0.040 A 
ATOM     84  F   UNL A   1      48.117  26.719  25.557  1.00  0.00    -0.206 F 
ATOM     85  C   UNL A   1      50.937  25.263  27.304  1.00  0.00     0.006 A 
ENDBRANCH  57  78
BRANCH  69  86
ATOM     86  C   UNL A   1      45.378  31.985  30.188  1.00  0.00     0.057 A 
ATOM     87  C   UNL A   1      45.727  32.176  31.530  1.00  0.00     0.134 A 
ATOM     88  C   UNL A   1      45.649  33.018  29.284  1.00  0.00     0.134 A 
ATOM     89  F   UNL A   1      45.476  31.222  32.440  1.00  0.00    -0.206 F 
ATOM     90  C   UNL A   1      46.306  33.366  31.963  1.00  0.00     0.040 A 
ATOM     91  C   UNL A   1      46.255  34.202  29.700  1.00  0.00     0.040 A 
ATOM     92  F   UNL A   1      45.345  32.886  27.984  1.00  0.00    -0.206 F 
ATOM     93  C   UNL A   1      46.580  34.379  31.044  1.00  0.00     0.006 A 
ENDBRANCH  69  86
ENDBRANCH  43  44
ENDBRANCH  35  38
ENDBRANCH  33  34
ENDBRANCH   1  33
TORSDOF 14
ENDMDL
MODEL 3
REMARK VINA RESULT:     -15.1      0.445      6.022
REMARK SMILES COc1ccc(/C=C2/C(=O)N(c3ccccc3)C(=O)[NH+]=C2NCCCCNC(=O)c2ccc(-c3c4nc(c(-c5c(F)cccc5F)c5ccc([nH]5)c(-c5c(F)cccc5F)c5nc(c(-c6c(F)cccc6F)c6ccc3[nH]6)C=C5)C=C4)cc2)cc1C(=O)[O-]
REMARK SMILES IDX 25 1 24 2 23 3 22 4 7 5 8 6 9 7 21 8 10 9 11 10 20 11 18 12
REMARK SMILES IDX 19 15 6 16 3 17 4 18 85 19 5 20 84 21 2 22 1 23 86 24 87 25
REMARK SMILES IDX 88 26 12 27 13 28 17 29 14 30 16 31 15 32 26 33 27 34 28 35
REMARK SMILES IDX 29 37 30 38 31 39 83 40 32 41 82 42 33 43 34 44 35 45 76 46
REMARK SMILES IDX 36 47 81 48 75 49 77 50 37 51 80 52 74 53 73 54 38 56 64 57
REMARK SMILES IDX 47 58 63 59 48 60 51 61 62 62 78 63 49 64 50 65 61 67 79 68
REMARK SMILES IDX 52 69 39 70 40 71 45 72 41 73 42 74 44 75 46 76 43 77 65 78
REMARK SMILES IDX 66 79 71 80 67 81 68 82 70 83 72 84 69 85 53 86 54 87 59 88
REMARK SMILES IDX 55 89 56 90 58 91 60 92 57 93
REMARK H PARENT 20 13 22 14 27 36 77 55 51 66
REMARK Flexibility Score: inf
ROOT
ATOM      1  C   UNL A   1      34.112  29.983  26.868  1.00  0.00     0.024 C 
ENDROOT
BRANCH   1   2
ATOM      2  C   UNL A   1      32.887  29.136  25.838  1.00  0.00     0.039 C 
BRANCH   2   3
ATOM      3  C   UNL A   1      32.686  27.123  24.999  1.00  0.00     0.194 C 
BRANCH   3   4
ATOM      4  N   UNL A   1      32.400  25.701  25.766  1.00  0.00    -0.305 N 
ATOM      5  C   UNL A   1      32.149  24.992  22.832  1.00  0.00     0.030 C 
ATOM      6  C   UNL A   1      32.542  24.141  23.788  1.00  0.00     0.129 C 
ATOM      7  C   UNL A   1      33.132  22.821  23.503  1.00  0.00     0.328 C 
ATOM      8  C   UNL A   1      32.301  24.434  25.218  1.00  0.00     0.236 C 
ATOM      9  O   UNL A   1      33.870  22.656  22.538  1.00  0.00    -0.249 OA
ATOM     10  N   UNL A   1      32.719  21.869  24.418  1.00  0.00    -0.155 N 
ATOM     11  N   UNL A   1      31.917  23.447  25.978  1.00  0.00    -0.209 N 
ATOM     12  C   UNL A   1      31.772  22.201  25.385  1.00  0.00     0.448 C 
ATOM     13  H   UNL A   1      31.738  23.579  26.936  1.00  0.00     0.270 HD
ATOM     14  H   UNL A   1      32.284  25.755  26.742  1.00  0.00     0.256 HD
ATOM     15  O   UNL A   1      30.843  21.459  25.693  1.00  0.00    -0.212 OA
BRANCH   5  16
ATOM     16  C   UNL A   1      31.789  26.337  23.274  1.00  0.00    -0.024 A 
ATOM     17  C   UNL A   1      29.963  29.398  22.807  1.00  0.00     0.127 A 
ATOM     18  C   UNL A   1      31.740  29.341  22.395  1.00  0.00     0.048 A 
ATOM     19  C   UNL A   1      29.116  27.925  23.338  1.00  0.00     0.040 A 
ATOM     20  C   UNL A   1      32.694  27.823  22.742  1.00  0.00     0.012 A 
ATOM     21  C   UNL A   1      30.034  26.436  23.634  1.00  0.00     0.022 A 
BRANCH  17  22
ATOM     22  O   UNL A   1      29.338  30.615  22.918  1.00  0.00    -0.496 OA
ATOM     23  C   UNL A   1      28.788  31.068  21.649  1.00  0.00     0.278 C 
ENDBRANCH  17  22
BRANCH  19  24
ATOM     24  C   UNL A   1      27.658  27.876  23.517  1.00  0.00     0.075 C 
ATOM     25  O   UNL A   1      26.876  28.709  23.110  1.00  0.00    -0.545 OA
ATOM     26  O   UNL A   1      27.277  26.786  24.199  1.00  0.00    -0.545 OA
ENDBRANCH  19  24
ENDBRANCH   5  16
BRANCH  10  27
ATOM     27  C   UNL A   1      33.049  20.518  24.169  1.00  0.00     0.111 A 
ATOM     28  C   UNL A   1      34.125  19.899  24.810  1.00  0.00     0.044 A 
ATOM     29  C   UNL A   1      32.239  19.786  23.292  1.00  0.00     0.044 A 
ATOM     30  C   UNL A   1      34.381  18.546  24.578  1.00  0.00     0.004 A 
ATOM     31  C   UNL A   1      32.513  18.442  23.046  1.00  0.00     0.004 A 
ATOM     32  C   UNL A   1      33.580  17.821  23.695  1.00  0.00     0.000 A 
ENDBRANCH  10  27
ENDBRANCH   3   4
ENDBRANCH   2   3
ENDBRANCH   1   2
BRANCH   1  33
ATOM     33  C   UNL A   1      35.271  29.456  27.794  1.00  0.00     0.116 C 
BRANCH  33  34
ATOM     34  N   UNL A   1      35.337  30.030  29.128  1.00  0.00    -0.352 N 
ATOM     35  C   UNL A   1      36.241  29.961  30.137  1.00  0.00     0.251 C 
ATOM     36  H   UNL A   1      34.557  30.589  29.348  1.00  0.00     0.163 HD
ATOM     37  O   UNL A   1      35.975  30.273  31.291  1.00  0.00    -0.269 OA
BRANCH  35  38
ATOM     38  C   UNL A   1      37.597  29.638  29.788  1.00  0.00     0.039 A 
ATOM     39  C   UNL A   1      38.043  29.854  28.488  1.00  0.00     0.014 A 
ATOM     40  C   UNL A   1      38.360  29.029  30.785  1.00  0.00     0.014 A 
ATOM     41  C   UNL A   1      39.331  29.471  28.181  1.00  0.00     0.010 A 
ATOM     42  C   UNL A   1      39.652  28.686  30.490  1.00  0.00     0.010 A 
ATOM     43  C   UNL A   1      40.124  28.899  29.187  1.00  0.00    -0.014 A 
BRANCH  43  44
ATOM     44  C   UNL A   1      41.493  28.481  28.907  1.00  0.00     0.031 A 
ATOM     45  C   UNL A   1      42.554  29.528  28.879  1.00  0.00     0.074 A 
ATOM     46  C   UNL A   1      41.674  27.202  28.548  1.00  0.00     0.049 A 
ATOM     47  N   UNL A   1      43.791  29.426  28.489  1.00  0.00    -0.248 NA
ATOM     48  C   UNL A   1      42.157  30.889  29.290  1.00  0.00     0.031 C 
ATOM     49  C   UNL A   1      40.619  26.182  28.484  1.00  0.00     0.029 A 
ATOM     50  N   UNL A   1      42.794  26.548  28.135  1.00  0.00    -0.354 N 
ATOM     51  C   UNL A   1      44.311  30.709  28.576  1.00  0.00     0.074 A 
ATOM     52  C   UNL A   1      43.250  31.584  29.011  1.00  0.00     0.031 C 
ATOM     53  C   UNL A   1      41.151  25.027  28.056  1.00  0.00     0.029 A 
ATOM     54  C   UNL A   1      42.566  25.241  27.792  1.00  0.00     0.049 A 
ATOM     55  H   UNL A   1      43.682  26.973  28.088  1.00  0.00     0.167 HD
ATOM     56  C   UNL A   1      45.580  31.094  28.321  1.00  0.00     0.037 A 
ATOM     57  C   UNL A   1      43.427  24.334  27.306  1.00  0.00     0.037 A 
ATOM     58  C   UNL A   1      46.601  30.160  27.932  1.00  0.00     0.049 A 
ATOM     59  C   UNL A   1      44.850  24.776  27.124  1.00  0.00     0.074 A 
ATOM     60  C   UNL A   1      47.949  30.382  27.734  1.00  0.00     0.029 A 
ATOM     61  N   UNL A   1      46.370  28.810  27.691  1.00  0.00    -0.354 N 
ATOM     62  N   UNL A   1      45.369  25.971  27.294  1.00  0.00    -0.248 NA
ATOM     63  C   UNL A   1      45.812  23.753  26.706  1.00  0.00     0.031 C 
ATOM     64  C   UNL A   1      48.528  29.170  27.345  1.00  0.00     0.029 A 
ATOM     65  C   UNL A   1      47.550  28.185  27.341  1.00  0.00     0.049 A 
ATOM     66  H   UNL A   1      45.494  28.366  27.761  1.00  0.00     0.167 HD
ATOM     67  C   UNL A   1      46.721  25.842  27.030  1.00  0.00     0.074 A 
ATOM     68  C   UNL A   1      46.942  24.444  26.707  1.00  0.00     0.031 C 
ATOM     69  C   UNL A   1      47.699  26.782  27.042  1.00  0.00     0.037 A 
BRANCH  56  70
ATOM     70  C   UNL A   1      45.920  32.547  28.465  1.00  0.00     0.057 A 
ATOM     71  C   UNL A   1      46.368  33.088  29.678  1.00  0.00     0.134 A 
ATOM     72  C   UNL A   1      45.825  33.414  27.370  1.00  0.00     0.134 A 
ATOM     73  F   UNL A   1      46.461  32.319  30.773  1.00  0.00    -0.206 F 
ATOM     74  C   UNL A   1      46.696  34.440  29.800  1.00  0.00     0.040 A 
ATOM     75  C   UNL A   1      46.176  34.763  27.472  1.00  0.00     0.040 A 
ATOM     76  F   UNL A   1      45.396  32.967  26.181  1.00  0.00    -0.206 F 
ATOM     77  C   UNL A   1      46.609  35.280  28.691  1.00  0.00     0.006 A 
ENDBRANCH  56  70
BRANCH  57  78
ATOM     78  C   UNL A   1      42.978  22.953  27.012  1.00  0.00     0.057 A 
ATOM     79  C   UNL A   1      42.676  22.058  28.045  1.00  0.00     0.134 A 
ATOM     80  C   UNL A   1      42.814  22.497  25.698  1.00  0.00     0.134 A 
ATOM     81  F   UNL A   1      42.805  22.436  29.324  1.00  0.00    -0.206 F 
ATOM     82  C   UNL A   1      42.263  20.750  27.784  1.00  0.00     0.040 A 
ATOM     83  C   UNL A   1      42.378  21.199  25.422  1.00  0.00     0.040 A 
ATOM     84  F   UNL A   1      43.056  23.314  24.662  1.00  0.00    -0.206 F 
ATOM     85  C   UNL A   1      42.112  20.318  26.468  1.00  0.00     0.006 A 
ENDBRANCH  57  78
BRANCH  69  86
ATOM     86  C   UNL A   1      49.080  26.304  26.727  1.00  0.00     0.057 A 
ATOM     87  C   UNL A   1      49.599  26.370  25.429  1.00  0.00     0.134 A 
ATOM     88  C   UNL A   1      49.909  25.818  27.744  1.00  0.00     0.134 A 
ATOM     89  F   UNL A   1      48.841  26.816  24.416  1.00  0.00    -0.206 F 
ATOM     90  C   UNL A   1      50.895  25.944  25.147  1.00  0.00     0.040 A 
ATOM     91  C   UNL A   1      51.217  25.416  27.479  1.00  0.00     0.040 A 
ATOM     92  F   UNL A   1      49.468  25.743  29.008  1.00  0.00    -0.206 F 
ATOM     93  C   UNL A   1      51.710  25.473  26.176  1.00  0.00     0.006 A 
ENDBRANCH  69  86
ENDBRANCH  43  44
ENDBRANCH  35  38
ENDBRANCH  33  34
ENDBRANCH   1  33
TORSDOF 14
ENDMDL
