MODEL 1
REMARK VINA RESULT:     -11.4      0.000      0.000
REMARK SMILES O=C(NCCCCNC(=O)c1ccccc1C[N@H+]1CCCC[C@@H]1CCn1cccn1)c1ccc(-c2c3nc(c(-c4c(F)cccc4F)c4ccc([nH]4)c(-c4c(F)cccc4F)c4nc(c(-c5c(F)cccc5F)c5ccc2[nH]5)C=C4)C=C3)cc1
REMARK SMILES IDX 7 1 6 2 5 3 4 4 3 5 1 6 2 7 31 9 32 10 84 11 33 12 83 13
REMARK SMILES IDX 34 14 35 15 36 16 77 17 37 18 82 19 76 20 78 21 38 22 81 23
REMARK SMILES IDX 75 24 74 25 39 27 65 28 48 29 64 30 49 31 52 32 63 33 79 34
REMARK SMILES IDX 50 35 51 36 62 38 80 39 53 40 40 41 41 42 46 43 42 44 43 45
REMARK SMILES IDX 45 46 47 47 44 48 66 49 67 50 72 51 68 52 69 53 71 54 73 55
REMARK SMILES IDX 70 56 54 57 55 58 60 59 56 60 57 61 59 62 61 63 58 64 8 65
REMARK SMILES IDX 9 66 10 68 11 69 12 70 16 71 13 72 15 73 14 74 17 75 18 76
REMARK SMILES IDX 19 77 23 78 20 80 22 81 21 82 24 83 25 84 26 85 27 86 30 87
REMARK SMILES IDX 28 88 29 89
REMARK H PARENT 3 8 78 26 52 37 8 67 18 79
REMARK Flexibility Score: inf
ROOT
ATOM      1  C   UNL A   1      38.066  23.977  26.374  1.00  0.00     0.116 C 
ENDROOT
BRANCH   1   2
ATOM      2  C   UNL A   1      39.344  23.300  26.850  1.00  0.00     0.023 C 
BRANCH   2   3
ATOM      3  C   UNL A   1      39.753  22.029  26.099  1.00  0.00     0.023 C 
BRANCH   3   4
ATOM      4  C   UNL A   1      41.219  21.606  26.217  1.00  0.00     0.116 C 
BRANCH   4   5
ATOM      5  N   UNL A   1      42.129  22.231  25.280  1.00  0.00    -0.352 N 
ATOM      6  O   UNL A   1      43.731  23.474  24.402  1.00  0.00    -0.269 OA
ATOM      7  C   UNL A   1      42.855  23.391  25.269  1.00  0.00     0.251 C 
ATOM      8  H   UNL A   1      42.256  21.696  24.462  1.00  0.00     0.163 HD
BRANCH   7   9
ATOM      9  C   UNL A   1      42.614  24.571  26.147  1.00  0.00     0.039 A 
ATOM     10  C   UNL A   1      43.082  24.734  27.448  1.00  0.00     0.014 A 
ATOM     11  C   UNL A   1      41.818  25.593  25.591  1.00  0.00     0.014 A 
ATOM     12  C   UNL A   1      42.682  25.839  28.206  1.00  0.00     0.010 A 
ATOM     13  C   UNL A   1      41.425  26.703  26.336  1.00  0.00     0.010 A 
ATOM     14  C   UNL A   1      41.831  26.811  27.660  1.00  0.00    -0.014 A 
BRANCH  14  15
ATOM     15  C   UNL A   1      41.599  28.042  28.422  1.00  0.00     0.031 A 
ATOM     16  C   UNL A   1      42.670  29.059  28.212  1.00  0.00     0.074 A 
ATOM     17  C   UNL A   1      40.490  28.339  29.135  1.00  0.00     0.049 A 
ATOM     18  N   UNL A   1      43.516  29.504  29.082  1.00  0.00    -0.248 NA
ATOM     19  C   UNL A   1      42.924  29.530  26.841  1.00  0.00     0.031 C 
ATOM     20  C   UNL A   1      39.233  27.592  29.202  1.00  0.00     0.029 A 
ATOM     21  N   UNL A   1      40.223  29.439  29.908  1.00  0.00    -0.354 N 
ATOM     22  C   UNL A   1      44.283  30.461  28.420  1.00  0.00     0.074 A 
ATOM     23  C   UNL A   1      43.987  30.315  27.019  1.00  0.00     0.031 C 
ATOM     24  C   UNL A   1      38.281  28.358  29.789  1.00  0.00     0.029 A 
ATOM     25  C   UNL A   1      38.883  29.594  30.261  1.00  0.00     0.049 A 
ATOM     26  H   UNL A   1      40.923  30.071  30.191  1.00  0.00     0.167 HD
ATOM     27  C   UNL A   1      44.911  31.451  29.110  1.00  0.00     0.037 A 
ATOM     28  C   UNL A   1      38.306  30.668  30.867  1.00  0.00     0.037 A 
ATOM     29  C   UNL A   1      45.042  31.098  30.503  1.00  0.00     0.049 A 
ATOM     30  C   UNL A   1      39.382  31.455  31.510  1.00  0.00     0.074 A 
ATOM     31  C   UNL A   1      45.643  30.072  31.204  1.00  0.00     0.029 A 
ATOM     32  N   UNL A   1      44.175  31.693  31.385  1.00  0.00    -0.354 N 
ATOM     33  N   UNL A   1      40.043  31.065  32.561  1.00  0.00    -0.248 NA
ATOM     34  C   UNL A   1      40.013  32.501  30.723  1.00  0.00     0.031 C 
ATOM     35  C   UNL A   1      44.761  29.803  32.292  1.00  0.00     0.029 A 
ATOM     36  C   UNL A   1      43.718  30.727  32.236  1.00  0.00     0.049 A 
ATOM     37  H   UNL A   1      43.927  32.646  31.401  1.00  0.00     0.167 HD
ATOM     38  C   UNL A   1      41.348  31.452  32.305  1.00  0.00     0.074 A 
ATOM     39  C   UNL A   1      41.252  32.417  31.210  1.00  0.00     0.031 C 
ATOM     40  C   UNL A   1      42.395  30.740  32.810  1.00  0.00     0.037 A 
BRANCH  27  41
ATOM     41  C   UNL A   1      45.008  32.890  28.642  1.00  0.00     0.057 A 
ATOM     42  C   UNL A   1      43.817  33.600  28.387  1.00  0.00     0.134 A 
ATOM     43  C   UNL A   1      46.173  33.487  28.121  1.00  0.00     0.134 A 
ATOM     44  F   UNL A   1      42.636  33.149  28.836  1.00  0.00    -0.206 F 
ATOM     45  C   UNL A   1      43.776  34.740  27.574  1.00  0.00     0.040 A 
ATOM     46  C   UNL A   1      46.149  34.653  27.348  1.00  0.00     0.040 A 
ATOM     47  F   UNL A   1      47.386  32.936  28.239  1.00  0.00    -0.206 F 
ATOM     48  C   UNL A   1      44.945  35.261  27.038  1.00  0.00     0.006 A 
ENDBRANCH  27  41
BRANCH  28  49
ATOM     49  C   UNL A   1      36.941  31.241  30.734  1.00  0.00     0.057 A 
ATOM     50  C   UNL A   1      36.134  31.478  31.862  1.00  0.00     0.134 A 
ATOM     51  C   UNL A   1      36.525  31.862  29.547  1.00  0.00     0.134 A 
ATOM     52  F   UNL A   1      36.462  30.966  33.057  1.00  0.00    -0.206 F 
ATOM     53  C   UNL A   1      35.007  32.312  31.818  1.00  0.00     0.040 A 
ATOM     54  C   UNL A   1      35.399  32.694  29.487  1.00  0.00     0.040 A 
ATOM     55  F   UNL A   1      37.253  31.761  28.425  1.00  0.00    -0.206 F 
ATOM     56  C   UNL A   1      34.645  32.936  30.630  1.00  0.00     0.006 A 
ENDBRANCH  28  49
BRANCH  40  57
ATOM     57  C   UNL A   1      42.115  29.737  33.893  1.00  0.00     0.057 A 
ATOM     58  C   UNL A   1      41.718  28.409  33.674  1.00  0.00     0.134 A 
ATOM     59  C   UNL A   1      42.392  30.106  35.216  1.00  0.00     0.134 A 
ATOM     60  F   UNL A   1      41.520  27.934  32.437  1.00  0.00    -0.206 F 
ATOM     61  C   UNL A   1      41.564  27.506  34.732  1.00  0.00     0.040 A 
ATOM     62  C   UNL A   1      42.279  29.204  36.273  1.00  0.00     0.040 A 
ATOM     63  F   UNL A   1      42.822  31.347  35.494  1.00  0.00    -0.206 F 
ATOM     64  C   UNL A   1      41.853  27.901  36.034  1.00  0.00     0.006 A 
ENDBRANCH  40  57
ENDBRANCH  14  15
ENDBRANCH   7   9
ENDBRANCH   4   5
ENDBRANCH   3   4
ENDBRANCH   2   3
ENDBRANCH   1   2
BRANCH   1  65
ATOM     65  N   UNL A   1      37.755  23.747  24.971  1.00  0.00    -0.352 N 
ATOM     66  C   UNL A   1      36.579  23.354  24.379  1.00  0.00     0.251 C 
ATOM     67  H   UNL A   1      38.505  23.896  24.350  1.00  0.00     0.163 HD
ATOM     68  O   UNL A   1      36.535  23.229  23.153  1.00  0.00    -0.269 OA
BRANCH  66  69
ATOM     69  C   UNL A   1      35.380  23.010  25.180  1.00  0.00     0.048 A 
ATOM     70  C   UNL A   1      35.162  21.632  25.384  1.00  0.00     0.014 A 
ATOM     71  C   UNL A   1      34.474  23.957  25.693  1.00  0.00     0.019 A 
ATOM     72  C   UNL A   1      34.098  21.183  26.164  1.00  0.00     0.001 A 
ATOM     73  C   UNL A   1      33.465  23.473  26.545  1.00  0.00     0.010 A 
ATOM     74  C   UNL A   1      33.266  22.110  26.770  1.00  0.00     0.001 A 
BRANCH  71  75
ATOM     75  C   UNL A   1      34.569  25.440  25.384  1.00  0.00     0.300 C 
BRANCH  75  76
ATOM     76  N   UNL A   1      33.337  26.196  25.098  1.00  0.00    -0.329 N 
ATOM     77  C   UNL A   1      32.862  26.866  26.320  1.00  0.00     0.262 C 
ATOM     78  C   UNL A   1      33.333  27.079  23.908  1.00  0.00     0.186 C 
ATOM     79  H   UNL A   1      32.665  25.487  24.806  1.00  0.00     0.348 HD
ATOM     80  C   UNL A   1      31.458  27.430  26.147  1.00  0.00     0.062 C 
ATOM     81  C   UNL A   1      31.916  27.664  23.707  1.00  0.00     0.065 C 
ATOM     82  C   UNL A   1      31.408  28.373  24.958  1.00  0.00     0.012 C 
BRANCH  78  83
ATOM     83  C   UNL A   1      33.769  26.331  22.617  1.00  0.00     0.088 C 
BRANCH  83  84
ATOM     84  C   UNL A   1      32.664  25.545  21.903  1.00  0.00     0.150 C 
BRANCH  84  85
ATOM     85  N   UNL A   1      32.488  24.202  22.427  1.00  0.00    -0.273 N 
ATOM     86  C   UNL A   1      33.149  23.072  22.033  1.00  0.00     0.108 A 
ATOM     87  N   UNL A   1      31.551  23.967  23.365  1.00  0.00    -0.182 NA
ATOM     88  C   UNL A   1      32.594  22.037  22.750  1.00  0.00     0.042 A 
ATOM     89  C   UNL A   1      31.617  22.649  23.558  1.00  0.00     0.135 A 
ENDBRANCH  84  85
ENDBRANCH  83  84
ENDBRANCH  78  83
ENDBRANCH  75  76
ENDBRANCH  71  75
ENDBRANCH  66  69
ENDBRANCH   1  65
TORSDOF 16
ENDMDL
MODEL 2
REMARK VINA RESULT:     -11.3      2.862      7.906
REMARK SMILES O=C(NCCCCNC(=O)c1ccccc1C[N@H+]1CCCC[C@@H]1CCn1cccn1)c1ccc(-c2c3nc(c(-c4c(F)cccc4F)c4ccc([nH]4)c(-c4c(F)cccc4F)c4nc(c(-c5c(F)cccc5F)c5ccc2[nH]5)C=C4)C=C3)cc1
REMARK SMILES IDX 7 1 6 2 5 3 4 4 3 5 1 6 2 7 31 9 32 10 84 11 33 12 83 13
REMARK SMILES IDX 34 14 35 15 36 16 77 17 37 18 82 19 76 20 78 21 38 22 81 23
REMARK SMILES IDX 75 24 74 25 39 27 65 28 48 29 64 30 49 31 52 32 63 33 79 34
REMARK SMILES IDX 50 35 51 36 62 38 80 39 53 40 40 41 41 42 46 43 42 44 43 45
REMARK SMILES IDX 45 46 47 47 44 48 66 49 67 50 72 51 68 52 69 53 71 54 73 55
REMARK SMILES IDX 70 56 54 57 55 58 60 59 56 60 57 61 59 62 61 63 58 64 8 65
REMARK SMILES IDX 9 66 10 68 11 69 12 70 16 71 13 72 15 73 14 74 17 75 18 76
REMARK SMILES IDX 19 77 23 78 20 80 22 81 21 82 24 83 25 84 26 85 27 86 30 87
REMARK SMILES IDX 28 88 29 89
REMARK H PARENT 3 8 78 26 52 37 8 67 18 79
REMARK Flexibility Score: inf
ROOT
ATOM      1  C   UNL A   1      34.959  29.361  27.243  1.00  0.00     0.116 C 
ENDROOT
BRANCH   1   2
ATOM      2  C   UNL A   1      35.330  30.748  27.752  1.00  0.00     0.023 C 
BRANCH   2   3
ATOM      3  C   UNL A   1      34.159  31.668  28.113  1.00  0.00     0.023 C 
BRANCH   3   4
ATOM      4  C   UNL A   1      34.475  32.847  29.036  1.00  0.00     0.116 C 
BRANCH   4   5
ATOM      5  N   UNL A   1      34.373  32.577  30.456  1.00  0.00    -0.352 N 
ATOM      6  O   UNL A   1      34.866  32.277  32.588  1.00  0.00    -0.269 OA
ATOM      7  C   UNL A   1      35.243  32.146  31.420  1.00  0.00     0.251 C 
ATOM      8  H   UNL A   1      33.468  32.742  30.808  1.00  0.00     0.163 HD
BRANCH   7   9
ATOM      9  C   UNL A   1      36.546  31.465  31.169  1.00  0.00     0.039 A 
ATOM     10  C   UNL A   1      37.782  32.089  31.019  1.00  0.00     0.014 A 
ATOM     11  C   UNL A   1      36.488  30.061  31.056  1.00  0.00     0.014 A 
ATOM     12  C   UNL A   1      38.908  31.340  30.666  1.00  0.00     0.010 A 
ATOM     13  C   UNL A   1      37.610  29.307  30.717  1.00  0.00     0.010 A 
ATOM     14  C   UNL A   1      38.819  29.952  30.488  1.00  0.00    -0.014 A 
BRANCH  14  15
ATOM     15  C   UNL A   1      40.059  29.189  30.313  1.00  0.00     0.031 A 
ATOM     16  C   UNL A   1      40.796  28.986  31.594  1.00  0.00     0.074 A 
ATOM     17  C   UNL A   1      40.469  28.588  29.174  1.00  0.00     0.049 A 
ATOM     18  N   UNL A   1      41.952  29.460  31.923  1.00  0.00    -0.248 NA
ATOM     19  C   UNL A   1      40.103  28.293  32.693  1.00  0.00     0.031 C 
ATOM     20  C   UNL A   1      39.732  28.436  27.918  1.00  0.00     0.029 A 
ATOM     21  N   UNL A   1      41.630  27.906  28.922  1.00  0.00    -0.354 N 
ATOM     22  C   UNL A   1      42.225  28.963  33.196  1.00  0.00     0.074 A 
ATOM     23  C   UNL A   1      40.995  28.396  33.679  1.00  0.00     0.031 C 
ATOM     24  C   UNL A   1      40.366  27.536  27.127  1.00  0.00     0.029 A 
ATOM     25  C   UNL A   1      41.620  27.147  27.752  1.00  0.00     0.049 A 
ATOM     26  H   UNL A   1      42.411  27.948  29.519  1.00  0.00     0.167 HD
ATOM     27  C   UNL A   1      43.507  28.848  33.639  1.00  0.00     0.037 A 
ATOM     28  C   UNL A   1      42.554  26.244  27.342  1.00  0.00     0.037 A 
ATOM     29  C   UNL A   1      44.392  29.683  32.864  1.00  0.00     0.049 A 
ATOM     30  C   UNL A   1      43.803  26.520  28.087  1.00  0.00     0.074 A 
ATOM     31  C   UNL A   1      44.484  31.035  32.598  1.00  0.00     0.029 A 
ATOM     32  N   UNL A   1      45.172  29.064  31.920  1.00  0.00    -0.354 N 
ATOM     33  N   UNL A   1      44.553  27.565  27.893  1.00  0.00    -0.248 NA
ATOM     34  C   UNL A   1      43.996  25.833  29.353  1.00  0.00     0.031 C 
ATOM     35  C   UNL A   1      44.907  31.115  31.239  1.00  0.00     0.029 A 
ATOM     36  C   UNL A   1      45.122  29.816  30.780  1.00  0.00     0.049 A 
ATOM     37  H   UNL A   1      45.678  28.228  32.043  1.00  0.00     0.167 HD
ATOM     38  C   UNL A   1      44.948  27.942  29.166  1.00  0.00     0.074 A 
ATOM     39  C   UNL A   1      44.659  26.785  30.013  1.00  0.00     0.031 C 
ATOM     40  C   UNL A   1      45.200  29.250  29.456  1.00  0.00     0.037 A 
BRANCH  27  41
ATOM     41  C   UNL A   1      44.027  27.680  34.454  1.00  0.00     0.057 A 
ATOM     42  C   UNL A   1      44.735  27.947  35.644  1.00  0.00     0.134 A 
ATOM     43  C   UNL A   1      44.162  26.363  33.972  1.00  0.00     0.134 A 
ATOM     44  F   UNL A   1      44.686  29.160  36.218  1.00  0.00    -0.206 F 
ATOM     45  C   UNL A   1      45.602  27.019  36.233  1.00  0.00     0.040 A 
ATOM     46  C   UNL A   1      44.988  25.412  34.582  1.00  0.00     0.040 A 
ATOM     47  F   UNL A   1      43.588  25.942  32.841  1.00  0.00    -0.206 F 
ATOM     48  C   UNL A   1      45.743  25.750  35.691  1.00  0.00     0.006 A 
ENDBRANCH  27  41
BRANCH  28  49
ATOM     49  C   UNL A   1      42.413  24.990  26.559  1.00  0.00     0.057 A 
ATOM     50  C   UNL A   1      43.196  24.750  25.415  1.00  0.00     0.134 A 
ATOM     51  C   UNL A   1      41.751  23.872  27.089  1.00  0.00     0.134 A 
ATOM     52  F   UNL A   1      43.904  25.740  24.851  1.00  0.00    -0.206 F 
ATOM     53  C   UNL A   1      43.341  23.471  24.858  1.00  0.00     0.040 A 
ATOM     54  C   UNL A   1      41.883  22.589  26.539  1.00  0.00     0.040 A 
ATOM     55  F   UNL A   1      41.031  23.968  28.216  1.00  0.00    -0.206 F 
ATOM     56  C   UNL A   1      42.695  22.381  25.430  1.00  0.00     0.006 A 
ENDBRANCH  28  49
BRANCH  40  57
ATOM     57  C   UNL A   1      45.353  30.214  28.314  1.00  0.00     0.057 A 
ATOM     58  C   UNL A   1      44.292  30.872  27.671  1.00  0.00     0.134 A 
ATOM     59  C   UNL A   1      46.650  30.587  27.940  1.00  0.00     0.134 A 
ATOM     60  F   UNL A   1      43.018  30.653  28.023  1.00  0.00    -0.206 F 
ATOM     61  C   UNL A   1      44.520  31.827  26.674  1.00  0.00     0.040 A 
ATOM     62  C   UNL A   1      46.889  31.565  26.976  1.00  0.00     0.040 A 
ATOM     63  F   UNL A   1      47.712  30.033  28.547  1.00  0.00    -0.206 F 
ATOM     64  C   UNL A   1      45.820  32.181  26.330  1.00  0.00     0.006 A 
ENDBRANCH  40  57
ENDBRANCH  14  15
ENDBRANCH   7   9
ENDBRANCH   4   5
ENDBRANCH   3   4
ENDBRANCH   2   3
ENDBRANCH   1   2
BRANCH   1  65
ATOM     65  N   UNL A   1      33.701  28.850  27.765  1.00  0.00    -0.352 N 
ATOM     66  C   UNL A   1      32.665  28.221  27.117  1.00  0.00     0.251 C 
ATOM     67  H   UNL A   1      33.571  28.976  28.733  1.00  0.00     0.163 HD
ATOM     68  O   UNL A   1      31.682  27.856  27.766  1.00  0.00    -0.269 OA
BRANCH  66  69
ATOM     69  C   UNL A   1      32.668  28.029  25.647  1.00  0.00     0.048 A 
ATOM     70  C   UNL A   1      31.913  28.967  24.913  1.00  0.00     0.014 A 
ATOM     71  C   UNL A   1      33.333  26.979  24.988  1.00  0.00     0.019 A 
ATOM     72  C   UNL A   1      31.879  28.924  23.520  1.00  0.00     0.001 A 
ATOM     73  C   UNL A   1      33.347  27.019  23.583  1.00  0.00     0.010 A 
ATOM     74  C   UNL A   1      32.623  27.964  22.854  1.00  0.00     0.001 A 
BRANCH  71  75
ATOM     75  C   UNL A   1      34.036  25.855  25.729  1.00  0.00     0.300 C 
BRANCH  75  76
ATOM     76  N   UNL A   1      33.940  24.480  25.210  1.00  0.00    -0.329 N 
ATOM     77  C   UNL A   1      35.088  24.191  24.334  1.00  0.00     0.262 C 
ATOM     78  C   UNL A   1      33.657  23.396  26.180  1.00  0.00     0.186 C 
ATOM     79  H   UNL A   1      33.076  24.472  24.667  1.00  0.00     0.348 HD
ATOM     80  C   UNL A   1      34.896  22.892  23.561  1.00  0.00     0.062 C 
ATOM     81  C   UNL A   1      33.456  22.065  25.421  1.00  0.00     0.065 C 
ATOM     82  C   UNL A   1      34.639  21.739  24.515  1.00  0.00     0.012 C 
BRANCH  78  83
ATOM     83  C   UNL A   1      32.399  23.692  27.045  1.00  0.00     0.088 C 
BRANCH  83  84
ATOM     84  C   UNL A   1      31.054  23.352  26.392  1.00  0.00     0.150 C 
BRANCH  84  85
ATOM     85  N   UNL A   1      30.591  24.377  25.473  1.00  0.00    -0.273 N 
ATOM     86  C   UNL A   1      29.904  25.516  25.789  1.00  0.00     0.108 A 
ATOM     87  N   UNL A   1      30.779  24.223  24.149  1.00  0.00    -0.182 NA
ATOM     88  C   UNL A   1      29.614  26.130  24.593  1.00  0.00     0.042 A 
ATOM     89  C   UNL A   1      30.181  25.291  23.616  1.00  0.00     0.135 A 
ENDBRANCH  84  85
ENDBRANCH  83  84
ENDBRANCH  78  83
ENDBRANCH  75  76
ENDBRANCH  71  75
ENDBRANCH  66  69
ENDBRANCH   1  65
TORSDOF 16
ENDMDL
MODEL 3
REMARK VINA RESULT:     -11.3      0.935      2.210
REMARK SMILES O=C(NCCCCNC(=O)c1ccccc1C[N@H+]1CCCC[C@@H]1CCn1cccn1)c1ccc(-c2c3nc(c(-c4c(F)cccc4F)c4ccc([nH]4)c(-c4c(F)cccc4F)c4nc(c(-c5c(F)cccc5F)c5ccc2[nH]5)C=C4)C=C3)cc1
REMARK SMILES IDX 7 1 6 2 5 3 4 4 3 5 1 6 2 7 31 9 32 10 84 11 33 12 83 13
REMARK SMILES IDX 34 14 35 15 36 16 77 17 37 18 82 19 76 20 78 21 38 22 81 23
REMARK SMILES IDX 75 24 74 25 39 27 65 28 48 29 64 30 49 31 52 32 63 33 79 34
REMARK SMILES IDX 50 35 51 36 62 38 80 39 53 40 40 41 41 42 46 43 42 44 43 45
REMARK SMILES IDX 45 46 47 47 44 48 66 49 67 50 72 51 68 52 69 53 71 54 73 55
REMARK SMILES IDX 70 56 54 57 55 58 60 59 56 60 57 61 59 62 61 63 58 64 8 65
REMARK SMILES IDX 9 66 10 68 11 69 12 70 16 71 13 72 15 73 14 74 17 75 18 76
REMARK SMILES IDX 19 77 23 78 20 80 22 81 21 82 24 83 25 84 26 85 27 86 30 87
REMARK SMILES IDX 28 88 29 89
REMARK H PARENT 3 8 78 26 52 37 8 67 18 79
REMARK Flexibility Score: inf
ROOT
ATOM      1  C   UNL A   1      37.820  23.936  26.135  1.00  0.00     0.116 C 
ENDROOT
BRANCH   1   2
ATOM      2  C   UNL A   1      39.016  23.252  26.785  1.00  0.00     0.023 C 
BRANCH   2   3
ATOM      3  C   UNL A   1      39.521  21.981  26.095  1.00  0.00     0.023 C 
BRANCH   3   4
ATOM      4  C   UNL A   1      40.992  21.620  26.318  1.00  0.00     0.116 C 
BRANCH   4   5
ATOM      5  N   UNL A   1      41.930  22.204  25.382  1.00  0.00    -0.352 N 
ATOM      6  O   UNL A   1      43.580  23.382  24.506  1.00  0.00    -0.269 OA
ATOM      7  C   UNL A   1      42.697  23.338  25.367  1.00  0.00     0.251 C 
ATOM      8  H   UNL A   1      42.043  21.659  24.569  1.00  0.00     0.163 HD
BRANCH   7   9
ATOM      9  C   UNL A   1      42.493  24.532  26.235  1.00  0.00     0.039 A 
ATOM     10  C   UNL A   1      43.070  24.747  27.484  1.00  0.00     0.014 A 
ATOM     11  C   UNL A   1      41.613  25.511  25.729  1.00  0.00     0.014 A 
ATOM     12  C   UNL A   1      42.699  25.858  28.248  1.00  0.00     0.010 A 
ATOM     13  C   UNL A   1      41.248  26.627  26.479  1.00  0.00     0.010 A 
ATOM     14  C   UNL A   1      41.767  26.785  27.758  1.00  0.00    -0.014 A 
BRANCH  14  15
ATOM     15  C   UNL A   1      41.560  28.028  28.508  1.00  0.00     0.031 A 
ATOM     16  C   UNL A   1      42.637  29.032  28.268  1.00  0.00     0.074 A 
ATOM     17  C   UNL A   1      40.465  28.346  29.235  1.00  0.00     0.049 A 
ATOM     18  N   UNL A   1      43.501  29.479  29.118  1.00  0.00    -0.248 NA
ATOM     19  C   UNL A   1      42.874  29.482  26.887  1.00  0.00     0.031 C 
ATOM     20  C   UNL A   1      39.202  27.612  29.331  1.00  0.00     0.029 A 
ATOM     21  N   UNL A   1      40.222  29.458  29.997  1.00  0.00    -0.354 N 
ATOM     22  C   UNL A   1      44.267  30.419  28.431  1.00  0.00     0.074 A 
ATOM     23  C   UNL A   1      43.948  30.258  27.038  1.00  0.00     0.031 C 
ATOM     24  C   UNL A   1      38.267  28.395  29.923  1.00  0.00     0.029 A 
ATOM     25  C   UNL A   1      38.889  29.631  30.370  1.00  0.00     0.049 A 
ATOM     26  H   UNL A   1      40.932  30.086  30.261  1.00  0.00     0.167 HD
ATOM     27  C   UNL A   1      44.917  31.412  29.099  1.00  0.00     0.037 A 
ATOM     28  C   UNL A   1      38.333  30.718  30.971  1.00  0.00     0.037 A 
ATOM     29  C   UNL A   1      45.066  31.075  30.494  1.00  0.00     0.049 A 
ATOM     30  C   UNL A   1      39.427  31.502  31.587  1.00  0.00     0.074 A 
ATOM     31  C   UNL A   1      45.668  30.052  31.198  1.00  0.00     0.029 A 
ATOM     32  N   UNL A   1      44.219  31.690  31.382  1.00  0.00    -0.354 N 
ATOM     33  N   UNL A   1      40.102  31.119  32.632  1.00  0.00    -0.248 NA
ATOM     34  C   UNL A   1      40.056  32.532  30.776  1.00  0.00     0.031 C 
ATOM     35  C   UNL A   1      44.802  29.805  32.303  1.00  0.00     0.029 A 
ATOM     36  C   UNL A   1      43.767  30.739  32.253  1.00  0.00     0.049 A 
ATOM     37  H   UNL A   1      43.981  32.645  31.390  1.00  0.00     0.167 HD
ATOM     38  C   UNL A   1      41.405  31.490  32.350  1.00  0.00     0.074 A 
ATOM     39  C   UNL A   1      41.302  32.441  31.245  1.00  0.00     0.031 C 
ATOM     40  C   UNL A   1      42.454  30.773  32.847  1.00  0.00     0.037 A 
BRANCH  27  41
ATOM     41  C   UNL A   1      45.020  32.844  28.611  1.00  0.00     0.057 A 
ATOM     42  C   UNL A   1      43.832  33.558  28.353  1.00  0.00     0.134 A 
ATOM     43  C   UNL A   1      46.186  33.426  28.075  1.00  0.00     0.134 A 
ATOM     44  F   UNL A   1      42.651  33.121  28.815  1.00  0.00    -0.206 F 
ATOM     45  C   UNL A   1      43.794  34.687  27.525  1.00  0.00     0.040 A 
ATOM     46  C   UNL A   1      46.165  34.581  27.287  1.00  0.00     0.040 A 
ATOM     47  F   UNL A   1      47.395  32.869  28.194  1.00  0.00    -0.206 F 
ATOM     48  C   UNL A   1      44.963  35.193  26.975  1.00  0.00     0.006 A 
ENDBRANCH  27  41
BRANCH  28  49
ATOM     49  C   UNL A   1      36.972  31.303  30.853  1.00  0.00     0.057 A 
ATOM     50  C   UNL A   1      36.176  31.540  31.989  1.00  0.00     0.134 A 
ATOM     51  C   UNL A   1      36.552  31.935  29.672  1.00  0.00     0.134 A 
ATOM     52  F   UNL A   1      36.510  31.018  33.178  1.00  0.00    -0.206 F 
ATOM     53  C   UNL A   1      35.056  32.384  31.959  1.00  0.00     0.040 A 
ATOM     54  C   UNL A   1      35.432  32.776  29.627  1.00  0.00     0.040 A 
ATOM     55  F   UNL A   1      37.270  31.835  28.545  1.00  0.00    -0.206 F 
ATOM     56  C   UNL A   1      34.690  33.018  30.777  1.00  0.00     0.006 A 
ENDBRANCH  28  49
BRANCH  40  57
ATOM     57  C   UNL A   1      42.181  29.787  33.948  1.00  0.00     0.057 A 
ATOM     58  C   UNL A   1      41.768  28.460  33.752  1.00  0.00     0.134 A 
ATOM     59  C   UNL A   1      42.481  30.171  35.261  1.00  0.00     0.134 A 
ATOM     60  F   UNL A   1      41.548  27.970  32.524  1.00  0.00    -0.206 F 
ATOM     61  C   UNL A   1      41.623  27.572  34.824  1.00  0.00     0.040 A 
ATOM     62  C   UNL A   1      42.377  29.283  36.331  1.00  0.00     0.040 A 
ATOM     63  F   UNL A   1      42.927  31.411  35.516  1.00  0.00    -0.206 F 
ATOM     64  C   UNL A   1      41.936  27.981  36.116  1.00  0.00     0.006 A 
ENDBRANCH  40  57
ENDBRANCH  14  15
ENDBRANCH   7   9
ENDBRANCH   4   5
ENDBRANCH   3   4
ENDBRANCH   2   3
ENDBRANCH   1   2
BRANCH   1  65
ATOM     65  N   UNL A   1      37.675  23.662  24.713  1.00  0.00    -0.352 N 
ATOM     66  C   UNL A   1      36.605  23.159  24.014  1.00  0.00     0.251 C 
ATOM     67  H   UNL A   1      38.469  23.869  24.168  1.00  0.00     0.163 HD
ATOM     68  O   UNL A   1      36.697  23.015  22.792  1.00  0.00    -0.269 OA
BRANCH  66  69
ATOM     69  C   UNL A   1      35.365  22.719  24.698  1.00  0.00     0.048 A 
ATOM     70  C   UNL A   1      35.185  21.324  24.788  1.00  0.00     0.014 A 
ATOM     71  C   UNL A   1      34.389  23.596  25.207  1.00  0.00     0.019 A 
ATOM     72  C   UNL A   1      34.085  20.785  25.453  1.00  0.00     0.001 A 
ATOM     73  C   UNL A   1      33.341  23.020  25.944  1.00  0.00     0.010 A 
ATOM     74  C   UNL A   1      33.177  21.638  26.058  1.00  0.00     0.001 A 
BRANCH  71  75
ATOM     75  C   UNL A   1      34.451  25.100  25.010  1.00  0.00     0.300 C 
BRANCH  75  76
ATOM     76  N   UNL A   1      33.526  25.740  24.059  1.00  0.00    -0.329 N 
ATOM     77  C   UNL A   1      33.663  25.122  22.729  1.00  0.00     0.262 C 
ATOM     78  C   UNL A   1      32.115  25.911  24.481  1.00  0.00     0.186 C 
ATOM     79  H   UNL A   1      33.827  26.714  24.023  1.00  0.00     0.348 HD
ATOM     80  C   UNL A   1      32.934  25.920  21.656  1.00  0.00     0.062 C 
ATOM     81  C   UNL A   1      31.352  26.722  23.408  1.00  0.00     0.065 C 
ATOM     82  C   UNL A   1      31.471  26.093  22.024  1.00  0.00     0.012 C 
BRANCH  78  83
ATOM     83  C   UNL A   1      31.993  26.630  25.854  1.00  0.00     0.088 C 
BRANCH  83  84
ATOM     84  C   UNL A   1      31.703  28.133  25.789  1.00  0.00     0.150 C 
BRANCH  84  85
ATOM     85  N   UNL A   1      32.726  28.941  26.429  1.00  0.00    -0.273 N 
ATOM     86  C   UNL A   1      34.008  28.566  26.718  1.00  0.00     0.108 A 
ATOM     87  N   UNL A   1      32.429  30.182  26.856  1.00  0.00    -0.182 NA
ATOM     88  C   UNL A   1      34.573  29.626  27.389  1.00  0.00     0.042 A 
ATOM     89  C   UNL A   1      33.554  30.595  27.442  1.00  0.00     0.135 A 
ENDBRANCH  84  85
ENDBRANCH  83  84
ENDBRANCH  78  83
ENDBRANCH  75  76
ENDBRANCH  71  75
ENDBRANCH  66  69
ENDBRANCH   1  65
TORSDOF 16
ENDMDL
