MODEL 1
REMARK VINA RESULT:     -12.6      0.000      0.000
REMARK SMILES CC(C)N(c1cc2c(cc1Cl)C=C(C(=O)NCCCCNC(=O)c1ccc(-c3c4nc(c(-c5c(F)cccc5F)c5ccc([nH]5)c(-c5c(F)cccc5F)c5nc(c(-c6c(F)cccc6F)c6ccc3[nH]6)C=C5)C=C4)cc1)[C@@H](C(F)(F)F)O2)C(C)C
REMARK SMILES IDX 18 1 17 2 16 3 14 4 15 5 13 7 5 8 6 9 10 10 7 11 9 12 11 13
REMARK SMILES IDX 8 14 83 15 12 16 78 17 4 18 2 19 1 20 3 21 84 22 85 23 86 24
REMARK SMILES IDX 79 25 80 26 81 27 82 28 19 29 20 30 21 31 22 32 23 34 24 35
REMARK SMILES IDX 25 36 77 37 26 38 76 39 27 40 28 41 29 42 70 43 30 44 75 45
REMARK SMILES IDX 69 46 71 47 31 48 74 49 68 50 67 51 32 53 58 54 41 55 57 56
REMARK SMILES IDX 42 57 45 58 56 59 72 60 43 61 44 62 55 64 73 65 46 66 33 67
REMARK SMILES IDX 34 68 39 69 35 70 36 71 38 72 40 73 37 74 59 75 60 76 65 77
REMARK SMILES IDX 61 78 62 79 64 80 66 81 63 82 47 83 48 84 53 85 49 86 50 87
REMARK SMILES IDX 52 88 54 89 51 90
REMARK H PARENT 16 6 21 33 71 52 45 63
REMARK Flexibility Score: inf
ROOT
ATOM      1  C   UNL A   1      37.310  22.136  24.553  1.00  0.00     0.023 C 
ENDROOT
BRANCH   1   2
ATOM      2  C   UNL A   1      37.009  21.025  25.557  1.00  0.00     0.116 C 
BRANCH   2   3
ATOM      3  N   UNL A   1      35.927  20.167  25.111  1.00  0.00    -0.352 N 
ATOM      4  C   UNL A   1      34.605  20.300  24.849  1.00  0.00     0.251 C 
ATOM      5  O   UNL A   1      34.038  19.267  24.479  1.00  0.00    -0.270 OA
ATOM      6  H   UNL A   1      36.234  19.244  24.959  1.00  0.00     0.163 HD
BRANCH   4   7
ATOM      7  C   UNL A   1      33.822  21.565  24.974  1.00  0.00     0.067 C 
ATOM      8  C   UNL A   1      31.751  26.132  24.186  1.00  0.00     0.060 A 
ATOM      9  C   UNL A   1      31.466  25.032  25.015  1.00  0.00     0.074 A 
ATOM     10  C   UNL A   1      32.834  25.987  23.286  1.00  0.00     0.065 A 
ATOM     11  C   UNL A   1      32.226  23.863  24.966  1.00  0.00     0.130 A 
ATOM     12  C   UNL A   1      33.564  24.789  23.204  1.00  0.00     0.034 A 
ATOM     13  Cl  UNL A   1      33.397  27.285  22.285  1.00  0.00    -0.082 Cl
ATOM     14  C   UNL A   1      33.261  23.723  24.048  1.00  0.00     0.019 A 
ATOM     15  O   UNL A   1      31.878  22.867  25.834  1.00  0.00    -0.475 OA
ATOM     16  C   UNL A   1      33.982  22.456  23.977  1.00  0.00     0.025 C 
ATOM     17  C   UNL A   1      32.927  21.902  26.134  1.00  0.00     0.314 C 
BRANCH   8  18
ATOM     18  N   UNL A   1      30.964  27.296  24.297  1.00  0.00    -0.365 N 
BRANCH  18  19
ATOM     19  C   UNL A   1      31.374  28.277  25.326  1.00  0.00     0.076 C 
ATOM     20  C   UNL A   1      31.462  27.668  26.725  1.00  0.00     0.030 C 
ATOM     21  C   UNL A   1      32.659  29.019  24.973  1.00  0.00     0.030 C 
ENDBRANCH  18  19
BRANCH  18  22
ATOM     22  C   UNL A   1      29.932  27.496  23.253  1.00  0.00     0.076 C 
ATOM     23  C   UNL A   1      28.563  26.969  23.673  1.00  0.00     0.030 C 
ATOM     24  C   UNL A   1      29.843  28.932  22.747  1.00  0.00     0.030 C 
ENDBRANCH  18  22
ENDBRANCH   8  18
BRANCH  17  25
ATOM     25  C   UNL A   1      33.724  22.365  27.371  1.00  0.00     0.429 C 
ATOM     26  F   UNL A   1      34.559  23.384  27.044  1.00  0.00    -0.167 F 
ATOM     27  F   UNL A   1      32.920  22.834  28.356  1.00  0.00    -0.167 F 
ATOM     28  F   UNL A   1      34.475  21.381  27.912  1.00  0.00    -0.167 F 
ENDBRANCH  17  25
ENDBRANCH   4   7
ENDBRANCH   2   3
ENDBRANCH   1   2
BRANCH   1  29
ATOM     29  C   UNL A   1      37.294  23.544  25.151  1.00  0.00     0.023 C 
BRANCH  29  30
ATOM     30  C   UNL A   1      38.191  23.750  26.368  1.00  0.00     0.116 C 
BRANCH  30  31
ATOM     31  N   UNL A   1      39.614  23.589  26.101  1.00  0.00    -0.352 N 
ATOM     32  C   UNL A   1      40.650  24.398  26.510  1.00  0.00     0.251 C 
ATOM     33  H   UNL A   1      39.866  22.805  25.562  1.00  0.00     0.163 HD
ATOM     34  O   UNL A   1      41.801  24.176  26.151  1.00  0.00    -0.269 OA
BRANCH  32  35
ATOM     35  C   UNL A   1      40.340  25.575  27.345  1.00  0.00     0.039 A 
ATOM     36  C   UNL A   1      40.955  26.799  27.082  1.00  0.00     0.014 A 
ATOM     37  C   UNL A   1      39.504  25.423  28.454  1.00  0.00     0.014 A 
ATOM     38  C   UNL A   1      40.882  27.814  28.026  1.00  0.00     0.010 A 
ATOM     39  C   UNL A   1      39.366  26.476  29.362  1.00  0.00     0.010 A 
ATOM     40  C   UNL A   1      40.103  27.657  29.185  1.00  0.00    -0.014 A 
BRANCH  40  41
ATOM     41  C   UNL A   1      40.106  28.742  30.199  1.00  0.00     0.031 A 
ATOM     42  C   UNL A   1      39.082  29.844  30.158  1.00  0.00     0.074 A 
ATOM     43  C   UNL A   1      40.983  28.673  31.219  1.00  0.00     0.049 A 
ATOM     44  N   UNL A   1      38.876  30.810  31.019  1.00  0.00    -0.248 NA
ATOM     45  C   UNL A   1      38.174  29.873  29.001  1.00  0.00     0.031 C 
ATOM     46  C   UNL A   1      42.023  27.652  31.367  1.00  0.00     0.029 A 
ATOM     47  N   UNL A   1      41.110  29.445  32.345  1.00  0.00    -0.354 N 
ATOM     48  C   UNL A   1      37.834  31.568  30.501  1.00  0.00     0.074 A 
ATOM     49  C   UNL A   1      37.464  30.967  29.237  1.00  0.00     0.031 C 
ATOM     50  C   UNL A   1      42.632  27.816  32.550  1.00  0.00     0.029 A 
ATOM     51  C   UNL A   1      42.061  28.981  33.218  1.00  0.00     0.049 A 
ATOM     52  H   UNL A   1      40.572  30.253  32.509  1.00  0.00     0.167 HD
ATOM     53  C   UNL A   1      37.233  32.660  31.033  1.00  0.00     0.037 A 
ATOM     54  C   UNL A   1      42.427  29.437  34.430  1.00  0.00     0.037 A 
ATOM     55  C   UNL A   1      37.582  33.244  32.302  1.00  0.00     0.049 A 
ATOM     56  C   UNL A   1      41.745  30.646  34.995  1.00  0.00     0.074 A 
ATOM     57  C   UNL A   1      37.018  34.338  32.936  1.00  0.00     0.029 A 
ATOM     58  N   UNL A   1      38.588  32.776  33.135  1.00  0.00    -0.354 N 
ATOM     59  N   UNL A   1      40.755  31.346  34.495  1.00  0.00    -0.248 NA
ATOM     60  C   UNL A   1      42.237  31.133  36.290  1.00  0.00     0.031 C 
ATOM     61  C   UNL A   1      37.701  34.549  34.140  1.00  0.00     0.029 A 
ATOM     62  C   UNL A   1      38.669  33.567  34.270  1.00  0.00     0.049 A 
ATOM     63  H   UNL A   1      39.159  31.998  32.947  1.00  0.00     0.167 HD
ATOM     64  C   UNL A   1      40.504  32.354  35.413  1.00  0.00     0.074 A 
ATOM     65  C   UNL A   1      41.426  32.157  36.515  1.00  0.00     0.031 C 
ATOM     66  C   UNL A   1      39.600  33.361  35.348  1.00  0.00     0.037 A 
BRANCH  53  67
ATOM     67  C   UNL A   1      36.137  33.304  30.235  1.00  0.00     0.057 A 
ATOM     68  C   UNL A   1      34.793  33.068  30.548  1.00  0.00     0.134 A 
ATOM     69  C   UNL A   1      36.410  34.131  29.139  1.00  0.00     0.134 A 
ATOM     70  F   UNL A   1      34.462  32.282  31.583  1.00  0.00    -0.206 F 
ATOM     71  C   UNL A   1      33.759  33.631  29.797  1.00  0.00     0.040 A 
ATOM     72  C   UNL A   1      35.385  34.716  28.392  1.00  0.00     0.040 A 
ATOM     73  F   UNL A   1      37.678  34.410  28.796  1.00  0.00    -0.206 F 
ATOM     74  C   UNL A   1      34.054  34.462  28.719  1.00  0.00     0.006 A 
ENDBRANCH  53  67
BRANCH  54  75
ATOM     75  C   UNL A   1      43.489  28.737  35.191  1.00  0.00     0.057 A 
ATOM     76  C   UNL A   1      43.178  27.766  36.151  1.00  0.00     0.134 A 
ATOM     77  C   UNL A   1      44.840  29.029  34.978  1.00  0.00     0.134 A 
ATOM     78  F   UNL A   1      41.899  27.449  36.402  1.00  0.00    -0.206 F 
ATOM     79  C   UNL A   1      44.173  27.120  36.882  1.00  0.00     0.040 A 
ATOM     80  C   UNL A   1      45.848  28.373  35.686  1.00  0.00     0.040 A 
ATOM     81  F   UNL A   1      45.198  29.939  34.060  1.00  0.00    -0.206 F 
ATOM     82  C   UNL A   1      45.514  27.419  36.646  1.00  0.00     0.006 A 
ENDBRANCH  54  75
BRANCH  66  83
ATOM     83  C   UNL A   1      39.574  34.313  36.504  1.00  0.00     0.057 A 
ATOM     84  C   UNL A   1      40.272  35.525  36.451  1.00  0.00     0.134 A 
ATOM     85  C   UNL A   1      38.849  34.030  37.669  1.00  0.00     0.134 A 
ATOM     86  F   UNL A   1      40.989  35.852  35.365  1.00  0.00    -0.206 F 
ATOM     87  C   UNL A   1      40.241  36.429  37.514  1.00  0.00     0.040 A 
ATOM     88  C   UNL A   1      38.794  34.935  38.730  1.00  0.00     0.040 A 
ATOM     89  F   UNL A   1      38.146  32.891  37.772  1.00  0.00    -0.206 F 
ATOM     90  C   UNL A   1      39.495  36.138  38.654  1.00  0.00     0.006 A 
ENDBRANCH  66  83
ENDBRANCH  40  41
ENDBRANCH  32  35
ENDBRANCH  30  31
ENDBRANCH  29  30
ENDBRANCH   1  29
TORSDOF 15
ENDMDL
MODEL 2
REMARK VINA RESULT:     -12.3      5.266     10.063
REMARK SMILES CC(C)N(c1cc2c(cc1Cl)C=C(C(=O)NCCCCNC(=O)c1ccc(-c3c4nc(c(-c5c(F)cccc5F)c5ccc([nH]5)c(-c5c(F)cccc5F)c5nc(c(-c6c(F)cccc6F)c6ccc3[nH]6)C=C5)C=C4)cc1)[C@@H](C(F)(F)F)O2)C(C)C
REMARK SMILES IDX 18 1 17 2 16 3 14 4 15 5 13 7 5 8 6 9 10 10 7 11 9 12 11 13
REMARK SMILES IDX 8 14 83 15 12 16 78 17 4 18 2 19 1 20 3 21 84 22 85 23 86 24
REMARK SMILES IDX 79 25 80 26 81 27 82 28 19 29 20 30 21 31 22 32 23 34 24 35
REMARK SMILES IDX 25 36 77 37 26 38 76 39 27 40 28 41 29 42 70 43 30 44 75 45
REMARK SMILES IDX 69 46 71 47 31 48 74 49 68 50 67 51 32 53 58 54 41 55 57 56
REMARK SMILES IDX 42 57 45 58 56 59 72 60 43 61 44 62 55 64 73 65 46 66 33 67
REMARK SMILES IDX 34 68 39 69 35 70 36 71 38 72 40 73 37 74 59 75 60 76 65 77
REMARK SMILES IDX 61 78 62 79 64 80 66 81 63 82 47 83 48 84 53 85 49 86 50 87
REMARK SMILES IDX 52 88 54 89 51 90
REMARK H PARENT 16 6 21 33 71 52 45 63
REMARK Flexibility Score: inf
ROOT
ATOM      1  C   UNL A   1      32.876  30.042  25.666  1.00  0.00     0.023 C 
ENDROOT
BRANCH   1   2
ATOM      2  C   UNL A   1      31.385  30.251  25.411  1.00  0.00     0.116 C 
BRANCH   2   3
ATOM      3  N   UNL A   1      30.952  29.629  24.174  1.00  0.00    -0.352 N 
ATOM      4  C   UNL A   1      31.051  28.409  23.594  1.00  0.00     0.251 C 
ATOM      5  O   UNL A   1      30.516  28.312  22.485  1.00  0.00    -0.270 OA
ATOM      6  H   UNL A   1      30.454  30.260  23.605  1.00  0.00     0.163 HD
BRANCH   4   7
ATOM      7  C   UNL A   1      31.738  27.224  24.186  1.00  0.00     0.067 C 
ATOM      8  C   UNL A   1      34.916  23.379  25.126  1.00  0.00     0.060 A 
ATOM      9  C   UNL A   1      33.963  24.096  25.872  1.00  0.00     0.074 A 
ATOM     10  C   UNL A   1      35.137  23.807  23.795  1.00  0.00     0.065 A 
ATOM     11  C   UNL A   1      33.257  25.165  25.320  1.00  0.00     0.130 A 
ATOM     12  C   UNL A   1      34.461  24.917  23.261  1.00  0.00     0.034 A 
ATOM     13  Cl  UNL A   1      36.182  22.960  22.703  1.00  0.00    -0.082 Cl
ATOM     14  C   UNL A   1      33.516  25.599  24.024  1.00  0.00     0.019 A 
ATOM     15  O   UNL A   1      32.336  25.775  26.124  1.00  0.00    -0.475 OA
ATOM     16  C   UNL A   1      32.810  26.768  23.511  1.00  0.00     0.025 C 
ATOM     17  C   UNL A   1      31.288  26.511  25.431  1.00  0.00     0.314 C 
BRANCH   8  18
ATOM     18  N   UNL A   1      35.581  22.292  25.729  1.00  0.00    -0.365 N 
BRANCH  18  19
ATOM     19  C   UNL A   1      36.981  22.523  26.148  1.00  0.00     0.076 C 
ATOM     20  C   UNL A   1      37.976  21.622  25.416  1.00  0.00     0.030 C 
ATOM     21  C   UNL A   1      37.403  23.986  26.060  1.00  0.00     0.030 C 
ENDBRANCH  18  19
BRANCH  18  22
ATOM     22  C   UNL A   1      34.752  21.106  26.047  1.00  0.00     0.076 C 
ATOM     23  C   UNL A   1      33.880  21.313  27.282  1.00  0.00     0.030 C 
ATOM     24  C   UNL A   1      33.932  20.597  24.867  1.00  0.00     0.030 C 
ENDBRANCH  18  22
ENDBRANCH   8  18
BRANCH  17  25
ATOM     25  C   UNL A   1      30.083  25.584  25.171  1.00  0.00     0.429 C 
ATOM     26  F   UNL A   1      28.952  26.313  24.996  1.00  0.00    -0.167 F 
ATOM     27  F   UNL A   1      30.236  24.844  24.047  1.00  0.00    -0.167 F 
ATOM     28  F   UNL A   1      29.856  24.719  26.183  1.00  0.00    -0.167 F 
ENDBRANCH  17  25
ENDBRANCH   4   7
ENDBRANCH   2   3
ENDBRANCH   1   2
BRANCH   1  29
ATOM     29  C   UNL A   1      33.195  29.328  26.981  1.00  0.00     0.023 C 
BRANCH  29  30
ATOM     30  C   UNL A   1      34.625  29.494  27.488  1.00  0.00     0.116 C 
BRANCH  30  31
ATOM     31  N   UNL A   1      34.763  30.414  28.610  1.00  0.00    -0.352 N 
ATOM     32  C   UNL A   1      35.865  30.616  29.409  1.00  0.00     0.251 C 
ATOM     33  H   UNL A   1      33.970  30.957  28.822  1.00  0.00     0.163 HD
ATOM     34  O   UNL A   1      35.816  31.379  30.368  1.00  0.00    -0.269 OA
BRANCH  32  35
ATOM     35  C   UNL A   1      37.094  29.850  29.125  1.00  0.00     0.039 A 
ATOM     36  C   UNL A   1      37.752  29.177  30.154  1.00  0.00     0.014 A 
ATOM     37  C   UNL A   1      37.640  29.891  27.838  1.00  0.00     0.014 A 
ATOM     38  C   UNL A   1      39.040  28.705  29.943  1.00  0.00     0.010 A 
ATOM     39  C   UNL A   1      38.903  29.341  27.608  1.00  0.00     0.010 A 
ATOM     40  C   UNL A   1      39.638  28.798  28.674  1.00  0.00    -0.014 A 
BRANCH  40  41
ATOM     41  C   UNL A   1      41.040  28.339  28.510  1.00  0.00     0.031 A 
ATOM     42  C   UNL A   1      41.351  26.918  28.124  1.00  0.00     0.074 A 
ATOM     43  C   UNL A   1      42.034  29.242  28.616  1.00  0.00     0.049 A 
ATOM     44  N   UNL A   1      42.509  26.376  27.840  1.00  0.00    -0.248 NA
ATOM     45  C   UNL A   1      40.220  25.980  28.054  1.00  0.00     0.031 C 
ATOM     46  C   UNL A   1      41.857  30.649  28.985  1.00  0.00     0.029 A 
ATOM     47  N   UNL A   1      43.379  29.125  28.380  1.00  0.00    -0.354 N 
ATOM     48  C   UNL A   1      42.250  25.036  27.577  1.00  0.00     0.074 A 
ATOM     49  C   UNL A   1      40.828  24.839  27.760  1.00  0.00     0.031 C 
ATOM     50  C   UNL A   1      43.035  31.281  28.879  1.00  0.00     0.029 A 
ATOM     51  C   UNL A   1      44.055  30.315  28.485  1.00  0.00     0.049 A 
ATOM     52  H   UNL A   1      43.816  28.272  28.158  1.00  0.00     0.167 HD
ATOM     53  C   UNL A   1      43.116  24.062  27.207  1.00  0.00     0.037 A 
ATOM     54  C   UNL A   1      45.353  30.601  28.278  1.00  0.00     0.037 A 
ATOM     55  C   UNL A   1      44.527  24.261  27.001  1.00  0.00     0.049 A 
ATOM     56  C   UNL A   1      46.288  29.503  27.868  1.00  0.00     0.074 A 
ATOM     57  C   UNL A   1      45.483  23.341  26.606  1.00  0.00     0.029 A 
ATOM     58  N   UNL A   1      45.185  25.471  27.168  1.00  0.00    -0.354 N 
ATOM     59  N   UNL A   1      46.025  28.243  27.616  1.00  0.00    -0.248 NA
ATOM     60  C   UNL A   1      47.704  29.866  27.723  1.00  0.00     0.031 C 
ATOM     61  C   UNL A   1      46.724  23.987  26.562  1.00  0.00     0.029 A 
ATOM     62  C   UNL A   1      46.535  25.317  26.897  1.00  0.00     0.049 A 
ATOM     63  H   UNL A   1      44.755  26.314  27.439  1.00  0.00     0.167 HD
ATOM     64  C   UNL A   1      47.239  27.663  27.281  1.00  0.00     0.074 A 
ATOM     65  C   UNL A   1      48.235  28.716  27.333  1.00  0.00     0.031 C 
ATOM     66  C   UNL A   1      47.510  26.374  26.967  1.00  0.00     0.037 A 
BRANCH  53  67
ATOM     67  C   UNL A   1      42.560  22.681  27.013  1.00  0.00     0.057 A 
ATOM     68  C   UNL A   1      42.237  21.880  28.116  1.00  0.00     0.134 A 
ATOM     69  C   UNL A   1      42.372  22.132  25.739  1.00  0.00     0.134 A 
ATOM     70  F   UNL A   1      42.398  22.344  29.365  1.00  0.00    -0.206 F 
ATOM     71  C   UNL A   1      41.751  20.581  27.958  1.00  0.00     0.040 A 
ATOM     72  C   UNL A   1      41.867  20.842  25.567  1.00  0.00     0.040 A 
ATOM     73  F   UNL A   1      42.646  22.853  24.641  1.00  0.00    -0.206 F 
ATOM     74  C   UNL A   1      41.559  20.060  26.680  1.00  0.00     0.006 A 
ENDBRANCH  53  67
BRANCH  54  75
ATOM     75  C   UNL A   1      45.839  31.990  28.445  1.00  0.00     0.057 A 
ATOM     76  C   UNL A   1      46.295  32.459  29.683  1.00  0.00     0.134 A 
ATOM     77  C   UNL A   1      45.850  32.884  27.369  1.00  0.00     0.134 A 
ATOM     78  F   UNL A   1      46.302  31.649  30.752  1.00  0.00    -0.206 F 
ATOM     79  C   UNL A   1      46.735  33.771  29.848  1.00  0.00     0.040 A 
ATOM     80  C   UNL A   1      46.309  34.194  27.515  1.00  0.00     0.040 A 
ATOM     81  F   UNL A   1      45.438  32.486  26.156  1.00  0.00    -0.206 F 
ATOM     82  C   UNL A   1      46.748  34.642  28.759  1.00  0.00     0.006 A 
ENDBRANCH  54  75
BRANCH  66  83
ATOM     83  C   UNL A   1      48.939  26.045  26.659  1.00  0.00     0.057 A 
ATOM     84  C   UNL A   1      49.457  26.238  25.374  1.00  0.00     0.134 A 
ATOM     85  C   UNL A   1      49.803  25.545  27.641  1.00  0.00     0.134 A 
ATOM     86  F   UNL A   1      48.678  26.711  24.388  1.00  0.00    -0.206 F 
ATOM     87  C   UNL A   1      50.791  25.953  25.077  1.00  0.00     0.040 A 
ATOM     88  C   UNL A   1      51.143  25.275  27.362  1.00  0.00     0.040 A 
ATOM     89  F   UNL A   1      49.368  25.355  28.897  1.00  0.00    -0.206 F 
ATOM     90  C   UNL A   1      51.639  25.477  26.075  1.00  0.00     0.006 A 
ENDBRANCH  66  83
ENDBRANCH  40  41
ENDBRANCH  32  35
ENDBRANCH  30  31
ENDBRANCH  29  30
ENDBRANCH   1  29
TORSDOF 15
ENDMDL
MODEL 3
REMARK VINA RESULT:     -12.2      5.296     10.094
REMARK SMILES CC(C)N(c1cc2c(cc1Cl)C=C(C(=O)NCCCCNC(=O)c1ccc(-c3c4nc(c(-c5c(F)cccc5F)c5ccc([nH]5)c(-c5c(F)cccc5F)c5nc(c(-c6c(F)cccc6F)c6ccc3[nH]6)C=C5)C=C4)cc1)[C@@H](C(F)(F)F)O2)C(C)C
REMARK SMILES IDX 18 1 17 2 16 3 14 4 15 5 13 7 5 8 6 9 10 10 7 11 9 12 11 13
REMARK SMILES IDX 8 14 83 15 12 16 78 17 4 18 2 19 1 20 3 21 84 22 85 23 86 24
REMARK SMILES IDX 79 25 80 26 81 27 82 28 19 29 20 30 21 31 22 32 23 34 24 35
REMARK SMILES IDX 25 36 77 37 26 38 76 39 27 40 28 41 29 42 70 43 30 44 75 45
REMARK SMILES IDX 69 46 71 47 31 48 74 49 68 50 67 51 32 53 58 54 41 55 57 56
REMARK SMILES IDX 42 57 45 58 56 59 72 60 43 61 44 62 55 64 73 65 46 66 33 67
REMARK SMILES IDX 34 68 39 69 35 70 36 71 38 72 40 73 37 74 59 75 60 76 65 77
REMARK SMILES IDX 61 78 62 79 64 80 66 81 63 82 47 83 48 84 53 85 49 86 50 87
REMARK SMILES IDX 52 88 54 89 51 90
REMARK H PARENT 16 6 21 33 71 52 45 63
REMARK Flexibility Score: inf
ROOT
ATOM      1  C   UNL A   1      32.076  29.550  27.010  1.00  0.00     0.023 C 
ENDROOT
BRANCH   1   2
ATOM      2  C   UNL A   1      32.127  30.455  25.782  1.00  0.00     0.116 C 
BRANCH   2   3
ATOM      3  N   UNL A   1      31.020  30.208  24.877  1.00  0.00    -0.352 N 
ATOM      4  C   UNL A   1      30.577  29.179  24.116  1.00  0.00     0.251 C 
ATOM      5  O   UNL A   1      29.551  29.410  23.470  1.00  0.00    -0.270 OA
ATOM      6  H   UNL A   1      30.437  30.997  24.792  1.00  0.00     0.163 HD
BRANCH   4   7
ATOM      7  C   UNL A   1      31.225  27.838  24.015  1.00  0.00     0.067 C 
ATOM      8  C   UNL A   1      32.804  23.092  24.881  1.00  0.00     0.060 A 
ATOM      9  C   UNL A   1      32.718  23.930  23.754  1.00  0.00     0.074 A 
ATOM     10  C   UNL A   1      32.299  23.609  26.098  1.00  0.00     0.065 A 
ATOM     11  C   UNL A   1      32.179  25.214  23.837  1.00  0.00     0.130 A 
ATOM     12  C   UNL A   1      31.710  24.883  26.165  1.00  0.00     0.034 A 
ATOM     13  Cl  UNL A   1      32.439  22.761  27.603  1.00  0.00    -0.082 Cl
ATOM     14  C   UNL A   1      31.651  25.691  25.032  1.00  0.00     0.019 A 
ATOM     15  O   UNL A   1      32.169  25.952  22.687  1.00  0.00    -0.475 OA
ATOM     16  C   UNL A   1      31.028  27.009  25.058  1.00  0.00     0.025 C 
ATOM     17  C   UNL A   1      32.091  27.394  22.869  1.00  0.00     0.314 C 
BRANCH   8  18
ATOM     18  N   UNL A   1      33.380  21.814  24.742  1.00  0.00    -0.365 N 
BRANCH  18  19
ATOM     19  C   UNL A   1      32.448  20.689  24.507  1.00  0.00     0.076 C 
ATOM     20  C   UNL A   1      32.345  20.300  23.033  1.00  0.00     0.030 C 
ATOM     21  C   UNL A   1      32.745  19.469  25.374  1.00  0.00     0.030 C 
ENDBRANCH  18  19
BRANCH  18  22
ATOM     22  C   UNL A   1      34.858  21.762  24.659  1.00  0.00     0.076 C 
ATOM     23  C   UNL A   1      35.533  22.803  25.548  1.00  0.00     0.030 C 
ATOM     24  C   UNL A   1      35.437  20.371  24.895  1.00  0.00     0.030 C 
ENDBRANCH  18  22
ENDBRANCH   8  18
BRANCH  17  25
ATOM     25  C   UNL A   1      33.512  27.989  22.945  1.00  0.00     0.429 C 
ATOM     26  F   UNL A   1      33.468  29.341  22.845  1.00  0.00    -0.167 F 
ATOM     27  F   UNL A   1      34.123  27.715  24.124  1.00  0.00    -0.167 F 
ATOM     28  F   UNL A   1      34.326  27.535  21.967  1.00  0.00    -0.167 F 
ENDBRANCH  17  25
ENDBRANCH   4   7
ENDBRANCH   2   3
ENDBRANCH   1   2
BRANCH   1  29
ATOM     29  C   UNL A   1      33.348  28.730  27.239  1.00  0.00     0.023 C 
BRANCH  29  30
ATOM     30  C   UNL A   1      34.643  29.535  27.308  1.00  0.00     0.116 C 
BRANCH  30  31
ATOM     31  N   UNL A   1      34.724  30.449  28.440  1.00  0.00    -0.352 N 
ATOM     32  C   UNL A   1      35.788  30.654  29.290  1.00  0.00     0.251 C 
ATOM     33  H   UNL A   1      33.919  30.987  28.619  1.00  0.00     0.163 HD
ATOM     34  O   UNL A   1      35.690  31.411  30.249  1.00  0.00    -0.269 OA
BRANCH  32  35
ATOM     35  C   UNL A   1      37.033  29.898  29.057  1.00  0.00     0.039 A 
ATOM     36  C   UNL A   1      37.646  29.220  30.111  1.00  0.00     0.014 A 
ATOM     37  C   UNL A   1      37.638  29.951  27.798  1.00  0.00     0.014 A 
ATOM     38  C   UNL A   1      38.946  28.757  29.957  1.00  0.00     0.010 A 
ATOM     39  C   UNL A   1      38.914  29.410  27.624  1.00  0.00     0.010 A 
ATOM     40  C   UNL A   1      39.601  28.863  28.718  1.00  0.00    -0.014 A 
BRANCH  40  41
ATOM     41  C   UNL A   1      41.013  28.414  28.617  1.00  0.00     0.031 A 
ATOM     42  C   UNL A   1      41.350  27.002  28.218  1.00  0.00     0.074 A 
ATOM     43  C   UNL A   1      41.995  29.318  28.793  1.00  0.00     0.049 A 
ATOM     44  N   UNL A   1      42.524  26.471  27.982  1.00  0.00    -0.248 NA
ATOM     45  C   UNL A   1      40.229  26.061  28.070  1.00  0.00     0.031 C 
ATOM     46  C   UNL A   1      41.792  30.716  29.182  1.00  0.00     0.029 A 
ATOM     47  N   UNL A   1      43.351  29.212  28.623  1.00  0.00    -0.354 N 
ATOM     48  C   UNL A   1      42.286  25.136  27.678  1.00  0.00     0.074 A 
ATOM     49  C   UNL A   1      40.857  24.930  27.783  1.00  0.00     0.031 C 
ATOM     50  C   UNL A   1      42.970  31.355  29.149  1.00  0.00     0.029 A 
ATOM     51  C   UNL A   1      44.014  30.402  28.788  1.00  0.00     0.049 A 
ATOM     52  H   UNL A   1      43.803  28.366  28.406  1.00  0.00     0.167 HD
ATOM     53  C   UNL A   1      43.174  24.174  27.333  1.00  0.00     0.037 A 
ATOM     54  C   UNL A   1      45.320  30.697  28.653  1.00  0.00     0.037 A 
ATOM     55  C   UNL A   1      44.593  24.383  27.203  1.00  0.00     0.049 A 
ATOM     56  C   UNL A   1      46.281  29.613  28.270  1.00  0.00     0.074 A 
ATOM     57  C   UNL A   1      45.573  23.475  26.839  1.00  0.00     0.029 A 
ATOM     58  N   UNL A   1      45.235  25.592  27.429  1.00  0.00    -0.354 N 
ATOM     59  N   UNL A   1      46.037  28.357  27.977  1.00  0.00    -0.248 NA
ATOM     60  C   UNL A   1      47.700  29.984  28.205  1.00  0.00     0.031 C 
ATOM     61  C   UNL A   1      46.811  24.127  26.872  1.00  0.00     0.029 A 
ATOM     62  C   UNL A   1      46.598  25.450  27.225  1.00  0.00     0.049 A 
ATOM     63  H   UNL A   1      44.788  26.427  27.696  1.00  0.00     0.167 HD
ATOM     64  C   UNL A   1      47.270  27.790  27.693  1.00  0.00     0.074 A 
ATOM     65  C   UNL A   1      48.256  28.845  27.818  1.00  0.00     0.031 C 
ATOM     66  C   UNL A   1      47.563  26.508  27.367  1.00  0.00     0.037 A 
BRANCH  53  67
ATOM     67  C   UNL A   1      42.636  22.795  27.082  1.00  0.00     0.057 A 
ATOM     68  C   UNL A   1      42.285  21.960  28.150  1.00  0.00     0.134 A 
ATOM     69  C   UNL A   1      42.493  22.282  25.787  1.00  0.00     0.134 A 
ATOM     70  F   UNL A   1      42.402  22.389  29.416  1.00  0.00    -0.206 F 
ATOM     71  C   UNL A   1      41.815  20.663  27.939  1.00  0.00     0.040 A 
ATOM     72  C   UNL A   1      42.004  20.993  25.562  1.00  0.00     0.040 A 
ATOM     73  F   UNL A   1      42.796  23.037  24.719  1.00  0.00    -0.206 F 
ATOM     74  C   UNL A   1      41.668  20.178  26.641  1.00  0.00     0.006 A 
ENDBRANCH  53  67
BRANCH  54  75
ATOM     75  C   UNL A   1      45.789  32.085  28.875  1.00  0.00     0.057 A 
ATOM     76  C   UNL A   1      45.822  33.019  27.833  1.00  0.00     0.134 A 
ATOM     77  C   UNL A   1      46.222  32.507  30.137  1.00  0.00     0.134 A 
ATOM     78  F   UNL A   1      45.425  32.671  26.600  1.00  0.00    -0.206 F 
ATOM     79  C   UNL A   1      46.281  34.320  28.035  1.00  0.00     0.040 A 
ATOM     80  C   UNL A   1      46.661  33.812  30.359  1.00  0.00     0.040 A 
ATOM     81  F   UNL A   1      46.197  31.659  31.177  1.00  0.00    -0.206 F 
ATOM     82  C   UNL A   1      46.697  34.722  29.303  1.00  0.00     0.006 A 
ENDBRANCH  54  75
BRANCH  66  83
ATOM     83  C   UNL A   1      49.008  26.192  27.125  1.00  0.00     0.057 A 
ATOM     84  C   UNL A   1      49.822  25.725  28.162  1.00  0.00     0.134 A 
ATOM     85  C   UNL A   1      49.588  26.345  25.860  1.00  0.00     0.134 A 
ATOM     86  F   UNL A   1      49.326  25.561  29.399  1.00  0.00    -0.206 F 
ATOM     87  C   UNL A   1      51.165  25.411  27.946  1.00  0.00     0.040 A 
ATOM     88  C   UNL A   1      50.923  26.015  25.627  1.00  0.00     0.040 A 
ATOM     89  F   UNL A   1      48.852  26.774  24.822  1.00  0.00    -0.206 F 
ATOM     90  C   UNL A   1      51.716  25.548  26.674  1.00  0.00     0.006 A 
ENDBRANCH  66  83
ENDBRANCH  40  41
ENDBRANCH  32  35
ENDBRANCH  30  31
ENDBRANCH  29  30
ENDBRANCH   1  29
TORSDOF 15
ENDMDL
