MODEL 1
REMARK VINA RESULT:     -12.5      0.000      0.000
REMARK SMILES NS(=O)(=O)c1ccc(-n2ccnc2-c2ccc(O)c(C(=O)NCCCCNC(=O)c3ccc(-c4c5nc(c(-c6c(F)cccc6F)c6ccc([nH]6)c(-c6c(F)cccc6F)c6nc(c(-c7c(F)cccc7F)c7ccc4[nH]7)C=C6)C=C5)cc3)c2)cc1
REMARK SMILES IDX 23 1 22 2 20 3 21 4 19 6 14 7 15 8 84 9 16 10 17 11 13 12
REMARK SMILES IDX 9 13 10 14 11 15 12 16 8 17 5 18 6 19 86 20 7 21 85 22 2 23
REMARK SMILES IDX 3 24 4 25 1 26 18 29 24 31 25 32 26 33 27 34 28 35 29 37
REMARK SMILES IDX 30 38 31 39 83 40 32 41 82 42 33 43 34 44 35 45 76 46 36 47
REMARK SMILES IDX 81 48 75 49 77 50 37 51 80 52 74 53 73 54 38 56 64 57 47 58
REMARK SMILES IDX 63 59 48 60 51 61 62 62 78 63 49 64 50 65 61 67 79 68 52 69
REMARK SMILES IDX 39 70 40 71 45 72 41 73 42 74 44 75 46 76 43 77 65 78 66 79
REMARK SMILES IDX 71 80 67 81 68 82 70 83 72 84 69 85 53 86 54 87 59 88 55 89
REMARK SMILES IDX 56 90 58 91 60 92 57 93
REMARK H PARENT 22 5 1 27 1 28 18 30 27 36 77 55 51 66
REMARK Flexibility Score: inf
ROOT
ATOM      1  C   UNL A   1      37.405  22.358  25.407  1.00  0.00     0.116 C 
ENDROOT
BRANCH   1   2
ATOM      2  N   UNL A   1      36.405  22.541  26.459  1.00  0.00    -0.352 N 
ATOM      3  C   UNL A   1      35.022  22.447  26.482  1.00  0.00     0.255 C 
ATOM      4  O   UNL A   1      34.434  22.683  27.541  1.00  0.00    -0.269 OA
ATOM      5  H   UNL A   1      36.795  22.781  27.331  1.00  0.00     0.163 HD
BRANCH   3   6
ATOM      6  C   UNL A   1      34.187  22.140  25.287  1.00  0.00     0.082 A 
ATOM      7  C   UNL A   1      33.312  22.860  23.113  1.00  0.00     0.019 A 
ATOM      8  C   UNL A   1      32.354  21.847  23.171  1.00  0.00     0.016 A 
ATOM      9  C   UNL A   1      34.271  22.911  24.136  1.00  0.00     0.029 A 
ATOM     10  C   UNL A   1      32.374  20.923  24.225  1.00  0.00     0.048 A 
ATOM     11  C   UNL A   1      33.273  21.081  25.285  1.00  0.00     0.128 A 
BRANCH   7  12
ATOM     12  C   UNL A   1      33.230  23.962  22.129  1.00  0.00     0.144 A 
ATOM     13  N   UNL A   1      32.753  25.251  22.387  1.00  0.00    -0.300 N 
ATOM     14  C   UNL A   1      32.346  25.776  21.184  1.00  0.00     0.113 A 
ATOM     15  C   UNL A   1      32.763  24.878  20.236  1.00  0.00     0.132 A 
ATOM     16  N   UNL A   1      33.336  23.780  20.822  1.00  0.00    -0.236 NA
BRANCH  13  17
ATOM     17  C   UNL A   1      32.588  25.860  23.651  1.00  0.00     0.047 A 
ATOM     18  C   UNL A   1      32.226  27.442  25.874  1.00  0.00     0.082 A 
ATOM     19  C   UNL A   1      31.104  26.937  25.222  1.00  0.00     0.024 A 
ATOM     20  C   UNL A   1      33.527  27.140  25.453  1.00  0.00     0.024 A 
ATOM     21  C   UNL A   1      31.288  26.139  24.103  1.00  0.00     0.028 A 
ATOM     22  C   UNL A   1      33.714  26.321  24.344  1.00  0.00     0.028 A 
BRANCH  18  23
ATOM     23  S   UNL A   1      32.008  28.572  27.201  1.00  0.00     0.238 S 
ATOM     24  O   UNL A   1      31.298  27.940  28.279  1.00  0.00    -0.207 OA
ATOM     25  O   UNL A   1      31.578  29.812  26.590  1.00  0.00    -0.207 OA
BRANCH  23  26
ATOM     26  N   UNL A   1      33.587  28.761  27.733  1.00  0.00    -0.225 NA
ATOM     27  H   UNL A   1      34.102  29.342  27.071  1.00  0.00     0.137 HD
ATOM     28  H   UNL A   1      34.034  27.846  27.801  1.00  0.00     0.137 HD
ENDBRANCH  23  26
ENDBRANCH  18  23
ENDBRANCH  13  17
ENDBRANCH   7  12
BRANCH  11  29
ATOM     29  O   UNL A   1      33.201  20.159  26.294  1.00  0.00    -0.507 OA
ATOM     30  H   UNL A   1      32.650  20.318  27.035  1.00  0.00     0.293 HD
ENDBRANCH  11  29
ENDBRANCH   3   6
ENDBRANCH   1   2
BRANCH   1  31
ATOM     31  C   UNL A   1      38.776  21.862  25.865  1.00  0.00     0.023 C 
BRANCH  31  32
ATOM     32  C   UNL A   1      39.229  20.482  25.398  1.00  0.00     0.023 C 
BRANCH  32  33
ATOM     33  C   UNL A   1      39.981  19.663  26.435  1.00  0.00     0.116 C 
BRANCH  33  34
ATOM     34  N   UNL A   1      41.208  19.029  25.939  1.00  0.00    -0.352 N 
ATOM     35  C   UNL A   1      42.401  19.660  25.615  1.00  0.00     0.251 C 
ATOM     36  H   UNL A   1      41.182  18.051  25.825  1.00  0.00     0.163 HD
ATOM     37  O   UNL A   1      43.239  19.130  24.897  1.00  0.00    -0.269 OA
BRANCH  35  38
ATOM     38  C   UNL A   1      42.655  20.987  26.201  1.00  0.00     0.039 A 
ATOM     39  C   UNL A   1      42.829  22.143  25.434  1.00  0.00     0.014 A 
ATOM     40  C   UNL A   1      42.648  21.042  27.590  1.00  0.00     0.014 A 
ATOM     41  C   UNL A   1      42.926  23.369  26.094  1.00  0.00     0.010 A 
ATOM     42  C   UNL A   1      42.518  22.248  28.212  1.00  0.00     0.010 A 
ATOM     43  C   UNL A   1      42.755  23.406  27.485  1.00  0.00    -0.014 A 
BRANCH  43  44
ATOM     44  C   UNL A   1      42.691  24.648  28.239  1.00  0.00     0.031 A 
ATOM     45  C   UNL A   1      41.399  25.358  28.123  1.00  0.00     0.074 A 
ATOM     46  C   UNL A   1      43.624  24.962  29.164  1.00  0.00     0.049 A 
ATOM     47  N   UNL A   1      41.200  26.495  27.549  1.00  0.00    -0.248 NA
ATOM     48  C   UNL A   1      40.160  24.669  28.524  1.00  0.00     0.031 C 
ATOM     49  C   UNL A   1      44.811  24.197  29.546  1.00  0.00     0.029 A 
ATOM     50  N   UNL A   1      43.636  25.984  30.064  1.00  0.00    -0.354 N 
ATOM     51  C   UNL A   1      39.857  26.788  27.751  1.00  0.00     0.074 A 
ATOM     52  C   UNL A   1      39.234  25.550  28.135  1.00  0.00     0.031 C 
ATOM     53  C   UNL A   1      45.270  24.627  30.741  1.00  0.00     0.029 A 
ATOM     54  C   UNL A   1      44.520  25.795  31.130  1.00  0.00     0.049 A 
ATOM     55  H   UNL A   1      43.072  26.786  29.971  1.00  0.00     0.167 HD
ATOM     56  C   UNL A   1      39.448  28.082  27.871  1.00  0.00     0.037 A 
ATOM     57  C   UNL A   1      44.594  26.538  32.264  1.00  0.00     0.037 A 
ATOM     58  C   UNL A   1      40.477  28.988  27.409  1.00  0.00     0.049 A 
ATOM     59  C   UNL A   1      43.985  27.854  31.934  1.00  0.00     0.074 A 
ATOM     60  C   UNL A   1      41.175  29.127  26.223  1.00  0.00     0.029 A 
ATOM     61  N   UNL A   1      41.226  29.643  28.358  1.00  0.00    -0.354 N 
ATOM     62  N   UNL A   1      44.518  28.682  31.074  1.00  0.00    -0.248 NA
ATOM     63  C   UNL A   1      42.546  27.979  32.119  1.00  0.00     0.031 C 
ATOM     64  C   UNL A   1      42.522  29.378  26.622  1.00  0.00     0.029 A 
ATOM     65  C   UNL A   1      42.548  29.497  28.012  1.00  0.00     0.049 A 
ATOM     66  H   UNL A   1      40.881  30.127  29.142  1.00  0.00     0.167 HD
ATOM     67  C   UNL A   1      43.453  29.100  30.288  1.00  0.00     0.074 A 
ATOM     68  C   UNL A   1      42.253  28.673  31.014  1.00  0.00     0.031 C 
ATOM     69  C   UNL A   1      43.623  29.449  28.977  1.00  0.00     0.037 A 
BRANCH  56  70
ATOM     70  C   UNL A   1      38.325  28.543  28.767  1.00  0.00     0.057 A 
ATOM     71  C   UNL A   1      37.418  29.498  28.273  1.00  0.00     0.134 A 
ATOM     72  C   UNL A   1      38.268  28.327  30.159  1.00  0.00     0.134 A 
ATOM     73  F   UNL A   1      37.378  29.799  26.967  1.00  0.00    -0.206 F 
ATOM     74  C   UNL A   1      36.584  30.245  29.114  1.00  0.00     0.040 A 
ATOM     75  C   UNL A   1      37.401  29.030  31.000  1.00  0.00     0.040 A 
ATOM     76  F   UNL A   1      39.105  27.506  30.801  1.00  0.00    -0.206 F 
ATOM     77  C   UNL A   1      36.581  30.020  30.483  1.00  0.00     0.006 A 
ENDBRANCH  56  70
BRANCH  57  78
ATOM     78  C   UNL A   1      44.841  26.072  33.653  1.00  0.00     0.057 A 
ATOM     79  C   UNL A   1      44.256  24.898  34.152  1.00  0.00     0.134 A 
ATOM     80  C   UNL A   1      45.866  26.624  34.446  1.00  0.00     0.134 A 
ATOM     81  F   UNL A   1      43.300  24.267  33.455  1.00  0.00    -0.206 F 
ATOM     82  C   UNL A   1      44.676  24.302  35.353  1.00  0.00     0.040 A 
ATOM     83  C   UNL A   1      46.290  26.042  35.647  1.00  0.00     0.040 A 
ATOM     84  F   UNL A   1      46.554  27.698  34.036  1.00  0.00    -0.206 F 
ATOM     85  C   UNL A   1      45.703  24.868  36.100  1.00  0.00     0.006 A 
ENDBRANCH  57  78
BRANCH  69  86
ATOM     86  C   UNL A   1      45.023  29.572  28.426  1.00  0.00     0.057 A 
ATOM     87  C   UNL A   1      45.722  28.540  27.780  1.00  0.00     0.134 A 
ATOM     88  C   UNL A   1      45.605  30.843  28.374  1.00  0.00     0.134 A 
ATOM     89  F   UNL A   1      45.210  27.308  27.678  1.00  0.00    -0.206 F 
ATOM     90  C   UNL A   1      46.953  28.754  27.147  1.00  0.00     0.040 A 
ATOM     91  C   UNL A   1      46.817  31.079  27.719  1.00  0.00     0.040 A 
ATOM     92  F   UNL A   1      44.972  31.897  28.914  1.00  0.00    -0.206 F 
ATOM     93  C   UNL A   1      47.499  30.032  27.108  1.00  0.00     0.006 A 
ENDBRANCH  69  86
ENDBRANCH  43  44
ENDBRANCH  35  38
ENDBRANCH  33  34
ENDBRANCH  32  33
ENDBRANCH  31  32
ENDBRANCH   1  31
TORSDOF 16
ENDMDL
MODEL 2
REMARK VINA RESULT:     -12.5      3.634      8.823
REMARK SMILES NS(=O)(=O)c1ccc(-n2ccnc2-c2ccc(O)c(C(=O)NCCCCNC(=O)c3ccc(-c4c5nc(c(-c6c(F)cccc6F)c6ccc([nH]6)c(-c6c(F)cccc6F)c6nc(c(-c7c(F)cccc7F)c7ccc4[nH]7)C=C6)C=C5)cc3)c2)cc1
REMARK SMILES IDX 23 1 22 2 20 3 21 4 19 6 14 7 15 8 84 9 16 10 17 11 13 12
REMARK SMILES IDX 9 13 10 14 11 15 12 16 8 17 5 18 6 19 86 20 7 21 85 22 2 23
REMARK SMILES IDX 3 24 4 25 1 26 18 29 24 31 25 32 26 33 27 34 28 35 29 37
REMARK SMILES IDX 30 38 31 39 83 40 32 41 82 42 33 43 34 44 35 45 76 46 36 47
REMARK SMILES IDX 81 48 75 49 77 50 37 51 80 52 74 53 73 54 38 56 64 57 47 58
REMARK SMILES IDX 63 59 48 60 51 61 62 62 78 63 49 64 50 65 61 67 79 68 52 69
REMARK SMILES IDX 39 70 40 71 45 72 41 73 42 74 44 75 46 76 43 77 65 78 66 79
REMARK SMILES IDX 71 80 67 81 68 82 70 83 72 84 69 85 53 86 54 87 59 88 55 89
REMARK SMILES IDX 56 90 58 91 60 92 57 93
REMARK H PARENT 22 5 1 27 1 28 18 30 27 36 77 55 51 66
REMARK Flexibility Score: inf
ROOT
ATOM      1  C   UNL A   1      32.934  30.212  26.562  1.00  0.00     0.116 C 
ENDROOT
BRANCH   1   2
ATOM      2  N   UNL A   1      33.706  29.666  25.445  1.00  0.00    -0.352 N 
ATOM      3  C   UNL A   1      33.412  28.755  24.443  1.00  0.00     0.255 C 
ATOM      4  O   UNL A   1      34.296  28.467  23.631  1.00  0.00    -0.269 OA
ATOM      5  H   UNL A   1      34.624  30.018  25.396  1.00  0.00     0.163 HD
BRANCH   3   6
ATOM      6  C   UNL A   1      32.108  28.045  24.318  1.00  0.00     0.082 A 
ATOM      7  C   UNL A   1      30.626  26.252  25.091  1.00  0.00     0.019 A 
ATOM      8  C   UNL A   1      29.863  26.391  23.932  1.00  0.00     0.016 A 
ATOM      9  C   UNL A   1      31.675  27.160  25.296  1.00  0.00     0.029 A 
ATOM     10  C   UNL A   1      30.155  27.414  23.020  1.00  0.00     0.048 A 
ATOM     11  C   UNL A   1      31.281  28.223  23.203  1.00  0.00     0.128 A 
BRANCH   7  12
ATOM     12  C   UNL A   1      30.478  25.088  25.993  1.00  0.00     0.144 A 
ATOM     13  N   UNL A   1      31.313  23.967  26.021  1.00  0.00    -0.300 N 
ATOM     14  C   UNL A   1      30.583  22.936  26.562  1.00  0.00     0.113 A 
ATOM     15  C   UNL A   1      29.422  23.510  27.012  1.00  0.00     0.132 A 
ATOM     16  N   UNL A   1      29.378  24.841  26.688  1.00  0.00    -0.236 NA
BRANCH  13  17
ATOM     17  C   UNL A   1      32.613  23.861  25.477  1.00  0.00     0.047 A 
ATOM     18  C   UNL A   1      35.172  23.261  24.663  1.00  0.00     0.082 A 
ATOM     19  C   UNL A   1      34.101  22.734  23.947  1.00  0.00     0.024 A 
ATOM     20  C   UNL A   1      34.984  24.111  25.760  1.00  0.00     0.024 A 
ATOM     21  C   UNL A   1      32.812  23.039  24.357  1.00  0.00     0.028 A 
ATOM     22  C   UNL A   1      33.692  24.436  26.160  1.00  0.00     0.028 A 
BRANCH  18  23
ATOM     23  S   UNL A   1      36.806  22.766  24.248  1.00  0.00     0.238 S 
ATOM     24  O   UNL A   1      36.933  21.338  24.356  1.00  0.00    -0.207 OA
ATOM     25  O   UNL A   1      37.681  23.692  24.933  1.00  0.00    -0.207 OA
BRANCH  23  26
ATOM     26  N   UNL A   1      36.845  23.111  22.607  1.00  0.00    -0.225 NA
ATOM     27  H   UNL A   1      36.038  23.685  22.361  1.00  0.00     0.137 HD
ATOM     28  H   UNL A   1      36.815  22.239  22.075  1.00  0.00     0.137 HD
ENDBRANCH  23  26
ENDBRANCH  18  23
ENDBRANCH  13  17
ENDBRANCH   7  12
BRANCH  11  29
ATOM     29  O   UNL A   1      31.518  29.172  22.245  1.00  0.00    -0.507 OA
ATOM     30  H   UNL A   1      30.965  29.225  21.491  1.00  0.00     0.293 HD
ENDBRANCH  11  29
ENDBRANCH   3   6
ENDBRANCH   1   2
BRANCH   1  31
ATOM     31  C   UNL A   1      31.675  30.993  26.188  1.00  0.00     0.023 C 
BRANCH  31  32
ATOM     32  C   UNL A   1      31.463  32.359  26.834  1.00  0.00     0.023 C 
BRANCH  32  33
ATOM     33  C   UNL A   1      32.716  33.004  27.406  1.00  0.00     0.116 C 
BRANCH  33  34
ATOM     34  N   UNL A   1      32.498  34.318  28.024  1.00  0.00    -0.352 N 
ATOM     35  C   UNL A   1      33.111  34.814  29.166  1.00  0.00     0.251 C 
ATOM     36  H   UNL A   1      31.847  34.910  27.581  1.00  0.00     0.163 HD
ATOM     37  O   UNL A   1      32.636  35.746  29.802  1.00  0.00    -0.269 OA
BRANCH  35  38
ATOM     38  C   UNL A   1      34.390  34.210  29.575  1.00  0.00     0.039 A 
ATOM     39  C   UNL A   1      34.500  33.274  30.608  1.00  0.00     0.014 A 
ATOM     40  C   UNL A   1      35.498  34.577  28.820  1.00  0.00     0.014 A 
ATOM     41  C   UNL A   1      35.735  32.662  30.821  1.00  0.00     0.010 A 
ATOM     42  C   UNL A   1      36.631  33.824  28.882  1.00  0.00     0.010 A 
ATOM     43  C   UNL A   1      36.790  32.939  29.940  1.00  0.00    -0.014 A 
BRANCH  43  44
ATOM     44  C   UNL A   1      38.064  32.240  29.991  1.00  0.00     0.031 A 
ATOM     45  C   UNL A   1      38.064  30.932  29.300  1.00  0.00     0.074 A 
ATOM     46  C   UNL A   1      39.196  32.861  30.392  1.00  0.00     0.049 A 
ATOM     47  N   UNL A   1      38.186  29.775  29.854  1.00  0.00    -0.248 NA
ATOM     48  C   UNL A   1      37.718  30.874  27.869  1.00  0.00     0.031 C 
ATOM     49  C   UNL A   1      39.354  34.242  30.849  1.00  0.00     0.029 A 
ATOM     50  N   UNL A   1      40.483  32.420  30.349  1.00  0.00    -0.354 N 
ATOM     51  C   UNL A   1      38.199  28.858  28.810  1.00  0.00     0.074 A 
ATOM     52  C   UNL A   1      37.679  29.555  27.664  1.00  0.00     0.031 C 
ATOM     53  C   UNL A   1      40.655  34.598  30.790  1.00  0.00     0.029 A 
ATOM     54  C   UNL A   1      41.437  33.436  30.452  1.00  0.00     0.049 A 
ATOM     55  H   UNL A   1      40.721  31.469  30.254  1.00  0.00     0.167 HD
ATOM     56  C   UNL A   1      38.914  27.704  28.920  1.00  0.00     0.037 A 
ATOM     57  C   UNL A   1      42.773  33.319  30.238  1.00  0.00     0.037 A 
ATOM     58  C   UNL A   1      39.282  27.460  30.297  1.00  0.00     0.049 A 
ATOM     59  C   UNL A   1      43.095  31.878  30.418  1.00  0.00     0.074 A 
ATOM     60  C   UNL A   1      38.571  27.345  31.478  1.00  0.00     0.029 A 
ATOM     61  N   UNL A   1      40.577  27.731  30.671  1.00  0.00    -0.354 N 
ATOM     62  N   UNL A   1      42.985  31.270  31.571  1.00  0.00    -0.248 NA
ATOM     63  C   UNL A   1      42.978  31.026  29.244  1.00  0.00     0.031 C 
ATOM     64  C   UNL A   1      39.341  28.068  32.437  1.00  0.00     0.029 A 
ATOM     65  C   UNL A   1      40.526  28.476  31.823  1.00  0.00     0.049 A 
ATOM     66  H   UNL A   1      41.393  27.445  30.199  1.00  0.00     0.167 HD
ATOM     67  C   UNL A   1      42.340  30.078  31.275  1.00  0.00     0.074 A 
ATOM     68  C   UNL A   1      42.408  29.959  29.815  1.00  0.00     0.031 C 
ATOM     69  C   UNL A   1      41.522  29.461  32.180  1.00  0.00     0.037 A 
BRANCH  56  70
ATOM     70  C   UNL A   1      39.626  27.029  27.773  1.00  0.00     0.057 A 
ATOM     71  C   UNL A   1      39.579  25.626  27.683  1.00  0.00     0.134 A 
ATOM     72  C   UNL A   1      40.582  27.650  26.944  1.00  0.00     0.134 A 
ATOM     73  F   UNL A   1      38.716  24.917  28.426  1.00  0.00    -0.206 F 
ATOM     74  C   UNL A   1      40.478  24.894  26.898  1.00  0.00     0.040 A 
ATOM     75  C   UNL A   1      41.449  26.931  26.117  1.00  0.00     0.040 A 
ATOM     76  F   UNL A   1      40.807  28.968  26.957  1.00  0.00    -0.206 F 
ATOM     77  C   UNL A   1      41.424  25.545  26.120  1.00  0.00     0.006 A 
ENDBRANCH  56  70
BRANCH  57  78
ATOM     78  C   UNL A   1      43.686  34.288  29.578  1.00  0.00     0.057 A 
ATOM     79  C   UNL A   1      43.307  34.988  28.422  1.00  0.00     0.134 A 
ATOM     80  C   UNL A   1      44.856  34.750  30.211  1.00  0.00     0.134 A 
ATOM     81  F   UNL A   1      42.186  34.658  27.765  1.00  0.00    -0.206 F 
ATOM     82  C   UNL A   1      44.036  36.088  27.938  1.00  0.00     0.040 A 
ATOM     83  C   UNL A   1      45.594  35.841  29.736  1.00  0.00     0.040 A 
ATOM     84  F   UNL A   1      45.274  34.213  31.365  1.00  0.00    -0.206 F 
ATOM     85  C   UNL A   1      45.177  36.525  28.601  1.00  0.00     0.006 A 
ENDBRANCH  57  78
BRANCH  69  86
ATOM     86  C   UNL A   1      41.473  29.980  33.596  1.00  0.00     0.057 A 
ATOM     87  C   UNL A   1      42.430  29.699  34.586  1.00  0.00     0.134 A 
ATOM     88  C   UNL A   1      40.526  30.961  33.910  1.00  0.00     0.134 A 
ATOM     89  F   UNL A   1      43.442  28.854  34.357  1.00  0.00    -0.206 F 
ATOM     90  C   UNL A   1      42.423  30.335  35.833  1.00  0.00     0.040 A 
ATOM     91  C   UNL A   1      40.526  31.627  35.139  1.00  0.00     0.040 A 
ATOM     92  F   UNL A   1      39.614  31.333  32.999  1.00  0.00    -0.206 F 
ATOM     93  C   UNL A   1      41.472  31.310  36.109  1.00  0.00     0.006 A 
ENDBRANCH  69  86
ENDBRANCH  43  44
ENDBRANCH  35  38
ENDBRANCH  33  34
ENDBRANCH  32  33
ENDBRANCH  31  32
ENDBRANCH   1  31
TORSDOF 16
ENDMDL
MODEL 3
REMARK VINA RESULT:     -12.3      2.886      7.645
REMARK SMILES NS(=O)(=O)c1ccc(-n2ccnc2-c2ccc(O)c(C(=O)NCCCCNC(=O)c3ccc(-c4c5nc(c(-c6c(F)cccc6F)c6ccc([nH]6)c(-c6c(F)cccc6F)c6nc(c(-c7c(F)cccc7F)c7ccc4[nH]7)C=C6)C=C5)cc3)c2)cc1
REMARK SMILES IDX 23 1 22 2 20 3 21 4 19 6 14 7 15 8 84 9 16 10 17 11 13 12
REMARK SMILES IDX 9 13 10 14 11 15 12 16 8 17 5 18 6 19 86 20 7 21 85 22 2 23
REMARK SMILES IDX 3 24 4 25 1 26 18 29 24 31 25 32 26 33 27 34 28 35 29 37
REMARK SMILES IDX 30 38 31 39 83 40 32 41 82 42 33 43 34 44 35 45 76 46 36 47
REMARK SMILES IDX 81 48 75 49 77 50 37 51 80 52 74 53 73 54 38 56 64 57 47 58
REMARK SMILES IDX 63 59 48 60 51 61 62 62 78 63 49 64 50 65 61 67 79 68 52 69
REMARK SMILES IDX 39 70 40 71 45 72 41 73 42 74 44 75 46 76 43 77 65 78 66 79
REMARK SMILES IDX 71 80 67 81 68 82 70 83 72 84 69 85 53 86 54 87 59 88 55 89
REMARK SMILES IDX 56 90 58 91 60 92 57 93
REMARK H PARENT 22 5 1 27 1 28 18 30 27 36 77 55 51 66
REMARK Flexibility Score: inf
ROOT
ATOM      1  C   UNL A   1      32.533  30.362  25.873  1.00  0.00     0.116 C 
ENDROOT
BRANCH   1   2
ATOM      2  N   UNL A   1      33.206  29.720  24.744  1.00  0.00    -0.352 N 
ATOM      3  C   UNL A   1      32.844  28.702  23.876  1.00  0.00     0.255 C 
ATOM      4  O   UNL A   1      33.650  28.351  23.010  1.00  0.00    -0.269 OA
ATOM      5  H   UNL A   1      34.102  30.086  24.564  1.00  0.00     0.163 HD
BRANCH   3   6
ATOM      6  C   UNL A   1      31.558  27.953  23.960  1.00  0.00     0.082 A 
ATOM      7  C   UNL A   1      30.241  26.183  25.030  1.00  0.00     0.019 A 
ATOM      8  C   UNL A   1      29.340  26.219  23.966  1.00  0.00     0.016 A 
ATOM      9  C   UNL A   1      31.277  27.129  25.042  1.00  0.00     0.029 A 
ATOM     10  C   UNL A   1      29.485  27.182  22.958  1.00  0.00     0.048 A 
ATOM     11  C   UNL A   1      30.598  28.030  22.946  1.00  0.00     0.128 A 
BRANCH   7  12
ATOM     12  C   UNL A   1      30.242  25.083  26.020  1.00  0.00     0.144 A 
ATOM     13  N   UNL A   1      31.162  24.030  26.068  1.00  0.00    -0.300 N 
ATOM     14  C   UNL A   1      30.550  22.993  26.731  1.00  0.00     0.113 A 
ATOM     15  C   UNL A   1      29.380  23.514  27.219  1.00  0.00     0.132 A 
ATOM     16  N   UNL A   1      29.212  24.810  26.806  1.00  0.00    -0.236 NA
BRANCH  13  17
ATOM     17  C   UNL A   1      32.428  23.978  25.443  1.00  0.00     0.047 A 
ATOM     18  C   UNL A   1      34.954  23.483  24.469  1.00  0.00     0.082 A 
ATOM     19  C   UNL A   1      33.863  22.912  23.821  1.00  0.00     0.024 A 
ATOM     20  C   UNL A   1      34.800  24.327  25.577  1.00  0.00     0.024 A 
ATOM     21  C   UNL A   1      32.590  23.163  24.311  1.00  0.00     0.028 A 
ATOM     22  C   UNL A   1      33.524  24.598  26.057  1.00  0.00     0.028 A 
BRANCH  18  23
ATOM     23  S   UNL A   1      36.577  23.056  23.951  1.00  0.00     0.238 S 
ATOM     24  O   UNL A   1      37.551  23.748  24.752  1.00  0.00    -0.207 OA
ATOM     25  O   UNL A   1      36.555  23.118  22.505  1.00  0.00    -0.207 OA
BRANCH  23  26
ATOM     26  N   UNL A   1      36.656  21.447  24.414  1.00  0.00    -0.225 NA
ATOM     27  H   UNL A   1      35.712  21.091  24.571  1.00  0.00     0.137 HD
ATOM     28  H   UNL A   1      37.196  21.367  25.277  1.00  0.00     0.137 HD
ENDBRANCH  23  26
ENDBRANCH  18  23
ENDBRANCH  13  17
ENDBRANCH   7  12
BRANCH  11  29
ATOM     29  O   UNL A   1      30.686  28.914  21.905  1.00  0.00    -0.507 OA
ATOM     30  H   UNL A   1      30.874  28.603  21.041  1.00  0.00     0.293 HD
ENDBRANCH  11  29
ENDBRANCH   3   6
ENDBRANCH   1   2
BRANCH   1  31
ATOM     31  C   UNL A   1      32.817  29.764  27.251  1.00  0.00     0.023 C 
BRANCH  31  32
ATOM     32  C   UNL A   1      33.946  28.743  27.367  1.00  0.00     0.023 C 
BRANCH  32  33
ATOM     33  C   UNL A   1      35.311  29.324  27.702  1.00  0.00     0.116 C 
BRANCH  33  34
ATOM     34  N   UNL A   1      35.430  29.855  29.065  1.00  0.00    -0.352 N 
ATOM     35  C   UNL A   1      36.432  29.574  29.984  1.00  0.00     0.251 C 
ATOM     36  H   UNL A   1      34.725  30.476  29.358  1.00  0.00     0.163 HD
ATOM     37  O   UNL A   1      36.283  29.770  31.183  1.00  0.00    -0.269 OA
BRANCH  35  38
ATOM     38  C   UNL A   1      37.714  29.068  29.467  1.00  0.00     0.039 A 
ATOM     39  C   UNL A   1      38.390  29.650  28.389  1.00  0.00     0.014 A 
ATOM     40  C   UNL A   1      38.263  27.996  30.162  1.00  0.00     0.014 A 
ATOM     41  C   UNL A   1      39.662  29.176  28.069  1.00  0.00     0.010 A 
ATOM     42  C   UNL A   1      39.580  27.692  29.992  1.00  0.00     0.010 A 
ATOM     43  C   UNL A   1      40.250  28.203  28.889  1.00  0.00    -0.014 A 
BRANCH  43  44
ATOM     44  C   UNL A   1      41.624  27.758  28.724  1.00  0.00     0.031 A 
ATOM     45  C   UNL A   1      41.765  26.511  27.941  1.00  0.00     0.074 A 
ATOM     46  C   UNL A   1      42.669  28.561  29.024  1.00  0.00     0.049 A 
ATOM     47  N   UNL A   1      42.171  25.371  28.386  1.00  0.00    -0.248 NA
ATOM     48  C   UNL A   1      41.239  26.460  26.567  1.00  0.00     0.031 C 
ATOM     49  C   UNL A   1      42.636  29.922  29.561  1.00  0.00     0.029 A 
ATOM     50  N   UNL A   1      43.996  28.376  28.784  1.00  0.00    -0.354 N 
ATOM     51  C   UNL A   1      42.204  24.528  27.283  1.00  0.00     0.074 A 
ATOM     52  C   UNL A   1      41.412  25.171  26.268  1.00  0.00     0.031 C 
ATOM     53  C   UNL A   1      43.830  30.522  29.364  1.00  0.00     0.029 A 
ATOM     54  C   UNL A   1      44.755  29.549  28.841  1.00  0.00     0.049 A 
ATOM     55  H   UNL A   1      44.387  27.494  28.587  1.00  0.00     0.167 HD
ATOM     56  C   UNL A   1      43.126  23.527  27.212  1.00  0.00     0.037 A 
ATOM     57  C   UNL A   1      46.047  29.698  28.451  1.00  0.00     0.037 A 
ATOM     58  C   UNL A   1      43.720  23.287  28.508  1.00  0.00     0.049 A 
ATOM     59  C   UNL A   1      46.646  28.338  28.478  1.00  0.00     0.074 A 
ATOM     60  C   UNL A   1      43.213  22.979  29.758  1.00  0.00     0.029 A 
ATOM     61  N   UNL A   1      44.984  23.780  28.733  1.00  0.00    -0.354 N 
ATOM     62  N   UNL A   1      46.811  27.662  29.586  1.00  0.00    -0.248 NA
ATOM     63  C   UNL A   1      46.524  27.540  27.267  1.00  0.00     0.031 C 
ATOM     64  C   UNL A   1      43.966  23.785  30.663  1.00  0.00     0.029 A 
ATOM     65  C   UNL A   1      44.959  24.442  29.936  1.00  0.00     0.049 A 
ATOM     66  H   UNL A   1      45.764  23.679  28.141  1.00  0.00     0.167 HD
ATOM     67  C   UNL A   1      46.358  26.386  29.284  1.00  0.00     0.074 A 
ATOM     68  C   UNL A   1      46.242  26.357  27.823  1.00  0.00     0.031 C 
ATOM     69  C   UNL A   1      45.800  25.579  30.237  1.00  0.00     0.037 A 
BRANCH  56  70
ATOM     70  C   UNL A   1      43.781  23.059  25.936  1.00  0.00     0.057 A 
ATOM     71  C   UNL A   1      43.867  21.676  25.690  1.00  0.00     0.134 A 
ATOM     72  C   UNL A   1      44.580  23.865  25.101  1.00  0.00     0.134 A 
ATOM     73  F   UNL A   1      43.160  20.802  26.421  1.00  0.00    -0.206 F 
ATOM     74  C   UNL A   1      44.750  21.135  24.748  1.00  0.00     0.040 A 
ATOM     75  C   UNL A   1      45.426  23.338  24.122  1.00  0.00     0.040 A 
ATOM     76  F   UNL A   1      44.672  25.192  25.244  1.00  0.00    -0.206 F 
ATOM     77  C   UNL A   1      45.541  21.966  23.967  1.00  0.00     0.006 A 
ENDBRANCH  56  70
BRANCH  57  78
ATOM     78  C   UNL A   1      46.666  30.856  27.755  1.00  0.00     0.057 A 
ATOM     79  C   UNL A   1      45.952  31.628  26.826  1.00  0.00     0.134 A 
ATOM     80  C   UNL A   1      47.897  31.398  28.176  1.00  0.00     0.134 A 
ATOM     81  F   UNL A   1      44.749  31.225  26.392  1.00  0.00    -0.206 F 
ATOM     82  C   UNL A   1      46.422  32.868  26.361  1.00  0.00     0.040 A 
ATOM     83  C   UNL A   1      48.379  32.629  27.715  1.00  0.00     0.040 A 
ATOM     84  F   UNL A   1      48.632  30.792  29.118  1.00  0.00    -0.206 F 
ATOM     85  C   UNL A   1      47.634  33.378  26.813  1.00  0.00     0.006 A 
ENDBRANCH  57  78
BRANCH  69  86
ATOM     86  C   UNL A   1      45.855  26.007  31.683  1.00  0.00     0.057 A 
ATOM     87  C   UNL A   1      46.992  25.912  32.503  1.00  0.00     0.134 A 
ATOM     88  C   UNL A   1      44.773  26.724  32.205  1.00  0.00     0.134 A 
ATOM     89  F   UNL A   1      48.120  25.339  32.067  1.00  0.00    -0.206 F 
ATOM     90  C   UNL A   1      47.036  26.471  33.786  1.00  0.00     0.040 A 
ATOM     91  C   UNL A   1      44.814  27.314  33.471  1.00  0.00     0.040 A 
ATOM     92  F   UNL A   1      43.671  26.913  31.463  1.00  0.00    -0.206 F 
ATOM     93  C   UNL A   1      45.945  27.183  34.270  1.00  0.00     0.006 A 
ENDBRANCH  69  86
ENDBRANCH  43  44
ENDBRANCH  35  38
ENDBRANCH  33  34
ENDBRANCH  32  33
ENDBRANCH  31  32
ENDBRANCH   1  31
TORSDOF 16
ENDMDL
