MODEL 1
REMARK VINA RESULT:     -11.5      0.000      0.000
REMARK SMILES C[C@H]1[C@H](C(=O)NCCCCNC(=O)c2ccc(-c3c4nc(c(-c5c(F)cccc5F)c5ccc([nH]5)c(-c5c(F)cccc5F)c5nc(c(-c6c(F)cccc6F)c6ccc3[nH]6)C=C5)C=C4)cc2)CCN1c1ncnc2sccc12
REMARK SMILES IDX 9 1 8 2 7 3 6 4 4 5 5 6 3 8 1 9 2 10 70 11 68 12 69 13 71 14
REMARK SMILES IDX 72 15 79 16 73 17 75 18 78 19 74 20 76 21 77 22 10 23 11 24
REMARK SMILES IDX 12 25 13 27 14 28 15 29 67 30 16 31 66 32 17 33 18 34 19 35
REMARK SMILES IDX 60 36 20 37 65 38 59 39 61 40 21 41 64 42 58 43 57 44 22 46
REMARK SMILES IDX 48 47 31 48 47 49 32 50 35 51 46 52 62 53 33 54 34 55 45 57
REMARK SMILES IDX 63 58 36 59 23 60 24 61 29 62 25 63 26 64 28 65 30 66 27 67
REMARK SMILES IDX 49 68 50 69 55 70 51 71 52 72 54 73 56 74 53 75 37 76 38 77
REMARK SMILES IDX 43 78 39 79 40 80 42 81 44 82 41 83
REMARK H PARENT 6 7 11 26 61 45 35 56
REMARK Flexibility Score: inf
ROOT
ATOM      1  C   UNL A   1      37.592  20.031  24.877  1.00  0.00     0.023 C 
ENDROOT
BRANCH   1   2
ATOM      2  C   UNL A   1      36.426  21.020  24.924  1.00  0.00     0.023 C 
BRANCH   2   3
ATOM      3  C   UNL A   1      35.083  20.393  25.287  1.00  0.00     0.116 C 
BRANCH   3   4
ATOM      4  N   UNL A   1      34.022  20.833  24.399  1.00  0.00    -0.356 N 
ATOM      5  C   UNL A   1      33.162  21.884  24.490  1.00  0.00     0.225 C 
ATOM      6  O   UNL A   1      32.316  21.996  23.597  1.00  0.00    -0.275 OA
ATOM      7  H   UNL A   1      33.904  20.276  23.596  1.00  0.00     0.163 HD
BRANCH   5   8
ATOM      8  C   UNL A   1      33.235  22.918  25.602  1.00  0.00     0.102 C 
ATOM      9  C   UNL A   1      34.730  24.950  25.565  1.00  0.00     0.032 C 
ATOM     10  C   UNL A   1      33.406  24.353  25.083  1.00  0.00     0.093 C 
ATOM     11  N   UNL A   1      32.262  25.091  25.633  1.00  0.00    -0.352 N 
ATOM     12  C   UNL A   1      32.010  22.903  26.510  1.00  0.00     0.037 C 
ATOM     13  C   UNL A   1      31.551  24.348  26.651  1.00  0.00     0.119 C 
BRANCH  11  14
ATOM     14  C   UNL A   1      31.885  26.311  25.111  1.00  0.00     0.141 A 
ATOM     15  N   UNL A   1      31.251  26.292  23.907  1.00  0.00    -0.219 NA
ATOM     16  C   UNL A   1      32.064  27.584  25.720  1.00  0.00     0.054 A 
ATOM     17  C   UNL A   1      30.834  27.431  23.341  1.00  0.00     0.225 A 
ATOM     18  C   UNL A   1      31.555  28.678  25.024  1.00  0.00     0.128 A 
ATOM     19  C   UNL A   1      32.678  28.047  26.942  1.00  0.00     0.026 A 
ATOM     20  N   UNL A   1      30.937  28.660  23.835  1.00  0.00    -0.225 NA
ATOM     21  S   UNL A   1      31.770  30.163  25.835  1.00  0.00    -0.124 S 
ATOM     22  C   UNL A   1      32.569  29.407  27.134  1.00  0.00     0.068 A 
ENDBRANCH  11  14
ENDBRANCH   5   8
ENDBRANCH   3   4
ENDBRANCH   2   3
ENDBRANCH   1   2
BRANCH   1  23
ATOM     23  C   UNL A   1      38.834  20.455  25.653  1.00  0.00     0.116 C 
BRANCH  23  24
ATOM     24  N   UNL A   1      39.870  19.434  25.678  1.00  0.00    -0.352 N 
ATOM     25  C   UNL A   1      41.187  19.555  26.051  1.00  0.00     0.251 C 
ATOM     26  H   UNL A   1      39.591  18.536  25.388  1.00  0.00     0.163 HD
ATOM     27  O   UNL A   1      41.964  18.617  25.908  1.00  0.00    -0.269 OA
BRANCH  25  28
ATOM     28  C   UNL A   1      41.672  20.841  26.592  1.00  0.00     0.039 A 
ATOM     29  C   UNL A   1      42.189  21.791  25.709  1.00  0.00     0.014 A 
ATOM     30  C   UNL A   1      41.581  21.118  27.959  1.00  0.00     0.014 A 
ATOM     31  C   UNL A   1      42.549  23.052  26.188  1.00  0.00     0.010 A 
ATOM     32  C   UNL A   1      41.872  22.398  28.421  1.00  0.00     0.010 A 
ATOM     33  C   UNL A   1      42.356  23.377  27.541  1.00  0.00    -0.014 A 
BRANCH  33  34
ATOM     34  C   UNL A   1      42.647  24.740  28.052  1.00  0.00     0.031 A 
ATOM     35  C   UNL A   1      44.043  25.106  28.472  1.00  0.00     0.074 A 
ATOM     36  C   UNL A   1      41.642  25.623  28.204  1.00  0.00     0.049 A 
ATOM     37  N   UNL A   1      44.480  26.217  29.007  1.00  0.00    -0.248 NA
ATOM     38  C   UNL A   1      45.079  24.076  28.293  1.00  0.00     0.031 C 
ATOM     39  C   UNL A   1      40.236  25.370  27.883  1.00  0.00     0.029 A 
ATOM     40  N   UNL A   1      41.646  26.910  28.679  1.00  0.00    -0.354 N 
ATOM     41  C   UNL A   1      45.834  26.016  29.242  1.00  0.00     0.074 A 
ATOM     42  C   UNL A   1      46.135  24.659  28.841  1.00  0.00     0.031 C 
ATOM     43  C   UNL A   1      39.519  26.474  28.149  1.00  0.00     0.029 A 
ATOM     44  C   UNL A   1      40.405  27.498  28.691  1.00  0.00     0.049 A 
ATOM     45  H   UNL A   1      42.463  27.369  28.983  1.00  0.00     0.167 HD
ATOM     46  C   UNL A   1      46.748  26.890  29.725  1.00  0.00     0.037 A 
ATOM     47  C   UNL A   1      40.024  28.723  29.100  1.00  0.00     0.037 A 
ATOM     48  C   UNL A   1      46.451  28.248  30.099  1.00  0.00     0.049 A 
ATOM     49  C   UNL A   1      41.058  29.676  29.631  1.00  0.00     0.074 A 
ATOM     50  C   UNL A   1      47.320  29.230  30.539  1.00  0.00     0.029 A 
ATOM     51  N   UNL A   1      45.185  28.813  30.077  1.00  0.00    -0.354 N 
ATOM     52  N   UNL A   1      42.348  29.495  29.783  1.00  0.00    -0.248 NA
ATOM     53  C   UNL A   1      40.586  31.003  30.046  1.00  0.00     0.031 C 
ATOM     54  C   UNL A   1      46.575  30.379  30.821  1.00  0.00     0.029 A 
ATOM     55  C   UNL A   1      45.247  30.125  30.514  1.00  0.00     0.049 A 
ATOM     56  H   UNL A   1      44.365  28.350  29.792  1.00  0.00     0.167 HD
ATOM     57  C   UNL A   1      42.845  30.693  30.281  1.00  0.00     0.074 A 
ATOM     58  C   UNL A   1      41.718  31.596  30.395  1.00  0.00     0.031 C 
ATOM     59  C   UNL A   1      44.118  31.014  30.615  1.00  0.00     0.037 A 
BRANCH  46  60
ATOM     60  C   UNL A   1      48.160  26.402  29.872  1.00  0.00     0.057 A 
ATOM     61  C   UNL A   1      49.109  26.574  28.855  1.00  0.00     0.134 A 
ATOM     62  C   UNL A   1      48.584  25.780  31.052  1.00  0.00     0.134 A 
ATOM     63  F   UNL A   1      48.764  27.151  27.694  1.00  0.00    -0.206 F 
ATOM     64  C   UNL A   1      50.421  26.121  28.997  1.00  0.00     0.040 A 
ATOM     65  C   UNL A   1      49.901  25.347  31.217  1.00  0.00     0.040 A 
ATOM     66  F   UNL A   1      47.728  25.588  32.067  1.00  0.00    -0.206 F 
ATOM     67  C   UNL A   1      50.822  25.511  30.184  1.00  0.00     0.006 A 
ENDBRANCH  46  60
BRANCH  47  68
ATOM     68  C   UNL A   1      38.601  29.131  28.999  1.00  0.00     0.057 A 
ATOM     69  C   UNL A   1      38.071  29.605  27.793  1.00  0.00     0.134 A 
ATOM     70  C   UNL A   1      37.740  29.065  30.101  1.00  0.00     0.134 A 
ATOM     71  F   UNL A   1      38.851  29.708  26.708  1.00  0.00    -0.206 F 
ATOM     72  C   UNL A   1      36.741  30.018  27.690  1.00  0.00     0.040 A 
ATOM     73  C   UNL A   1      36.401  29.453  30.007  1.00  0.00     0.040 A 
ATOM     74  F   UNL A   1      38.184  28.614  31.282  1.00  0.00    -0.206 F 
ATOM     75  C   UNL A   1      35.902  29.937  28.800  1.00  0.00     0.006 A 
ENDBRANCH  47  68
BRANCH  59  76
ATOM     76  C   UNL A   1      44.367  32.411  31.103  1.00  0.00     0.057 A 
ATOM     77  C   UNL A   1      44.644  33.464  30.222  1.00  0.00     0.134 A 
ATOM     78  C   UNL A   1      44.289  32.712  32.468  1.00  0.00     0.134 A 
ATOM     79  F   UNL A   1      44.745  33.237  28.903  1.00  0.00    -0.206 F 
ATOM     80  C   UNL A   1      44.856  34.763  30.684  1.00  0.00     0.040 A 
ATOM     81  C   UNL A   1      44.475  34.013  32.940  1.00  0.00     0.040 A 
ATOM     82  F   UNL A   1      44.018  31.751  33.364  1.00  0.00    -0.206 F 
ATOM     83  C   UNL A   1      44.765  35.042  32.047  1.00  0.00     0.006 A 
ENDBRANCH  59  76
ENDBRANCH  33  34
ENDBRANCH  25  28
ENDBRANCH  23  24
ENDBRANCH   1  23
TORSDOF 12
ENDMDL
MODEL 2
REMARK VINA RESULT:     -11.4      4.582      9.287
REMARK SMILES C[C@H]1[C@H](C(=O)NCCCCNC(=O)c2ccc(-c3c4nc(c(-c5c(F)cccc5F)c5ccc([nH]5)c(-c5c(F)cccc5F)c5nc(c(-c6c(F)cccc6F)c6ccc3[nH]6)C=C5)C=C4)cc2)CCN1c1ncnc2sccc12
REMARK SMILES IDX 9 1 8 2 7 3 6 4 4 5 5 6 3 8 1 9 2 10 70 11 68 12 69 13 71 14
REMARK SMILES IDX 72 15 79 16 73 17 75 18 78 19 74 20 76 21 77 22 10 23 11 24
REMARK SMILES IDX 12 25 13 27 14 28 15 29 67 30 16 31 66 32 17 33 18 34 19 35
REMARK SMILES IDX 60 36 20 37 65 38 59 39 61 40 21 41 64 42 58 43 57 44 22 46
REMARK SMILES IDX 48 47 31 48 47 49 32 50 35 51 46 52 62 53 33 54 34 55 45 57
REMARK SMILES IDX 63 58 36 59 23 60 24 61 29 62 25 63 26 64 28 65 30 66 27 67
REMARK SMILES IDX 49 68 50 69 55 70 51 71 52 72 54 73 56 74 53 75 37 76 38 77
REMARK SMILES IDX 43 78 39 79 40 80 42 81 44 82 41 83
REMARK H PARENT 6 7 11 26 61 45 35 56
REMARK Flexibility Score: inf
ROOT
ATOM      1  C   UNL A   1      31.576  32.007  26.772  1.00  0.00     0.023 C 
ENDROOT
BRANCH   1   2
ATOM      2  C   UNL A   1      31.800  30.494  26.746  1.00  0.00     0.023 C 
BRANCH   2   3
ATOM      3  C   UNL A   1      32.662  30.004  25.586  1.00  0.00     0.116 C 
BRANCH   3   4
ATOM      4  N   UNL A   1      31.858  29.566  24.460  1.00  0.00    -0.356 N 
ATOM      5  C   UNL A   1      32.038  28.543  23.581  1.00  0.00     0.225 C 
ATOM      6  O   UNL A   1      31.204  28.425  22.677  1.00  0.00    -0.275 OA
ATOM      7  H   UNL A   1      31.044  30.099  24.306  1.00  0.00     0.163 HD
BRANCH   5   8
ATOM      8  C   UNL A   1      33.179  27.544  23.697  1.00  0.00     0.102 C 
ATOM      9  C   UNL A   1      33.989  26.550  25.870  1.00  0.00     0.032 C 
ATOM     10  C   UNL A   1      32.934  26.468  24.764  1.00  0.00     0.093 C 
ATOM     11  N   UNL A   1      33.024  25.193  24.041  1.00  0.00    -0.352 N 
ATOM     12  C   UNL A   1      33.479  26.828  22.385  1.00  0.00     0.037 C 
ATOM     13  C   UNL A   1      33.564  25.341  22.706  1.00  0.00     0.119 C 
BRANCH  11  14
ATOM     14  C   UNL A   1      32.523  24.029  24.585  1.00  0.00     0.141 A 
ATOM     15  N   UNL A   1      31.223  24.052  24.987  1.00  0.00    -0.219 NA
ATOM     16  C   UNL A   1      33.221  22.798  24.740  1.00  0.00     0.054 A 
ATOM     17  C   UNL A   1      30.654  22.957  25.507  1.00  0.00     0.225 A 
ATOM     18  C   UNL A   1      32.490  21.739  25.272  1.00  0.00     0.128 A 
ATOM     19  C   UNL A   1      34.567  22.355  24.471  1.00  0.00     0.026 A 
ATOM     20  N   UNL A   1      31.211  21.763  25.675  1.00  0.00    -0.225 NA
ATOM     21  S   UNL A   1      33.379  20.288  25.388  1.00  0.00    -0.124 S 
ATOM     22  C   UNL A   1      34.776  21.022  24.753  1.00  0.00     0.068 A 
ENDBRANCH  11  14
ENDBRANCH   5   8
ENDBRANCH   3   4
ENDBRANCH   2   3
ENDBRANCH   1   2
BRANCH   1  23
ATOM     23  C   UNL A   1      32.756  32.829  27.278  1.00  0.00     0.116 C 
BRANCH  23  24
ATOM     24  N   UNL A   1      32.399  34.200  27.608  1.00  0.00    -0.352 N 
ATOM     25  C   UNL A   1      32.968  35.037  28.537  1.00  0.00     0.251 C 
ATOM     26  H   UNL A   1      31.649  34.581  27.097  1.00  0.00     0.163 HD
ATOM     27  O   UNL A   1      32.475  36.135  28.772  1.00  0.00    -0.269 OA
BRANCH  25  28
ATOM     28  C   UNL A   1      34.161  34.587  29.284  1.00  0.00     0.039 A 
ATOM     29  C   UNL A   1      33.998  34.092  30.578  1.00  0.00     0.014 A 
ATOM     30  C   UNL A   1      35.426  34.621  28.691  1.00  0.00     0.014 A 
ATOM     31  C   UNL A   1      35.097  33.560  31.255  1.00  0.00     0.010 A 
ATOM     32  C   UNL A   1      36.504  34.026  29.339  1.00  0.00     0.010 A 
ATOM     33  C   UNL A   1      36.350  33.488  30.625  1.00  0.00    -0.014 A 
BRANCH  33  34
ATOM     34  C   UNL A   1      37.510  32.845  31.292  1.00  0.00     0.031 A 
ATOM     35  C   UNL A   1      38.171  31.649  30.667  1.00  0.00     0.074 A 
ATOM     36  C   UNL A   1      37.921  33.295  32.493  1.00  0.00     0.049 A 
ATOM     37  N   UNL A   1      39.147  30.910  31.128  1.00  0.00    -0.248 NA
ATOM     38  C   UNL A   1      37.647  31.209  29.364  1.00  0.00     0.031 C 
ATOM     39  C   UNL A   1      37.328  34.414  33.228  1.00  0.00     0.029 A 
ATOM     40  N   UNL A   1      38.930  32.858  33.314  1.00  0.00    -0.354 N 
ATOM     41  C   UNL A   1      39.343  29.911  30.183  1.00  0.00     0.074 A 
ATOM     42  C   UNL A   1      38.351  30.107  29.149  1.00  0.00     0.031 C 
ATOM     43  C   UNL A   1      37.998  34.588  34.379  1.00  0.00     0.029 A 
ATOM     44  C   UNL A   1      39.043  33.574  34.480  1.00  0.00     0.049 A 
ATOM     45  H   UNL A   1      39.518  32.101  33.088  1.00  0.00     0.167 HD
ATOM     46  C   UNL A   1      40.280  28.934  30.167  1.00  0.00     0.037 A 
ATOM     47  C   UNL A   1      39.888  33.427  35.517  1.00  0.00     0.037 A 
ATOM     48  C   UNL A   1      41.283  28.757  31.184  1.00  0.00     0.049 A 
ATOM     49  C   UNL A   1      40.921  32.335  35.474  1.00  0.00     0.074 A 
ATOM     50  C   UNL A   1      42.316  27.837  31.225  1.00  0.00     0.029 A 
ATOM     51  N   UNL A   1      41.377  29.517  32.340  1.00  0.00    -0.354 N 
ATOM     52  N   UNL A   1      41.139  31.441  34.540  1.00  0.00    -0.248 NA
ATOM     53  C   UNL A   1      41.826  32.233  36.626  1.00  0.00     0.031 C 
ATOM     54  C   UNL A   1      43.011  28.013  32.425  1.00  0.00     0.029 A 
ATOM     55  C   UNL A   1      42.439  29.074  33.110  1.00  0.00     0.049 A 
ATOM     56  H   UNL A   1      40.778  30.261  32.576  1.00  0.00     0.167 HD
ATOM     57  C   UNL A   1      42.223  30.690  34.978  1.00  0.00     0.074 A 
ATOM     58  C   UNL A   1      42.625  31.242  36.255  1.00  0.00     0.031 C 
ATOM     59  C   UNL A   1      42.830  29.639  34.376  1.00  0.00     0.037 A 
BRANCH  46  60
ATOM     60  C   UNL A   1      40.266  27.984  29.005  1.00  0.00     0.057 A 
ATOM     61  C   UNL A   1      40.982  28.245  27.829  1.00  0.00     0.134 A 
ATOM     62  C   UNL A   1      39.553  26.781  29.073  1.00  0.00     0.134 A 
ATOM     63  F   UNL A   1      41.675  29.386  27.694  1.00  0.00    -0.206 F 
ATOM     64  C   UNL A   1      40.968  27.356  26.753  1.00  0.00     0.040 A 
ATOM     65  C   UNL A   1      39.553  25.871  28.014  1.00  0.00     0.040 A 
ATOM     66  F   UNL A   1      38.850  26.466  30.171  1.00  0.00    -0.206 F 
ATOM     67  C   UNL A   1      40.257  26.162  26.846  1.00  0.00     0.006 A 
ENDBRANCH  46  60
BRANCH  47  68
ATOM     68  C   UNL A   1      39.813  34.352  36.675  1.00  0.00     0.057 A 
ATOM     69  C   UNL A   1      39.067  34.021  37.813  1.00  0.00     0.134 A 
ATOM     70  C   UNL A   1      40.474  35.585  36.672  1.00  0.00     0.134 A 
ATOM     71  F   UNL A   1      38.397  32.862  37.868  1.00  0.00    -0.206 F 
ATOM     72  C   UNL A   1      38.965  34.893  38.899  1.00  0.00     0.040 A 
ATOM     73  C   UNL A   1      40.400  36.457  37.761  1.00  0.00     0.040 A 
ATOM     74  F   UNL A   1      41.210  35.957  35.615  1.00  0.00    -0.206 F 
ATOM     75  C   UNL A   1      39.638  36.113  38.875  1.00  0.00     0.006 A 
ENDBRANCH  47  68
BRANCH  59  76
ATOM     76  C   UNL A   1      44.014  29.038  35.076  1.00  0.00     0.057 A 
ATOM     77  C   UNL A   1      45.316  29.510  34.865  1.00  0.00     0.134 A 
ATOM     78  C   UNL A   1      43.842  28.002  36.002  1.00  0.00     0.134 A 
ATOM     79  F   UNL A   1      45.547  30.492  33.980  1.00  0.00    -0.206 F 
ATOM     80  C   UNL A   1      46.408  28.956  35.533  1.00  0.00     0.040 A 
ATOM     81  C   UNL A   1      44.924  27.457  36.696  1.00  0.00     0.040 A 
ATOM     82  F   UNL A   1      42.620  27.510  36.257  1.00  0.00    -0.206 F 
ATOM     83  C   UNL A   1      46.213  27.931  36.458  1.00  0.00     0.006 A 
ENDBRANCH  59  76
ENDBRANCH  33  34
ENDBRANCH  25  28
ENDBRANCH  23  24
ENDBRANCH   1  23
TORSDOF 12
ENDMDL
MODEL 3
REMARK VINA RESULT:     -11.4      4.329      9.434
REMARK SMILES C[C@H]1[C@H](C(=O)NCCCCNC(=O)c2ccc(-c3c4nc(c(-c5c(F)cccc5F)c5ccc([nH]5)c(-c5c(F)cccc5F)c5nc(c(-c6c(F)cccc6F)c6ccc3[nH]6)C=C5)C=C4)cc2)CCN1c1ncnc2sccc12
REMARK SMILES IDX 9 1 8 2 7 3 6 4 4 5 5 6 3 8 1 9 2 10 70 11 68 12 69 13 71 14
REMARK SMILES IDX 72 15 79 16 73 17 75 18 78 19 74 20 76 21 77 22 10 23 11 24
REMARK SMILES IDX 12 25 13 27 14 28 15 29 67 30 16 31 66 32 17 33 18 34 19 35
REMARK SMILES IDX 60 36 20 37 65 38 59 39 61 40 21 41 64 42 58 43 57 44 22 46
REMARK SMILES IDX 48 47 31 48 47 49 32 50 35 51 46 52 62 53 33 54 34 55 45 57
REMARK SMILES IDX 63 58 36 59 23 60 24 61 29 62 25 63 26 64 28 65 30 66 27 67
REMARK SMILES IDX 49 68 50 69 55 70 51 71 52 72 54 73 56 74 53 75 37 76 38 77
REMARK SMILES IDX 43 78 39 79 40 80 42 81 44 82 41 83
REMARK H PARENT 6 7 11 26 61 45 35 56
REMARK Flexibility Score: inf
ROOT
ATOM      1  C   UNL A   1      31.403  32.161  26.523  1.00  0.00     0.023 C 
ENDROOT
BRANCH   1   2
ATOM      2  C   UNL A   1      31.473  30.636  26.433  1.00  0.00     0.023 C 
BRANCH   2   3
ATOM      3  C   UNL A   1      31.351  30.082  25.016  1.00  0.00     0.116 C 
BRANCH   3   4
ATOM      4  N   UNL A   1      32.569  29.418  24.587  1.00  0.00    -0.356 N 
ATOM      5  C   UNL A   1      32.878  28.096  24.497  1.00  0.00     0.225 C 
ATOM      6  O   UNL A   1      34.025  27.810  24.136  1.00  0.00    -0.275 OA
ATOM      7  H   UNL A   1      33.293  30.027  24.314  1.00  0.00     0.163 HD
BRANCH   5   8
ATOM      8  C   UNL A   1      31.874  26.990  24.782  1.00  0.00     0.102 C 
ATOM      9  C   UNL A   1      31.169  25.239  23.107  1.00  0.00     0.032 C 
ATOM     10  C   UNL A   1      32.241  25.655  24.118  1.00  0.00     0.093 C 
ATOM     11  N   UNL A   1      32.326  24.695  25.225  1.00  0.00    -0.352 N 
ATOM     12  C   UNL A   1      31.687  26.724  26.272  1.00  0.00     0.037 C 
ATOM     13  C   UNL A   1      31.790  25.217  26.464  1.00  0.00     0.119 C 
BRANCH  11  14
ATOM     14  C   UNL A   1      32.965  23.483  25.068  1.00  0.00     0.141 A 
ATOM     15  N   UNL A   1      32.175  22.402  24.823  1.00  0.00    -0.219 NA
ATOM     16  C   UNL A   1      34.369  23.255  25.106  1.00  0.00     0.054 A 
ATOM     17  C   UNL A   1      32.717  21.192  24.639  1.00  0.00     0.225 A 
ATOM     18  C   UNL A   1      34.787  21.948  24.870  1.00  0.00     0.128 A 
ATOM     19  C   UNL A   1      35.525  24.085  25.344  1.00  0.00     0.026 A 
ATOM     20  N   UNL A   1      34.009  20.881  24.636  1.00  0.00    -0.225 NA
ATOM     21  S   UNL A   1      36.483  21.760  24.890  1.00  0.00    -0.124 S 
ATOM     22  C   UNL A   1      36.721  23.410  25.235  1.00  0.00     0.068 A 
ENDBRANCH  11  14
ENDBRANCH   5   8
ENDBRANCH   3   4
ENDBRANCH   2   3
ENDBRANCH   1   2
BRANCH   1  23
ATOM     23  C   UNL A   1      32.569  32.821  27.251  1.00  0.00     0.116 C 
BRANCH  23  24
ATOM     24  N   UNL A   1      32.303  34.202  27.624  1.00  0.00    -0.352 N 
ATOM     25  C   UNL A   1      32.946  34.980  28.557  1.00  0.00     0.251 C 
ATOM     26  H   UNL A   1      31.563  34.640  27.144  1.00  0.00     0.163 HD
ATOM     27  O   UNL A   1      32.525  36.099  28.832  1.00  0.00    -0.269 OA
BRANCH  25  28
ATOM     28  C   UNL A   1      34.129  34.442  29.258  1.00  0.00     0.039 A 
ATOM     29  C   UNL A   1      33.953  33.809  30.489  1.00  0.00     0.014 A 
ATOM     30  C   UNL A   1      35.400  34.530  28.681  1.00  0.00     0.014 A 
ATOM     31  C   UNL A   1      35.043  33.199  31.112  1.00  0.00     0.010 A 
ATOM     32  C   UNL A   1      36.468  33.859  29.267  1.00  0.00     0.010 A 
ATOM     33  C   UNL A   1      36.300  33.186  30.486  1.00  0.00    -0.014 A 
BRANCH  33  34
ATOM     34  C   UNL A   1      37.450  32.465  31.087  1.00  0.00     0.031 A 
ATOM     35  C   UNL A   1      38.064  32.957  32.368  1.00  0.00     0.074 A 
ATOM     36  C   UNL A   1      37.985  31.410  30.443  1.00  0.00     0.049 A 
ATOM     37  N   UNL A   1      39.112  32.507  33.008  1.00  0.00    -0.248 NA
ATOM     38  C   UNL A   1      37.432  34.128  32.996  1.00  0.00     0.031 C 
ATOM     39  C   UNL A   1      37.514  30.867  29.167  1.00  0.00     0.029 A 
ATOM     40  N   UNL A   1      39.052  30.610  30.768  1.00  0.00    -0.354 N 
ATOM     41  C   UNL A   1      39.275  33.346  34.103  1.00  0.00     0.074 A 
ATOM     42  C   UNL A   1      38.250  34.364  34.011  1.00  0.00     0.031 C 
ATOM     43  C   UNL A   1      38.273  29.812  28.831  1.00  0.00     0.029 A 
ATOM     44  C   UNL A   1      39.304  29.624  29.846  1.00  0.00     0.049 A 
ATOM     45  H   UNL A   1      39.586  30.731  31.587  1.00  0.00     0.167 HD
ATOM     46  C   UNL A   1      40.179  33.262  35.106  1.00  0.00     0.037 A 
ATOM     47  C   UNL A   1      40.264  28.681  29.818  1.00  0.00     0.037 A 
ATOM     48  C   UNL A   1      41.181  32.234  35.209  1.00  0.00     0.049 A 
ATOM     49  C   UNL A   1      41.256  28.608  30.945  1.00  0.00     0.074 A 
ATOM     50  C   UNL A   1      42.102  32.025  36.220  1.00  0.00     0.029 A 
ATOM     51  N   UNL A   1      41.391  31.240  34.265  1.00  0.00    -0.354 N 
ATOM     52  N   UNL A   1      41.354  29.366  32.010  1.00  0.00    -0.248 NA
ATOM     53  C   UNL A   1      42.269  27.546  30.868  1.00  0.00     0.031 C 
ATOM     54  C   UNL A   1      42.897  30.930  35.870  1.00  0.00     0.029 A 
ATOM     55  C   UNL A   1      42.441  30.428  34.661  1.00  0.00     0.049 A 
ATOM     56  H   UNL A   1      40.872  31.129  33.437  1.00  0.00     0.167 HD
ATOM     57  C   UNL A   1      42.418  28.856  32.744  1.00  0.00     0.074 A 
ATOM     58  C   UNL A   1      42.925  27.717  32.007  1.00  0.00     0.031 C 
ATOM     59  C   UNL A   1      42.929  29.294  33.920  1.00  0.00     0.037 A 
BRANCH  46  60
ATOM     60  C   UNL A   1      40.122  34.312  36.177  1.00  0.00     0.057 A 
ATOM     61  C   UNL A   1      39.329  34.155  37.323  1.00  0.00     0.134 A 
ATOM     62  C   UNL A   1      40.889  35.479  36.078  1.00  0.00     0.134 A 
ATOM     63  F   UNL A   1      38.561  33.065  37.474  1.00  0.00    -0.206 F 
ATOM     64  C   UNL A   1      39.282  35.132  38.318  1.00  0.00     0.040 A 
ATOM     65  C   UNL A   1      40.870  36.452  37.079  1.00  0.00     0.040 A 
ATOM     66  F   UNL A   1      41.673  35.691  35.011  1.00  0.00    -0.206 F 
ATOM     67  C   UNL A   1      40.059  36.283  38.200  1.00  0.00     0.006 A 
ENDBRANCH  46  60
BRANCH  47  68
ATOM     68  C   UNL A   1      40.319  27.709  28.697  1.00  0.00     0.057 A 
ATOM     69  C   UNL A   1      41.054  27.988  27.539  1.00  0.00     0.134 A 
ATOM     70  C   UNL A   1      39.636  26.489  28.751  1.00  0.00     0.134 A 
ATOM     71  F   UNL A   1      41.715  29.149  27.422  1.00  0.00    -0.206 F 
ATOM     72  C   UNL A   1      41.093  27.096  26.465  1.00  0.00     0.040 A 
ATOM     73  C   UNL A   1      39.685  25.577  27.694  1.00  0.00     0.040 A 
ATOM     74  F   UNL A   1      38.919  26.160  29.835  1.00  0.00    -0.206 F 
ATOM     75  C   UNL A   1      40.411  25.884  26.545  1.00  0.00     0.006 A 
ENDBRANCH  47  68
BRANCH  59  76
ATOM     76  C   UNL A   1      44.075  28.517  34.500  1.00  0.00     0.057 A 
ATOM     77  C   UNL A   1      45.408  28.860  34.240  1.00  0.00     0.134 A 
ATOM     78  C   UNL A   1      43.839  27.438  35.360  1.00  0.00     0.134 A 
ATOM     79  F   UNL A   1      45.699  29.876  33.413  1.00  0.00    -0.206 F 
ATOM     80  C   UNL A   1      46.466  28.143  34.799  1.00  0.00     0.040 A 
ATOM     81  C   UNL A   1      44.890  26.729  35.946  1.00  0.00     0.040 A 
ATOM     82  F   UNL A   1      42.586  27.063  35.657  1.00  0.00    -0.206 F 
ATOM     83  C   UNL A   1      46.208  27.078  35.660  1.00  0.00     0.006 A 
ENDBRANCH  59  76
ENDBRANCH  33  34
ENDBRANCH  25  28
ENDBRANCH  23  24
ENDBRANCH   1  23
TORSDOF 12
ENDMDL
