MODEL 1
REMARK VINA RESULT:     -11.9      0.000      0.000
REMARK SMILES C[C@H]1[C@H](C(=O)NCCCCNC(=O)c2ccc(-c3c4nc(c(-c5c(F)cccc5F)c5ccc([nH]5)c(-c5c(F)cccc5F)c5nc(c(-c6c(F)cccc6F)c6ccc3[nH]6)C=C5)C=C4)cc2)CC[N@@H+]1Cc1cnn(-c2ccccc2)c1
REMARK SMILES IDX 8 1 7 2 6 3 4 4 5 5 3 7 1 8 2 9 70 10 68 11 69 12 71 14
REMARK SMILES IDX 72 15 73 16 82 17 74 18 75 19 76 20 77 21 81 22 78 23 80 24
REMARK SMILES IDX 79 25 9 26 10 27 11 28 12 29 13 31 14 32 15 33 67 34 16 35
REMARK SMILES IDX 66 36 17 37 18 38 19 39 60 40 20 41 65 42 59 43 61 44 21 45
REMARK SMILES IDX 64 46 58 47 57 48 22 50 48 51 31 52 47 53 32 54 35 55 46 56
REMARK SMILES IDX 62 57 33 58 34 59 45 61 63 62 36 63 23 64 24 65 29 66 25 67
REMARK SMILES IDX 26 68 28 69 30 70 27 71 49 72 50 73 55 74 51 75 52 76 54 77
REMARK SMILES IDX 56 78 53 79 37 80 38 81 43 82 39 83 40 84 42 85 44 86 41 87
REMARK H PARENT 6 6 70 13 11 30 61 49 35 60
REMARK Flexibility Score: inf
ROOT
ATOM      1  C   UNL A   1      31.707  29.552  26.905  1.00  0.00     0.023 C 
ENDROOT
BRANCH   1   2
ATOM      2  C   UNL A   1      31.795  28.209  27.626  1.00  0.00     0.116 C 
BRANCH   2   3
ATOM      3  N   UNL A   1      31.027  27.080  27.156  1.00  0.00    -0.356 N 
ATOM      4  C   UNL A   1      31.191  26.406  25.973  1.00  0.00     0.229 C 
ATOM      5  O   UNL A   1      31.039  25.178  26.023  1.00  0.00    -0.275 OA
ATOM      6  H   UNL A   1      30.308  26.760  27.747  1.00  0.00     0.163 HD
BRANCH   4   7
ATOM      7  C   UNL A   1      31.482  27.059  24.616  1.00  0.00     0.142 C 
ATOM      8  C   UNL A   1      33.685  27.859  23.738  1.00  0.00     0.076 C 
ATOM      9  C   UNL A   1      32.724  26.649  23.814  1.00  0.00     0.193 C 
ATOM     10  N   UNL A   1      32.246  26.299  22.456  1.00  0.00    -0.328 N 
ATOM     11  C   UNL A   1      30.329  27.043  23.609  1.00  0.00     0.081 C 
ATOM     12  C   UNL A   1      31.028  27.082  22.255  1.00  0.00     0.263 C 
ATOM     13  H   UNL A   1      32.975  26.545  21.786  1.00  0.00     0.348 HD
BRANCH  10  14
ATOM     14  C   UNL A   1      32.153  24.867  22.081  1.00  0.00     0.302 C 
BRANCH  14  15
ATOM     15  C   UNL A   1      33.021  23.873  22.826  1.00  0.00     0.045 A 
ATOM     16  C   UNL A   1      32.660  22.625  23.400  1.00  0.00     0.145 A 
ATOM     17  C   UNL A   1      34.397  23.833  22.974  1.00  0.00     0.124 A 
ATOM     18  N   UNL A   1      33.678  21.970  23.970  1.00  0.00    -0.176 NA
ATOM     19  N   UNL A   1      34.712  22.834  23.874  1.00  0.00    -0.240 N 
BRANCH  19  20
ATOM     20  C   UNL A   1      35.934  22.644  24.585  1.00  0.00     0.065 A 
ATOM     21  C   UNL A   1      36.530  21.384  24.631  1.00  0.00     0.028 A 
ATOM     22  C   UNL A   1      36.560  23.702  25.260  1.00  0.00     0.028 A 
ATOM     23  C   UNL A   1      37.777  21.224  25.253  1.00  0.00     0.002 A 
ATOM     24  C   UNL A   1      37.813  23.552  25.861  1.00  0.00     0.002 A 
ATOM     25  C   UNL A   1      38.425  22.308  25.849  1.00  0.00     0.000 A 
ENDBRANCH  19  20
ENDBRANCH  14  15
ENDBRANCH  10  14
ENDBRANCH   4   7
ENDBRANCH   2   3
ENDBRANCH   1   2
BRANCH   1  26
ATOM     26  C   UNL A   1      33.042  30.217  26.482  1.00  0.00     0.023 C 
BRANCH  26  27
ATOM     27  C   UNL A   1      34.338  30.062  27.311  1.00  0.00     0.116 C 
BRANCH  27  28
ATOM     28  N   UNL A   1      34.488  30.867  28.509  1.00  0.00    -0.352 N 
ATOM     29  C   UNL A   1      35.629  31.002  29.293  1.00  0.00     0.251 C 
ATOM     30  H   UNL A   1      33.695  31.374  28.799  1.00  0.00     0.163 HD
ATOM     31  O   UNL A   1      35.648  31.791  30.230  1.00  0.00    -0.269 OA
BRANCH  29  32
ATOM     32  C   UNL A   1      36.824  30.154  29.035  1.00  0.00     0.039 A 
ATOM     33  C   UNL A   1      37.402  30.152  27.764  1.00  0.00     0.014 A 
ATOM     34  C   UNL A   1      37.374  29.347  30.029  1.00  0.00     0.014 A 
ATOM     35  C   UNL A   1      38.592  29.440  27.531  1.00  0.00     0.010 A 
ATOM     36  C   UNL A   1      38.591  28.673  29.804  1.00  0.00     0.010 A 
ATOM     37  C   UNL A   1      39.254  28.754  28.571  1.00  0.00    -0.014 A 
BRANCH  37  38
ATOM     38  C   UNL A   1      40.676  28.285  28.400  1.00  0.00     0.031 A 
ATOM     39  C   UNL A   1      41.064  26.866  28.042  1.00  0.00     0.074 A 
ATOM     40  C   UNL A   1      41.682  29.152  28.664  1.00  0.00     0.049 A 
ATOM     41  N   UNL A   1      42.265  26.362  27.851  1.00  0.00    -0.248 NA
ATOM     42  C   UNL A   1      39.986  25.877  27.924  1.00  0.00     0.031 C 
ATOM     43  C   UNL A   1      41.508  30.521  29.156  1.00  0.00     0.029 A 
ATOM     44  N   UNL A   1      43.048  29.018  28.553  1.00  0.00    -0.354 N 
ATOM     45  C   UNL A   1      42.089  25.002  27.618  1.00  0.00     0.074 A 
ATOM     46  C   UNL A   1      40.666  24.752  27.733  1.00  0.00     0.031 C 
ATOM     47  C   UNL A   1      42.705  31.120  29.234  1.00  0.00     0.029 A 
ATOM     48  C   UNL A   1      43.741  30.172  28.839  1.00  0.00     0.049 A 
ATOM     49  H   UNL A   1      43.488  28.177  28.293  1.00  0.00     0.167 HD
ATOM     50  C   UNL A   1      43.012  24.051  27.314  1.00  0.00     0.037 A 
ATOM     51  C   UNL A   1      45.057  30.460  28.783  1.00  0.00     0.037 A 
ATOM     52  C   UNL A   1      44.427  24.283  27.139  1.00  0.00     0.049 A 
ATOM     53  C   UNL A   1      46.049  29.418  28.353  1.00  0.00     0.074 A 
ATOM     54  C   UNL A   1      45.400  23.391  26.710  1.00  0.00     0.029 A 
ATOM     55  N   UNL A   1      45.077  25.481  27.383  1.00  0.00    -0.354 N 
ATOM     56  N   UNL A   1      45.841  28.172  28.012  1.00  0.00    -0.248 NA
ATOM     57  C   UNL A   1      47.461  29.829  28.292  1.00  0.00     0.031 C 
ATOM     58  C   UNL A   1      46.640  24.039  26.729  1.00  0.00     0.029 A 
ATOM     59  C   UNL A   1      46.435  25.347  27.129  1.00  0.00     0.049 A 
ATOM     60  H   UNL A   1      44.640  26.308  27.692  1.00  0.00     0.167 HD
ATOM     61  C   UNL A   1      47.089  27.659  27.676  1.00  0.00     0.074 A 
ATOM     62  C   UNL A   1      48.045  28.731  27.835  1.00  0.00     0.031 C 
ATOM     63  C   UNL A   1      47.401  26.404  27.273  1.00  0.00     0.037 A 
BRANCH  50  64
ATOM     64  C   UNL A   1      42.526  22.641  27.111  1.00  0.00     0.057 A 
ATOM     65  C   UNL A   1      42.153  21.831  28.191  1.00  0.00     0.134 A 
ATOM     66  C   UNL A   1      42.343  22.119  25.823  1.00  0.00     0.134 A 
ATOM     67  F   UNL A   1      42.292  22.271  29.451  1.00  0.00    -0.206 F 
ATOM     68  C   UNL A   1      41.645  20.545  28.001  1.00  0.00     0.040 A 
ATOM     69  C   UNL A   1      41.810  20.845  25.618  1.00  0.00     0.040 A 
ATOM     70  F   UNL A   1      42.654  22.849  24.741  1.00  0.00    -0.206 F 
ATOM     71  C   UNL A   1      41.466  20.050  26.709  1.00  0.00     0.006 A 
ENDBRANCH  50  64
BRANCH  51  72
ATOM     72  C   UNL A   1      45.521  31.836  29.095  1.00  0.00     0.057 A 
ATOM     73  C   UNL A   1      45.644  32.794  28.082  1.00  0.00     0.134 A 
ATOM     74  C   UNL A   1      45.862  32.219  30.396  1.00  0.00     0.134 A 
ATOM     75  F   UNL A   1      45.352  32.475  26.812  1.00  0.00    -0.206 F 
ATOM     76  C   UNL A   1      46.109  34.082  28.348  1.00  0.00     0.040 A 
ATOM     77  C   UNL A   1      46.304  33.512  30.681  1.00  0.00     0.040 A 
ATOM     78  F   UNL A   1      45.753  31.348  31.409  1.00  0.00    -0.206 F 
ATOM     79  C   UNL A   1      46.436  34.444  29.653  1.00  0.00     0.006 A 
ENDBRANCH  51  72
BRANCH  63  80
ATOM     80  C   UNL A   1      48.838  26.120  26.940  1.00  0.00     0.057 A 
ATOM     81  C   UNL A   1      49.743  25.650  27.902  1.00  0.00     0.134 A 
ATOM     82  C   UNL A   1      49.318  26.296  25.636  1.00  0.00     0.134 A 
ATOM     83  F   UNL A   1      49.354  25.475  29.174  1.00  0.00    -0.206 F 
ATOM     84  C   UNL A   1      51.077  25.386  27.583  1.00  0.00     0.040 A 
ATOM     85  C   UNL A   1      50.644  26.014  25.300  1.00  0.00     0.040 A 
ATOM     86  F   UNL A   1      48.505  26.741  24.666  1.00  0.00    -0.206 F 
ATOM     87  C   UNL A   1      51.530  25.563  26.276  1.00  0.00     0.006 A 
ENDBRANCH  63  80
ENDBRANCH  37  38
ENDBRANCH  29  32
ENDBRANCH  27  28
ENDBRANCH  26  27
ENDBRANCH   1  26
TORSDOF 14
ENDMDL
MODEL 2
REMARK VINA RESULT:     -11.9      0.919      2.087
REMARK SMILES C[C@H]1[C@H](C(=O)NCCCCNC(=O)c2ccc(-c3c4nc(c(-c5c(F)cccc5F)c5ccc([nH]5)c(-c5c(F)cccc5F)c5nc(c(-c6c(F)cccc6F)c6ccc3[nH]6)C=C5)C=C4)cc2)CC[N@@H+]1Cc1cnn(-c2ccccc2)c1
REMARK SMILES IDX 8 1 7 2 6 3 4 4 5 5 3 7 1 8 2 9 70 10 68 11 69 12 71 14
REMARK SMILES IDX 72 15 73 16 82 17 74 18 75 19 76 20 77 21 81 22 78 23 80 24
REMARK SMILES IDX 79 25 9 26 10 27 11 28 12 29 13 31 14 32 15 33 67 34 16 35
REMARK SMILES IDX 66 36 17 37 18 38 19 39 60 40 20 41 65 42 59 43 61 44 21 45
REMARK SMILES IDX 64 46 58 47 57 48 22 50 48 51 31 52 47 53 32 54 35 55 46 56
REMARK SMILES IDX 62 57 33 58 34 59 45 61 63 62 36 63 23 64 24 65 29 66 25 67
REMARK SMILES IDX 26 68 28 69 30 70 27 71 49 72 50 73 55 74 51 75 52 76 54 77
REMARK SMILES IDX 56 78 53 79 37 80 38 81 43 82 39 83 40 84 42 85 44 86 41 87
REMARK H PARENT 6 6 70 13 11 30 61 49 35 60
REMARK Flexibility Score: inf
ROOT
ATOM      1  C   UNL A   1      31.741  30.158  26.767  1.00  0.00     0.023 C 
ENDROOT
BRANCH   1   2
ATOM      2  C   UNL A   1      31.426  30.103  25.274  1.00  0.00     0.116 C 
BRANCH   2   3
ATOM      3  N   UNL A   1      32.196  29.250  24.399  1.00  0.00    -0.356 N 
ATOM      4  C   UNL A   1      31.794  28.065  23.839  1.00  0.00     0.229 C 
ATOM      5  O   UNL A   1      32.166  27.861  22.676  1.00  0.00    -0.275 OA
ATOM      6  H   UNL A   1      33.108  29.552  24.182  1.00  0.00     0.163 HD
BRANCH   4   7
ATOM      7  C   UNL A   1      30.985  26.977  24.557  1.00  0.00     0.142 C 
ATOM      8  C   UNL A   1      28.580  26.375  24.217  1.00  0.00     0.076 C 
ATOM      9  C   UNL A   1      30.028  26.078  23.763  1.00  0.00     0.193 C 
ATOM     10  N   UNL A   1      30.387  24.682  24.107  1.00  0.00    -0.328 N 
ATOM     11  C   UNL A   1      31.792  26.025  25.443  1.00  0.00     0.081 C 
ATOM     12  C   UNL A   1      30.964  24.745  25.449  1.00  0.00     0.263 C 
ATOM     13  H   UNL A   1      29.539  24.117  24.081  1.00  0.00     0.348 HD
BRANCH  10  14
ATOM     14  C   UNL A   1      31.152  23.880  23.121  1.00  0.00     0.302 C 
BRANCH  14  15
ATOM     15  C   UNL A   1      32.340  23.078  23.618  1.00  0.00     0.045 A 
ATOM     16  C   UNL A   1      32.380  21.737  24.081  1.00  0.00     0.145 A 
ATOM     17  C   UNL A   1      33.691  23.374  23.573  1.00  0.00     0.124 A 
ATOM     18  N   UNL A   1      33.602  21.314  24.426  1.00  0.00    -0.176 NA
ATOM     19  N   UNL A   1      34.374  22.415  24.295  1.00  0.00    -0.240 N 
BRANCH  19  20
ATOM     20  C   UNL A   1      35.704  22.481  24.806  1.00  0.00     0.065 A 
ATOM     21  C   UNL A   1      36.184  23.668  25.358  1.00  0.00     0.028 A 
ATOM     22  C   UNL A   1      36.562  21.373  24.759  1.00  0.00     0.028 A 
ATOM     23  C   UNL A   1      37.459  23.701  25.941  1.00  0.00     0.002 A 
ATOM     24  C   UNL A   1      37.824  21.395  25.360  1.00  0.00     0.002 A 
ATOM     25  C   UNL A   1      38.269  22.563  25.960  1.00  0.00     0.000 A 
ENDBRANCH  19  20
ENDBRANCH  14  15
ENDBRANCH  10  14
ENDBRANCH   4   7
ENDBRANCH   2   3
ENDBRANCH   1   2
BRANCH   1  26
ATOM     26  C   UNL A   1      33.094  29.555  27.228  1.00  0.00     0.023 C 
BRANCH  26  27
ATOM     27  C   UNL A   1      34.359  30.423  27.420  1.00  0.00     0.116 C 
BRANCH  27  28
ATOM     28  N   UNL A   1      34.507  31.157  28.664  1.00  0.00    -0.352 N 
ATOM     29  C   UNL A   1      35.634  31.214  29.475  1.00  0.00     0.251 C 
ATOM     30  H   UNL A   1      33.723  31.670  28.965  1.00  0.00     0.163 HD
ATOM     31  O   UNL A   1      35.657  31.950  30.455  1.00  0.00    -0.269 OA
BRANCH  29  32
ATOM     32  C   UNL A   1      36.810  30.346  29.194  1.00  0.00     0.039 A 
ATOM     33  C   UNL A   1      37.384  30.360  27.922  1.00  0.00     0.014 A 
ATOM     34  C   UNL A   1      37.344  29.503  30.167  1.00  0.00     0.014 A 
ATOM     35  C   UNL A   1      38.557  29.627  27.669  1.00  0.00     0.010 A 
ATOM     36  C   UNL A   1      38.545  28.808  29.923  1.00  0.00     0.010 A 
ATOM     37  C   UNL A   1      39.207  28.902  28.690  1.00  0.00    -0.014 A 
BRANCH  37  38
ATOM     38  C   UNL A   1      40.617  28.406  28.504  1.00  0.00     0.031 A 
ATOM     39  C   UNL A   1      40.973  26.985  28.119  1.00  0.00     0.074 A 
ATOM     40  C   UNL A   1      41.642  29.245  28.781  1.00  0.00     0.049 A 
ATOM     41  N   UNL A   1      42.161  26.460  27.913  1.00  0.00    -0.248 NA
ATOM     42  C   UNL A   1      39.872  26.023  27.987  1.00  0.00     0.031 C 
ATOM     43  C   UNL A   1      41.501  30.608  29.298  1.00  0.00     0.029 A 
ATOM     44  N   UNL A   1      43.005  29.084  28.661  1.00  0.00    -0.354 N 
ATOM     45  C   UNL A   1      41.955  25.108  27.656  1.00  0.00     0.074 A 
ATOM     46  C   UNL A   1      40.526  24.887  27.773  1.00  0.00     0.031 C 
ATOM     47  C   UNL A   1      42.711  31.179  29.382  1.00  0.00     0.029 A 
ATOM     48  C   UNL A   1      43.725  30.217  28.965  1.00  0.00     0.049 A 
ATOM     49  H   UNL A   1      43.425  28.238  28.384  1.00  0.00     0.167 HD
ATOM     50  C   UNL A   1      42.855  24.143  27.330  1.00  0.00     0.037 A 
ATOM     51  C   UNL A   1      45.047  30.477  28.908  1.00  0.00     0.037 A 
ATOM     52  C   UNL A   1      44.274  24.347  27.153  1.00  0.00     0.049 A 
ATOM     53  C   UNL A   1      46.013  29.422  28.455  1.00  0.00     0.074 A 
ATOM     54  C   UNL A   1      45.225  23.442  26.704  1.00  0.00     0.029 A 
ATOM     55  N   UNL A   1      44.951  25.526  27.417  1.00  0.00    -0.354 N 
ATOM     56  N   UNL A   1      45.777  28.188  28.092  1.00  0.00    -0.248 NA
ATOM     57  C   UNL A   1      47.434  29.803  28.396  1.00  0.00     0.031 C 
ATOM     58  C   UNL A   1      46.480  24.062  26.729  1.00  0.00     0.029 A 
ATOM     59  C   UNL A   1      46.305  25.366  27.154  1.00  0.00     0.049 A 
ATOM     60  H   UNL A   1      44.534  26.356  27.742  1.00  0.00     0.167 HD
ATOM     61  C   UNL A   1      47.012  27.654  27.741  1.00  0.00     0.074 A 
ATOM     62  C   UNL A   1      47.992  28.701  27.915  1.00  0.00     0.031 C 
ATOM     63  C   UNL A   1      47.295  26.400  27.313  1.00  0.00     0.037 A 
BRANCH  50  64
ATOM     64  C   UNL A   1      42.337  22.747  27.103  1.00  0.00     0.057 A 
ATOM     65  C   UNL A   1      42.265  22.191  25.821  1.00  0.00     0.134 A 
ATOM     66  C   UNL A   1      41.995  21.922  28.183  1.00  0.00     0.134 A 
ATOM     67  F   UNL A   1      42.587  22.922  24.743  1.00  0.00    -0.206 F 
ATOM     68  C   UNL A   1      41.842  20.876  25.615  1.00  0.00     0.040 A 
ATOM     69  C   UNL A   1      41.597  20.596  27.994  1.00  0.00     0.040 A 
ATOM     70  F   UNL A   1      42.066  22.380  29.443  1.00  0.00    -0.206 F 
ATOM     71  C   UNL A   1      41.513  20.072  26.706  1.00  0.00     0.006 A 
ENDBRANCH  50  64
BRANCH  51  72
ATOM     72  C   UNL A   1      45.542  31.836  29.243  1.00  0.00     0.057 A 
ATOM     73  C   UNL A   1      45.955  32.144  30.545  1.00  0.00     0.134 A 
ATOM     74  C   UNL A   1      45.602  32.854  28.286  1.00  0.00     0.134 A 
ATOM     75  F   UNL A   1      45.899  31.213  31.509  1.00  0.00    -0.206 F 
ATOM     76  C   UNL A   1      46.393  33.423  30.889  1.00  0.00     0.040 A 
ATOM     77  C   UNL A   1      46.061  34.131  28.609  1.00  0.00     0.040 A 
ATOM     78  F   UNL A   1      45.230  32.615  27.020  1.00  0.00    -0.206 F 
ATOM     79  C   UNL A   1      46.450  34.420  29.917  1.00  0.00     0.006 A 
ENDBRANCH  51  72
BRANCH  63  80
ATOM     80  C   UNL A   1      48.724  26.091  26.969  1.00  0.00     0.057 A 
ATOM     81  C   UNL A   1      49.227  26.258  25.672  1.00  0.00     0.134 A 
ATOM     82  C   UNL A   1      49.614  25.643  27.953  1.00  0.00     0.134 A 
ATOM     83  F   UNL A   1      48.424  26.668  24.678  1.00  0.00    -0.206 F 
ATOM     84  C   UNL A   1      50.559  25.970  25.361  1.00  0.00     0.040 A 
ATOM     85  C   UNL A   1      50.954  25.374  27.660  1.00  0.00     0.040 A 
ATOM     86  F   UNL A   1      49.200  25.464  29.216  1.00  0.00    -0.206 F 
ATOM     87  C   UNL A   1      51.428  25.532  26.359  1.00  0.00     0.006 A 
ENDBRANCH  63  80
ENDBRANCH  37  38
ENDBRANCH  29  32
ENDBRANCH  27  28
ENDBRANCH  26  27
ENDBRANCH   1  26
TORSDOF 14
ENDMDL
MODEL 3
REMARK VINA RESULT:     -11.9      2.738      7.464
REMARK SMILES C[C@H]1[C@H](C(=O)NCCCCNC(=O)c2ccc(-c3c4nc(c(-c5c(F)cccc5F)c5ccc([nH]5)c(-c5c(F)cccc5F)c5nc(c(-c6c(F)cccc6F)c6ccc3[nH]6)C=C5)C=C4)cc2)CC[N@@H+]1Cc1cnn(-c2ccccc2)c1
REMARK SMILES IDX 8 1 7 2 6 3 4 4 5 5 3 7 1 8 2 9 70 10 68 11 69 12 71 14
REMARK SMILES IDX 72 15 73 16 82 17 74 18 75 19 76 20 77 21 81 22 78 23 80 24
REMARK SMILES IDX 79 25 9 26 10 27 11 28 12 29 13 31 14 32 15 33 67 34 16 35
REMARK SMILES IDX 66 36 17 37 18 38 19 39 60 40 20 41 65 42 59 43 61 44 21 45
REMARK SMILES IDX 64 46 58 47 57 48 22 50 48 51 31 52 47 53 32 54 35 55 46 56
REMARK SMILES IDX 62 57 33 58 34 59 45 61 63 62 36 63 23 64 24 65 29 66 25 67
REMARK SMILES IDX 26 68 28 69 30 70 27 71 49 72 50 73 55 74 51 75 52 76 54 77
REMARK SMILES IDX 56 78 53 79 37 80 38 81 43 82 39 83 40 84 42 85 44 86 41 87
REMARK H PARENT 6 6 70 13 11 30 61 49 35 60
REMARK Flexibility Score: inf
ROOT
ATOM      1  C   UNL A   1      37.002  20.919  25.206  1.00  0.00     0.023 C 
ENDROOT
BRANCH   1   2
ATOM      2  C   UNL A   1      37.355  22.269  25.823  1.00  0.00     0.116 C 
BRANCH   2   3
ATOM      3  N   UNL A   1      36.344  23.046  26.501  1.00  0.00    -0.356 N 
ATOM      4  C   UNL A   1      35.185  23.542  25.961  1.00  0.00     0.229 C 
ATOM      5  O   UNL A   1      34.188  23.508  26.694  1.00  0.00    -0.275 OA
ATOM      6  H   UNL A   1      36.504  23.241  27.453  1.00  0.00     0.163 HD
BRANCH   4   7
ATOM      7  C   UNL A   1      35.057  24.174  24.570  1.00  0.00     0.142 C 
ATOM      8  C   UNL A   1      35.990  23.328  22.407  1.00  0.00     0.076 C 
ATOM      9  C   UNL A   1      34.763  23.295  23.348  1.00  0.00     0.193 C 
ATOM     10  N   UNL A   1      33.593  23.901  22.671  1.00  0.00    -0.328 N 
ATOM     11  C   UNL A   1      34.087  25.353  24.462  1.00  0.00     0.081 C 
ATOM     12  C   UNL A   1      33.641  25.324  23.004  1.00  0.00     0.263 C 
ATOM     13  H   UNL A   1      33.683  23.739  21.667  1.00  0.00     0.348 HD
BRANCH  10  14
ATOM     14  C   UNL A   1      32.267  23.255  22.824  1.00  0.00     0.302 C 
BRANCH  14  15
ATOM     15  C   UNL A   1      32.184  21.970  23.626  1.00  0.00     0.045 A 
ATOM     16  C   UNL A   1      31.766  21.782  24.970  1.00  0.00     0.145 A 
ATOM     17  C   UNL A   1      32.310  20.656  23.211  1.00  0.00     0.124 A 
ATOM     18  N   UNL A   1      31.785  20.507  25.374  1.00  0.00    -0.176 NA
ATOM     19  N   UNL A   1      32.322  19.843  24.328  1.00  0.00    -0.240 N 
BRANCH  19  20
ATOM     20  C   UNL A   1      32.762  18.490  24.425  1.00  0.00     0.065 A 
ATOM     21  C   UNL A   1      33.340  17.861  23.324  1.00  0.00     0.028 A 
ATOM     22  C   UNL A   1      32.617  17.756  25.612  1.00  0.00     0.028 A 
ATOM     23  C   UNL A   1      33.854  16.561  23.452  1.00  0.00     0.002 A 
ATOM     24  C   UNL A   1      33.149  16.471  25.751  1.00  0.00     0.002 A 
ATOM     25  C   UNL A   1      33.776  15.877  24.667  1.00  0.00     0.000 A 
ENDBRANCH  19  20
ENDBRANCH  14  15
ENDBRANCH  10  14
ENDBRANCH   4   7
ENDBRANCH   2   3
ENDBRANCH   1   2
BRANCH   1  26
ATOM     26  C   UNL A   1      38.159  19.905  25.009  1.00  0.00     0.023 C 
BRANCH  26  27
ATOM     27  C   UNL A   1      39.418  19.910  25.906  1.00  0.00     0.116 C 
BRANCH  27  28
ATOM     28  N   UNL A   1      40.376  18.830  25.751  1.00  0.00    -0.352 N 
ATOM     29  C   UNL A   1      41.736  18.866  26.038  1.00  0.00     0.251 C 
ATOM     30  H   UNL A   1      40.024  17.978  25.405  1.00  0.00     0.163 HD
ATOM     31  O   UNL A   1      42.416  17.851  25.950  1.00  0.00    -0.269 OA
BRANCH  29  32
ATOM     32  C   UNL A   1      42.394  20.148  26.409  1.00  0.00     0.039 A 
ATOM     33  C   UNL A   1      43.215  20.791  25.482  1.00  0.00     0.014 A 
ATOM     34  C   UNL A   1      42.222  20.717  27.670  1.00  0.00     0.014 A 
ATOM     35  C   UNL A   1      43.759  22.054  25.777  1.00  0.00     0.010 A 
ATOM     36  C   UNL A   1      42.730  22.003  27.943  1.00  0.00     0.010 A 
ATOM     37  C   UNL A   1      43.457  22.721  26.983  1.00  0.00    -0.014 A 
BRANCH  37  38
ATOM     38  C   UNL A   1      43.760  24.188  27.147  1.00  0.00     0.031 A 
ATOM     39  C   UNL A   1      42.753  25.215  27.623  1.00  0.00     0.074 A 
ATOM     40  C   UNL A   1      44.976  24.647  26.767  1.00  0.00     0.049 A 
ATOM     41  N   UNL A   1      42.920  26.505  27.818  1.00  0.00    -0.248 NA
ATOM     42  C   UNL A   1      41.382  24.754  27.871  1.00  0.00     0.031 C 
ATOM     43  C   UNL A   1      46.030  23.835  26.155  1.00  0.00     0.029 A 
ATOM     44  N   UNL A   1      45.537  25.903  26.842  1.00  0.00    -0.354 N 
ATOM     45  C   UNL A   1      41.677  27.012  28.184  1.00  0.00     0.074 A 
ATOM     46  C   UNL A   1      40.756  25.893  28.143  1.00  0.00     0.031 C 
ATOM     47  C   UNL A   1      47.125  24.588  25.979  1.00  0.00     0.029 A 
ATOM     48  C   UNL A   1      46.847  25.949  26.425  1.00  0.00     0.049 A 
ATOM     49  H   UNL A   1      45.046  26.693  27.164  1.00  0.00     0.167 HD
ATOM     50  C   UNL A   1      41.332  28.277  28.543  1.00  0.00     0.037 A 
ATOM     51  C   UNL A   1      47.743  26.956  26.408  1.00  0.00     0.037 A 
ATOM     52  C   UNL A   1      42.240  29.396  28.646  1.00  0.00     0.049 A 
ATOM     53  C   UNL A   1      47.365  28.323  26.898  1.00  0.00     0.074 A 
ATOM     54  C   UNL A   1      41.982  30.673  29.122  1.00  0.00     0.029 A 
ATOM     55  N   UNL A   1      43.571  29.382  28.267  1.00  0.00    -0.354 N 
ATOM     56  N   UNL A   1      46.217  28.745  27.362  1.00  0.00    -0.248 NA
ATOM     57  C   UNL A   1      48.416  29.354  26.870  1.00  0.00     0.031 C 
ATOM     58  C   UNL A   1      43.146  31.440  28.999  1.00  0.00     0.029 A 
ATOM     59  C   UNL A   1      44.142  30.629  28.485  1.00  0.00     0.049 A 
ATOM     60  H   UNL A   1      44.046  28.602  27.898  1.00  0.00     0.167 HD
ATOM     61  C   UNL A   1      46.412  30.079  27.701  1.00  0.00     0.074 A 
ATOM     62  C   UNL A   1      47.792  30.392  27.408  1.00  0.00     0.031 C 
ATOM     63  C   UNL A   1      45.516  30.958  28.209  1.00  0.00     0.037 A 
BRANCH  50  64
ATOM     64  C   UNL A   1      39.891  28.538  28.894  1.00  0.00     0.057 A 
ATOM     65  C   UNL A   1      39.403  28.334  30.191  1.00  0.00     0.134 A 
ATOM     66  C   UNL A   1      39.007  29.084  27.953  1.00  0.00     0.134 A 
ATOM     67  F   UNL A   1      40.198  27.824  31.144  1.00  0.00    -0.206 F 
ATOM     68  C   UNL A   1      38.083  28.634  30.533  1.00  0.00     0.040 A 
ATOM     69  C   UNL A   1      37.692  29.413  28.289  1.00  0.00     0.040 A 
ATOM     70  F   UNL A   1      39.414  29.330  26.698  1.00  0.00    -0.206 F 
ATOM     71  C   UNL A   1      37.224  29.182  29.580  1.00  0.00     0.006 A 
ENDBRANCH  50  64
BRANCH  51  72
ATOM     72  C   UNL A   1      49.132  26.694  25.952  1.00  0.00     0.057 A 
ATOM     73  C   UNL A   1      49.518  26.983  24.638  1.00  0.00     0.134 A 
ATOM     74  C   UNL A   1      50.094  26.143  26.804  1.00  0.00     0.134 A 
ATOM     75  F   UNL A   1      48.631  27.493  23.770  1.00  0.00    -0.206 F 
ATOM     76  C   UNL A   1      50.807  26.715  24.180  1.00  0.00     0.040 A 
ATOM     77  C   UNL A   1      51.395  25.892  26.367  1.00  0.00     0.040 A 
ATOM     78  F   UNL A   1      49.786  25.856  28.077  1.00  0.00    -0.206 F 
ATOM     79  C   UNL A   1      51.752  26.171  25.048  1.00  0.00     0.006 A 
ENDBRANCH  51  72
BRANCH  63  80
ATOM     80  C   UNL A   1      46.002  32.345  28.516  1.00  0.00     0.057 A 
ATOM     81  C   UNL A   1      45.959  33.374  27.565  1.00  0.00     0.134 A 
ATOM     82  C   UNL A   1      46.498  32.663  29.786  1.00  0.00     0.134 A 
ATOM     83  F   UNL A   1      45.511  33.133  26.323  1.00  0.00    -0.206 F 
ATOM     84  C   UNL A   1      46.411  34.662  27.860  1.00  0.00     0.040 A 
ATOM     85  C   UNL A   1      46.932  33.954  30.101  1.00  0.00     0.040 A 
ATOM     86  F   UNL A   1      46.564  31.728  30.745  1.00  0.00    -0.206 F 
ATOM     87  C   UNL A   1      46.894  34.957  29.134  1.00  0.00     0.006 A 
ENDBRANCH  63  80
ENDBRANCH  37  38
ENDBRANCH  29  32
ENDBRANCH  27  28
ENDBRANCH  26  27
ENDBRANCH   1  26
TORSDOF 14
ENDMDL
