MODEL 1
REMARK VINA RESULT:     -13.4      0.000      0.000
REMARK SMILES Cc1ccccc1C(=O)Nc1ccc(N2CCC(n3c(C)nc4cccnc43)CC2)c(C(=O)NCCCCNC(=O)c2ccc(-c3c4nc(c(-c5c(F)cccc5F)c5ccc([nH]5)c(-c5c(F)cccc5F)c5nc(c(-c6c(F)cccc6F)c6ccc3[nH]6)C=C5)C=C4)cc2)c1
REMARK SMILES IDX 36 1 35 2 34 3 32 4 33 5 31 7 11 8 12 9 96 10 13 11 14 12
REMARK SMILES IDX 10 13 8 14 9 15 7 17 1 18 2 19 3 20 4 21 6 22 5 23 15 24
REMARK SMILES IDX 16 25 30 26 17 27 29 28 18 29 19 30 20 31 28 32 21 33 22 34
REMARK SMILES IDX 23 35 27 36 24 37 26 38 25 39 37 40 38 41 39 42 40 43 41 45
REMARK SMILES IDX 42 46 43 47 95 48 44 49 94 50 45 51 46 52 47 53 88 54 48 55
REMARK SMILES IDX 93 56 87 57 89 58 49 59 92 60 86 61 85 62 50 64 76 65 59 66
REMARK SMILES IDX 75 67 60 68 63 69 74 70 90 71 61 72 62 73 73 75 91 76 64 77
REMARK SMILES IDX 51 78 52 79 57 80 53 81 54 82 56 83 58 84 55 85 77 86 78 87
REMARK SMILES IDX 83 88 79 89 80 90 82 91 84 92 81 93 65 94 66 95 71 96 67 97
REMARK SMILES IDX 68 98 70 99 72 100 69 101
REMARK H PARENT 34 6 10 16 39 44 89 63 63 74
REMARK Flexibility Score: inf
ROOT
ATOM      1  C   UNL A   1      37.367  21.713  24.327  1.00  0.00     0.023 C 
ENDROOT
BRANCH   1   2
ATOM      2  C   UNL A   1      36.934  23.174  24.270  1.00  0.00     0.116 C 
BRANCH   2   3
ATOM      3  N   UNL A   1      36.017  23.658  23.270  1.00  0.00    -0.352 N 
ATOM      4  C   UNL A   1      34.632  23.507  23.244  1.00  0.00     0.253 C 
ATOM      5  O   UNL A   1      34.033  24.125  22.358  1.00  0.00    -0.269 OA
ATOM      6  H   UNL A   1      36.415  24.153  22.518  1.00  0.00     0.163 HD
BRANCH   4   7
ATOM      7  C   UNL A   1      33.818  22.611  24.167  1.00  0.00     0.065 A 
ATOM      8  C   UNL A   1      32.742  20.404  24.330  1.00  0.00     0.042 A 
ATOM      9  C   UNL A   1      32.318  20.674  25.615  1.00  0.00     0.028 A 
ATOM     10  C   UNL A   1      33.609  21.296  23.676  1.00  0.00     0.042 A 
ATOM     11  C   UNL A   1      32.537  21.943  26.130  1.00  0.00     0.029 A 
ATOM     12  C   UNL A   1      33.151  22.967  25.364  1.00  0.00     0.050 A 
BRANCH   8  13
ATOM     13  N   UNL A   1      32.228  19.321  23.610  1.00  0.00    -0.322 N 
ATOM     14  C   UNL A   1      32.723  18.039  23.437  1.00  0.00     0.255 C 
ATOM     15  O   UNL A   1      32.198  17.354  22.553  1.00  0.00    -0.269 OA
ATOM     16  H   UNL A   1      31.376  19.499  23.152  1.00  0.00     0.170 HD
BRANCH  14  17
ATOM     17  C   UNL A   1      33.790  17.386  24.286  1.00  0.00     0.043 A 
ATOM     18  C   UNL A   1      32.550  15.218  24.982  1.00  0.00     0.045 C 
ATOM     19  C   UNL A   1      33.713  16.162  24.987  1.00  0.00    -0.038 A 
ATOM     20  C   UNL A   1      34.830  15.710  25.730  1.00  0.00     0.004 A 
ATOM     21  C   UNL A   1      36.054  16.365  25.673  1.00  0.00     0.000 A 
ATOM     22  C   UNL A   1      35.053  18.017  24.228  1.00  0.00     0.014 A 
ATOM     23  C   UNL A   1      36.174  17.503  24.892  1.00  0.00     0.001 A 
ENDBRANCH  14  17
ENDBRANCH   8  13
BRANCH  12  24
ATOM     24  N   UNL A   1      32.838  24.274  25.757  1.00  0.00    -0.371 N 
ATOM     25  C   UNL A   1      31.475  24.555  26.185  1.00  0.00     0.118 C 
ATOM     26  C   UNL A   1      33.898  25.269  25.647  1.00  0.00     0.118 C 
ATOM     27  C   UNL A   1      31.067  26.004  26.152  1.00  0.00     0.047 C 
ATOM     28  C   UNL A   1      33.349  26.623  25.261  1.00  0.00     0.047 C 
ATOM     29  C   UNL A   1      32.174  27.061  26.125  1.00  0.00     0.094 C 
BRANCH  29  30
ATOM     30  N   UNL A   1      31.536  28.322  25.717  1.00  0.00    -0.310 N 
ATOM     31  C   UNL A   1      31.852  29.632  26.027  1.00  0.00     0.108 A 
ATOM     32  C   UNL A   1      30.644  28.373  24.667  1.00  0.00     0.160 A 
ATOM     33  C   UNL A   1      32.447  30.113  27.303  1.00  0.00     0.088 C 
ATOM     34  N   UNL A   1      31.451  30.448  25.067  1.00  0.00    -0.232 NA
ATOM     35  C   UNL A   1      30.651  29.695  24.255  1.00  0.00     0.108 A 
ATOM     36  N   UNL A   1      29.935  27.352  24.146  1.00  0.00    -0.237 NA
ATOM     37  C   UNL A   1      29.817  30.058  23.191  1.00  0.00     0.034 A 
ATOM     38  C   UNL A   1      29.104  27.756  23.154  1.00  0.00     0.113 A 
ATOM     39  C   UNL A   1      29.003  29.054  22.656  1.00  0.00     0.022 A 
ENDBRANCH  29  30
ENDBRANCH  12  24
ENDBRANCH   4   7
ENDBRANCH   2   3
ENDBRANCH   1   2
BRANCH   1  40
ATOM     40  C   UNL A   1      37.854  21.122  25.645  1.00  0.00     0.023 C 
BRANCH  40  41
ATOM     41  C   UNL A   1      39.287  21.417  26.044  1.00  0.00     0.116 C 
BRANCH  41  42
ATOM     42  N   UNL A   1      40.266  20.352  25.977  1.00  0.00    -0.352 N 
ATOM     43  C   UNL A   1      41.647  20.418  26.160  1.00  0.00     0.251 C 
ATOM     44  H   UNL A   1      39.906  19.458  25.775  1.00  0.00     0.163 HD
ATOM     45  O   UNL A   1      42.323  19.447  25.887  1.00  0.00    -0.269 OA
BRANCH  43  46
ATOM     46  C   UNL A   1      42.310  21.615  26.784  1.00  0.00     0.039 A 
ATOM     47  C   UNL A   1      42.253  21.768  28.186  1.00  0.00     0.014 A 
ATOM     48  C   UNL A   1      42.821  22.665  26.034  1.00  0.00     0.014 A 
ATOM     49  C   UNL A   1      42.520  23.007  28.776  1.00  0.00     0.010 A 
ATOM     50  C   UNL A   1      43.000  23.896  26.587  1.00  0.00     0.010 A 
ATOM     51  C   UNL A   1      42.777  24.081  27.943  1.00  0.00    -0.014 A 
BRANCH  51  52
ATOM     52  C   UNL A   1      42.875  25.480  28.296  1.00  0.00     0.031 A 
ATOM     53  C   UNL A   1      41.667  26.303  28.162  1.00  0.00     0.074 A 
ATOM     54  C   UNL A   1      43.858  25.737  29.186  1.00  0.00     0.049 A 
ATOM     55  N   UNL A   1      41.592  27.548  28.461  1.00  0.00    -0.248 NA
ATOM     56  C   UNL A   1      40.413  25.755  27.655  1.00  0.00     0.031 C 
ATOM     57  C   UNL A   1      43.919  26.721  30.259  1.00  0.00     0.029 A 
ATOM     58  N   UNL A   1      45.143  25.189  29.154  1.00  0.00    -0.354 N 
ATOM     59  C   UNL A   1      40.253  27.879  28.503  1.00  0.00     0.074 A 
ATOM     60  C   UNL A   1      39.579  26.774  27.871  1.00  0.00     0.031 C 
ATOM     61  C   UNL A   1      45.211  26.923  30.582  1.00  0.00     0.029 A 
ATOM     62  C   UNL A   1      45.995  26.229  29.568  1.00  0.00     0.049 A 
ATOM     63  H   UNL A   1      45.397  24.274  28.897  1.00  0.00     0.167 HD
ATOM     64  C   UNL A   1      39.886  28.975  29.227  1.00  0.00     0.037 A 
ATOM     65  C   UNL A   1      46.780  26.863  28.639  1.00  0.00     0.037 A 
ATOM     66  C   UNL A   1      41.084  29.643  29.749  1.00  0.00     0.049 A 
ATOM     67  C   UNL A   1      46.496  28.329  28.562  1.00  0.00     0.074 A 
ATOM     68  C   UNL A   1      41.712  29.598  30.983  1.00  0.00     0.029 A 
ATOM     69  N   UNL A   1      42.001  30.193  28.859  1.00  0.00    -0.354 N 
ATOM     70  N   UNL A   1      45.310  28.847  28.706  1.00  0.00    -0.248 NA
ATOM     71  C   UNL A   1      47.548  29.316  28.384  1.00  0.00     0.031 C 
ATOM     72  C   UNL A   1      43.037  30.083  30.815  1.00  0.00     0.029 A 
ATOM     73  C   UNL A   1      43.206  30.444  29.486  1.00  0.00     0.049 A 
ATOM     74  H   UNL A   1      41.816  30.378  27.910  1.00  0.00     0.167 HD
ATOM     75  C   UNL A   1      45.419  30.210  28.655  1.00  0.00     0.074 A 
ATOM     76  C   UNL A   1      46.839  30.451  28.471  1.00  0.00     0.031 C 
ATOM     77  C   UNL A   1      44.327  31.020  28.754  1.00  0.00     0.037 A 
BRANCH  64  78
ATOM     78  C   UNL A   1      38.484  29.305  29.711  1.00  0.00     0.057 A 
ATOM     79  C   UNL A   1      37.525  29.811  28.809  1.00  0.00     0.134 A 
ATOM     80  C   UNL A   1      38.011  29.197  31.033  1.00  0.00     0.134 A 
ATOM     81  F   UNL A   1      37.774  29.911  27.496  1.00  0.00    -0.206 F 
ATOM     82  C   UNL A   1      36.248  30.242  29.198  1.00  0.00     0.040 A 
ATOM     83  C   UNL A   1      36.746  29.652  31.442  1.00  0.00     0.040 A 
ATOM     84  F   UNL A   1      38.710  28.602  32.000  1.00  0.00    -0.206 F 
ATOM     85  C   UNL A   1      35.860  30.185  30.526  1.00  0.00     0.006 A 
ENDBRANCH  64  78
BRANCH  65  86
ATOM     86  C   UNL A   1      47.081  26.009  27.452  1.00  0.00     0.057 A 
ATOM     87  C   UNL A   1      46.375  26.308  26.285  1.00  0.00     0.134 A 
ATOM     88  C   UNL A   1      48.300  25.338  27.304  1.00  0.00     0.134 A 
ATOM     89  F   UNL A   1      45.176  26.899  26.374  1.00  0.00    -0.206 F 
ATOM     90  C   UNL A   1      46.977  26.191  25.036  1.00  0.00     0.040 A 
ATOM     91  C   UNL A   1      48.872  25.143  26.039  1.00  0.00     0.040 A 
ATOM     92  F   UNL A   1      49.015  24.968  28.374  1.00  0.00    -0.206 F 
ATOM     93  C   UNL A   1      48.243  25.644  24.905  1.00  0.00     0.006 A 
ENDBRANCH  65  86
BRANCH  77  94
ATOM     94  C   UNL A   1      44.240  32.436  28.228  1.00  0.00     0.057 A 
ATOM     95  C   UNL A   1      44.137  32.779  26.870  1.00  0.00     0.134 A 
ATOM     96  C   UNL A   1      44.081  33.525  29.117  1.00  0.00     0.134 A 
ATOM     97  F   UNL A   1      44.129  31.861  25.896  1.00  0.00    -0.206 F 
ATOM     98  C   UNL A   1      43.961  34.096  26.429  1.00  0.00     0.040 A 
ATOM     99  C   UNL A   1      43.829  34.831  28.690  1.00  0.00     0.040 A 
ATOM    100  F   UNL A   1      44.118  33.371  30.449  1.00  0.00    -0.206 F 
ATOM    101  C   UNL A   1      43.788  35.126  27.340  1.00  0.00     0.006 A 
ENDBRANCH  77  94
ENDBRANCH  51  52
ENDBRANCH  43  46
ENDBRANCH  41  42
ENDBRANCH  40  41
ENDBRANCH   1  40
TORSDOF 15
ENDMDL
MODEL 2
REMARK VINA RESULT:     -13.3      1.208      2.207
REMARK SMILES Cc1ccccc1C(=O)Nc1ccc(N2CCC(n3c(C)nc4cccnc43)CC2)c(C(=O)NCCCCNC(=O)c2ccc(-c3c4nc(c(-c5c(F)cccc5F)c5ccc([nH]5)c(-c5c(F)cccc5F)c5nc(c(-c6c(F)cccc6F)c6ccc3[nH]6)C=C5)C=C4)cc2)c1
REMARK SMILES IDX 36 1 35 2 34 3 32 4 33 5 31 7 11 8 12 9 96 10 13 11 14 12
REMARK SMILES IDX 10 13 8 14 9 15 7 17 1 18 2 19 3 20 4 21 6 22 5 23 15 24
REMARK SMILES IDX 16 25 30 26 17 27 29 28 18 29 19 30 20 31 28 32 21 33 22 34
REMARK SMILES IDX 23 35 27 36 24 37 26 38 25 39 37 40 38 41 39 42 40 43 41 45
REMARK SMILES IDX 42 46 43 47 95 48 44 49 94 50 45 51 46 52 47 53 88 54 48 55
REMARK SMILES IDX 93 56 87 57 89 58 49 59 92 60 86 61 85 62 50 64 76 65 59 66
REMARK SMILES IDX 75 67 60 68 63 69 74 70 90 71 61 72 62 73 73 75 91 76 64 77
REMARK SMILES IDX 51 78 52 79 57 80 53 81 54 82 56 83 58 84 55 85 77 86 78 87
REMARK SMILES IDX 83 88 79 89 80 90 82 91 84 92 81 93 65 94 66 95 71 96 67 97
REMARK SMILES IDX 68 98 70 99 72 100 69 101
REMARK H PARENT 34 6 10 16 39 44 89 63 63 74
REMARK Flexibility Score: inf
ROOT
ATOM      1  C   UNL A   1      37.312  20.521  24.945  1.00  0.00     0.023 C 
ENDROOT
BRANCH   1   2
ATOM      2  C   UNL A   1      37.297  22.045  24.979  1.00  0.00     0.116 C 
BRANCH   2   3
ATOM      3  N   UNL A   1      36.727  22.824  23.909  1.00  0.00    -0.352 N 
ATOM      4  C   UNL A   1      35.379  23.090  23.678  1.00  0.00     0.253 C 
ATOM      5  O   UNL A   1      35.129  23.898  22.778  1.00  0.00    -0.269 OA
ATOM      6  H   UNL A   1      37.364  23.214  23.268  1.00  0.00     0.163 HD
BRANCH   4   7
ATOM      7  C   UNL A   1      34.208  22.432  24.393  1.00  0.00     0.065 A 
ATOM      8  C   UNL A   1      32.687  20.498  24.323  1.00  0.00     0.042 A 
ATOM      9  C   UNL A   1      32.047  20.924  25.469  1.00  0.00     0.028 A 
ATOM     10  C   UNL A   1      33.846  21.159  23.882  1.00  0.00     0.042 A 
ATOM     11  C   UNL A   1      32.402  22.152  26.006  1.00  0.00     0.029 A 
ATOM     12  C   UNL A   1      33.374  22.985  25.395  1.00  0.00     0.050 A 
BRANCH   8  13
ATOM     13  N   UNL A   1      32.137  19.499  23.515  1.00  0.00    -0.322 N 
ATOM     14  C   UNL A   1      32.541  18.191  23.298  1.00  0.00     0.255 C 
ATOM     15  O   UNL A   1      32.021  17.598  22.348  1.00  0.00    -0.269 OA
ATOM     16  H   UNL A   1      31.331  19.768  23.019  1.00  0.00     0.170 HD
BRANCH  14  17
ATOM     17  C   UNL A   1      33.500  17.412  24.170  1.00  0.00     0.043 A 
ATOM     18  C   UNL A   1      31.864  15.696  25.218  1.00  0.00     0.045 C 
ATOM     19  C   UNL A   1      33.207  16.333  25.033  1.00  0.00    -0.038 A 
ATOM     20  C   UNL A   1      34.250  15.723  25.770  1.00  0.00     0.004 A 
ATOM     21  C   UNL A   1      35.581  16.060  25.559  1.00  0.00     0.000 A 
ATOM     22  C   UNL A   1      34.864  17.716  23.959  1.00  0.00     0.014 A 
ATOM     23  C   UNL A   1      35.891  17.036  24.625  1.00  0.00     0.001 A 
ENDBRANCH  14  17
ENDBRANCH   8  13
BRANCH  12  24
ATOM     24  N   UNL A   1      33.259  24.350  25.688  1.00  0.00    -0.371 N 
ATOM     25  C   UNL A   1      32.007  24.828  26.257  1.00  0.00     0.118 C 
ATOM     26  C   UNL A   1      34.393  25.198  25.340  1.00  0.00     0.118 C 
ATOM     27  C   UNL A   1      31.755  26.306  26.128  1.00  0.00     0.047 C 
ATOM     28  C   UNL A   1      33.942  26.568  24.891  1.00  0.00     0.047 C 
ATOM     29  C   UNL A   1      32.953  27.217  25.849  1.00  0.00     0.094 C 
BRANCH  29  30
ATOM     30  N   UNL A   1      32.401  28.504  25.399  1.00  0.00    -0.310 N 
ATOM     31  C   UNL A   1      31.463  28.789  24.424  1.00  0.00     0.108 A 
ATOM     32  C   UNL A   1      32.556  29.656  26.140  1.00  0.00     0.160 A 
ATOM     33  C   UNL A   1      31.245  28.027  23.165  1.00  0.00     0.088 C 
ATOM     34  N   UNL A   1      30.832  29.918  24.700  1.00  0.00    -0.232 NA
ATOM     35  C   UNL A   1      31.538  30.494  25.718  1.00  0.00     0.108 A 
ATOM     36  N   UNL A   1      33.487  29.901  27.085  1.00  0.00    -0.237 NA
ATOM     37  C   UNL A   1      31.448  31.764  26.299  1.00  0.00     0.034 A 
ATOM     38  C   UNL A   1      33.395  31.158  27.583  1.00  0.00     0.113 A 
ATOM     39  C   UNL A   1      32.431  32.103  27.234  1.00  0.00     0.022 A 
ENDBRANCH  29  30
ENDBRANCH  12  24
ENDBRANCH   4   7
ENDBRANCH   2   3
ENDBRANCH   1   2
BRANCH   1  40
ATOM     40  C   UNL A   1      38.642  19.783  24.842  1.00  0.00     0.023 C 
BRANCH  40  41
ATOM     41  C   UNL A   1      39.288  19.342  26.142  1.00  0.00     0.116 C 
BRANCH  41  42
ATOM     42  N   UNL A   1      40.718  19.113  26.170  1.00  0.00    -0.352 N 
ATOM     43  C   UNL A   1      41.750  20.035  26.345  1.00  0.00     0.251 C 
ATOM     44  H   UNL A   1      41.000  18.177  26.048  1.00  0.00     0.163 HD
ATOM     45  O   UNL A   1      42.895  19.677  26.159  1.00  0.00    -0.269 OA
BRANCH  43  46
ATOM     46  C   UNL A   1      41.495  21.425  26.859  1.00  0.00     0.039 A 
ATOM     47  C   UNL A   1      41.112  22.428  25.944  1.00  0.00     0.014 A 
ATOM     48  C   UNL A   1      41.790  21.808  28.160  1.00  0.00     0.014 A 
ATOM     49  C   UNL A   1      41.216  23.779  26.287  1.00  0.00     0.010 A 
ATOM     50  C   UNL A   1      41.977  23.119  28.477  1.00  0.00     0.010 A 
ATOM     51  C   UNL A   1      41.761  24.097  27.517  1.00  0.00    -0.014 A 
BRANCH  51  52
ATOM     52  C   UNL A   1      42.159  25.398  28.009  1.00  0.00     0.031 A 
ATOM     53  C   UNL A   1      41.099  26.369  28.302  1.00  0.00     0.074 A 
ATOM     54  C   UNL A   1      43.354  25.385  28.638  1.00  0.00     0.049 A 
ATOM     55  N   UNL A   1      41.294  27.548  28.768  1.00  0.00    -0.248 NA
ATOM     56  C   UNL A   1      39.690  26.065  28.073  1.00  0.00     0.031 C 
ATOM     57  C   UNL A   1      43.825  26.165  29.776  1.00  0.00     0.029 A 
ATOM     58  N   UNL A   1      44.492  24.702  28.202  1.00  0.00    -0.354 N 
ATOM     59  C   UNL A   1      40.073  28.024  29.200  1.00  0.00     0.074 A 
ATOM     60  C   UNL A   1      39.102  27.126  28.628  1.00  0.00     0.031 C 
ATOM     61  C   UNL A   1      45.171  26.156  29.773  1.00  0.00     0.029 A 
ATOM     62  C   UNL A   1      45.571  25.550  28.510  1.00  0.00     0.049 A 
ATOM     63  H   UNL A   1      44.530  23.817  27.771  1.00  0.00     0.167 HD
ATOM     64  C   UNL A   1      40.067  29.023  30.130  1.00  0.00     0.037 A 
ATOM     65  C   UNL A   1      46.200  26.230  27.498  1.00  0.00     0.037 A 
ATOM     66  C   UNL A   1      41.444  29.448  30.403  1.00  0.00     0.049 A 
ATOM     67  C   UNL A   1      46.139  27.712  27.688  1.00  0.00     0.074 A 
ATOM     68  C   UNL A   1      42.335  29.127  31.414  1.00  0.00     0.029 A 
ATOM     69  N   UNL A   1      42.196  30.023  29.383  1.00  0.00    -0.354 N 
ATOM     70  N   UNL A   1      45.118  28.337  28.201  1.00  0.00    -0.248 NA
ATOM     71  C   UNL A   1      47.259  28.582  27.370  1.00  0.00     0.031 C 
ATOM     72  C   UNL A   1      43.640  29.471  30.970  1.00  0.00     0.029 A 
ATOM     73  C   UNL A   1      43.540  30.023  29.702  1.00  0.00     0.049 A 
ATOM     74  H   UNL A   1      41.820  30.383  28.548  1.00  0.00     0.167 HD
ATOM     75  C   UNL A   1      45.424  29.667  28.300  1.00  0.00     0.074 A 
ATOM     76  C   UNL A   1      46.779  29.764  27.785  1.00  0.00     0.031 C 
ATOM     77  C   UNL A   1      44.529  30.574  28.783  1.00  0.00     0.037 A 
BRANCH  64  78
ATOM     78  C   UNL A   1      38.892  29.433  31.001  1.00  0.00     0.057 A 
ATOM     79  C   UNL A   1      38.252  30.672  30.788  1.00  0.00     0.134 A 
ATOM     80  C   UNL A   1      38.358  28.703  32.080  1.00  0.00     0.134 A 
ATOM     81  F   UNL A   1      38.576  31.467  29.758  1.00  0.00    -0.206 F 
ATOM     82  C   UNL A   1      37.235  31.171  31.616  1.00  0.00     0.040 A 
ATOM     83  C   UNL A   1      37.362  29.203  32.936  1.00  0.00     0.040 A 
ATOM     84  F   UNL A   1      38.722  27.449  32.349  1.00  0.00    -0.206 F 
ATOM     85  C   UNL A   1      36.800  30.445  32.711  1.00  0.00     0.006 A 
ENDBRANCH  64  78
BRANCH  65  86
ATOM     86  C   UNL A   1      46.070  25.553  26.174  1.00  0.00     0.057 A 
ATOM     87  C   UNL A   1      46.937  24.482  25.943  1.00  0.00     0.134 A 
ATOM     88  C   UNL A   1      44.883  25.581  25.434  1.00  0.00     0.134 A 
ATOM     89  F   UNL A   1      48.112  24.437  26.584  1.00  0.00    -0.206 F 
ATOM     90  C   UNL A   1      46.519  23.367  25.222  1.00  0.00     0.040 A 
ATOM     91  C   UNL A   1      44.498  24.493  24.639  1.00  0.00     0.040 A 
ATOM     92  F   UNL A   1      44.021  26.598  25.556  1.00  0.00    -0.206 F 
ATOM     93  C   UNL A   1      45.283  23.347  24.597  1.00  0.00     0.006 A 
ENDBRANCH  65  86
BRANCH  77  94
ATOM     94  C   UNL A   1      44.541  32.057  28.485  1.00  0.00     0.057 A 
ATOM     95  C   UNL A   1      45.002  33.046  29.370  1.00  0.00     0.134 A 
ATOM     96  C   UNL A   1      44.238  32.532  27.188  1.00  0.00     0.134 A 
ATOM     97  F   UNL A   1      45.460  32.758  30.593  1.00  0.00    -0.206 F 
ATOM     98  C   UNL A   1      45.088  34.398  29.020  1.00  0.00     0.040 A 
ATOM     99  C   UNL A   1      44.392  33.867  26.806  1.00  0.00     0.040 A 
ATOM    100  F   UNL A   1      43.817  31.718  26.208  1.00  0.00    -0.206 F 
ATOM    101  C   UNL A   1      44.800  34.812  27.729  1.00  0.00     0.006 A 
ENDBRANCH  77  94
ENDBRANCH  51  52
ENDBRANCH  43  46
ENDBRANCH  41  42
ENDBRANCH  40  41
ENDBRANCH   1  40
TORSDOF 15
ENDMDL
MODEL 3
REMARK VINA RESULT:     -13.2      5.896      9.889
REMARK SMILES Cc1ccccc1C(=O)Nc1ccc(N2CCC(n3c(C)nc4cccnc43)CC2)c(C(=O)NCCCCNC(=O)c2ccc(-c3c4nc(c(-c5c(F)cccc5F)c5ccc([nH]5)c(-c5c(F)cccc5F)c5nc(c(-c6c(F)cccc6F)c6ccc3[nH]6)C=C5)C=C4)cc2)c1
REMARK SMILES IDX 36 1 35 2 34 3 32 4 33 5 31 7 11 8 12 9 96 10 13 11 14 12
REMARK SMILES IDX 10 13 8 14 9 15 7 17 1 18 2 19 3 20 4 21 6 22 5 23 15 24
REMARK SMILES IDX 16 25 30 26 17 27 29 28 18 29 19 30 20 31 28 32 21 33 22 34
REMARK SMILES IDX 23 35 27 36 24 37 26 38 25 39 37 40 38 41 39 42 40 43 41 45
REMARK SMILES IDX 42 46 43 47 95 48 44 49 94 50 45 51 46 52 47 53 88 54 48 55
REMARK SMILES IDX 93 56 87 57 89 58 49 59 92 60 86 61 85 62 50 64 76 65 59 66
REMARK SMILES IDX 75 67 60 68 63 69 74 70 90 71 61 72 62 73 73 75 91 76 64 77
REMARK SMILES IDX 51 78 52 79 57 80 53 81 54 82 56 83 58 84 55 85 77 86 78 87
REMARK SMILES IDX 83 88 79 89 80 90 82 91 84 92 81 93 65 94 66 95 71 96 67 97
REMARK SMILES IDX 68 98 70 99 72 100 69 101
REMARK H PARENT 34 6 10 16 39 44 89 63 63 74
REMARK Flexibility Score: inf
ROOT
ATOM      1  C   UNL A   1      38.924  33.433  33.126  1.00  0.00     0.023 C 
ENDROOT
BRANCH   1   2
ATOM      2  C   UNL A   1      37.846  32.777  32.270  1.00  0.00     0.116 C 
BRANCH   2   3
ATOM      3  N   UNL A   1      37.215  31.541  32.656  1.00  0.00    -0.352 N 
ATOM      4  C   UNL A   1      37.236  30.328  31.972  1.00  0.00     0.253 C 
ATOM      5  O   UNL A   1      36.740  29.361  32.560  1.00  0.00    -0.269 OA
ATOM      6  H   UNL A   1      36.711  31.556  33.501  1.00  0.00     0.163 HD
BRANCH   4   7
ATOM      7  C   UNL A   1      37.758  30.113  30.558  1.00  0.00     0.065 A 
ATOM      8  C   UNL A   1      39.677  29.271  29.269  1.00  0.00     0.042 A 
ATOM      9  C   UNL A   1      39.039  29.555  28.079  1.00  0.00     0.028 A 
ATOM     10  C   UNL A   1      38.984  29.404  30.484  1.00  0.00     0.042 A 
ATOM     11  C   UNL A   1      37.824  30.222  28.123  1.00  0.00     0.029 A 
ATOM     12  C   UNL A   1      37.243  30.641  29.348  1.00  0.00     0.050 A 
BRANCH   8  13
ATOM     13  N   UNL A   1      41.042  28.971  29.306  1.00  0.00    -0.322 N 
ATOM     14  C   UNL A   1      41.729  27.844  28.882  1.00  0.00     0.255 C 
ATOM     15  O   UNL A   1      42.901  27.734  29.255  1.00  0.00    -0.269 OA
ATOM     16  H   UNL A   1      41.608  29.675  29.696  1.00  0.00     0.170 HD
BRANCH  14  17
ATOM     17  C   UNL A   1      41.190  26.788  27.945  1.00  0.00     0.043 A 
ATOM     18  C   UNL A   1      42.181  27.627  25.701  1.00  0.00     0.045 C 
ATOM     19  C   UNL A   1      41.363  26.699  26.546  1.00  0.00    -0.038 A 
ATOM     20  C   UNL A   1      40.781  25.622  25.835  1.00  0.00     0.004 A 
ATOM     21  C   UNL A   1      40.163  24.567  26.494  1.00  0.00     0.000 A 
ATOM     22  C   UNL A   1      40.578  25.688  28.589  1.00  0.00     0.014 A 
ATOM     23  C   UNL A   1      40.092  24.584  27.878  1.00  0.00     0.001 A 
ENDBRANCH  14  17
ENDBRANCH   8  13
BRANCH  12  24
ATOM     24  N   UNL A   1      36.357  31.720  29.249  1.00  0.00    -0.371 N 
ATOM     25  C   UNL A   1      36.876  32.994  28.771  1.00  0.00     0.118 C 
ATOM     26  C   UNL A   1      34.987  31.493  29.694  1.00  0.00     0.118 C 
ATOM     27  C   UNL A   1      36.046  34.203  29.108  1.00  0.00     0.047 C 
ATOM     28  C   UNL A   1      34.402  32.729  30.336  1.00  0.00     0.047 C 
ATOM     29  C   UNL A   1      34.580  33.984  29.493  1.00  0.00     0.094 C 
BRANCH  29  30
ATOM     30  N   UNL A   1      34.124  35.231  30.125  1.00  0.00    -0.310 N 
ATOM     31  C   UNL A   1      33.322  36.246  29.638  1.00  0.00     0.108 A 
ATOM     32  C   UNL A   1      34.218  35.426  31.487  1.00  0.00     0.160 A 
ATOM     33  C   UNL A   1      33.239  36.699  28.224  1.00  0.00     0.088 C 
ATOM     34  N   UNL A   1      32.693  36.859  30.628  1.00  0.00    -0.232 NA
ATOM     35  C   UNL A   1      33.283  36.407  31.773  1.00  0.00     0.108 A 
ATOM     36  N   UNL A   1      35.032  34.786  32.350  1.00  0.00    -0.237 NA
ATOM     37  C   UNL A   1      33.158  36.828  33.103  1.00  0.00     0.034 A 
ATOM     38  C   UNL A   1      34.914  35.259  33.615  1.00  0.00     0.113 A 
ATOM     39  C   UNL A   1      34.027  36.250  34.034  1.00  0.00     0.022 A 
ENDBRANCH  29  30
ENDBRANCH  12  24
ENDBRANCH   4   7
ENDBRANCH   2   3
ENDBRANCH   1   2
BRANCH   1  40
ATOM     40  C   UNL A   1      38.524  34.439  34.200  1.00  0.00     0.023 C 
BRANCH  40  41
ATOM     41  C   UNL A   1      38.970  34.144  35.620  1.00  0.00     0.116 C 
BRANCH  41  42
ATOM     42  N   UNL A   1      38.311  33.085  36.356  1.00  0.00    -0.352 N 
ATOM     43  C   UNL A   1      38.557  31.712  36.324  1.00  0.00     0.251 C 
ATOM     44  H   UNL A   1      37.590  33.374  36.960  1.00  0.00     0.163 HD
ATOM     45  O   UNL A   1      37.779  30.963  36.880  1.00  0.00    -0.269 OA
BRANCH  43  46
ATOM     46  C   UNL A   1      39.810  31.143  35.719  1.00  0.00     0.039 A 
ATOM     47  C   UNL A   1      41.032  31.817  35.927  1.00  0.00     0.014 A 
ATOM     48  C   UNL A   1      39.794  30.085  34.821  1.00  0.00     0.014 A 
ATOM     49  C   UNL A   1      42.136  31.552  35.112  1.00  0.00     0.010 A 
ATOM     50  C   UNL A   1      40.833  29.878  33.966  1.00  0.00     0.010 A 
ATOM     51  C   UNL A   1      41.973  30.664  34.066  1.00  0.00    -0.014 A 
BRANCH  51  52
ATOM     52  C   UNL A   1      42.886  30.387  32.978  1.00  0.00     0.031 A 
ATOM     53  C   UNL A   1      42.615  31.020  31.683  1.00  0.00     0.074 A 
ATOM     54  C   UNL A   1      44.123  30.044  33.397  1.00  0.00     0.049 A 
ATOM     55  N   UNL A   1      43.347  30.893  30.638  1.00  0.00    -0.248 NA
ATOM     56  C   UNL A   1      41.448  31.871  31.470  1.00  0.00     0.031 C 
ATOM     57  C   UNL A   1      45.425  30.317  32.801  1.00  0.00     0.029 A 
ATOM     58  N   UNL A   1      44.410  29.179  34.457  1.00  0.00    -0.354 N 
ATOM     59  C   UNL A   1      42.955  31.867  29.742  1.00  0.00     0.074 A 
ATOM     60  C   UNL A   1      41.698  32.354  30.251  1.00  0.00     0.031 C 
ATOM     61  C   UNL A   1      46.314  29.432  33.292  1.00  0.00     0.029 A 
ATOM     62  C   UNL A   1      45.539  28.451  34.042  1.00  0.00     0.049 A 
ATOM     63  H   UNL A   1      43.925  29.098  35.310  1.00  0.00     0.167 HD
ATOM     64  C   UNL A   1      43.843  32.247  28.778  1.00  0.00     0.037 A 
ATOM     65  C   UNL A   1      45.391  27.141  33.664  1.00  0.00     0.037 A 
ATOM     66  C   UNL A   1      45.048  31.414  28.866  1.00  0.00     0.049 A 
ATOM     67  C   UNL A   1      45.826  26.904  32.254  1.00  0.00     0.074 A 
ATOM     68  C   UNL A   1      46.286  31.625  29.452  1.00  0.00     0.029 A 
ATOM     69  N   UNL A   1      44.951  30.047  28.630  1.00  0.00    -0.354 N 
ATOM     70  N   UNL A   1      45.658  27.762  31.289  1.00  0.00    -0.248 NA
ATOM     71  C   UNL A   1      46.542  25.704  31.852  1.00  0.00     0.031 C 
ATOM     72  C   UNL A   1      46.913  30.361  29.612  1.00  0.00     0.029 A 
ATOM     73  C   UNL A   1      46.069  29.386  29.102  1.00  0.00     0.049 A 
ATOM     74  H   UNL A   1      44.190  29.609  28.188  1.00  0.00     0.167 HD
ATOM     75  C   UNL A   1      46.237  27.262  30.154  1.00  0.00     0.074 A 
ATOM     76  C   UNL A   1      46.790  25.984  30.565  1.00  0.00     0.031 C 
ATOM     77  C   UNL A   1      46.196  27.939  28.971  1.00  0.00     0.037 A 
BRANCH  64  78
ATOM     78  C   UNL A   1      43.779  33.517  27.947  1.00  0.00     0.057 A 
ATOM     79  C   UNL A   1      43.676  34.773  28.582  1.00  0.00     0.134 A 
ATOM     80  C   UNL A   1      43.772  33.595  26.541  1.00  0.00     0.134 A 
ATOM     81  F   UNL A   1      43.743  34.898  29.914  1.00  0.00    -0.206 F 
ATOM     82  C   UNL A   1      43.501  35.979  27.887  1.00  0.00     0.040 A 
ATOM     83  C   UNL A   1      43.569  34.791  25.833  1.00  0.00     0.040 A 
ATOM     84  F   UNL A   1      44.011  32.540  25.762  1.00  0.00    -0.206 F 
ATOM     85  C   UNL A   1      43.424  35.991  26.505  1.00  0.00     0.006 A 
ENDBRANCH  64  78
BRANCH  65  86
ATOM     86  C   UNL A   1      44.205  26.486  34.292  1.00  0.00     0.057 A 
ATOM     87  C   UNL A   1      44.365  26.065  35.615  1.00  0.00     0.134 A 
ATOM     88  C   UNL A   1      42.899  26.728  33.855  1.00  0.00     0.134 A 
ATOM     89  F   UNL A   1      45.589  25.765  36.067  1.00  0.00    -0.206 F 
ATOM     90  C   UNL A   1      43.312  26.146  36.522  1.00  0.00     0.040 A 
ATOM     91  C   UNL A   1      41.822  26.729  34.752  1.00  0.00     0.040 A 
ATOM     92  F   UNL A   1      42.654  27.085  32.588  1.00  0.00    -0.206 F 
ATOM     93  C   UNL A   1      42.043  26.515  36.107  1.00  0.00     0.006 A 
ENDBRANCH  65  86
BRANCH  77  94
ATOM     94  C   UNL A   1      46.333  27.312  27.601  1.00  0.00     0.057 A 
ATOM     95  C   UNL A   1      45.464  26.340  27.078  1.00  0.00     0.134 A 
ATOM     96  C   UNL A   1      47.276  27.811  26.673  1.00  0.00     0.134 A 
ATOM     97  F   UNL A   1      44.428  25.855  27.770  1.00  0.00    -0.206 F 
ATOM     98  C   UNL A   1      45.567  25.855  25.769  1.00  0.00     0.040 A 
ATOM     99  C   UNL A   1      47.338  27.389  25.343  1.00  0.00     0.040 A 
ATOM    100  F   UNL A   1      48.159  28.768  26.995  1.00  0.00    -0.206 F 
ATOM    101  C   UNL A   1      46.494  26.392  24.889  1.00  0.00     0.006 A 
ENDBRANCH  77  94
ENDBRANCH  51  52
ENDBRANCH  43  46
ENDBRANCH  41  42
ENDBRANCH  40  41
ENDBRANCH   1  40
TORSDOF 15
ENDMDL
