MODEL 1
REMARK VINA RESULT:     -12.2      0.000      0.000
REMARK SMILES CSc1ccc(CNc2ccc(N3CCOCC3)c(C(=O)NCCCCNC(=O)c3ccc(-c4c5nc(c(-c6c(F)cccc6F)c6ccc([nH]6)c(-c6c(F)cccc6F)c6nc(c(-c7c(F)cccc7F)c7ccc4[nH]7)C=C6)C=C5)cc3)c2)cc1
REMARK SMILES IDX 23 1 22 2 20 3 21 4 19 6 9 7 10 8 84 9 11 10 12 11 8 12 7 14
REMARK SMILES IDX 6 15 3 16 4 17 86 18 5 19 85 20 2 21 1 22 13 23 14 24 18 25
REMARK SMILES IDX 15 26 17 27 16 28 24 29 25 30 26 31 27 32 28 33 29 35 30 36
REMARK SMILES IDX 31 37 83 38 32 39 82 40 33 41 34 42 35 43 76 44 36 45 81 46
REMARK SMILES IDX 75 47 77 48 37 49 80 50 74 51 73 52 38 54 64 55 47 56 63 57
REMARK SMILES IDX 48 58 51 59 62 60 78 61 49 62 50 63 61 65 79 66 52 67 39 68
REMARK SMILES IDX 40 69 45 70 41 71 42 72 44 73 46 74 43 75 65 76 66 77 71 78
REMARK SMILES IDX 67 79 68 80 70 81 72 82 69 83 53 84 54 85 59 86 55 87 56 88
REMARK SMILES IDX 58 89 60 90 57 91
REMARK H PARENT 22 5 8 13 27 34 77 53 51 64
REMARK Flexibility Score: inf
ROOT
ATOM      1  C   UNL A   1      32.770  29.614  26.050  1.00  0.00     0.116 C 
ENDROOT
BRANCH   1   2
ATOM      2  N   UNL A   1      33.034  29.569  24.618  1.00  0.00    -0.352 N 
ATOM      3  C   UNL A   1      32.291  29.062  23.559  1.00  0.00     0.253 C 
ATOM      4  O   UNL A   1      32.706  29.301  22.427  1.00  0.00    -0.269 OA
ATOM      5  H   UNL A   1      33.893  29.969  24.352  1.00  0.00     0.163 HD
BRANCH   3   6
ATOM      6  C   UNL A   1      31.059  28.240  23.793  1.00  0.00     0.065 A 
ATOM      7  C   UNL A   1      30.222  26.082  24.610  1.00  0.00     0.035 A 
ATOM      8  C   UNL A   1      28.993  26.384  24.032  1.00  0.00     0.028 A 
ATOM      9  C   UNL A   1      31.201  27.068  24.551  1.00  0.00     0.041 A 
ATOM     10  C   UNL A   1      28.762  27.636  23.452  1.00  0.00     0.029 A 
ATOM     11  C   UNL A   1      29.778  28.602  23.338  1.00  0.00     0.050 A 
BRANCH   7  12
ATOM     12  N   UNL A   1      30.415  24.863  25.217  1.00  0.00    -0.381 N 
ATOM     13  H   UNL A   1      30.123  24.780  26.154  1.00  0.00     0.160 HD
BRANCH  12  14
ATOM     14  C   UNL A   1      31.010  23.690  24.605  1.00  0.00     0.148 C 
BRANCH  14  15
ATOM     15  C   UNL A   1      32.495  23.673  24.859  1.00  0.00    -0.029 A 
ATOM     16  C   UNL A   1      35.275  23.542  25.334  1.00  0.00     0.007 A 
ATOM     17  C   UNL A   1      34.775  23.547  24.029  1.00  0.00     0.015 A 
ATOM     18  C   UNL A   1      34.368  23.570  26.399  1.00  0.00     0.015 A 
ATOM     19  C   UNL A   1      33.402  23.602  23.792  1.00  0.00     0.007 A 
ATOM     20  C   UNL A   1      32.991  23.636  26.166  1.00  0.00     0.007 A 
BRANCH  16  21
ATOM     21  S   UNL A   1      37.050  23.458  25.518  1.00  0.00    -0.130 SA
ATOM     22  C   UNL A   1      37.460  21.894  24.704  1.00  0.00     0.091 C 
ENDBRANCH  16  21
ENDBRANCH  14  15
ENDBRANCH  12  14
ENDBRANCH   7  12
BRANCH  11  23
ATOM     23  N   UNL A   1      29.431  29.865  22.914  1.00  0.00    -0.366 N 
ATOM     24  C   UNL A   1      29.185  30.993  23.810  1.00  0.00     0.145 C 
ATOM     25  C   UNL A   1      29.470  30.170  21.480  1.00  0.00     0.145 C 
ATOM     26  C   UNL A   1      28.023  31.862  23.284  1.00  0.00     0.181 C 
ATOM     27  C   UNL A   1      28.228  30.989  21.108  1.00  0.00     0.181 C 
ATOM     28  O   UNL A   1      28.168  32.194  21.889  1.00  0.00    -0.378 OA
ENDBRANCH  11  23
ENDBRANCH   3   6
ENDBRANCH   1   2
BRANCH   1  29
ATOM     29  C   UNL A   1      31.492  30.331  26.463  1.00  0.00     0.023 C 
BRANCH  29  30
ATOM     30  C   UNL A   1      31.536  31.851  26.492  1.00  0.00     0.023 C 
BRANCH  30  31
ATOM     31  C   UNL A   1      32.704  32.477  27.243  1.00  0.00     0.116 C 
BRANCH  31  32
ATOM     32  N   UNL A   1      32.492  33.868  27.612  1.00  0.00    -0.352 N 
ATOM     33  C   UNL A   1      33.177  34.654  28.514  1.00  0.00     0.251 C 
ATOM     34  H   UNL A   1      31.749  34.315  27.148  1.00  0.00     0.163 HD
ATOM     35  O   UNL A   1      32.804  35.793  28.746  1.00  0.00    -0.269 OA
BRANCH  33  36
ATOM     36  C   UNL A   1      34.341  34.094  29.239  1.00  0.00     0.039 A 
ATOM     37  C   UNL A   1      34.111  33.277  30.349  1.00  0.00     0.014 A 
ATOM     38  C   UNL A   1      35.646  34.338  28.804  1.00  0.00     0.014 A 
ATOM     39  C   UNL A   1      35.185  32.627  30.962  1.00  0.00     0.010 A 
ATOM     40  C   UNL A   1      36.702  33.626  29.362  1.00  0.00     0.010 A 
ATOM     41  C   UNL A   1      36.483  32.757  30.442  1.00  0.00    -0.014 A 
BRANCH  41  42
ATOM     42  C   UNL A   1      37.621  31.986  31.003  1.00  0.00     0.031 A 
ATOM     43  C   UNL A   1      38.152  32.310  32.371  1.00  0.00     0.074 A 
ATOM     44  C   UNL A   1      38.229  31.048  30.250  1.00  0.00     0.049 A 
ATOM     45  N   UNL A   1      39.186  31.808  32.999  1.00  0.00    -0.248 NA
ATOM     46  C   UNL A   1      37.446  33.359  33.123  1.00  0.00     0.031 C 
ATOM     47  C   UNL A   1      37.846  30.677  28.886  1.00  0.00     0.029 A 
ATOM     48  N   UNL A   1      39.306  30.241  30.521  1.00  0.00    -0.354 N 
ATOM     49  C   UNL A   1      39.262  32.491  34.206  1.00  0.00     0.074 A 
ATOM     50  C   UNL A   1      38.206  33.479  34.200  1.00  0.00     0.031 C 
ATOM     51  C   UNL A   1      38.660  29.702  28.449  1.00  0.00     0.029 A 
ATOM     52  C   UNL A   1      39.644  29.404  29.485  1.00  0.00     0.049 A 
ATOM     53  H   UNL A   1      39.791  30.261  31.378  1.00  0.00     0.167 HD
ATOM     54  C   UNL A   1      40.121  32.297  35.235  1.00  0.00     0.037 A 
ATOM     55  C   UNL A   1      40.638  28.502  29.381  1.00  0.00     0.037 A 
ATOM     56  C   UNL A   1      41.152  31.295  35.250  1.00  0.00     0.049 A 
ATOM     57  C   UNL A   1      41.575  28.302  30.539  1.00  0.00     0.074 A 
ATOM     58  C   UNL A   1      42.030  30.976  36.272  1.00  0.00     0.029 A 
ATOM     59  N   UNL A   1      41.447  30.448  34.192  1.00  0.00    -0.354 N 
ATOM     60  N   UNL A   1      41.592  28.906  31.702  1.00  0.00    -0.248 NA
ATOM     61  C   UNL A   1      42.629  27.290  30.373  1.00  0.00     0.031 C 
ATOM     62  C   UNL A   1      42.881  29.964  35.817  1.00  0.00     0.029 A 
ATOM     63  C   UNL A   1      42.505  29.621  34.529  1.00  0.00     0.049 A 
ATOM     64  H   UNL A   1      40.973  30.438  33.329  1.00  0.00     0.167 HD
ATOM     65  C   UNL A   1      42.634  28.330  32.415  1.00  0.00     0.074 A 
ATOM     66  C   UNL A   1      43.219  27.320  31.559  1.00  0.00     0.031 C 
ATOM     67  C   UNL A   1      43.069  28.614  33.668  1.00  0.00     0.037 A 
BRANCH  54  68
ATOM     68  C   UNL A   1      39.969  33.186  36.435  1.00  0.00     0.057 A 
ATOM     69  C   UNL A   1      39.068  32.886  37.467  1.00  0.00     0.134 A 
ATOM     70  C   UNL A   1      40.750  34.339  36.575  1.00  0.00     0.134 A 
ATOM     71  F   UNL A   1      38.282  31.802  37.388  1.00  0.00    -0.206 F 
ATOM     72  C   UNL A   1      38.928  33.718  38.579  1.00  0.00     0.040 A 
ATOM     73  C   UNL A   1      40.639  35.164  37.697  1.00  0.00     0.040 A 
ATOM     74  F   UNL A   1      41.636  34.682  35.628  1.00  0.00    -0.206 F 
ATOM     75  C   UNL A   1      39.721  34.857  38.699  1.00  0.00     0.006 A 
ENDBRANCH  54  68
BRANCH  55  76
ATOM     76  C   UNL A   1      40.785  27.697  28.141  1.00  0.00     0.057 A 
ATOM     77  C   UNL A   1      41.535  28.172  27.060  1.00  0.00     0.134 A 
ATOM     78  C   UNL A   1      40.178  26.443  28.004  1.00  0.00     0.134 A 
ATOM     79  F   UNL A   1      42.125  29.375  27.124  1.00  0.00    -0.206 F 
ATOM     80  C   UNL A   1      41.660  27.440  25.877  1.00  0.00     0.040 A 
ATOM     81  C   UNL A   1      40.315  25.689  26.837  1.00  0.00     0.040 A 
ATOM     82  F   UNL A   1      39.453  25.928  29.008  1.00  0.00    -0.206 F 
ATOM     83  C   UNL A   1      41.052  26.192  25.767  1.00  0.00     0.006 A 
ENDBRANCH  55  76
BRANCH  67  84
ATOM     84  C   UNL A   1      44.208  27.796  34.201  1.00  0.00     0.057 A 
ATOM     85  C   UNL A   1      44.000  26.565  34.837  1.00  0.00     0.134 A 
ATOM     86  C   UNL A   1      45.531  28.227  34.040  1.00  0.00     0.134 A 
ATOM     87  F   UNL A   1      42.757  26.103  35.034  1.00  0.00    -0.206 F 
ATOM     88  C   UNL A   1      45.068  25.801  35.310  1.00  0.00     0.040 A 
ATOM     89  C   UNL A   1      46.608  27.461  34.487  1.00  0.00     0.040 A 
ATOM     90  F   UNL A   1      45.798  29.393  33.433  1.00  0.00    -0.206 F 
ATOM     91  C   UNL A   1      46.377  26.246  35.130  1.00  0.00     0.006 A 
ENDBRANCH  67  84
ENDBRANCH  41  42
ENDBRANCH  33  36
ENDBRANCH  31  32
ENDBRANCH  30  31
ENDBRANCH  29  30
ENDBRANCH   1  29
TORSDOF 16
ENDMDL
MODEL 2
REMARK VINA RESULT:     -12.2      4.800      9.902
REMARK SMILES CSc1ccc(CNc2ccc(N3CCOCC3)c(C(=O)NCCCCNC(=O)c3ccc(-c4c5nc(c(-c6c(F)cccc6F)c6ccc([nH]6)c(-c6c(F)cccc6F)c6nc(c(-c7c(F)cccc7F)c7ccc4[nH]7)C=C6)C=C5)cc3)c2)cc1
REMARK SMILES IDX 23 1 22 2 20 3 21 4 19 6 9 7 10 8 84 9 11 10 12 11 8 12 7 14
REMARK SMILES IDX 6 15 3 16 4 17 86 18 5 19 85 20 2 21 1 22 13 23 14 24 18 25
REMARK SMILES IDX 15 26 17 27 16 28 24 29 25 30 26 31 27 32 28 33 29 35 30 36
REMARK SMILES IDX 31 37 83 38 32 39 82 40 33 41 34 42 35 43 76 44 36 45 81 46
REMARK SMILES IDX 75 47 77 48 37 49 80 50 74 51 73 52 38 54 64 55 47 56 63 57
REMARK SMILES IDX 48 58 51 59 62 60 78 61 49 62 50 63 61 65 79 66 52 67 39 68
REMARK SMILES IDX 40 69 45 70 41 71 42 72 44 73 46 74 43 75 65 76 66 77 71 78
REMARK SMILES IDX 67 79 68 80 70 81 72 82 69 83 53 84 54 85 59 86 55 87 56 88
REMARK SMILES IDX 58 89 60 90 57 91
REMARK H PARENT 22 5 8 13 27 34 77 53 51 64
REMARK Flexibility Score: inf
ROOT
ATOM      1  C   UNL A   1      36.805  21.210  25.018  1.00  0.00     0.116 C 
ENDROOT
BRANCH   1   2
ATOM      2  N   UNL A   1      35.834  21.303  26.100  1.00  0.00    -0.352 N 
ATOM      3  C   UNL A   1      34.449  21.192  26.108  1.00  0.00     0.253 C 
ATOM      4  O   UNL A   1      33.902  21.167  27.208  1.00  0.00    -0.269 OA
ATOM      5  H   UNL A   1      36.230  21.474  26.985  1.00  0.00     0.163 HD
BRANCH   3   6
ATOM      6  C   UNL A   1      33.664  21.135  24.833  1.00  0.00     0.065 A 
ATOM      7  C   UNL A   1      32.619  22.482  23.066  1.00  0.00     0.035 A 
ATOM      8  C   UNL A   1      31.947  21.339  22.645  1.00  0.00     0.028 A 
ATOM      9  C   UNL A   1      33.535  22.325  24.101  1.00  0.00     0.041 A 
ATOM     10  C   UNL A   1      32.217  20.095  23.225  1.00  0.00     0.029 A 
ATOM     11  C   UNL A   1      33.095  19.956  24.314  1.00  0.00     0.050 A 
BRANCH   7  12
ATOM     12  N   UNL A   1      32.375  23.688  22.452  1.00  0.00    -0.381 N 
ATOM     13  H   UNL A   1      31.545  23.763  21.928  1.00  0.00     0.160 HD
BRANCH  12  14
ATOM     14  C   UNL A   1      33.229  24.860  22.505  1.00  0.00     0.148 C 
BRANCH  14  15
ATOM     15  C   UNL A   1      32.859  25.714  23.691  1.00  0.00    -0.029 A 
ATOM     16  C   UNL A   1      32.145  27.231  25.963  1.00  0.00     0.007 A 
ATOM     17  C   UNL A   1      33.464  26.805  25.775  1.00  0.00     0.015 A 
ATOM     18  C   UNL A   1      31.181  26.862  25.017  1.00  0.00     0.015 A 
ATOM     19  C   UNL A   1      33.816  26.047  24.659  1.00  0.00     0.007 A 
ATOM     20  C   UNL A   1      31.533  26.112  23.891  1.00  0.00     0.007 A 
BRANCH  16  21
ATOM     21  S   UNL A   1      31.807  28.186  27.434  1.00  0.00    -0.130 SA
ATOM     22  C   UNL A   1      32.215  29.871  26.916  1.00  0.00     0.091 C 
ENDBRANCH  16  21
ENDBRANCH  14  15
ENDBRANCH  12  14
ENDBRANCH   7  12
BRANCH  11  23
ATOM     23  N   UNL A   1      33.439  18.685  24.716  1.00  0.00    -0.366 N 
ATOM     24  C   UNL A   1      34.632  17.974  24.261  1.00  0.00     0.145 C 
ATOM     25  C   UNL A   1      32.675  18.049  25.795  1.00  0.00     0.145 C 
ATOM     26  C   UNL A   1      34.328  16.474  24.063  1.00  0.00     0.181 C 
ATOM     27  C   UNL A   1      32.412  16.584  25.426  1.00  0.00     0.181 C 
ATOM     28  O   UNL A   1      33.652  15.893  25.196  1.00  0.00    -0.378 OA
ENDBRANCH  11  23
ENDBRANCH   3   6
ENDBRANCH   1   2
BRANCH   1  29
ATOM     29  C   UNL A   1      37.611  19.920  24.964  1.00  0.00     0.023 C 
BRANCH  29  30
ATOM     30  C   UNL A   1      39.123  20.051  25.065  1.00  0.00     0.023 C 
BRANCH  30  31
ATOM     31  C   UNL A   1      39.795  19.259  26.179  1.00  0.00     0.116 C 
BRANCH  31  32
ATOM     32  N   UNL A   1      41.153  18.839  25.870  1.00  0.00    -0.352 N 
ATOM     33  C   UNL A   1      42.334  19.546  25.950  1.00  0.00     0.251 C 
ATOM     34  H   UNL A   1      41.243  17.910  25.558  1.00  0.00     0.163 HD
ATOM     35  O   UNL A   1      43.380  19.042  25.575  1.00  0.00    -0.269 OA
BRANCH  33  36
ATOM     36  C   UNL A   1      42.320  20.941  26.448  1.00  0.00     0.039 A 
ATOM     37  C   UNL A   1      42.182  21.162  27.821  1.00  0.00     0.014 A 
ATOM     38  C   UNL A   1      42.484  22.019  25.576  1.00  0.00     0.014 A 
ATOM     39  C   UNL A   1      42.305  22.458  28.328  1.00  0.00     0.010 A 
ATOM     40  C   UNL A   1      42.690  23.296  26.090  1.00  0.00     0.010 A 
ATOM     41  C   UNL A   1      42.610  23.528  27.472  1.00  0.00    -0.014 A 
BRANCH  41  42
ATOM     42  C   UNL A   1      42.862  24.893  27.999  1.00  0.00     0.031 A 
ATOM     43  C   UNL A   1      44.246  25.294  28.427  1.00  0.00     0.074 A 
ATOM     44  C   UNL A   1      41.832  25.746  28.167  1.00  0.00     0.049 A 
ATOM     45  N   UNL A   1      44.650  26.406  28.987  1.00  0.00    -0.248 NA
ATOM     46  C   UNL A   1      45.313  24.301  28.228  1.00  0.00     0.031 C 
ATOM     47  C   UNL A   1      40.432  25.460  27.843  1.00  0.00     0.029 A 
ATOM     48  N   UNL A   1      41.800  27.025  28.665  1.00  0.00    -0.354 N 
ATOM     49  C   UNL A   1      46.009  26.238  29.221  1.00  0.00     0.074 A 
ATOM     50  C   UNL A   1      46.349  24.899  28.793  1.00  0.00     0.031 C 
ATOM     51  C   UNL A   1      39.684  26.538  28.129  1.00  0.00     0.029 A 
ATOM     52  C   UNL A   1      40.542  27.578  28.689  1.00  0.00     0.049 A 
ATOM     53  H   UNL A   1      42.604  27.502  28.976  1.00  0.00     0.167 HD
ATOM     54  C   UNL A   1      46.897  27.128  29.724  1.00  0.00     0.037 A 
ATOM     55  C   UNL A   1      40.127  28.783  29.120  1.00  0.00     0.037 A 
ATOM     56  C   UNL A   1      46.562  28.469  30.122  1.00  0.00     0.049 A 
ATOM     57  C   UNL A   1      41.133  29.754  29.671  1.00  0.00     0.074 A 
ATOM     58  C   UNL A   1      47.403  29.468  30.583  1.00  0.00     0.029 A 
ATOM     59  N   UNL A   1      45.281  29.000  30.108  1.00  0.00    -0.354 N 
ATOM     60  N   UNL A   1      42.427  29.608  29.821  1.00  0.00    -0.248 NA
ATOM     61  C   UNL A   1      40.623  31.062  30.108  1.00  0.00     0.031 C 
ATOM     62  C   UNL A   1      46.624  30.589  30.885  1.00  0.00     0.029 A 
ATOM     63  C   UNL A   1      45.305  30.306  30.569  1.00  0.00     0.049 A 
ATOM     64  H   UNL A   1      44.473  28.520  29.812  1.00  0.00     0.167 HD
ATOM     65  C   UNL A   1      42.888  30.810  30.340  1.00  0.00     0.074 A 
ATOM     66  C   UNL A   1      41.738  31.680  30.469  1.00  0.00     0.031 C 
ATOM     67  C   UNL A   1      44.153  31.161  30.682  1.00  0.00     0.037 A 
BRANCH  54  68
ATOM     68  C   UNL A   1      48.321  26.676  29.864  1.00  0.00     0.057 A 
ATOM     69  C   UNL A   1      48.785  26.044  31.026  1.00  0.00     0.134 A 
ATOM     70  C   UNL A   1      49.234  26.851  28.817  1.00  0.00     0.134 A 
ATOM     71  F   UNL A   1      47.965  25.858  32.071  1.00  0.00    -0.206 F 
ATOM     72  C   UNL A   1      50.112  25.629  31.152  1.00  0.00     0.040 A 
ATOM     73  C   UNL A   1      50.557  26.415  28.920  1.00  0.00     0.040 A 
ATOM     74  F   UNL A   1      48.855  27.443  27.674  1.00  0.00    -0.206 F 
ATOM     75  C   UNL A   1      51.000  25.808  30.094  1.00  0.00     0.006 A 
ENDBRANCH  54  68
BRANCH  55  76
ATOM     76  C   UNL A   1      38.691  29.154  29.023  1.00  0.00     0.057 A 
ATOM     77  C   UNL A   1      38.148  29.619  27.821  1.00  0.00     0.134 A 
ATOM     78  C   UNL A   1      37.835  29.063  30.126  1.00  0.00     0.134 A 
ATOM     79  F   UNL A   1      38.923  29.746  26.734  1.00  0.00    -0.206 F 
ATOM     80  C   UNL A   1      36.808  29.999  27.721  1.00  0.00     0.040 A 
ATOM     81  C   UNL A   1      36.486  29.416  30.035  1.00  0.00     0.040 A 
ATOM     82  F   UNL A   1      38.293  28.618  31.305  1.00  0.00    -0.206 F 
ATOM     83  C   UNL A   1      35.972  29.892  28.831  1.00  0.00     0.006 A 
ENDBRANCH  55  76
BRANCH  67  84
ATOM     84  C   UNL A   1      44.364  32.557  31.191  1.00  0.00     0.057 A 
ATOM     85  C   UNL A   1      44.323  32.859  32.558  1.00  0.00     0.134 A 
ATOM     86  C   UNL A   1      44.649  33.602  30.304  1.00  0.00     0.134 A 
ATOM     87  F   UNL A   1      44.040  31.905  33.457  1.00  0.00    -0.206 F 
ATOM     88  C   UNL A   1      44.541  34.157  33.023  1.00  0.00     0.040 A 
ATOM     89  C   UNL A   1      44.895  34.899  30.758  1.00  0.00     0.040 A 
ATOM     90  F   UNL A   1      44.711  33.377  28.982  1.00  0.00    -0.206 F 
ATOM     91  C   UNL A   1      44.835  35.179  32.122  1.00  0.00     0.006 A 
ENDBRANCH  67  84
ENDBRANCH  41  42
ENDBRANCH  33  36
ENDBRANCH  31  32
ENDBRANCH  30  31
ENDBRANCH  29  30
ENDBRANCH   1  29
TORSDOF 16
ENDMDL
MODEL 3
REMARK VINA RESULT:     -12.0      4.262      8.377
REMARK SMILES CSc1ccc(CNc2ccc(N3CCOCC3)c(C(=O)NCCCCNC(=O)c3ccc(-c4c5nc(c(-c6c(F)cccc6F)c6ccc([nH]6)c(-c6c(F)cccc6F)c6nc(c(-c7c(F)cccc7F)c7ccc4[nH]7)C=C6)C=C5)cc3)c2)cc1
REMARK SMILES IDX 23 1 22 2 20 3 21 4 19 6 9 7 10 8 84 9 11 10 12 11 8 12 7 14
REMARK SMILES IDX 6 15 3 16 4 17 86 18 5 19 85 20 2 21 1 22 13 23 14 24 18 25
REMARK SMILES IDX 15 26 17 27 16 28 24 29 25 30 26 31 27 32 28 33 29 35 30 36
REMARK SMILES IDX 31 37 83 38 32 39 82 40 33 41 34 42 35 43 76 44 36 45 81 46
REMARK SMILES IDX 75 47 77 48 37 49 80 50 74 51 73 52 38 54 64 55 47 56 63 57
REMARK SMILES IDX 48 58 51 59 62 60 78 61 49 62 50 63 61 65 79 66 52 67 39 68
REMARK SMILES IDX 40 69 45 70 41 71 42 72 44 73 46 74 43 75 65 76 66 77 71 78
REMARK SMILES IDX 67 79 68 80 70 81 72 82 69 83 53 84 54 85 59 86 55 87 56 88
REMARK SMILES IDX 58 89 60 90 57 91
REMARK H PARENT 22 5 8 13 27 34 77 53 51 64
REMARK Flexibility Score: inf
ROOT
ATOM      1  C   UNL A   1      33.437  22.455  27.135  1.00  0.00     0.116 C 
ENDROOT
BRANCH   1   2
ATOM      2  N   UNL A   1      32.322  23.377  27.307  1.00  0.00    -0.352 N 
ATOM      3  C   UNL A   1      31.638  24.176  26.399  1.00  0.00     0.253 C 
ATOM      4  O   UNL A   1      30.631  24.745  26.813  1.00  0.00    -0.269 OA
ATOM      5  H   UNL A   1      31.993  23.445  28.232  1.00  0.00     0.163 HD
BRANCH   3   6
ATOM      6  C   UNL A   1      32.126  24.353  24.994  1.00  0.00     0.065 A 
ATOM      7  C   UNL A   1      32.637  23.190  22.893  1.00  0.00     0.035 A 
ATOM      8  C   UNL A   1      33.297  24.336  22.463  1.00  0.00     0.028 A 
ATOM      9  C   UNL A   1      31.987  23.264  24.121  1.00  0.00     0.041 A 
ATOM     10  C   UNL A   1      33.271  25.507  23.228  1.00  0.00     0.029 A 
ATOM     11  C   UNL A   1      32.668  25.554  24.498  1.00  0.00     0.050 A 
BRANCH   7  12
ATOM     12  N   UNL A   1      32.634  22.062  22.105  1.00  0.00    -0.381 N 
ATOM     13  H   UNL A   1      33.324  22.005  21.406  1.00  0.00     0.160 HD
BRANCH  12  14
ATOM     14  C   UNL A   1      31.707  20.951  22.211  1.00  0.00     0.148 C 
BRANCH  14  15
ATOM     15  C   UNL A   1      32.358  19.805  22.943  1.00  0.00    -0.029 A 
ATOM     16  C   UNL A   1      33.489  17.637  24.354  1.00  0.00     0.007 A 
ATOM     17  C   UNL A   1      32.946  17.452  23.079  1.00  0.00     0.015 A 
ATOM     18  C   UNL A   1      33.431  18.912  24.929  1.00  0.00     0.015 A 
ATOM     19  C   UNL A   1      32.378  18.519  22.385  1.00  0.00     0.007 A 
ATOM     20  C   UNL A   1      32.872  19.987  24.231  1.00  0.00     0.007 A 
BRANCH  16  21
ATOM     21  S   UNL A   1      34.179  16.196  25.154  1.00  0.00    -0.130 SA
ATOM     22  C   UNL A   1      32.722  15.157  25.427  1.00  0.00     0.091 C 
ENDBRANCH  16  21
ENDBRANCH  14  15
ENDBRANCH  12  14
ENDBRANCH   7  12
BRANCH  11  23
ATOM     23  N   UNL A   1      32.533  26.779  25.110  1.00  0.00    -0.366 N 
ATOM     24  C   UNL A   1      31.346  27.625  25.001  1.00  0.00     0.145 C 
ATOM     25  C   UNL A   1      33.552  27.210  26.073  1.00  0.00     0.145 C 
ATOM     26  C   UNL A   1      31.745  29.114  24.924  1.00  0.00     0.181 C 
ATOM     27  C   UNL A   1      33.874  28.689  25.833  1.00  0.00     0.181 C 
ATOM     28  O   UNL A   1      32.685  29.489  25.950  1.00  0.00    -0.378 OA
ENDBRANCH  11  23
ENDBRANCH   3   6
ENDBRANCH   1   2
BRANCH   1  29
ATOM     29  C   UNL A   1      34.783  23.098  26.832  1.00  0.00     0.023 C 
BRANCH  29  30
ATOM     30  C   UNL A   1      35.590  22.496  25.692  1.00  0.00     0.023 C 
BRANCH  30  31
ATOM     31  C   UNL A   1      36.967  23.099  25.449  1.00  0.00     0.116 C 
BRANCH  31  32
ATOM     32  N   UNL A   1      38.067  22.271  25.917  1.00  0.00    -0.352 N 
ATOM     33  C   UNL A   1      39.225  22.632  26.573  1.00  0.00     0.251 C 
ATOM     34  H   UNL A   1      37.970  21.308  25.740  1.00  0.00     0.163 HD
ATOM     35  O   UNL A   1      40.076  21.795  26.826  1.00  0.00    -0.269 OA
BRANCH  33  36
ATOM     36  C   UNL A   1      39.454  24.052  26.927  1.00  0.00     0.039 A 
ATOM     37  C   UNL A   1      39.103  24.490  28.206  1.00  0.00     0.014 A 
ATOM     38  C   UNL A   1      40.048  24.933  26.020  1.00  0.00     0.014 A 
ATOM     39  C   UNL A   1      39.437  25.786  28.608  1.00  0.00     0.010 A 
ATOM     40  C   UNL A   1      40.454  26.193  26.450  1.00  0.00     0.010 A 
ATOM     41  C   UNL A   1      40.159  26.631  27.750  1.00  0.00    -0.014 A 
BRANCH  41  42
ATOM     42  C   UNL A   1      40.628  27.968  28.195  1.00  0.00     0.031 A 
ATOM     43  C   UNL A   1      42.097  28.283  28.221  1.00  0.00     0.074 A 
ATOM     44  C   UNL A   1      39.737  28.871  28.651  1.00  0.00     0.049 A 
ATOM     45  N   UNL A   1      42.705  29.359  28.653  1.00  0.00    -0.248 NA
ATOM     46  C   UNL A   1      43.006  27.239  27.724  1.00  0.00     0.031 C 
ATOM     47  C   UNL A   1      38.288  28.668  28.730  1.00  0.00     0.029 A 
ATOM     48  N   UNL A   1      39.920  30.138  29.146  1.00  0.00    -0.354 N 
ATOM     49  C   UNL A   1      44.063  29.113  28.496  1.00  0.00     0.074 A 
ATOM     50  C   UNL A   1      44.192  27.767  27.981  1.00  0.00     0.031 C 
ATOM     51  C   UNL A   1      37.713  29.778  29.220  1.00  0.00     0.029 A 
ATOM     52  C   UNL A   1      38.753  30.757  29.525  1.00  0.00     0.049 A 
ATOM     53  H   UNL A   1      40.805  30.563  29.222  1.00  0.00     0.167 HD
ATOM     54  C   UNL A   1      45.107  29.941  28.737  1.00  0.00     0.037 A 
ATOM     55  C   UNL A   1      38.545  31.973  30.062  1.00  0.00     0.037 A 
ATOM     56  C   UNL A   1      44.975  31.289  29.222  1.00  0.00     0.049 A 
ATOM     57  C   UNL A   1      39.720  32.876  30.317  1.00  0.00     0.074 A 
ATOM     58  C   UNL A   1      45.968  32.230  29.436  1.00  0.00     0.029 A 
ATOM     59  N   UNL A   1      43.774  31.889  29.570  1.00  0.00    -0.354 N 
ATOM     60  N   UNL A   1      40.993  32.657  30.097  1.00  0.00    -0.248 NA
ATOM     61  C   UNL A   1      39.429  34.199  30.887  1.00  0.00     0.031 C 
ATOM     62  C   UNL A   1      45.371  33.385  29.950  1.00  0.00     0.029 A 
ATOM     63  C   UNL A   1      44.002  33.181  30.015  1.00  0.00     0.049 A 
ATOM     64  H   UNL A   1      42.890  31.460  29.509  1.00  0.00     0.167 HD
ATOM     65  C   UNL A   1      41.651  33.819  30.475  1.00  0.00     0.074 A 
ATOM     66  C   UNL A   1      40.635  34.747  30.926  1.00  0.00     0.031 C 
ATOM     67  C   UNL A   1      42.979  34.094  30.451  1.00  0.00     0.037 A 
BRANCH  54  68
ATOM     68  C   UNL A   1      46.485  29.410  28.469  1.00  0.00     0.057 A 
ATOM     69  C   UNL A   1      47.229  28.756  29.461  1.00  0.00     0.134 A 
ATOM     70  C   UNL A   1      47.065  29.530  27.201  1.00  0.00     0.134 A 
ATOM     71  F   UNL A   1      46.737  28.618  30.700  1.00  0.00    -0.206 F 
ATOM     72  C   UNL A   1      48.512  28.266  29.207  1.00  0.00     0.040 A 
ATOM     73  C   UNL A   1      48.336  29.021  26.927  1.00  0.00     0.040 A 
ATOM     74  F   UNL A   1      46.405  30.140  26.205  1.00  0.00    -0.206 F 
ATOM     75  C   UNL A   1      49.066  28.392  27.935  1.00  0.00     0.006 A 
ENDBRANCH  54  68
BRANCH  55  76
ATOM     76  C   UNL A   1      37.164  32.424  30.374  1.00  0.00     0.057 A 
ATOM     77  C   UNL A   1      36.574  32.132  31.609  1.00  0.00     0.134 A 
ATOM     78  C   UNL A   1      36.402  33.146  29.449  1.00  0.00     0.134 A 
ATOM     79  F   UNL A   1      37.248  31.426  32.529  1.00  0.00    -0.206 F 
ATOM     80  C   UNL A   1      35.267  32.523  31.907  1.00  0.00     0.040 A 
ATOM     81  C   UNL A   1      35.102  33.565  29.743  1.00  0.00     0.040 A 
ATOM     82  F   UNL A   1      36.913  33.464  28.251  1.00  0.00    -0.206 F 
ATOM     83  C   UNL A   1      34.530  33.247  30.973  1.00  0.00     0.006 A 
ENDBRANCH  55  76
BRANCH  67  84
ATOM     84  C   UNL A   1      43.404  35.464  30.890  1.00  0.00     0.057 A 
ATOM     85  C   UNL A   1      43.714  35.749  32.226  1.00  0.00     0.134 A 
ATOM     86  C   UNL A   1      43.543  36.500  29.957  1.00  0.00     0.134 A 
ATOM     87  F   UNL A   1      43.588  34.806  33.170  1.00  0.00    -0.206 F 
ATOM     88  C   UNL A   1      44.129  37.022  32.621  1.00  0.00     0.040 A 
ATOM     89  C   UNL A   1      43.982  37.769  30.335  1.00  0.00     0.040 A 
ATOM     90  F   UNL A   1      43.269  36.289  28.660  1.00  0.00    -0.206 F 
ATOM     91  C   UNL A   1      44.270  38.034  31.673  1.00  0.00     0.006 A 
ENDBRANCH  67  84
ENDBRANCH  41  42
ENDBRANCH  33  36
ENDBRANCH  31  32
ENDBRANCH  30  31
ENDBRANCH  29  30
ENDBRANCH   1  29
TORSDOF 16
ENDMDL
