MODEL 1
REMARK VINA RESULT:     -12.8      0.000      0.000
REMARK SMILES Cc1nc2sc3c(c2c2nc(CCC(=O)NCCCCNC(=O)c4ccc(-c5c6nc(c(-c7c(F)cccc7F)c7ccc([nH]7)c(-c7c(F)cccc7F)c7nc(c(-c8c(F)cccc8F)c8ccc5[nH]8)C=C7)C=C6)cc4)nn12)[C@@H](C)CCC3
REMARK SMILES IDX 18 1 17 2 16 3 14 4 15 5 13 7 12 8 11 9 1 10 2 11 3 12 79 13
REMARK SMILES IDX 4 14 9 15 78 16 5 17 8 18 10 19 6 20 7 21 84 22 80 23 83 24
REMARK SMILES IDX 81 25 82 26 19 27 20 28 21 29 22 30 23 32 24 33 25 34 77 35
REMARK SMILES IDX 26 36 76 37 27 38 28 39 29 40 70 41 30 42 75 43 69 44 71 45
REMARK SMILES IDX 31 46 74 47 68 48 67 49 32 51 58 52 41 53 57 54 42 55 45 56
REMARK SMILES IDX 56 57 72 58 43 59 44 60 55 62 73 63 46 64 33 65 34 66 39 67
REMARK SMILES IDX 35 68 36 69 38 70 40 71 37 72 59 73 60 74 65 75 61 76 62 77
REMARK SMILES IDX 64 78 66 79 63 80 47 81 48 82 53 83 49 84 50 85 52 86 54 87
REMARK SMILES IDX 51 88
REMARK H PARENT 16 6 21 31 71 50 45 61
REMARK Flexibility Score: inf
ROOT
ATOM      1  C   UNL A   1      42.220  20.529  27.304  1.00  0.00     0.023 C 
ENDROOT
BRANCH   1   2
ATOM      2  C   UNL A   1      40.691  20.418  27.238  1.00  0.00     0.116 C 
BRANCH   2   3
ATOM      3  N   UNL A   1      40.019  21.695  27.047  1.00  0.00    -0.356 N 
ATOM      4  C   UNL A   1      39.024  22.047  26.188  1.00  0.00     0.220 C 
ATOM      5  O   UNL A   1      38.689  23.231  26.133  1.00  0.00    -0.275 OA
ATOM      6  H   UNL A   1      40.332  22.419  27.635  1.00  0.00     0.163 HD
BRANCH   4   7
ATOM      7  C   UNL A   1      38.314  20.983  25.387  1.00  0.00     0.108 C 
BRANCH   7   8
ATOM      8  C   UNL A   1      37.305  21.584  24.407  1.00  0.00     0.089 C 
BRANCH   8   9
ATOM      9  C   UNL A   1      35.903  21.588  24.920  1.00  0.00     0.152 A 
ATOM     10  C   UNL A   1      32.712  19.026  24.450  1.00  0.00     0.090 C 
ATOM     11  C   UNL A   1      32.698  20.356  25.137  1.00  0.00     0.131 A 
ATOM     12  N   UNL A   1      31.590  20.911  25.537  1.00  0.00    -0.222 NA
ATOM     13  N   UNL A   1      33.933  21.000  25.247  1.00  0.00    -0.199 N 
ATOM     14  C   UNL A   1      31.674  22.226  25.920  1.00  0.00     0.129 A 
ATOM     15  C   UNL A   1      34.058  22.310  25.661  1.00  0.00     0.168 A 
ATOM     16  N   UNL A   1      35.101  20.525  24.767  1.00  0.00    -0.150 NA
ATOM     17  S   UNL A   1      30.256  23.074  26.308  1.00  0.00    -0.120 S 
ATOM     18  C   UNL A   1      32.789  23.065  25.930  1.00  0.00     0.060 A 
ATOM     19  N   UNL A   1      35.308  22.690  25.503  1.00  0.00    -0.211 NA
ATOM     20  C   UNL A   1      31.052  24.569  26.164  1.00  0.00     0.011 A 
ATOM     21  C   UNL A   1      32.434  24.469  25.991  1.00  0.00    -0.018 A 
ATOM     22  C   UNL A   1      30.229  25.822  26.164  1.00  0.00     0.047 C 
ATOM     23  C   UNL A   1      33.266  25.754  25.886  1.00  0.00     0.018 C 
ATOM     24  C   UNL A   1      31.103  27.043  26.418  1.00  0.00     0.006 C 
ATOM     25  C   UNL A   1      34.382  25.794  24.847  1.00  0.00     0.013 C 
ATOM     26  C   UNL A   1      32.361  26.985  25.558  1.00  0.00     0.008 C 
ENDBRANCH   8   9
ENDBRANCH   7   8
ENDBRANCH   4   7
ENDBRANCH   2   3
ENDBRANCH   1   2
BRANCH   1  27
ATOM     27  C   UNL A   1      42.893  19.272  26.767  1.00  0.00     0.023 C 
BRANCH  27  28
ATOM     28  C   UNL A   1      43.165  19.230  25.288  1.00  0.00     0.116 C 
BRANCH  28  29
ATOM     29  N   UNL A   1      44.514  18.963  24.770  1.00  0.00    -0.352 N 
ATOM     30  C   UNL A   1      45.422  19.927  24.301  1.00  0.00     0.251 C 
ATOM     31  H   UNL A   1      44.808  18.023  24.750  1.00  0.00     0.163 HD
ATOM     32  O   UNL A   1      46.424  19.632  23.645  1.00  0.00    -0.269 OA
BRANCH  30  33
ATOM     33  C   UNL A   1      45.161  21.333  24.653  1.00  0.00     0.039 A 
ATOM     34  C   UNL A   1      44.198  22.191  24.117  1.00  0.00     0.014 A 
ATOM     35  C   UNL A   1      45.862  21.730  25.759  1.00  0.00     0.014 A 
ATOM     36  C   UNL A   1      43.926  23.379  24.814  1.00  0.00     0.010 A 
ATOM     37  C   UNL A   1      45.157  22.469  26.646  1.00  0.00     0.010 A 
ATOM     38  C   UNL A   1      44.439  23.507  26.109  1.00  0.00    -0.014 A 
BRANCH  38  39
ATOM     39  C   UNL A   1      44.410  24.673  26.985  1.00  0.00     0.031 A 
ATOM     40  C   UNL A   1      45.481  25.682  26.834  1.00  0.00     0.074 A 
ATOM     41  C   UNL A   1      43.261  24.993  27.643  1.00  0.00     0.049 A 
ATOM     42  N   UNL A   1      46.281  26.117  27.748  1.00  0.00    -0.248 NA
ATOM     43  C   UNL A   1      45.714  26.268  25.505  1.00  0.00     0.031 C 
ATOM     44  C   UNL A   1      41.947  24.307  27.635  1.00  0.00     0.029 A 
ATOM     45  N   UNL A   1      42.978  26.115  28.349  1.00  0.00    -0.354 N 
ATOM     46  C   UNL A   1      47.026  27.137  27.167  1.00  0.00     0.074 A 
ATOM     47  C   UNL A   1      46.722  27.108  25.756  1.00  0.00     0.031 C 
ATOM     48  C   UNL A   1      40.982  25.144  28.062  1.00  0.00     0.029 A 
ATOM     49  C   UNL A   1      41.626  26.323  28.593  1.00  0.00     0.049 A 
ATOM     50  H   UNL A   1      43.675  26.733  28.666  1.00  0.00     0.167 HD
ATOM     51  C   UNL A   1      47.719  28.041  27.914  1.00  0.00     0.037 A 
ATOM     52  C   UNL A   1      41.063  27.390  29.203  1.00  0.00     0.037 A 
ATOM     53  C   UNL A   1      47.838  27.622  29.287  1.00  0.00     0.049 A 
ATOM     54  C   UNL A   1      42.138  28.045  29.986  1.00  0.00     0.074 A 
ATOM     55  C   UNL A   1      48.402  26.522  29.907  1.00  0.00     0.029 A 
ATOM     56  N   UNL A   1      46.980  28.158  30.217  1.00  0.00    -0.354 N 
ATOM     57  N   UNL A   1      42.729  27.492  31.011  1.00  0.00    -0.248 NA
ATOM     58  C   UNL A   1      42.883  29.111  29.336  1.00  0.00     0.031 C 
ATOM     59  C   UNL A   1      47.474  26.164  30.932  1.00  0.00     0.029 A 
ATOM     60  C   UNL A   1      46.441  27.101  30.915  1.00  0.00     0.049 A 
ATOM     61  H   UNL A   1      46.788  29.113  30.357  1.00  0.00     0.167 HD
ATOM     62  C   UNL A   1      44.067  27.839  30.884  1.00  0.00     0.074 A 
ATOM     63  C   UNL A   1      44.084  28.907  29.885  1.00  0.00     0.031 C 
ATOM     64  C   UNL A   1      45.069  27.043  31.372  1.00  0.00     0.037 A 
BRANCH  51  65
ATOM     65  C   UNL A   1      48.086  29.419  27.447  1.00  0.00     0.057 A 
ATOM     66  C   UNL A   1      49.433  29.812  27.385  1.00  0.00     0.134 A 
ATOM     67  C   UNL A   1      47.145  30.449  27.259  1.00  0.00     0.134 A 
ATOM     68  F   UNL A   1      50.419  28.927  27.593  1.00  0.00    -0.206 F 
ATOM     69  C   UNL A   1      49.813  31.141  27.156  1.00  0.00     0.040 A 
ATOM     70  C   UNL A   1      47.512  31.768  26.980  1.00  0.00     0.040 A 
ATOM     71  F   UNL A   1      45.830  30.241  27.423  1.00  0.00    -0.206 F 
ATOM     72  C   UNL A   1      48.851  32.123  26.946  1.00  0.00     0.006 A 
ENDBRANCH  51  65
BRANCH  52  73
ATOM     73  C   UNL A   1      39.754  28.011  28.908  1.00  0.00     0.057 A 
ATOM     74  C   UNL A   1      38.744  28.062  29.875  1.00  0.00     0.134 A 
ATOM     75  C   UNL A   1      39.551  28.797  27.758  1.00  0.00     0.134 A 
ATOM     76  F   UNL A   1      38.862  27.370  31.017  1.00  0.00    -0.206 F 
ATOM     77  C   UNL A   1      37.608  28.868  29.721  1.00  0.00     0.040 A 
ATOM     78  C   UNL A   1      38.420  29.602  27.589  1.00  0.00     0.040 A 
ATOM     79  F   UNL A   1      40.482  28.876  26.795  1.00  0.00    -0.206 F 
ATOM     80  C   UNL A   1      37.450  29.652  28.581  1.00  0.00     0.006 A 
ENDBRANCH  52  73
BRANCH  64  81
ATOM     81  C   UNL A   1      44.685  25.857  32.229  1.00  0.00     0.057 A 
ATOM     82  C   UNL A   1      44.528  24.551  31.737  1.00  0.00     0.134 A 
ATOM     83  C   UNL A   1      44.638  25.997  33.619  1.00  0.00     0.134 A 
ATOM     84  F   UNL A   1      44.661  24.280  30.438  1.00  0.00    -0.206 F 
ATOM     85  C   UNL A   1      44.290  23.453  32.571  1.00  0.00     0.040 A 
ATOM     86  C   UNL A   1      44.433  24.904  34.471  1.00  0.00     0.040 A 
ATOM     87  F   UNL A   1      44.841  27.198  34.185  1.00  0.00    -0.206 F 
ATOM     88  C   UNL A   1      44.248  23.628  33.947  1.00  0.00     0.006 A 
ENDBRANCH  64  81
ENDBRANCH  38  39
ENDBRANCH  30  33
ENDBRANCH  28  29
ENDBRANCH  27  28
ENDBRANCH   1  27
TORSDOF 13
ENDMDL
MODEL 2
REMARK VINA RESULT:     -12.3      5.704     10.846
REMARK SMILES Cc1nc2sc3c(c2c2nc(CCC(=O)NCCCCNC(=O)c4ccc(-c5c6nc(c(-c7c(F)cccc7F)c7ccc([nH]7)c(-c7c(F)cccc7F)c7nc(c(-c8c(F)cccc8F)c8ccc5[nH]8)C=C7)C=C6)cc4)nn12)[C@@H](C)CCC3
REMARK SMILES IDX 18 1 17 2 16 3 14 4 15 5 13 7 12 8 11 9 1 10 2 11 3 12 79 13
REMARK SMILES IDX 4 14 9 15 78 16 5 17 8 18 10 19 6 20 7 21 84 22 80 23 83 24
REMARK SMILES IDX 81 25 82 26 19 27 20 28 21 29 22 30 23 32 24 33 25 34 77 35
REMARK SMILES IDX 26 36 76 37 27 38 28 39 29 40 70 41 30 42 75 43 69 44 71 45
REMARK SMILES IDX 31 46 74 47 68 48 67 49 32 51 58 52 41 53 57 54 42 55 45 56
REMARK SMILES IDX 56 57 72 58 43 59 44 60 55 62 73 63 46 64 33 65 34 66 39 67
REMARK SMILES IDX 35 68 36 69 38 70 40 71 37 72 59 73 60 74 65 75 61 76 62 77
REMARK SMILES IDX 64 78 66 79 63 80 47 81 48 82 53 83 49 84 50 85 52 86 54 87
REMARK SMILES IDX 51 88
REMARK H PARENT 16 6 21 31 71 50 45 61
REMARK Flexibility Score: inf
ROOT
ATOM      1  C   UNL A   1      34.679  34.905  28.422  1.00  0.00     0.023 C 
ENDROOT
BRANCH   1   2
ATOM      2  C   UNL A   1      33.725  33.706  28.338  1.00  0.00     0.116 C 
BRANCH   2   3
ATOM      3  N   UNL A   1      34.384  32.455  27.995  1.00  0.00    -0.356 N 
ATOM      4  C   UNL A   1      33.865  31.280  27.546  1.00  0.00     0.220 C 
ATOM      5  O   UNL A   1      34.619  30.313  27.429  1.00  0.00    -0.275 OA
ATOM      6  H   UNL A   1      35.362  32.460  28.104  1.00  0.00     0.163 HD
BRANCH   4   7
ATOM      7  C   UNL A   1      32.414  31.209  27.138  1.00  0.00     0.108 C 
BRANCH   7   8
ATOM      8  C   UNL A   1      31.902  29.768  27.095  1.00  0.00     0.089 C 
BRANCH   8   9
ATOM      9  C   UNL A   1      31.930  29.164  25.730  1.00  0.00     0.152 A 
ATOM     10  C   UNL A   1      29.319  29.257  22.544  1.00  0.00     0.090 C 
ATOM     11  C   UNL A   1      30.569  28.440  22.654  1.00  0.00     0.131 A 
ATOM     12  N   UNL A   1      30.877  27.534  21.771  1.00  0.00    -0.222 NA
ATOM     13  N   UNL A   1      31.338  28.650  23.801  1.00  0.00    -0.199 N 
ATOM     14  C   UNL A   1      31.900  26.684  22.106  1.00  0.00     0.129 A 
ATOM     15  C   UNL A   1      32.395  27.836  24.152  1.00  0.00     0.168 A 
ATOM     16  N   UNL A   1      31.024  29.501  24.800  1.00  0.00    -0.150 NA
ATOM     17  S   UNL A   1      32.268  25.377  21.086  1.00  0.00    -0.120 S 
ATOM     18  C   UNL A   1      32.659  26.645  23.277  1.00  0.00     0.060 A 
ATOM     19  N   UNL A   1      32.814  28.173  25.352  1.00  0.00    -0.211 NA
ATOM     20  C   UNL A   1      33.159  24.608  22.311  1.00  0.00     0.011 A 
ATOM     21  C   UNL A   1      33.350  25.383  23.456  1.00  0.00    -0.018 A 
ATOM     22  C   UNL A   1      33.592  23.188  22.098  1.00  0.00     0.047 C 
ATOM     23  C   UNL A   1      34.172  24.809  24.617  1.00  0.00     0.018 C 
ATOM     24  C   UNL A   1      34.682  22.801  23.089  1.00  0.00     0.006 C 
ATOM     25  C   UNL A   1      33.667  25.054  26.035  1.00  0.00     0.013 C 
ATOM     26  C   UNL A   1      34.308  23.257  24.496  1.00  0.00     0.008 C 
ENDBRANCH   8   9
ENDBRANCH   7   8
ENDBRANCH   4   7
ENDBRANCH   2   3
ENDBRANCH   1   2
BRANCH   1  27
ATOM     27  C   UNL A   1      34.018  36.095  29.106  1.00  0.00     0.023 C 
BRANCH  27  28
ATOM     28  C   UNL A   1      32.882  35.790  30.045  1.00  0.00     0.116 C 
BRANCH  28  29
ATOM     29  N   UNL A   1      32.737  36.505  31.320  1.00  0.00    -0.352 N 
ATOM     30  C   UNL A   1      33.220  36.072  32.567  1.00  0.00     0.251 C 
ATOM     31  H   UNL A   1      32.257  37.365  31.300  1.00  0.00     0.163 HD
ATOM     32  O   UNL A   1      32.851  36.572  33.632  1.00  0.00    -0.269 OA
BRANCH  30  33
ATOM     33  C   UNL A   1      34.233  35.004  32.567  1.00  0.00     0.039 A 
ATOM     34  C   UNL A   1      34.071  33.662  32.213  1.00  0.00     0.014 A 
ATOM     35  C   UNL A   1      35.496  35.484  32.785  1.00  0.00     0.014 A 
ATOM     36  C   UNL A   1      35.232  32.903  31.993  1.00  0.00     0.010 A 
ATOM     37  C   UNL A   1      36.453  34.954  31.989  1.00  0.00     0.010 A 
ATOM     38  C   UNL A   1      36.448  33.586  31.893  1.00  0.00    -0.014 A 
BRANCH  38  39
ATOM     39  C   UNL A   1      37.794  33.032  31.796  1.00  0.00     0.031 A 
ATOM     40  C   UNL A   1      38.595  32.932  33.035  1.00  0.00     0.074 A 
ATOM     41  C   UNL A   1      38.146  32.310  30.696  1.00  0.00     0.049 A 
ATOM     42  N   UNL A   1      39.769  33.425  33.250  1.00  0.00    -0.248 NA
ATOM     43  C   UNL A   1      38.024  32.220  34.188  1.00  0.00     0.031 C 
ATOM     44  C   UNL A   1      37.351  31.977  29.491  1.00  0.00     0.029 A 
ATOM     45  N   UNL A   1      39.267  31.572  30.495  1.00  0.00    -0.354 N 
ATOM     46  C   UNL A   1      40.162  32.972  34.505  1.00  0.00     0.074 A 
ATOM     47  C   UNL A   1      39.005  32.334  35.086  1.00  0.00     0.031 C 
ATOM     48  C   UNL A   1      37.896  30.926  28.849  1.00  0.00     0.029 A 
ATOM     49  C   UNL A   1      39.185  30.665  29.446  1.00  0.00     0.049 A 
ATOM     50  H   UNL A   1      40.075  31.673  31.047  1.00  0.00     0.167 HD
ATOM     51  C   UNL A   1      41.461  33.009  34.910  1.00  0.00     0.037 A 
ATOM     52  C   UNL A   1      40.120  29.761  29.076  1.00  0.00     0.037 A 
ATOM     53  C   UNL A   1      42.267  33.837  34.050  1.00  0.00     0.049 A 
ATOM     54  C   UNL A   1      41.407  30.225  29.649  1.00  0.00     0.074 A 
ATOM     55  C   UNL A   1      42.231  35.174  33.697  1.00  0.00     0.029 A 
ATOM     56  N   UNL A   1      43.037  33.232  33.086  1.00  0.00    -0.354 N 
ATOM     57  N   UNL A   1      42.008  31.326  29.284  1.00  0.00    -0.248 NA
ATOM     58  C   UNL A   1      41.776  29.717  30.959  1.00  0.00     0.031 C 
ATOM     59  C   UNL A   1      42.513  35.192  32.298  1.00  0.00     0.029 A 
ATOM     60  C   UNL A   1      42.768  33.879  31.901  1.00  0.00     0.049 A 
ATOM     61  H   UNL A   1      43.660  32.482  33.216  1.00  0.00     0.167 HD
ATOM     62  C   UNL A   1      42.506  31.869  30.461  1.00  0.00     0.074 A 
ATOM     63  C   UNL A   1      42.408  30.790  31.443  1.00  0.00     0.031 C 
ATOM     64  C   UNL A   1      42.679  33.218  30.615  1.00  0.00     0.037 A 
BRANCH  51  65
ATOM     65  C   UNL A   1      42.047  32.106  35.955  1.00  0.00     0.057 A 
ATOM     66  C   UNL A   1      42.534  32.635  37.161  1.00  0.00     0.134 A 
ATOM     67  C   UNL A   1      42.345  30.748  35.725  1.00  0.00     0.134 A 
ATOM     68  F   UNL A   1      42.350  33.928  37.468  1.00  0.00    -0.206 F 
ATOM     69  C   UNL A   1      43.271  31.867  38.071  1.00  0.00     0.040 A 
ATOM     70  C   UNL A   1      43.035  29.958  36.648  1.00  0.00     0.040 A 
ATOM     71  F   UNL A   1      42.058  30.151  34.560  1.00  0.00    -0.206 F 
ATOM     72  C   UNL A   1      43.518  30.521  37.820  1.00  0.00     0.006 A 
ENDBRANCH  51  65
BRANCH  52  73
ATOM     73  C   UNL A   1      39.898  28.409  28.521  1.00  0.00     0.057 A 
ATOM     74  C   UNL A   1      40.406  28.049  27.268  1.00  0.00     0.134 A 
ATOM     75  C   UNL A   1      39.402  27.357  29.314  1.00  0.00     0.134 A 
ATOM     76  F   UNL A   1      40.927  28.978  26.455  1.00  0.00    -0.206 F 
ATOM     77  C   UNL A   1      40.446  26.716  26.838  1.00  0.00     0.040 A 
ATOM     78  C   UNL A   1      39.430  26.023  28.895  1.00  0.00     0.040 A 
ATOM     79  F   UNL A   1      38.950  27.576  30.559  1.00  0.00    -0.206 F 
ATOM     80  C   UNL A   1      39.968  25.696  27.658  1.00  0.00     0.006 A 
ENDBRANCH  52  73
BRANCH  64  81
ATOM     81  C   UNL A   1      42.495  34.106  29.404  1.00  0.00     0.057 A 
ATOM     82  C   UNL A   1      41.320  34.823  29.128  1.00  0.00     0.134 A 
ATOM     83  C   UNL A   1      43.589  34.383  28.579  1.00  0.00     0.134 A 
ATOM     84  F   UNL A   1      40.246  34.721  29.913  1.00  0.00    -0.206 F 
ATOM     85  C   UNL A   1      41.219  35.729  28.066  1.00  0.00     0.040 A 
ATOM     86  C   UNL A   1      43.516  35.310  27.532  1.00  0.00     0.040 A 
ATOM     87  F   UNL A   1      44.774  33.793  28.807  1.00  0.00    -0.206 F 
ATOM     88  C   UNL A   1      42.325  35.979  27.265  1.00  0.00     0.006 A 
ENDBRANCH  64  81
ENDBRANCH  38  39
ENDBRANCH  30  33
ENDBRANCH  28  29
ENDBRANCH  27  28
ENDBRANCH   1  27
TORSDOF 13
ENDMDL
MODEL 3
REMARK VINA RESULT:     -12.3      1.607      2.033
REMARK SMILES Cc1nc2sc3c(c2c2nc(CCC(=O)NCCCCNC(=O)c4ccc(-c5c6nc(c(-c7c(F)cccc7F)c7ccc([nH]7)c(-c7c(F)cccc7F)c7nc(c(-c8c(F)cccc8F)c8ccc5[nH]8)C=C7)C=C6)cc4)nn12)[C@@H](C)CCC3
REMARK SMILES IDX 18 1 17 2 16 3 14 4 15 5 13 7 12 8 11 9 1 10 2 11 3 12 79 13
REMARK SMILES IDX 4 14 9 15 78 16 5 17 8 18 10 19 6 20 7 21 84 22 80 23 83 24
REMARK SMILES IDX 81 25 82 26 19 27 20 28 21 29 22 30 23 32 24 33 25 34 77 35
REMARK SMILES IDX 26 36 76 37 27 38 28 39 29 40 70 41 30 42 75 43 69 44 71 45
REMARK SMILES IDX 31 46 74 47 68 48 67 49 32 51 58 52 41 53 57 54 42 55 45 56
REMARK SMILES IDX 56 57 72 58 43 59 44 60 55 62 73 63 46 64 33 65 34 66 39 67
REMARK SMILES IDX 35 68 36 69 38 70 40 71 37 72 59 73 60 74 65 75 61 76 62 77
REMARK SMILES IDX 64 78 66 79 63 80 47 81 48 82 53 83 49 84 50 85 52 86 54 87
REMARK SMILES IDX 51 88
REMARK H PARENT 16 6 21 31 71 50 45 61
REMARK Flexibility Score: inf
ROOT
ATOM      1  C   UNL A   1      40.655  21.488  26.301  1.00  0.00     0.023 C 
ENDROOT
BRANCH   1   2
ATOM      2  C   UNL A   1      39.132  21.411  26.128  1.00  0.00     0.116 C 
BRANCH   2   3
ATOM      3  N   UNL A   1      38.530  22.652  25.665  1.00  0.00    -0.356 N 
ATOM      4  C   UNL A   1      37.230  22.957  25.402  1.00  0.00     0.220 C 
ATOM      5  O   UNL A   1      36.974  24.055  24.907  1.00  0.00    -0.275 OA
ATOM      6  H   UNL A   1      39.165  23.390  25.519  1.00  0.00     0.163 HD
BRANCH   4   7
ATOM      7  C   UNL A   1      36.141  21.984  25.785  1.00  0.00     0.108 C 
BRANCH   7   8
ATOM      8  C   UNL A   1      35.144  22.602  26.767  1.00  0.00     0.089 C 
BRANCH   8   9
ATOM      9  C   UNL A   1      33.935  23.179  26.108  1.00  0.00     0.152 A 
ATOM     10  C   UNL A   1      31.783  22.148  22.749  1.00  0.00     0.090 C 
ATOM     11  C   UNL A   1      31.588  23.366  23.598  1.00  0.00     0.131 A 
ATOM     12  N   UNL A   1      30.780  24.325  23.249  1.00  0.00    -0.222 NA
ATOM     13  N   UNL A   1      32.386  23.448  24.742  1.00  0.00    -0.199 N 
ATOM     14  C   UNL A   1      30.873  25.489  23.968  1.00  0.00     0.129 A 
ATOM     15  C   UNL A   1      32.479  24.591  25.509  1.00  0.00     0.168 A 
ATOM     16  N   UNL A   1      33.312  22.537  25.108  1.00  0.00    -0.150 NA
ATOM     17  S   UNL A   1      29.970  26.843  23.486  1.00  0.00    -0.120 S 
ATOM     18  C   UNL A   1      31.730  25.799  25.026  1.00  0.00     0.060 A 
ATOM     19  N   UNL A   1      33.424  24.426  26.408  1.00  0.00    -0.211 NA
ATOM     20  C   UNL A   1      30.930  27.881  24.428  1.00  0.00     0.011 A 
ATOM     21  C   UNL A   1      31.839  27.225  25.260  1.00  0.00    -0.018 A 
ATOM     22  C   UNL A   1      30.777  29.362  24.247  1.00  0.00     0.047 C 
ATOM     23  C   UNL A   1      32.736  28.057  26.186  1.00  0.00     0.018 C 
ATOM     24  C   UNL A   1      31.403  30.117  25.411  1.00  0.00     0.006 C 
ATOM     25  C   UNL A   1      34.197  27.639  26.325  1.00  0.00     0.013 C 
ATOM     26  C   UNL A   1      32.782  29.551  25.732  1.00  0.00     0.008 C 
ENDBRANCH   8   9
ENDBRANCH   7   8
ENDBRANCH   4   7
ENDBRANCH   2   3
ENDBRANCH   1   2
BRANCH   1  27
ATOM     27  C   UNL A   1      41.326  20.174  25.927  1.00  0.00     0.023 C 
BRANCH  27  28
ATOM     28  C   UNL A   1      42.656  19.886  26.569  1.00  0.00     0.116 C 
BRANCH  28  29
ATOM     29  N   UNL A   1      43.841  19.574  25.758  1.00  0.00    -0.352 N 
ATOM     30  C   UNL A   1      44.564  20.487  24.971  1.00  0.00     0.251 C 
ATOM     31  H   UNL A   1      44.157  18.641  25.767  1.00  0.00     0.163 HD
ATOM     32  O   UNL A   1      45.379  20.127  24.119  1.00  0.00    -0.269 OA
BRANCH  30  33
ATOM     33  C   UNL A   1      44.345  21.921  25.223  1.00  0.00     0.039 A 
ATOM     34  C   UNL A   1      43.494  22.795  24.541  1.00  0.00     0.014 A 
ATOM     35  C   UNL A   1      44.944  22.344  26.378  1.00  0.00     0.014 A 
ATOM     36  C   UNL A   1      43.216  24.032  25.145  1.00  0.00     0.010 A 
ATOM     37  C   UNL A   1      44.191  23.165  27.144  1.00  0.00     0.010 A 
ATOM     38  C   UNL A   1      43.593  24.206  26.481  1.00  0.00    -0.014 A 
BRANCH  38  39
ATOM     39  C   UNL A   1      43.535  25.419  27.288  1.00  0.00     0.031 A 
ATOM     40  C   UNL A   1      44.515  26.490  27.004  1.00  0.00     0.074 A 
ATOM     41  C   UNL A   1      42.412  25.696  28.007  1.00  0.00     0.049 A 
ATOM     42  N   UNL A   1      45.339  27.036  27.834  1.00  0.00    -0.248 NA
ATOM     43  C   UNL A   1      44.614  27.008  25.632  1.00  0.00     0.031 C 
ATOM     44  C   UNL A   1      41.156  24.920  28.132  1.00  0.00     0.029 A 
ATOM     45  N   UNL A   1      42.093  26.837  28.668  1.00  0.00    -0.354 N 
ATOM     46  C   UNL A   1      45.966  28.069  27.144  1.00  0.00     0.074 A 
ATOM     47  C   UNL A   1      45.570  27.931  25.763  1.00  0.00     0.031 C 
ATOM     48  C   UNL A   1      40.162  25.710  28.579  1.00  0.00     0.029 A 
ATOM     49  C   UNL A   1      40.749  26.963  28.995  1.00  0.00     0.049 A 
ATOM     50  H   UNL A   1      42.762  27.521  28.899  1.00  0.00     0.167 HD
ATOM     51  C   UNL A   1      46.636  29.064  27.788  1.00  0.00     0.037 A 
ATOM     52  C   UNL A   1      40.149  28.023  29.582  1.00  0.00     0.037 A 
ATOM     53  C   UNL A   1      46.879  28.740  29.170  1.00  0.00     0.049 A 
ATOM     54  C   UNL A   1      41.222  28.800  30.249  1.00  0.00     0.074 A 
ATOM     55  C   UNL A   1      47.563  27.723  29.810  1.00  0.00     0.029 A 
ATOM     56  N   UNL A   1      46.047  29.270  30.127  1.00  0.00    -0.354 N 
ATOM     57  N   UNL A   1      41.920  28.354  31.259  1.00  0.00    -0.248 NA
ATOM     58  C   UNL A   1      41.840  29.873  29.488  1.00  0.00     0.031 C 
ATOM     59  C   UNL A   1      46.736  27.364  30.916  1.00  0.00     0.029 A 
ATOM     60  C   UNL A   1      45.637  28.223  30.920  1.00  0.00     0.049 A 
ATOM     61  H   UNL A   1      45.793  30.216  30.226  1.00  0.00     0.167 HD
ATOM     62  C   UNL A   1      43.217  28.787  31.016  1.00  0.00     0.074 A 
ATOM     63  C   UNL A   1      43.087  29.790  29.960  1.00  0.00     0.031 C 
ATOM     64  C   UNL A   1      44.306  28.096  31.476  1.00  0.00     0.037 A 
BRANCH  51  65
ATOM     65  C   UNL A   1      46.867  30.433  27.219  1.00  0.00     0.057 A 
ATOM     66  C   UNL A   1      48.157  30.988  27.203  1.00  0.00     0.134 A 
ATOM     67  C   UNL A   1      45.824  31.316  26.878  1.00  0.00     0.134 A 
ATOM     68  F   UNL A   1      49.225  30.255  27.552  1.00  0.00    -0.206 F 
ATOM     69  C   UNL A   1      48.389  32.330  26.876  1.00  0.00     0.040 A 
ATOM     70  C   UNL A   1      46.048  32.643  26.501  1.00  0.00     0.040 A 
ATOM     71  F   UNL A   1      44.536  30.957  26.980  1.00  0.00    -0.206 F 
ATOM     72  C   UNL A   1      47.334  33.161  26.517  1.00  0.00     0.006 A 
ENDBRANCH  51  65
BRANCH  52  73
ATOM     73  C   UNL A   1      38.781  28.530  29.347  1.00  0.00     0.057 A 
ATOM     74  C   UNL A   1      37.851  28.613  30.389  1.00  0.00     0.134 A 
ATOM     75  C   UNL A   1      38.431  29.185  28.151  1.00  0.00     0.134 A 
ATOM     76  F   UNL A   1      38.109  28.046  31.576  1.00  0.00    -0.206 F 
ATOM     77  C   UNL A   1      36.653  29.329  30.261  1.00  0.00     0.040 A 
ATOM     78  C   UNL A   1      37.236  29.898  28.008  1.00  0.00     0.040 A 
ATOM     79  F   UNL A   1      39.273  29.226  27.107  1.00  0.00    -0.206 F 
ATOM     80  C   UNL A   1      36.349  29.986  29.071  1.00  0.00     0.006 A 
ENDBRANCH  52  73
BRANCH  64  81
ATOM     81  C   UNL A   1      44.071  26.940  32.424  1.00  0.00     0.057 A 
ATOM     82  C   UNL A   1      44.063  25.592  32.032  1.00  0.00     0.134 A 
ATOM     83  C   UNL A   1      44.019  27.177  33.801  1.00  0.00     0.134 A 
ATOM     84  F   UNL A   1      44.216  25.242  30.754  1.00  0.00    -0.206 F 
ATOM     85  C   UNL A   1      43.962  24.539  32.948  1.00  0.00     0.040 A 
ATOM     86  C   UNL A   1      43.950  26.134  34.734  1.00  0.00     0.040 A 
ATOM     87  F   UNL A   1      44.085  28.432  34.274  1.00  0.00    -0.206 F 
ATOM     88  C   UNL A   1      43.911  24.810  34.308  1.00  0.00     0.006 A 
ENDBRANCH  64  81
ENDBRANCH  38  39
ENDBRANCH  30  33
ENDBRANCH  28  29
ENDBRANCH  27  28
ENDBRANCH   1  27
TORSDOF 13
ENDMDL
