MODEL 1
REMARK VINA RESULT:     -12.0      0.000      0.000
REMARK SMILES O=C(NCCCCNC(=O)[C@]1(C2CCCC2)CCOc2ccccc21)c1ccc(-c2c3nc(c(-c4c(F)cccc4F)c4ccc([nH]4)c(-c4c(F)cccc4F)c4nc(c(-c5c(F)cccc5F)c5ccc2[nH]5)C=C4)C=C3)cc1
REMARK SMILES IDX 5 1 4 2 3 3 1 4 2 5 26 7 27 8 79 9 28 10 78 11 29 12 30 13
REMARK SMILES IDX 31 14 72 15 32 16 77 17 71 18 73 19 33 20 76 21 70 22 69 23
REMARK SMILES IDX 34 25 60 26 43 27 59 28 44 29 47 30 58 31 74 32 45 33 46 34
REMARK SMILES IDX 57 36 75 37 48 38 35 39 36 40 41 41 37 42 38 43 40 44 42 45
REMARK SMILES IDX 39 46 61 47 62 48 67 49 63 50 64 51 66 52 68 53 65 54 49 55
REMARK SMILES IDX 50 56 55 57 51 58 52 59 54 60 56 61 53 62 6 63 7 64 8 65
REMARK SMILES IDX 9 66 10 68 11 69 17 70 25 71 18 72 20 73 24 74 19 75 21 76
REMARK SMILES IDX 23 77 22 78 12 79 13 80 16 81 14 82 15 83
REMARK H PARENT 3 6 73 24 47 35 8 67
REMARK Flexibility Score: inf
ROOT
ATOM      1  C   UNL A   1      37.615  20.049  24.981  1.00  0.00     0.023 C 
ENDROOT
BRANCH   1   2
ATOM      2  C   UNL A   1      38.860  20.459  25.749  1.00  0.00     0.116 C 
BRANCH   2   3
ATOM      3  N   UNL A   1      39.890  19.431  25.754  1.00  0.00    -0.352 N 
ATOM      4  O   UNL A   1      41.994  18.618  25.911  1.00  0.00    -0.269 OA
ATOM      5  C   UNL A   1      41.219  19.555  26.070  1.00  0.00     0.251 C 
ATOM      6  H   UNL A   1      39.594  18.527  25.496  1.00  0.00     0.163 HD
BRANCH   5   7
ATOM      7  C   UNL A   1      41.708  20.850  26.575  1.00  0.00     0.039 A 
ATOM      8  C   UNL A   1      41.736  21.106  27.949  1.00  0.00     0.014 A 
ATOM      9  C   UNL A   1      42.101  21.826  25.657  1.00  0.00     0.014 A 
ATOM     10  C   UNL A   1      42.036  22.383  28.402  1.00  0.00     0.010 A 
ATOM     11  C   UNL A   1      42.474  23.086  26.119  1.00  0.00     0.010 A 
ATOM     12  C   UNL A   1      42.419  23.379  27.491  1.00  0.00    -0.014 A 
BRANCH  12  13
ATOM     13  C   UNL A   1      42.824  24.713  27.985  1.00  0.00     0.031 A 
ATOM     14  C   UNL A   1      41.797  25.752  28.315  1.00  0.00     0.074 A 
ATOM     15  C   UNL A   1      44.137  24.982  28.101  1.00  0.00     0.049 A 
ATOM     16  N   UNL A   1      41.972  27.004  28.653  1.00  0.00    -0.248 NA
ATOM     17  C   UNL A   1      40.387  25.338  28.245  1.00  0.00     0.031 C 
ATOM     18  C   UNL A   1      45.218  24.040  27.804  1.00  0.00     0.029 A 
ATOM     19  N   UNL A   1      44.784  26.127  28.483  1.00  0.00    -0.354 N 
ATOM     20  C   UNL A   1      40.699  27.536  28.806  1.00  0.00     0.074 A 
ATOM     21  C   UNL A   1      39.758  26.474  28.513  1.00  0.00     0.031 C 
ATOM     22  C   UNL A   1      46.395  24.643  28.021  1.00  0.00     0.029 A 
ATOM     23  C   UNL A   1      46.150  26.027  28.409  1.00  0.00     0.049 A 
ATOM     24  H   UNL A   1      44.316  26.940  28.781  1.00  0.00     0.167 HD
ATOM     25  C   UNL A   1      40.354  28.798  29.156  1.00  0.00     0.037 A 
ATOM     26  C   UNL A   1      47.102  26.957  28.593  1.00  0.00     0.037 A 
ATOM     27  C   UNL A   1      41.301  29.838  29.461  1.00  0.00     0.049 A 
ATOM     28  C   UNL A   1      46.697  28.351  28.960  1.00  0.00     0.074 A 
ATOM     29  C   UNL A   1      41.057  31.136  29.873  1.00  0.00     0.029 A 
ATOM     30  N   UNL A   1      42.680  29.697  29.381  1.00  0.00    -0.354 N 
ATOM     31  N   UNL A   1      45.492  28.838  29.124  1.00  0.00    -0.248 NA
ATOM     32  C   UNL A   1      47.776  29.325  29.161  1.00  0.00     0.031 C 
ATOM     33  C   UNL A   1      42.285  31.792  30.004  1.00  0.00     0.029 A 
ATOM     34  C   UNL A   1      43.298  30.891  29.712  1.00  0.00     0.049 A 
ATOM     35  H   UNL A   1      43.149  28.870  29.125  1.00  0.00     0.167 HD
ATOM     36  C   UNL A   1      45.664  30.172  29.463  1.00  0.00     0.074 A 
ATOM     37  C   UNL A   1      47.093  30.415  29.487  1.00  0.00     0.031 C 
ATOM     38  C   UNL A   1      44.723  31.109  29.731  1.00  0.00     0.037 A 
BRANCH  25  39
ATOM     39  C   UNL A   1      38.891  29.129  29.195  1.00  0.00     0.057 A 
ATOM     40  C   UNL A   1      38.135  29.025  30.371  1.00  0.00     0.134 A 
ATOM     41  C   UNL A   1      38.232  29.577  28.043  1.00  0.00     0.134 A 
ATOM     42  F   UNL A   1      38.702  28.590  31.506  1.00  0.00    -0.206 F 
ATOM     43  C   UNL A   1      36.773  29.332  30.393  1.00  0.00     0.040 A 
ATOM     44  C   UNL A   1      36.876  29.907  28.058  1.00  0.00     0.040 A 
ATOM     45  F   UNL A   1      38.898  29.703  26.885  1.00  0.00    -0.206 F 
ATOM     46  C   UNL A   1      36.142  29.779  29.234  1.00  0.00     0.006 A 
ENDBRANCH  25  39
BRANCH  26  47
ATOM     47  C   UNL A   1      48.522  26.578  28.404  1.00  0.00     0.057 A 
ATOM     48  C   UNL A   1      49.251  25.972  29.432  1.00  0.00     0.134 A 
ATOM     49  C   UNL A   1      49.155  26.739  27.165  1.00  0.00     0.134 A 
ATOM     50  F   UNL A   1      48.698  25.801  30.641  1.00  0.00    -0.206 F 
ATOM     51  C   UNL A   1      50.560  25.533  29.233  1.00  0.00     0.040 A 
ATOM     52  C   UNL A   1      50.455  26.285  26.946  1.00  0.00     0.040 A 
ATOM     53  F   UNL A   1      48.499  27.299  26.137  1.00  0.00    -0.206 F 
ATOM     54  C   UNL A   1      51.161  25.679  27.983  1.00  0.00     0.006 A 
ENDBRANCH  26  47
BRANCH  38  55
ATOM     55  C   UNL A   1      45.210  32.477  30.099  1.00  0.00     0.057 A 
ATOM     56  C   UNL A   1      45.373  33.481  29.139  1.00  0.00     0.134 A 
ATOM     57  C   UNL A   1      45.465  32.804  31.437  1.00  0.00     0.134 A 
ATOM     58  F   UNL A   1      45.158  33.223  27.840  1.00  0.00    -0.206 F 
ATOM     59  C   UNL A   1      45.781  34.767  29.497  1.00  0.00     0.040 A 
ATOM     60  C   UNL A   1      45.856  34.090  31.808  1.00  0.00     0.040 A 
ATOM     61  F   UNL A   1      45.322  31.885  32.402  1.00  0.00    -0.206 F 
ATOM     62  C   UNL A   1      46.016  35.076  30.835  1.00  0.00     0.006 A 
ENDBRANCH  38  55
ENDBRANCH  12  13
ENDBRANCH   5   7
ENDBRANCH   2   3
ENDBRANCH   1   2
BRANCH   1  63
ATOM     63  C   UNL A   1      36.705  21.206  24.578  1.00  0.00     0.023 C 
BRANCH  63  64
ATOM     64  C   UNL A   1      36.847  22.459  25.445  1.00  0.00     0.116 C 
BRANCH  64  65
ATOM     65  N   UNL A   1      36.221  23.590  24.798  1.00  0.00    -0.355 N 
ATOM     66  C   UNL A   1      34.920  23.942  24.621  1.00  0.00     0.231 C 
ATOM     67  H   UNL A   1      36.860  24.229  24.409  1.00  0.00     0.163 HD
ATOM     68  O   UNL A   1      34.776  24.860  23.803  1.00  0.00    -0.274 OA
BRANCH  66  69
ATOM     69  C   UNL A   1      33.710  23.405  25.468  1.00  0.00     0.084 C 
ATOM     70  C   UNL A   1      34.255  23.309  26.919  1.00  0.00     0.064 C 
ATOM     71  C   UNL A   1      33.208  22.022  25.008  1.00  0.00     0.010 A 
ATOM     72  C   UNL A   1      33.603  22.205  27.730  1.00  0.00     0.231 C 
ATOM     73  C   UNL A   1      33.310  20.894  25.840  1.00  0.00     0.123 A 
ATOM     74  C   UNL A   1      32.667  21.830  23.722  1.00  0.00     0.009 A 
ATOM     75  O   UNL A   1      33.807  20.939  27.114  1.00  0.00    -0.493 OA
ATOM     76  C   UNL A   1      32.984  19.617  25.376  1.00  0.00     0.047 A 
ATOM     77  C   UNL A   1      32.322  20.554  23.264  1.00  0.00     0.001 A 
ATOM     78  C   UNL A   1      32.497  19.445  24.085  1.00  0.00     0.004 A 
BRANCH  69  79
ATOM     79  C   UNL A   1      32.512  24.433  25.323  1.00  0.00     0.009 C 
ATOM     80  C   UNL A   1      31.137  23.944  25.798  1.00  0.00     0.005 C 
ATOM     81  C   UNL A   1      32.606  25.798  26.035  1.00  0.00     0.005 C 
ATOM     82  C   UNL A   1      30.268  25.186  25.671  1.00  0.00     0.000 C 
ATOM     83  C   UNL A   1      31.171  26.330  26.114  1.00  0.00     0.000 C 
ENDBRANCH  69  79
ENDBRANCH  66  69
ENDBRANCH  64  65
ENDBRANCH  63  64
ENDBRANCH   1  63
TORSDOF 12
ENDMDL
MODEL 2
REMARK VINA RESULT:     -12.0      0.838      1.591
REMARK SMILES O=C(NCCCCNC(=O)[C@]1(C2CCCC2)CCOc2ccccc21)c1ccc(-c2c3nc(c(-c4c(F)cccc4F)c4ccc([nH]4)c(-c4c(F)cccc4F)c4nc(c(-c5c(F)cccc5F)c5ccc2[nH]5)C=C4)C=C3)cc1
REMARK SMILES IDX 5 1 4 2 3 3 1 4 2 5 26 7 27 8 79 9 28 10 78 11 29 12 30 13
REMARK SMILES IDX 31 14 72 15 32 16 77 17 71 18 73 19 33 20 76 21 70 22 69 23
REMARK SMILES IDX 34 25 60 26 43 27 59 28 44 29 47 30 58 31 74 32 45 33 46 34
REMARK SMILES IDX 57 36 75 37 48 38 35 39 36 40 41 41 37 42 38 43 40 44 42 45
REMARK SMILES IDX 39 46 61 47 62 48 67 49 63 50 64 51 66 52 68 53 65 54 49 55
REMARK SMILES IDX 50 56 55 57 51 58 52 59 54 60 56 61 53 62 6 63 7 64 8 65
REMARK SMILES IDX 9 66 10 68 11 69 17 70 25 71 18 72 20 73 24 74 19 75 21 76
REMARK SMILES IDX 23 77 22 78 12 79 13 80 16 81 14 82 15 83
REMARK H PARENT 3 6 73 24 47 35 8 67
REMARK Flexibility Score: inf
ROOT
ATOM      1  C   UNL A   1      37.697  19.894  25.001  1.00  0.00     0.023 C 
ENDROOT
BRANCH   1   2
ATOM      2  C   UNL A   1      38.970  20.271  25.739  1.00  0.00     0.116 C 
BRANCH   2   3
ATOM      3  N   UNL A   1      39.958  19.203  25.751  1.00  0.00    -0.352 N 
ATOM      4  O   UNL A   1      42.035  18.314  25.845  1.00  0.00    -0.269 OA
ATOM      5  C   UNL A   1      41.307  19.290  25.988  1.00  0.00     0.251 C 
ATOM      6  H   UNL A   1      39.614  18.299  25.564  1.00  0.00     0.163 HD
BRANCH   5   7
ATOM      7  C   UNL A   1      41.872  20.590  26.386  1.00  0.00     0.039 A 
ATOM      8  C   UNL A   1      42.031  20.905  27.739  1.00  0.00     0.014 A 
ATOM      9  C   UNL A   1      42.207  21.512  25.393  1.00  0.00     0.014 A 
ATOM     10  C   UNL A   1      42.404  22.192  28.104  1.00  0.00     0.010 A 
ATOM     11  C   UNL A   1      42.653  22.779  25.760  1.00  0.00     0.010 A 
ATOM     12  C   UNL A   1      42.729  23.134  27.117  1.00  0.00    -0.014 A 
BRANCH  12  13
ATOM     13  C   UNL A   1      43.212  24.476  27.510  1.00  0.00     0.031 A 
ATOM     14  C   UNL A   1      42.252  25.535  27.959  1.00  0.00     0.074 A 
ATOM     15  C   UNL A   1      44.530  24.734  27.426  1.00  0.00     0.049 A 
ATOM     16  N   UNL A   1      42.483  26.793  28.234  1.00  0.00    -0.248 NA
ATOM     17  C   UNL A   1      40.843  25.135  28.106  1.00  0.00     0.031 C 
ATOM     18  C   UNL A   1      45.549  23.772  27.001  1.00  0.00     0.029 A 
ATOM     19  N   UNL A   1      45.233  25.880  27.679  1.00  0.00    -0.354 N 
ATOM     20  C   UNL A   1      41.250  27.343  28.555  1.00  0.00     0.074 A 
ATOM     21  C   UNL A   1      40.269  26.284  28.432  1.00  0.00     0.031 C 
ATOM     22  C   UNL A   1      46.749  24.367  27.028  1.00  0.00     0.029 A 
ATOM     23  C   UNL A   1      46.574  25.763  27.409  1.00  0.00     0.049 A 
ATOM     24  H   UNL A   1      44.820  26.706  28.020  1.00  0.00     0.167 HD
ATOM     25  C   UNL A   1      40.969  28.617  28.918  1.00  0.00     0.037 A 
ATOM     26  C   UNL A   1      47.549  26.687  27.427  1.00  0.00     0.037 A 
ATOM     27  C   UNL A   1      41.958  29.654  29.053  1.00  0.00     0.049 A 
ATOM     28  C   UNL A   1      47.212  28.095  27.812  1.00  0.00     0.074 A 
ATOM     29  C   UNL A   1      41.786  30.964  29.462  1.00  0.00     0.029 A 
ATOM     30  N   UNL A   1      43.309  29.496  28.777  1.00  0.00    -0.354 N 
ATOM     31  N   UNL A   1      46.047  28.599  28.137  1.00  0.00    -0.248 NA
ATOM     32  C   UNL A   1      48.316  29.061  27.828  1.00  0.00     0.031 C 
ATOM     33  C   UNL A   1      43.025  31.610  29.395  1.00  0.00     0.029 A 
ATOM     34  C   UNL A   1      43.978  30.691  28.983  1.00  0.00     0.049 A 
ATOM     35  H   UNL A   1      43.730  28.657  28.478  1.00  0.00     0.167 HD
ATOM     36  C   UNL A   1      46.277  29.939  28.411  1.00  0.00     0.074 A 
ATOM     37  C   UNL A   1      47.696  30.167  28.220  1.00  0.00     0.031 C 
ATOM     38  C   UNL A   1      45.392  30.893  28.788  1.00  0.00     0.037 A 
BRANCH  25  39
ATOM     39  C   UNL A   1      39.530  28.965  29.161  1.00  0.00     0.057 A 
ATOM     40  C   UNL A   1      38.690  29.421  28.135  1.00  0.00     0.134 A 
ATOM     41  C   UNL A   1      38.970  28.824  30.438  1.00  0.00     0.134 A 
ATOM     42  F   UNL A   1      39.167  29.589  26.893  1.00  0.00    -0.206 F 
ATOM     43  C   UNL A   1      37.354  29.745  28.376  1.00  0.00     0.040 A 
ATOM     44  C   UNL A   1      37.630  29.126  30.686  1.00  0.00     0.040 A 
ATOM     45  F   UNL A   1      39.717  28.389  31.463  1.00  0.00    -0.206 F 
ATOM     46  C   UNL A   1      36.820  29.594  29.654  1.00  0.00     0.006 A 
ENDBRANCH  25  39
BRANCH  26  47
ATOM     47  C   UNL A   1      48.923  26.287  27.045  1.00  0.00     0.057 A 
ATOM     48  C   UNL A   1      49.371  26.408  25.726  1.00  0.00     0.134 A 
ATOM     49  C   UNL A   1      49.844  25.853  28.007  1.00  0.00     0.134 A 
ATOM     50  F   UNL A   1      48.530  26.811  24.762  1.00  0.00    -0.206 F 
ATOM     51  C   UNL A   1      50.690  26.117  25.376  1.00  0.00     0.040 A 
ATOM     52  C   UNL A   1      51.170  25.579  27.675  1.00  0.00     0.040 A 
ATOM     53  F   UNL A   1      49.476  25.733  29.291  1.00  0.00    -0.206 F 
ATOM     54  C   UNL A   1      51.596  25.711  26.355  1.00  0.00     0.006 A 
ENDBRANCH  26  47
BRANCH  38  55
ATOM     55  C   UNL A   1      45.937  32.264  29.044  1.00  0.00     0.057 A 
ATOM     56  C   UNL A   1      45.966  33.242  28.044  1.00  0.00     0.134 A 
ATOM     57  C   UNL A   1      46.388  32.623  30.321  1.00  0.00     0.134 A 
ATOM     58  F   UNL A   1      45.561  32.953  26.797  1.00  0.00    -0.206 F 
ATOM     59  C   UNL A   1      46.431  34.532  28.303  1.00  0.00     0.040 A 
ATOM     60  C   UNL A   1      46.838  33.914  30.596  1.00  0.00     0.040 A 
ATOM     61  F   UNL A   1      46.380  31.730  31.321  1.00  0.00    -0.206 F 
ATOM     62  C   UNL A   1      46.862  34.872  29.584  1.00  0.00     0.006 A 
ENDBRANCH  38  55
ENDBRANCH  12  13
ENDBRANCH   5   7
ENDBRANCH   2   3
ENDBRANCH   1   2
BRANCH   1  63
ATOM     63  C   UNL A   1      36.804  21.074  24.626  1.00  0.00     0.023 C 
BRANCH  63  64
ATOM     64  C   UNL A   1      36.822  22.230  25.629  1.00  0.00     0.116 C 
BRANCH  64  65
ATOM     65  N   UNL A   1      36.289  23.429  25.023  1.00  0.00    -0.355 N 
ATOM     66  C   UNL A   1      35.019  23.862  24.808  1.00  0.00     0.231 C 
ATOM     67  H   UNL A   1      36.980  24.052  24.703  1.00  0.00     0.163 HD
ATOM     68  O   UNL A   1      34.965  24.832  24.041  1.00  0.00    -0.274 OA
BRANCH  66  69
ATOM     69  C   UNL A   1      33.742  23.346  25.566  1.00  0.00     0.084 C 
ATOM     70  C   UNL A   1      34.187  23.220  27.049  1.00  0.00     0.064 C 
ATOM     71  C   UNL A   1      33.239  21.982  25.055  1.00  0.00     0.010 A 
ATOM     72  C   UNL A   1      33.455  22.123  27.799  1.00  0.00     0.231 C 
ATOM     73  C   UNL A   1      33.257  20.842  25.877  1.00  0.00     0.123 A 
ATOM     74  C   UNL A   1      32.780  21.819  23.734  1.00  0.00     0.009 A 
ATOM     75  O   UNL A   1      33.668  20.860  27.182  1.00  0.00    -0.493 OA
ATOM     76  C   UNL A   1      32.931  19.579  25.376  1.00  0.00     0.047 A 
ATOM     77  C   UNL A   1      32.435  20.558  23.237  1.00  0.00     0.001 A 
ATOM     78  C   UNL A   1      32.528  19.435  24.053  1.00  0.00     0.004 A 
BRANCH  69  79
ATOM     79  C   UNL A   1      32.583  24.406  25.355  1.00  0.00     0.009 C 
ATOM     80  C   UNL A   1      31.161  23.931  25.686  1.00  0.00     0.005 C 
ATOM     81  C   UNL A   1      32.638  25.742  26.126  1.00  0.00     0.005 C 
ATOM     82  C   UNL A   1      30.331  25.197  25.531  1.00  0.00     0.000 C 
ATOM     83  C   UNL A   1      31.213  26.302  26.097  1.00  0.00     0.000 C 
ENDBRANCH  69  79
ENDBRANCH  66  69
ENDBRANCH  64  65
ENDBRANCH  63  64
ENDBRANCH   1  63
TORSDOF 12
ENDMDL
MODEL 3
REMARK VINA RESULT:     -12.0      4.652      9.519
REMARK SMILES O=C(NCCCCNC(=O)[C@]1(C2CCCC2)CCOc2ccccc21)c1ccc(-c2c3nc(c(-c4c(F)cccc4F)c4ccc([nH]4)c(-c4c(F)cccc4F)c4nc(c(-c5c(F)cccc5F)c5ccc2[nH]5)C=C4)C=C3)cc1
REMARK SMILES IDX 5 1 4 2 3 3 1 4 2 5 26 7 27 8 79 9 28 10 78 11 29 12 30 13
REMARK SMILES IDX 31 14 72 15 32 16 77 17 71 18 73 19 33 20 76 21 70 22 69 23
REMARK SMILES IDX 34 25 60 26 43 27 59 28 44 29 47 30 58 31 74 32 45 33 46 34
REMARK SMILES IDX 57 36 75 37 48 38 35 39 36 40 41 41 37 42 38 43 40 44 42 45
REMARK SMILES IDX 39 46 61 47 62 48 67 49 63 50 64 51 66 52 68 53 65 54 49 55
REMARK SMILES IDX 50 56 55 57 51 58 52 59 54 60 56 61 53 62 6 63 7 64 8 65
REMARK SMILES IDX 9 66 10 68 11 69 17 70 25 71 18 72 20 73 24 74 19 75 21 76
REMARK SMILES IDX 23 77 22 78 12 79 13 80 16 81 14 82 15 83
REMARK H PARENT 3 6 73 24 47 35 8 67
REMARK Flexibility Score: inf
ROOT
ATOM      1  C   UNL A   1      31.458  31.675  26.462  1.00  0.00     0.023 C 
ENDROOT
BRANCH   1   2
ATOM      2  C   UNL A   1      32.625  32.371  27.142  1.00  0.00     0.116 C 
BRANCH   2   3
ATOM      3  N   UNL A   1      32.328  33.744  27.518  1.00  0.00    -0.352 N 
ATOM      4  O   UNL A   1      32.559  35.655  28.706  1.00  0.00    -0.269 OA
ATOM      5  C   UNL A   1      33.001  34.553  28.399  1.00  0.00     0.251 C 
ATOM      6  H   UNL A   1      31.541  34.147  27.084  1.00  0.00     0.163 HD
BRANCH   5   7
ATOM      7  C   UNL A   1      34.253  34.059  28.998  1.00  0.00     0.039 A 
ATOM      8  C   UNL A   1      35.488  34.451  28.474  1.00  0.00     0.014 A 
ATOM      9  C   UNL A   1      34.180  33.163  30.066  1.00  0.00     0.014 A 
ATOM     10  C   UNL A   1      36.651  33.850  28.936  1.00  0.00     0.010 A 
ATOM     11  C   UNL A   1      35.354  32.616  30.579  1.00  0.00     0.010 A 
ATOM     12  C   UNL A   1      36.593  32.936  29.999  1.00  0.00    -0.014 A 
BRANCH  12  13
ATOM     13  C   UNL A   1      37.842  32.364  30.548  1.00  0.00     0.031 A 
ATOM     14  C   UNL A   1      38.466  31.151  29.929  1.00  0.00     0.074 A 
ATOM     15  C   UNL A   1      38.388  32.940  31.634  1.00  0.00     0.049 A 
ATOM     16  N   UNL A   1      39.492  30.453  30.341  1.00  0.00    -0.248 NA
ATOM     17  C   UNL A   1      37.849  30.646  28.692  1.00  0.00     0.031 C 
ATOM     18  C   UNL A   1      37.859  34.125  32.314  1.00  0.00     0.029 A 
ATOM     19  N   UNL A   1      39.496  32.600  32.364  1.00  0.00    -0.354 N 
ATOM     20  C   UNL A   1      39.628  29.409  29.435  1.00  0.00     0.074 A 
ATOM     21  C   UNL A   1      38.571  29.559  28.456  1.00  0.00     0.031 C 
ATOM     22  C   UNL A   1      38.646  34.417  33.358  1.00  0.00     0.029 A 
ATOM     23  C   UNL A   1      39.692  33.406  33.457  1.00  0.00     0.049 A 
ATOM     24  H   UNL A   1      40.092  31.853  32.128  1.00  0.00     0.167 HD
ATOM     25  C   UNL A   1      40.551  28.419  29.429  1.00  0.00     0.037 A 
ATOM     26  C   UNL A   1      40.590  33.319  34.453  1.00  0.00     0.037 A 
ATOM     27  C   UNL A   1      41.606  28.293  30.400  1.00  0.00     0.049 A 
ATOM     28  C   UNL A   1      41.590  32.203  34.436  1.00  0.00     0.074 A 
ATOM     29  C   UNL A   1      42.622  27.356  30.457  1.00  0.00     0.029 A 
ATOM     30  N   UNL A   1      41.777  29.134  31.492  1.00  0.00    -0.354 N 
ATOM     31  N   UNL A   1      41.724  31.235  33.563  1.00  0.00    -0.248 NA
ATOM     32  C   UNL A   1      42.555  32.161  35.540  1.00  0.00     0.031 C 
ATOM     33  C   UNL A   1      43.384  27.605  31.603  1.00  0.00     0.029 A 
ATOM     34  C   UNL A   1      42.867  28.722  32.240  1.00  0.00     0.049 A 
ATOM     35  H   UNL A   1      41.207  29.909  31.702  1.00  0.00     0.167 HD
ATOM     36  C   UNL A   1      42.798  30.475  34.001  1.00  0.00     0.074 A 
ATOM     37  C   UNL A   1      43.283  31.100  35.216  1.00  0.00     0.031 C 
ATOM     38  C   UNL A   1      43.333  29.361  33.446  1.00  0.00     0.037 A 
BRANCH  25  39
ATOM     39  C   UNL A   1      40.438  27.375  28.357  1.00  0.00     0.057 A 
ATOM     40  C   UNL A   1      39.663  26.219  28.522  1.00  0.00     0.134 A 
ATOM     41  C   UNL A   1      41.100  27.539  27.133  1.00  0.00     0.134 A 
ATOM     42  F   UNL A   1      39.014  25.995  29.674  1.00  0.00    -0.206 F 
ATOM     43  C   UNL A   1      39.570  25.254  27.517  1.00  0.00     0.040 A 
ATOM     44  C   UNL A   1      40.998  26.591  26.114  1.00  0.00     0.040 A 
ATOM     45  F   UNL A   1      41.855  28.625  26.909  1.00  0.00    -0.206 F 
ATOM     46  C   UNL A   1      40.236  25.441  26.307  1.00  0.00     0.006 A 
ENDBRANCH  25  39
BRANCH  26  47
ATOM     47  C   UNL A   1      40.548  34.317  35.546  1.00  0.00     0.057 A 
ATOM     48  C   UNL A   1      41.234  35.531  35.444  1.00  0.00     0.134 A 
ATOM     49  C   UNL A   1      39.754  34.112  36.682  1.00  0.00     0.134 A 
ATOM     50  F   UNL A   1      42.015  35.777  34.383  1.00  0.00    -0.206 F 
ATOM     51  C   UNL A   1      41.128  36.512  36.431  1.00  0.00     0.040 A 
ATOM     52  C   UNL A   1      39.622  35.092  37.665  1.00  0.00     0.040 A 
ATOM     53  F   UNL A   1      39.061  32.973  36.827  1.00  0.00    -0.206 F 
ATOM     54  C   UNL A   1      40.310  36.297  37.540  1.00  0.00     0.006 A 
ENDBRANCH  26  47
BRANCH  38  55
ATOM     55  C   UNL A   1      44.522  28.762  34.132  1.00  0.00     0.057 A 
ATOM     56  C   UNL A   1      44.386  27.733  35.071  1.00  0.00     0.134 A 
ATOM     57  C   UNL A   1      45.817  29.185  33.810  1.00  0.00     0.134 A 
ATOM     58  F   UNL A   1      43.170  27.297  35.431  1.00  0.00    -0.206 F 
ATOM     59  C   UNL A   1      45.501  27.147  35.671  1.00  0.00     0.040 A 
ATOM     60  C   UNL A   1      46.939  28.595  34.390  1.00  0.00     0.040 A 
ATOM     61  F   UNL A   1      46.010  30.164  32.914  1.00  0.00    -0.206 F 
ATOM     62  C   UNL A   1      46.782  27.573  35.324  1.00  0.00     0.006 A 
ENDBRANCH  38  55
ENDBRANCH  12  13
ENDBRANCH   5   7
ENDBRANCH   2   3
ENDBRANCH   1   2
BRANCH   1  63
ATOM     63  C   UNL A   1      31.645  30.175  26.252  1.00  0.00     0.023 C 
BRANCH  63  64
ATOM     64  C   UNL A   1      33.103  29.724  26.143  1.00  0.00     0.116 C 
BRANCH  64  65
ATOM     65  N   UNL A   1      33.228  28.336  26.525  1.00  0.00    -0.355 N 
ATOM     66  C   UNL A   1      32.998  27.175  25.856  1.00  0.00     0.231 C 
ATOM     67  H   UNL A   1      33.541  28.205  27.449  1.00  0.00     0.163 HD
ATOM     68  O   UNL A   1      32.988  26.185  26.599  1.00  0.00    -0.274 OA
BRANCH  66  69
ATOM     69  C   UNL A   1      32.929  27.026  24.293  1.00  0.00     0.084 C 
ATOM     70  C   UNL A   1      34.085  27.915  23.760  1.00  0.00     0.064 C 
ATOM     71  C   UNL A   1      31.589  27.496  23.694  1.00  0.00     0.010 A 
ATOM     72  C   UNL A   1      33.799  28.507  22.392  1.00  0.00     0.231 C 
ATOM     73  C   UNL A   1      31.525  28.603  22.830  1.00  0.00     0.123 A 
ATOM     74  C   UNL A   1      30.377  26.860  24.020  1.00  0.00     0.009 A 
ATOM     75  O   UNL A   1      32.625  29.308  22.423  1.00  0.00    -0.493 OA
ATOM     76  C   UNL A   1      30.299  29.116  22.396  1.00  0.00     0.047 A 
ATOM     77  C   UNL A   1      29.151  27.360  23.569  1.00  0.00     0.001 A 
ATOM     78  C   UNL A   1      29.110  28.499  22.771  1.00  0.00     0.004 A 
BRANCH  69  79
ATOM     79  C   UNL A   1      33.112  25.492  23.937  1.00  0.00     0.009 C 
ATOM     80  C   UNL A   1      32.806  25.091  22.487  1.00  0.00     0.005 C 
ATOM     81  C   UNL A   1      34.492  24.834  24.143  1.00  0.00     0.005 C 
ATOM     82  C   UNL A   1      33.221  23.628  22.441  1.00  0.00     0.000 C 
ATOM     83  C   UNL A   1      34.483  23.562  23.290  1.00  0.00     0.000 C 
ENDBRANCH  69  79
ENDBRANCH  66  69
ENDBRANCH  64  65
ENDBRANCH  63  64
ENDBRANCH   1  63
TORSDOF 12
ENDMDL
