MODEL 1
REMARK VINA RESULT:     -10.5      0.000      0.000
REMARK SMILES O=C(CNc1nc(-c2ccccc2)c(-c2ccccc2)s1)NCCCCNC(=O)c1ccc(-c2c3nc(c(-c4c(F)cccc4F)c4ccc([nH]4)c(-c4c(F)cccc4F)c4nc(c(-c5c(F)cccc5F)c5ccc2[nH]5)C=C4)C=C3)cc1
REMARK SMILES IDX 24 1 23 2 22 3 1 4 2 5 3 7 4 8 5 10 6 11 21 12 7 13 14 14
REMARK SMILES IDX 8 15 9 16 13 17 10 18 12 19 11 20 15 21 16 22 20 23 17 24
REMARK SMILES IDX 19 25 18 26 25 27 26 28 27 29 28 30 29 32 30 33 31 34 83 35
REMARK SMILES IDX 32 36 82 37 33 38 34 39 35 40 76 41 36 42 81 43 75 44 77 45
REMARK SMILES IDX 37 46 80 47 74 48 73 49 38 51 64 52 47 53 63 54 48 55 51 56
REMARK SMILES IDX 62 57 78 58 49 59 50 60 61 62 79 63 52 64 39 65 40 66 45 67
REMARK SMILES IDX 41 68 42 69 44 70 46 71 43 72 65 73 66 74 71 75 67 76 68 77
REMARK SMILES IDX 70 78 72 79 69 80 53 81 54 82 59 83 55 84 56 85 58 86 60 87
REMARK SMILES IDX 57 88
REMARK H PARENT 22 6 4 9 27 31 77 50 51 61
REMARK Flexibility Score: inf
ROOT
ATOM      1  C   UNL A   1      33.308  34.534  29.503  1.00  0.00     0.023 C 
ENDROOT
BRANCH   1   2
ATOM      2  C   UNL A   1      33.192  36.053  29.629  1.00  0.00     0.116 C 
BRANCH   2   3
ATOM      3  N   UNL A   1      33.700  36.546  30.892  1.00  0.00    -0.355 N 
ATOM      4  O   UNL A   1      31.736  36.367  32.085  1.00  0.00    -0.273 OA
ATOM      5  C   UNL A   1      32.932  36.638  32.041  1.00  0.00     0.239 C 
ATOM      6  H   UNL A   1      34.642  36.830  30.937  1.00  0.00     0.163 HD
BRANCH   5   7
ATOM      7  C   UNL A   1      33.725  37.141  33.261  1.00  0.00     0.215 C 
BRANCH   7   8
ATOM      8  N   UNL A   1      34.149  35.996  34.055  1.00  0.00    -0.352 N 
ATOM      9  H   UNL A   1      33.673  35.792  34.892  1.00  0.00     0.163 HD
BRANCH   8  10
ATOM     10  C   UNL A   1      35.171  35.207  33.680  1.00  0.00     0.184 A 
ATOM     11  N   UNL A   1      35.803  35.260  32.533  1.00  0.00    -0.220 NA
ATOM     12  S   UNL A   1      35.704  33.975  34.756  1.00  0.00    -0.096 S 
ATOM     13  C   UNL A   1      36.761  34.259  32.472  1.00  0.00     0.091 A 
ATOM     14  C   UNL A   1      36.810  33.414  33.572  1.00  0.00     0.064 A 
BRANCH  13  15
ATOM     15  C   UNL A   1      37.662  34.141  31.336  1.00  0.00     0.002 A 
ATOM     16  C   UNL A   1      38.932  34.731  31.356  1.00  0.00     0.010 A 
ATOM     17  C   UNL A   1      37.220  33.499  30.171  1.00  0.00     0.010 A 
ATOM     18  C   UNL A   1      39.735  34.711  30.213  1.00  0.00     0.001 A 
ATOM     19  C   UNL A   1      38.023  33.486  29.029  1.00  0.00     0.001 A 
ATOM     20  C   UNL A   1      39.275  34.098  29.048  1.00  0.00     0.000 A 
ENDBRANCH  13  15
BRANCH  14  21
ATOM     21  C   UNL A   1      37.634  32.237  33.849  1.00  0.00    -0.006 A 
ATOM     22  C   UNL A   1      37.309  30.998  33.280  1.00  0.00     0.009 A 
ATOM     23  C   UNL A   1      38.786  32.343  34.638  1.00  0.00     0.009 A 
ATOM     24  C   UNL A   1      38.123  29.884  33.496  1.00  0.00     0.001 A 
ATOM     25  C   UNL A   1      39.599  31.229  34.854  1.00  0.00     0.001 A 
ATOM     26  C   UNL A   1      39.268  30.002  34.282  1.00  0.00     0.000 A 
ENDBRANCH  14  21
ENDBRANCH   8  10
ENDBRANCH   7   8
ENDBRANCH   5   7
ENDBRANCH   2   3
ENDBRANCH   1   2
BRANCH   1  27
ATOM     27  C   UNL A   1      33.618  34.019  28.095  1.00  0.00     0.023 C 
BRANCH  27  28
ATOM     28  C   UNL A   1      34.580  32.836  28.018  1.00  0.00     0.116 C 
BRANCH  28  29
ATOM     29  N   UNL A   1      33.914  31.572  27.749  1.00  0.00    -0.352 N 
ATOM     30  C   UNL A   1      34.421  30.293  27.751  1.00  0.00     0.251 C 
ATOM     31  H   UNL A   1      32.956  31.641  27.531  1.00  0.00     0.163 HD
ATOM     32  O   UNL A   1      33.722  29.357  27.368  1.00  0.00    -0.269 OA
BRANCH  30  33
ATOM     33  C   UNL A   1      35.815  30.037  28.179  1.00  0.00     0.039 A 
ATOM     34  C   UNL A   1      36.053  29.652  29.502  1.00  0.00     0.014 A 
ATOM     35  C   UNL A   1      36.887  30.178  27.294  1.00  0.00     0.014 A 
ATOM     36  C   UNL A   1      37.351  29.335  29.915  1.00  0.00     0.010 A 
ATOM     37  C   UNL A   1      38.167  29.788  27.685  1.00  0.00     0.010 A 
ATOM     38  C   UNL A   1      38.413  29.358  28.997  1.00  0.00    -0.014 A 
BRANCH  38  39
ATOM     39  C   UNL A   1      39.780  28.920  29.390  1.00  0.00     0.031 A 
ATOM     40  C   UNL A   1      40.632  29.781  30.282  1.00  0.00     0.074 A 
ATOM     41  C   UNL A   1      40.284  27.775  28.886  1.00  0.00     0.049 A 
ATOM     42  N   UNL A   1      41.868  29.598  30.674  1.00  0.00    -0.248 NA
ATOM     43  C   UNL A   1      40.023  31.024  30.781  1.00  0.00     0.031 C 
ATOM     44  C   UNL A   1      39.580  26.868  27.978  1.00  0.00     0.029 A 
ATOM     45  N   UNL A   1      41.510  27.182  29.062  1.00  0.00    -0.354 N 
ATOM     46  C   UNL A   1      42.188  30.705  31.449  1.00  0.00     0.074 A 
ATOM     47  C   UNL A   1      41.035  31.579  31.430  1.00  0.00     0.031 C 
ATOM     48  C   UNL A   1      40.374  25.822  27.697  1.00  0.00     0.029 A 
ATOM     49  C   UNL A   1      41.657  26.004  28.368  1.00  0.00     0.049 A 
ATOM     50  H   UNL A   1      42.216  27.564  29.630  1.00  0.00     0.167 HD
ATOM     51  C   UNL A   1      43.329  30.961  32.134  1.00  0.00     0.037 A 
ATOM     52  C   UNL A   1      42.710  25.168  28.274  1.00  0.00     0.037 A 
ATOM     53  C   UNL A   1      44.468  30.080  32.171  1.00  0.00     0.049 A 
ATOM     54  C   UNL A   1      43.974  25.488  29.025  1.00  0.00     0.074 A 
ATOM     55  C   UNL A   1      45.645  30.224  32.886  1.00  0.00     0.029 A 
ATOM     56  N   UNL A   1      44.577  28.896  31.458  1.00  0.00    -0.354 N 
ATOM     57  N   UNL A   1      44.235  26.504  29.811  1.00  0.00    -0.248 NA
ATOM     58  C   UNL A   1      45.087  24.539  28.880  1.00  0.00     0.031 C 
ATOM     59  C   UNL A   1      46.488  29.156  32.561  1.00  0.00     0.029 A 
ATOM     60  C   UNL A   1      45.813  28.315  31.691  1.00  0.00     0.049 A 
ATOM     61  H   UNL A   1      43.878  28.522  30.872  1.00  0.00     0.167 HD
ATOM     62  C   UNL A   1      45.528  26.301  30.278  1.00  0.00     0.074 A 
ATOM     63  C   UNL A   1      45.992  25.057  29.698  1.00  0.00     0.031 C 
ATOM     64  C   UNL A   1      46.262  27.073  31.114  1.00  0.00     0.037 A 
BRANCH  51  65
ATOM     65  C   UNL A   1      43.407  32.253  32.898  1.00  0.00     0.057 A 
ATOM     66  C   UNL A   1      43.724  33.467  32.273  1.00  0.00     0.134 A 
ATOM     67  C   UNL A   1      43.121  32.290  34.269  1.00  0.00     0.134 A 
ATOM     68  F   UNL A   1      44.017  33.502  30.965  1.00  0.00    -0.206 F 
ATOM     69  C   UNL A   1      43.782  34.664  32.989  1.00  0.00     0.040 A 
ATOM     70  C   UNL A   1      43.146  33.485  34.989  1.00  0.00     0.040 A 
ATOM     71  F   UNL A   1      42.801  31.166  34.929  1.00  0.00    -0.206 F 
ATOM     72  C   UNL A   1      43.486  34.676  34.350  1.00  0.00     0.006 A 
ENDBRANCH  51  65
BRANCH  52  73
ATOM     73  C   UNL A   1      42.613  23.935  27.451  1.00  0.00     0.057 A 
ATOM     74  C   UNL A   1      42.861  23.965  26.074  1.00  0.00     0.134 A 
ATOM     75  C   UNL A   1      42.254  22.704  28.015  1.00  0.00     0.134 A 
ATOM     76  F   UNL A   1      43.189  25.118  25.473  1.00  0.00    -0.206 F 
ATOM     77  C   UNL A   1      42.735  22.823  25.282  1.00  0.00     0.040 A 
ATOM     78  C   UNL A   1      42.152  21.548  27.239  1.00  0.00     0.040 A 
ATOM     79  F   UNL A   1      42.009  22.606  29.328  1.00  0.00    -0.206 F 
ATOM     80  C   UNL A   1      42.383  21.608  25.866  1.00  0.00     0.006 A 
ENDBRANCH  52  73
BRANCH  64  81
ATOM     81  C   UNL A   1      47.632  26.579  31.488  1.00  0.00     0.057 A 
ATOM     82  C   UNL A   1      47.847  25.752  32.597  1.00  0.00     0.134 A 
ATOM     83  C   UNL A   1      48.744  26.908  30.702  1.00  0.00     0.134 A 
ATOM     84  F   UNL A   1      46.827  25.409  33.398  1.00  0.00    -0.206 F 
ATOM     85  C   UNL A   1      49.123  25.290  32.926  1.00  0.00     0.040 A 
ATOM     86  C   UNL A   1      50.020  26.428  31.003  1.00  0.00     0.040 A 
ATOM     87  F   UNL A   1      48.608  27.689  29.619  1.00  0.00    -0.206 F 
ATOM     88  C   UNL A   1      50.212  25.622  32.122  1.00  0.00     0.006 A 
ENDBRANCH  64  81
ENDBRANCH  38  39
ENDBRANCH  30  33
ENDBRANCH  28  29
ENDBRANCH  27  28
ENDBRANCH   1  27
TORSDOF 15
ENDMDL
MODEL 2
REMARK VINA RESULT:     -10.1      0.395      6.179
REMARK SMILES O=C(CNc1nc(-c2ccccc2)c(-c2ccccc2)s1)NCCCCNC(=O)c1ccc(-c2c3nc(c(-c4c(F)cccc4F)c4ccc([nH]4)c(-c4c(F)cccc4F)c4nc(c(-c5c(F)cccc5F)c5ccc2[nH]5)C=C4)C=C3)cc1
REMARK SMILES IDX 24 1 23 2 22 3 1 4 2 5 3 7 4 8 5 10 6 11 21 12 7 13 14 14
REMARK SMILES IDX 8 15 9 16 13 17 10 18 12 19 11 20 15 21 16 22 20 23 17 24
REMARK SMILES IDX 19 25 18 26 25 27 26 28 27 29 28 30 29 32 30 33 31 34 83 35
REMARK SMILES IDX 32 36 82 37 33 38 34 39 35 40 76 41 36 42 81 43 75 44 77 45
REMARK SMILES IDX 37 46 80 47 74 48 73 49 38 51 64 52 47 53 63 54 48 55 51 56
REMARK SMILES IDX 62 57 78 58 49 59 50 60 61 62 79 63 52 64 39 65 40 66 45 67
REMARK SMILES IDX 41 68 42 69 44 70 46 71 43 72 65 73 66 74 71 75 67 76 68 77
REMARK SMILES IDX 70 78 72 79 69 80 53 81 54 82 59 83 55 84 56 85 58 86 60 87
REMARK SMILES IDX 57 88
REMARK H PARENT 22 6 4 9 27 31 77 50 51 61
REMARK Flexibility Score: inf
ROOT
ATOM      1  C   UNL A   1      33.346  34.470  29.411  1.00  0.00     0.023 C 
ENDROOT
BRANCH   1   2
ATOM      2  C   UNL A   1      33.169  35.986  29.494  1.00  0.00     0.116 C 
BRANCH   2   3
ATOM      3  N   UNL A   1      33.654  36.533  30.743  1.00  0.00    -0.355 N 
ATOM      4  O   UNL A   1      31.681  36.363  31.922  1.00  0.00    -0.273 OA
ATOM      5  C   UNL A   1      32.873  36.654  31.881  1.00  0.00     0.239 C 
ATOM      6  H   UNL A   1      34.590  36.836  30.787  1.00  0.00     0.163 HD
BRANCH   5   7
ATOM      7  C   UNL A   1      33.643  37.215  33.089  1.00  0.00     0.215 C 
BRANCH   7   8
ATOM      8  N   UNL A   1      34.051  36.110  33.946  1.00  0.00    -0.352 N 
ATOM      9  H   UNL A   1      33.547  35.937  34.773  1.00  0.00     0.163 HD
BRANCH   8  10
ATOM     10  C   UNL A   1      35.094  35.319  33.641  1.00  0.00     0.184 A 
ATOM     11  N   UNL A   1      35.726  35.286  32.494  1.00  0.00    -0.220 NA
ATOM     12  S   UNL A   1      35.658  34.202  34.822  1.00  0.00    -0.096 S 
ATOM     13  C   UNL A   1      36.710  34.309  32.520  1.00  0.00     0.091 A 
ATOM     14  C   UNL A   1      36.780  33.567  33.691  1.00  0.00     0.064 A 
BRANCH  13  15
ATOM     15  C   UNL A   1      37.615  34.115  31.399  1.00  0.00     0.002 A 
ATOM     16  C   UNL A   1      38.902  34.667  31.404  1.00  0.00     0.010 A 
ATOM     17  C   UNL A   1      37.163  33.435  30.260  1.00  0.00     0.010 A 
ATOM     18  C   UNL A   1      39.713  34.574  30.269  1.00  0.00     0.001 A 
ATOM     19  C   UNL A   1      37.973  33.348  29.126  1.00  0.00     0.001 A 
ATOM     20  C   UNL A   1      39.243  33.923  29.128  1.00  0.00     0.000 A 
ENDBRANCH  13  15
BRANCH  14  21
ATOM     21  C   UNL A   1      37.634  32.442  34.071  1.00  0.00    -0.006 A 
ATOM     22  C   UNL A   1      38.664  32.620  35.006  1.00  0.00     0.009 A 
ATOM     23  C   UNL A   1      37.402  31.162  33.550  1.00  0.00     0.009 A 
ATOM     24  C   UNL A   1      39.446  31.539  35.413  1.00  0.00     0.001 A 
ATOM     25  C   UNL A   1      38.185  30.081  33.958  1.00  0.00     0.001 A 
ATOM     26  C   UNL A   1      39.205  30.270  34.889  1.00  0.00     0.000 A 
ENDBRANCH  14  21
ENDBRANCH   8  10
ENDBRANCH   7   8
ENDBRANCH   5   7
ENDBRANCH   2   3
ENDBRANCH   1   2
BRANCH   1  27
ATOM     27  C   UNL A   1      33.651  33.925  28.013  1.00  0.00     0.023 C 
BRANCH  27  28
ATOM     28  C   UNL A   1      34.628  32.754  27.955  1.00  0.00     0.116 C 
BRANCH  28  29
ATOM     29  N   UNL A   1      33.974  31.468  27.782  1.00  0.00    -0.352 N 
ATOM     30  C   UNL A   1      34.496  30.198  27.862  1.00  0.00     0.251 C 
ATOM     31  H   UNL A   1      33.012  31.512  27.576  1.00  0.00     0.163 HD
ATOM     32  O   UNL A   1      33.802  29.231  27.554  1.00  0.00    -0.269 OA
BRANCH  30  33
ATOM     33  C   UNL A   1      35.899  29.986  28.284  1.00  0.00     0.039 A 
ATOM     34  C   UNL A   1      36.154  29.605  29.605  1.00  0.00     0.014 A 
ATOM     35  C   UNL A   1      36.963  30.165  27.395  1.00  0.00     0.014 A 
ATOM     36  C   UNL A   1      37.463  29.329  30.012  1.00  0.00     0.010 A 
ATOM     37  C   UNL A   1      38.256  29.816  27.780  1.00  0.00     0.010 A 
ATOM     38  C   UNL A   1      38.521  29.389  29.090  1.00  0.00    -0.014 A 
BRANCH  38  39
ATOM     39  C   UNL A   1      39.903  28.995  29.476  1.00  0.00     0.031 A 
ATOM     40  C   UNL A   1      40.527  27.746  28.915  1.00  0.00     0.074 A 
ATOM     41  C   UNL A   1      40.575  29.727  30.388  1.00  0.00     0.049 A 
ATOM     42  N   UNL A   1      41.689  27.208  29.186  1.00  0.00    -0.248 NA
ATOM     43  C   UNL A   1      39.729  26.989  27.937  1.00  0.00     0.031 C 
ATOM     44  C   UNL A   1      40.071  30.936  31.041  1.00  0.00     0.029 A 
ATOM     45  N   UNL A   1      41.826  29.555  30.929  1.00  0.00    -0.354 N 
ATOM     46  C   UNL A   1      41.755  26.046  28.427  1.00  0.00     0.074 A 
ATOM     47  C   UNL A   1      40.496  25.930  27.725  1.00  0.00     0.031 C 
ATOM     48  C   UNL A   1      41.011  31.412  31.874  1.00  0.00     0.029 A 
ATOM     49  C   UNL A   1      42.166  30.520  31.848  1.00  0.00     0.049 A 
ATOM     50  H   UNL A   1      42.422  28.812  30.683  1.00  0.00     0.167 HD
ATOM     51  C   UNL A   1      42.779  25.168  28.309  1.00  0.00     0.037 A 
ATOM     52  C   UNL A   1      43.279  30.666  32.593  1.00  0.00     0.037 A 
ATOM     53  C   UNL A   1      44.042  25.295  28.991  1.00  0.00     0.049 A 
ATOM     54  C   UNL A   1      44.392  29.663  32.460  1.00  0.00     0.074 A 
ATOM     55  C   UNL A   1      45.163  24.489  28.886  1.00  0.00     0.029 A 
ATOM     56  N   UNL A   1      44.349  26.288  29.909  1.00  0.00    -0.354 N 
ATOM     57  N   UNL A   1      44.467  28.608  31.685  1.00  0.00    -0.248 NA
ATOM     58  C   UNL A   1      45.578  29.875  33.302  1.00  0.00     0.031 C 
ATOM     59  C   UNL A   1      46.127  24.960  29.783  1.00  0.00     0.029 A 
ATOM     60  C   UNL A   1      45.630  26.096  30.403  1.00  0.00     0.049 A 
ATOM     61  H   UNL A   1      43.745  27.021  30.172  1.00  0.00     0.167 HD
ATOM     62  C   UNL A   1      45.718  28.051  31.921  1.00  0.00     0.074 A 
ATOM     63  C   UNL A   1      46.372  28.892  32.903  1.00  0.00     0.031 C 
ATOM     64  C   UNL A   1      46.274  26.944  31.374  1.00  0.00     0.037 A 
BRANCH  51  65
ATOM     65  C   UNL A   1      42.577  23.981  27.409  1.00  0.00     0.057 A 
ATOM     66  C   UNL A   1      42.834  24.042  26.032  1.00  0.00     0.134 A 
ATOM     67  C   UNL A   1      42.160  22.751  27.932  1.00  0.00     0.134 A 
ATOM     68  F   UNL A   1      43.228  25.191  25.463  1.00  0.00    -0.206 F 
ATOM     69  C   UNL A   1      42.654  22.931  25.205  1.00  0.00     0.040 A 
ATOM     70  C   UNL A   1      42.006  21.625  27.121  1.00  0.00     0.040 A 
ATOM     71  F   UNL A   1      41.905  22.619  29.243  1.00  0.00    -0.206 F 
ATOM     72  C   UNL A   1      42.246  21.716  25.751  1.00  0.00     0.006 A 
ENDBRANCH  51  65
BRANCH  52  73
ATOM     73  C   UNL A   1      43.409  31.818  33.522  1.00  0.00     0.057 A 
ATOM     74  C   UNL A   1      43.056  31.700  34.872  1.00  0.00     0.134 A 
ATOM     75  C   UNL A   1      43.871  33.066  33.083  1.00  0.00     0.134 A 
ATOM     76  F   UNL A   1      42.588  30.537  35.347  1.00  0.00    -0.206 F 
ATOM     77  C   UNL A   1      43.136  32.785  35.747  1.00  0.00     0.040 A 
ATOM     78  C   UNL A   1      43.983  34.151  33.955  1.00  0.00     0.040 A 
ATOM     79  F   UNL A   1      44.231  33.243  31.805  1.00  0.00    -0.206 F 
ATOM     80  C   UNL A   1      43.604  34.014  35.289  1.00  0.00     0.006 A 
ENDBRANCH  52  73
BRANCH  64  81
ATOM     81  C   UNL A   1      47.676  26.597  31.789  1.00  0.00     0.057 A 
ATOM     82  C   UNL A   1      48.797  27.178  31.183  1.00  0.00     0.134 A 
ATOM     83  C   UNL A   1      47.904  25.696  32.837  1.00  0.00     0.134 A 
ATOM     84  F   UNL A   1      48.650  28.040  30.165  1.00  0.00    -0.206 F 
ATOM     85  C   UNL A   1      50.094  26.856  31.586  1.00  0.00     0.040 A 
ATOM     86  C   UNL A   1      49.196  25.388  33.269  1.00  0.00     0.040 A 
ATOM     87  F   UNL A   1      46.876  25.109  33.468  1.00  0.00    -0.206 F 
ATOM     88  C   UNL A   1      50.295  25.965  32.639  1.00  0.00     0.006 A 
ENDBRANCH  64  81
ENDBRANCH  38  39
ENDBRANCH  30  33
ENDBRANCH  28  29
ENDBRANCH  27  28
ENDBRANCH   1  27
TORSDOF 15
ENDMDL
MODEL 3
REMARK VINA RESULT:     -10.1      4.017     11.381
REMARK SMILES O=C(CNc1nc(-c2ccccc2)c(-c2ccccc2)s1)NCCCCNC(=O)c1ccc(-c2c3nc(c(-c4c(F)cccc4F)c4ccc([nH]4)c(-c4c(F)cccc4F)c4nc(c(-c5c(F)cccc5F)c5ccc2[nH]5)C=C4)C=C3)cc1
REMARK SMILES IDX 24 1 23 2 22 3 1 4 2 5 3 7 4 8 5 10 6 11 21 12 7 13 14 14
REMARK SMILES IDX 8 15 9 16 13 17 10 18 12 19 11 20 15 21 16 22 20 23 17 24
REMARK SMILES IDX 19 25 18 26 25 27 26 28 27 29 28 30 29 32 30 33 31 34 83 35
REMARK SMILES IDX 32 36 82 37 33 38 34 39 35 40 76 41 36 42 81 43 75 44 77 45
REMARK SMILES IDX 37 46 80 47 74 48 73 49 38 51 64 52 47 53 63 54 48 55 51 56
REMARK SMILES IDX 62 57 78 58 49 59 50 60 61 62 79 63 52 64 39 65 40 66 45 67
REMARK SMILES IDX 41 68 42 69 44 70 46 71 43 72 65 73 66 74 71 75 67 76 68 77
REMARK SMILES IDX 70 78 72 79 69 80 53 81 54 82 59 83 55 84 56 85 58 86 60 87
REMARK SMILES IDX 57 88
REMARK H PARENT 22 6 4 9 27 31 77 50 51 61
REMARK Flexibility Score: inf
ROOT
ATOM      1  C   UNL A   1      41.966  19.605  27.373  1.00  0.00     0.023 C 
ENDROOT
BRANCH   1   2
ATOM      2  C   UNL A   1      42.425  19.267  25.954  1.00  0.00     0.116 C 
BRANCH   2   3
ATOM      3  N   UNL A   1      43.861  19.355  25.800  1.00  0.00    -0.355 N 
ATOM      4  O   UNL A   1      43.946  18.828  23.558  1.00  0.00    -0.273 OA
ATOM      5  C   UNL A   1      44.515  19.155  24.595  1.00  0.00     0.239 C 
ATOM      6  H   UNL A   1      44.404  19.569  26.593  1.00  0.00     0.163 HD
BRANCH   5   7
ATOM      7  C   UNL A   1      46.037  19.360  24.689  1.00  0.00     0.215 C 
BRANCH   7   8
ATOM      8  N   UNL A   1      46.361  20.711  24.251  1.00  0.00    -0.352 N 
ATOM      9  H   UNL A   1      46.823  20.836  23.390  1.00  0.00     0.163 HD
BRANCH   8  10
ATOM     10  C   UNL A   1      46.049  21.793  24.984  1.00  0.00     0.184 A 
ATOM     11  N   UNL A   1      45.591  21.784  26.212  1.00  0.00    -0.220 NA
ATOM     12  S   UNL A   1      46.208  23.350  24.272  1.00  0.00    -0.096 S 
ATOM     13  C   UNL A   1      45.325  23.080  26.630  1.00  0.00     0.091 A 
ATOM     14  C   UNL A   1      45.541  24.067  25.679  1.00  0.00     0.064 A 
BRANCH  13  15
ATOM     15  C   UNL A   1      44.881  23.363  27.986  1.00  0.00     0.002 A 
ATOM     16  C   UNL A   1      43.603  22.991  28.421  1.00  0.00     0.010 A 
ATOM     17  C   UNL A   1      45.714  24.093  28.844  1.00  0.00     0.010 A 
ATOM     18  C   UNL A   1      43.149  23.378  29.684  1.00  0.00     0.001 A 
ATOM     19  C   UNL A   1      45.257  24.482  30.104  1.00  0.00     0.001 A 
ATOM     20  C   UNL A   1      43.973  24.131  30.521  1.00  0.00     0.000 A 
ENDBRANCH  13  15
BRANCH  14  21
ATOM     21  C   UNL A   1      45.331  25.514  25.726  1.00  0.00    -0.006 A 
ATOM     22  C   UNL A   1      46.387  26.370  26.070  1.00  0.00     0.009 A 
ATOM     23  C   UNL A   1      44.093  26.068  25.376  1.00  0.00     0.009 A 
ATOM     24  C   UNL A   1      46.208  27.754  26.063  1.00  0.00     0.001 A 
ATOM     25  C   UNL A   1      43.915  27.452  25.369  1.00  0.00     0.001 A 
ATOM     26  C   UNL A   1      44.972  28.294  25.712  1.00  0.00     0.000 A 
ENDBRANCH  14  21
ENDBRANCH   8  10
ENDBRANCH   7   8
ENDBRANCH   5   7
ENDBRANCH   2   3
ENDBRANCH   1   2
BRANCH   1  27
ATOM     27  C   UNL A   1      41.026  20.808  27.485  1.00  0.00     0.023 C 
BRANCH  27  28
ATOM     28  C   UNL A   1      40.932  21.695  26.247  1.00  0.00     0.116 C 
BRANCH  28  29
ATOM     29  N   UNL A   1      39.564  21.969  25.838  1.00  0.00    -0.352 N 
ATOM     30  C   UNL A   1      38.778  23.071  26.080  1.00  0.00     0.251 C 
ATOM     31  H   UNL A   1      39.135  21.258  25.310  1.00  0.00     0.163 HD
ATOM     32  O   UNL A   1      37.592  23.059  25.757  1.00  0.00    -0.269 OA
BRANCH  30  33
ATOM     33  C   UNL A   1      39.339  24.262  26.757  1.00  0.00     0.039 A 
ATOM     34  C   UNL A   1      40.028  25.209  25.993  1.00  0.00     0.014 A 
ATOM     35  C   UNL A   1      39.200  24.451  28.135  1.00  0.00     0.014 A 
ATOM     36  C   UNL A   1      40.506  26.378  26.593  1.00  0.00     0.010 A 
ATOM     37  C   UNL A   1      39.609  25.649  28.717  1.00  0.00     0.010 A 
ATOM     38  C   UNL A   1      40.262  26.628  27.953  1.00  0.00    -0.014 A 
BRANCH  38  39
ATOM     39  C   UNL A   1      40.668  27.913  28.585  1.00  0.00     0.031 A 
ATOM     40  C   UNL A   1      42.099  28.150  28.983  1.00  0.00     0.074 A 
ATOM     41  C   UNL A   1      39.732  28.844  28.865  1.00  0.00     0.049 A 
ATOM     42  N   UNL A   1      42.626  29.175  29.606  1.00  0.00    -0.248 NA
ATOM     43  C   UNL A   1      43.062  27.085  28.662  1.00  0.00     0.031 C 
ATOM     44  C   UNL A   1      38.304  28.722  28.570  1.00  0.00     0.029 A 
ATOM     45  N   UNL A   1      39.843  30.072  29.467  1.00  0.00    -0.354 N 
ATOM     46  C   UNL A   1      43.972  28.872  29.762  1.00  0.00     0.074 A 
ATOM     47  C   UNL A   1      44.172  27.547  29.217  1.00  0.00     0.031 C 
ATOM     48  C   UNL A   1      37.676  29.841  28.967  1.00  0.00     0.029 A 
ATOM     49  C   UNL A   1      38.646  30.739  29.584  1.00  0.00     0.049 A 
ATOM     50  H   UNL A   1      40.698  30.441  29.786  1.00  0.00     0.167 HD
ATOM     51  C   UNL A   1      44.958  29.637  30.291  1.00  0.00     0.037 A 
ATOM     52  C   UNL A   1      38.360  31.936  30.134  1.00  0.00     0.037 A 
ATOM     53  C   UNL A   1      44.763  30.965  30.813  1.00  0.00     0.049 A 
ATOM     54  C   UNL A   1      39.469  32.754  30.736  1.00  0.00     0.074 A 
ATOM     55  C   UNL A   1      45.712  31.842  31.312  1.00  0.00     0.029 A 
ATOM     56  N   UNL A   1      43.538  31.607  30.910  1.00  0.00    -0.354 N 
ATOM     57  N   UNL A   1      40.750  32.484  30.813  1.00  0.00    -0.248 NA
ATOM     58  C   UNL A   1      39.093  34.048  31.323  1.00  0.00     0.031 C 
ATOM     59  C   UNL A   1      45.053  32.990  31.764  1.00  0.00     0.029 A 
ATOM     60  C   UNL A   1      43.701  32.854  31.490  1.00  0.00     0.049 A 
ATOM     61  H   UNL A   1      42.678  31.230  30.610  1.00  0.00     0.167 HD
ATOM     62  C   UNL A   1      41.335  33.585  31.426  1.00  0.00     0.074 A 
ATOM     63  C   UNL A   1      40.271  34.533  31.688  1.00  0.00     0.031 C 
ATOM     64  C   UNL A   1      42.636  33.793  31.740  1.00  0.00     0.037 A 
BRANCH  51  65
ATOM     65  C   UNL A   1      46.342  29.053  30.338  1.00  0.00     0.057 A 
ATOM     66  C   UNL A   1      47.290  29.310  29.338  1.00  0.00     0.134 A 
ATOM     67  C   UNL A   1      46.745  28.256  31.417  1.00  0.00     0.134 A 
ATOM     68  F   UNL A   1      46.969  30.057  28.272  1.00  0.00    -0.206 F 
ATOM     69  C   UNL A   1      48.578  28.772  29.396  1.00  0.00     0.040 A 
ATOM     70  C   UNL A   1      48.038  27.739  31.502  1.00  0.00     0.040 A 
ATOM     71  F   UNL A   1      45.891  27.977  32.415  1.00  0.00    -0.206 F 
ATOM     72  C   UNL A   1      48.957  27.990  30.484  1.00  0.00     0.006 A 
ENDBRANCH  51  65
BRANCH  52  73
ATOM     73  C   UNL A   1      36.965  32.445  30.126  1.00  0.00     0.057 A 
ATOM     74  C   UNL A   1      36.476  33.192  29.048  1.00  0.00     0.134 A 
ATOM     75  C   UNL A   1      36.094  32.215  31.199  1.00  0.00     0.134 A 
ATOM     76  F   UNL A   1      37.268  33.463  28.001  1.00  0.00    -0.206 F 
ATOM     77  C   UNL A   1      35.180  33.711  29.045  1.00  0.00     0.040 A 
ATOM     78  C   UNL A   1      34.786  32.704  31.196  1.00  0.00     0.040 A 
ATOM     79  F   UNL A   1      36.499  31.502  32.259  1.00  0.00    -0.206 F 
ATOM     80  C   UNL A   1      34.330  33.464  30.120  1.00  0.00     0.006 A 
ENDBRANCH  52  73
BRANCH  64  81
ATOM     81  C   UNL A   1      42.994  35.111  32.366  1.00  0.00     0.057 A 
ATOM     82  C   UNL A   1      43.460  36.193  31.608  1.00  0.00     0.134 A 
ATOM     83  C   UNL A   1      42.833  35.310  33.743  1.00  0.00     0.134 A 
ATOM     84  F   UNL A   1      43.650  36.065  30.286  1.00  0.00    -0.206 F 
ATOM     85  C   UNL A   1      43.778  37.416  32.201  1.00  0.00     0.040 A 
ATOM     86  C   UNL A   1      43.118  36.539  34.343  1.00  0.00     0.040 A 
ATOM     87  F   UNL A   1      42.381  34.320  34.528  1.00  0.00    -0.206 F 
ATOM     88  C   UNL A   1      43.598  37.594  33.571  1.00  0.00     0.006 A 
ENDBRANCH  64  81
ENDBRANCH  38  39
ENDBRANCH  30  33
ENDBRANCH  28  29
ENDBRANCH  27  28
ENDBRANCH   1  27
TORSDOF 15
ENDMDL
