MODEL 1
REMARK VINA RESULT:     -10.8      0.000      0.000
REMARK SMILES Cc1cc(C(=O)NC[C@H]2CC[C@@H](C(=O)NCCCCNC(=O)c3ccc(-c4c5nc(c(-c6c(F)cccc6F)c6ccc([nH]6)c(-c6c(F)cccc6F)c6nc(c(-c7c(F)cccc7F)c7ccc4[nH]7)C=C6)C=C5)cc3)O2)c(C)s1
REMARK SMILES IDX 17 1 16 2 15 3 13 4 14 5 12 7 9 8 10 9 77 10 11 11 8 12 7 13
REMARK SMILES IDX 5 14 6 15 4 17 1 18 2 19 3 20 80 21 78 22 79 23 18 24 19 25
REMARK SMILES IDX 20 26 21 27 22 29 23 30 24 31 76 32 25 33 75 34 26 35 27 36
REMARK SMILES IDX 28 37 69 38 29 39 74 40 68 41 70 42 30 43 73 44 67 45 66 46
REMARK SMILES IDX 31 48 57 49 40 50 56 51 41 52 44 53 55 54 71 55 42 56 43 57
REMARK SMILES IDX 54 59 72 60 45 61 32 62 33 63 38 64 34 65 35 66 37 67 39 68
REMARK SMILES IDX 36 69 58 70 59 71 64 72 60 73 61 74 63 75 65 76 62 77 46 78
REMARK SMILES IDX 47 79 52 80 48 81 49 82 51 83 53 84 50 85
REMARK H PARENT 15 6 7 16 20 28 70 47 44 58
REMARK Flexibility Score: inf
ROOT
ATOM      1  C   UNL A   1      34.527  34.611  28.077  1.00  0.00     0.023 C 
ENDROOT
BRANCH   1   2
ATOM      2  C   UNL A   1      33.201  34.797  28.803  1.00  0.00     0.116 C 
BRANCH   2   3
ATOM      3  N   UNL A   1      32.986  36.159  29.242  1.00  0.00    -0.354 N 
ATOM      4  C   UNL A   1      33.087  36.703  30.490  1.00  0.00     0.249 C 
ATOM      5  O   UNL A   1      32.920  37.923  30.590  1.00  0.00    -0.272 OA
ATOM      6  H   UNL A   1      32.728  36.790  28.532  1.00  0.00     0.163 HD
BRANCH   4   7
ATOM      7  C   UNL A   1      33.433  35.864  31.738  1.00  0.00     0.207 C 
ATOM      8  C   UNL A   1      35.046  34.626  32.880  1.00  0.00     0.138 C 
ATOM      9  C   UNL A   1      34.408  35.612  33.861  1.00  0.00     0.037 C 
ATOM     10  O   UNL A   1      34.481  34.904  31.581  1.00  0.00    -0.363 OA
ATOM     11  C   UNL A   1      33.801  36.672  32.968  1.00  0.00     0.045 C 
BRANCH   8  12
ATOM     12  C   UNL A   1      36.560  34.820  32.810  1.00  0.00     0.148 C 
BRANCH  12  13
ATOM     13  N   UNL A   1      37.144  34.577  31.498  1.00  0.00    -0.349 N 
ATOM     14  C   UNL A   1      38.179  33.743  31.145  1.00  0.00     0.252 C 
ATOM     15  O   UNL A   1      38.544  33.733  29.970  1.00  0.00    -0.269 OA
ATOM     16  H   UNL A   1      36.739  35.083  30.757  1.00  0.00     0.163 HD
BRANCH  14  17
ATOM     17  C   UNL A   1      38.847  32.951  32.185  1.00  0.00     0.053 A 
ATOM     18  C   UNL A   1      38.370  30.814  35.203  1.00  0.00     0.056 C 
ATOM     19  C   UNL A   1      38.934  31.534  34.028  1.00  0.00     0.003 A 
ATOM     20  C   UNL A   1      38.351  31.746  32.801  1.00  0.00     0.029 A 
ATOM     21  S   UNL A   1      40.481  32.246  34.041  1.00  0.00    -0.145 S 
ATOM     22  C   UNL A   1      40.069  33.300  32.753  1.00  0.00     0.014 A 
ATOM     23  C   UNL A   1      40.966  34.466  32.478  1.00  0.00     0.057 C 
ENDBRANCH  14  17
ENDBRANCH  12  13
ENDBRANCH   8  12
ENDBRANCH   4   7
ENDBRANCH   2   3
ENDBRANCH   1   2
BRANCH   1  24
ATOM     24  C   UNL A   1      35.304  33.330  28.376  1.00  0.00     0.023 C 
BRANCH  24  25
ATOM     25  C   UNL A   1      34.571  32.214  29.120  1.00  0.00     0.116 C 
BRANCH  25  26
ATOM     26  N   UNL A   1      34.203  31.052  28.324  1.00  0.00    -0.352 N 
ATOM     27  C   UNL A   1      34.876  29.865  28.122  1.00  0.00     0.251 C 
ATOM     28  H   UNL A   1      33.339  31.125  27.857  1.00  0.00     0.163 HD
ATOM     29  O   UNL A   1      34.337  28.886  27.617  1.00  0.00    -0.269 OA
BRANCH  27  30
ATOM     30  C   UNL A   1      36.306  29.795  28.421  1.00  0.00     0.039 A 
ATOM     31  C   UNL A   1      36.692  29.329  29.685  1.00  0.00     0.014 A 
ATOM     32  C   UNL A   1      37.243  30.077  27.434  1.00  0.00     0.014 A 
ATOM     33  C   UNL A   1      38.027  29.026  29.919  1.00  0.00     0.010 A 
ATOM     34  C   UNL A   1      38.551  29.684  27.635  1.00  0.00     0.010 A 
ATOM     35  C   UNL A   1      38.947  29.143  28.871  1.00  0.00    -0.014 A 
BRANCH  35  36
ATOM     36  C   UNL A   1      40.350  28.711  29.014  1.00  0.00     0.031 A 
ATOM     37  C   UNL A   1      41.368  29.730  29.421  1.00  0.00     0.074 A 
ATOM     38  C   UNL A   1      40.701  27.470  28.631  1.00  0.00     0.049 A 
ATOM     39  N   UNL A   1      42.671  29.665  29.374  1.00  0.00    -0.248 NA
ATOM     40  C   UNL A   1      40.841  31.027  29.880  1.00  0.00     0.031 C 
ATOM     41  C   UNL A   1      39.781  26.431  28.162  1.00  0.00     0.029 A 
ATOM     42  N   UNL A   1      41.936  26.883  28.544  1.00  0.00    -0.354 N 
ATOM     43  C   UNL A   1      43.116  30.924  29.747  1.00  0.00     0.074 A 
ATOM     44  C   UNL A   1      41.947  31.748  29.961  1.00  0.00     0.031 C 
ATOM     45  C   UNL A   1      40.483  25.333  27.841  1.00  0.00     0.029 A 
ATOM     46  C   UNL A   1      41.900  25.604  28.043  1.00  0.00     0.049 A 
ATOM     47  H   UNL A   1      42.768  27.334  28.814  1.00  0.00     0.167 HD
ATOM     48  C   UNL A   1      44.390  31.344  29.917  1.00  0.00     0.037 A 
ATOM     49  C   UNL A   1      42.910  24.759  27.767  1.00  0.00     0.037 A 
ATOM     50  C   UNL A   1      45.529  30.484  29.743  1.00  0.00     0.049 A 
ATOM     51  C   UNL A   1      44.315  25.222  28.030  1.00  0.00     0.074 A 
ATOM     52  C   UNL A   1      46.866  30.763  29.952  1.00  0.00     0.029 A 
ATOM     53  N   UNL A   1      45.451  29.161  29.326  1.00  0.00    -0.354 N 
ATOM     54  N   UNL A   1      44.732  26.400  28.434  1.00  0.00    -0.248 NA
ATOM     55  C   UNL A   1      45.388  24.246  27.809  1.00  0.00     0.031 C 
ATOM     56  C   UNL A   1      47.600  29.613  29.640  1.00  0.00     0.029 A 
ATOM     57  C   UNL A   1      46.717  28.608  29.271  1.00  0.00     0.049 A 
ATOM     58  H   UNL A   1      44.618  28.687  29.104  1.00  0.00     0.167 HD
ATOM     59  C   UNL A   1      46.111  26.302  28.538  1.00  0.00     0.074 A 
ATOM     60  C   UNL A   1      46.458  24.943  28.168  1.00  0.00     0.031 C 
ATOM     61  C   UNL A   1      47.015  27.245  28.902  1.00  0.00     0.037 A 
BRANCH  48  62
ATOM     62  C   UNL A   1      44.591  32.780  30.304  1.00  0.00     0.057 A 
ATOM     63  C   UNL A   1      44.807  33.783  29.347  1.00  0.00     0.134 A 
ATOM     64  C   UNL A   1      44.611  33.163  31.651  1.00  0.00     0.134 A 
ATOM     65  F   UNL A   1      44.821  33.483  28.039  1.00  0.00    -0.206 F 
ATOM     66  C   UNL A   1      45.082  35.101  29.717  1.00  0.00     0.040 A 
ATOM     67  C   UNL A   1      44.854  34.485  32.032  1.00  0.00     0.040 A 
ATOM     68  F   UNL A   1      44.413  32.257  32.620  1.00  0.00    -0.206 F 
ATOM     69  C   UNL A   1      45.103  35.455  31.063  1.00  0.00     0.006 A 
ENDBRANCH  48  62
BRANCH  49  70
ATOM     70  C   UNL A   1      42.621  23.397  27.253  1.00  0.00     0.057 A 
ATOM     71  C   UNL A   1      42.697  23.114  25.884  1.00  0.00     0.134 A 
ATOM     72  C   UNL A   1      42.297  22.338  28.111  1.00  0.00     0.134 A 
ATOM     73  F   UNL A   1      42.992  24.089  25.011  1.00  0.00    -0.206 F 
ATOM     74  C   UNL A   1      42.449  21.835  25.384  1.00  0.00     0.040 A 
ATOM     75  C   UNL A   1      42.068  21.048  27.627  1.00  0.00     0.040 A 
ATOM     76  F   UNL A   1      42.223  22.538  29.434  1.00  0.00    -0.206 F 
ATOM     77  C   UNL A   1      42.138  20.795  26.258  1.00  0.00     0.006 A 
ENDBRANCH  49  70
BRANCH  61  78
ATOM     78  C   UNL A   1      48.451  26.824  28.940  1.00  0.00     0.057 A 
ATOM     79  C   UNL A   1      49.014  26.228  30.075  1.00  0.00     0.134 A 
ATOM     80  C   UNL A   1      49.264  26.971  27.809  1.00  0.00     0.134 A 
ATOM     81  F   UNL A   1      48.287  26.073  31.192  1.00  0.00    -0.206 F 
ATOM     82  C   UNL A   1      50.344  25.809  30.090  1.00  0.00     0.040 A 
ATOM     83  C   UNL A   1      50.587  26.532  27.804  1.00  0.00     0.040 A 
ATOM     84  F   UNL A   1      48.779  27.526  26.688  1.00  0.00    -0.206 F 
ATOM     85  C   UNL A   1      51.132  25.953  28.948  1.00  0.00     0.006 A 
ENDBRANCH  61  78
ENDBRANCH  35  36
ENDBRANCH  27  30
ENDBRANCH  25  26
ENDBRANCH  24  25
ENDBRANCH   1  24
TORSDOF 14
ENDMDL
MODEL 2
REMARK VINA RESULT:     -10.7      3.878      6.664
REMARK SMILES Cc1cc(C(=O)NC[C@H]2CC[C@@H](C(=O)NCCCCNC(=O)c3ccc(-c4c5nc(c(-c6c(F)cccc6F)c6ccc([nH]6)c(-c6c(F)cccc6F)c6nc(c(-c7c(F)cccc7F)c7ccc4[nH]7)C=C6)C=C5)cc3)O2)c(C)s1
REMARK SMILES IDX 17 1 16 2 15 3 13 4 14 5 12 7 9 8 10 9 77 10 11 11 8 12 7 13
REMARK SMILES IDX 5 14 6 15 4 17 1 18 2 19 3 20 80 21 78 22 79 23 18 24 19 25
REMARK SMILES IDX 20 26 21 27 22 29 23 30 24 31 76 32 25 33 75 34 26 35 27 36
REMARK SMILES IDX 28 37 69 38 29 39 74 40 68 41 70 42 30 43 73 44 67 45 66 46
REMARK SMILES IDX 31 48 57 49 40 50 56 51 41 52 44 53 55 54 71 55 42 56 43 57
REMARK SMILES IDX 54 59 72 60 45 61 32 62 33 63 38 64 34 65 35 66 37 67 39 68
REMARK SMILES IDX 36 69 58 70 59 71 64 72 60 73 61 74 63 75 65 76 62 77 46 78
REMARK SMILES IDX 47 79 52 80 48 81 49 82 51 83 53 84 50 85
REMARK H PARENT 15 6 7 16 20 28 70 47 44 58
REMARK Flexibility Score: inf
ROOT
ATOM      1  C   UNL A   1      32.910  29.652  24.954  1.00  0.00     0.023 C 
ENDROOT
BRANCH   1   2
ATOM      2  C   UNL A   1      31.398  29.474  24.904  1.00  0.00     0.116 C 
BRANCH   2   3
ATOM      3  N   UNL A   1      30.837  29.788  23.608  1.00  0.00    -0.354 N 
ATOM      4  C   UNL A   1      30.407  28.954  22.615  1.00  0.00     0.249 C 
ATOM      5  O   UNL A   1      29.896  29.478  21.620  1.00  0.00    -0.272 OA
ATOM      6  H   UNL A   1      30.752  30.748  23.411  1.00  0.00     0.163 HD
BRANCH   4   7
ATOM      7  C   UNL A   1      30.504  27.418  22.718  1.00  0.00     0.207 C 
ATOM      8  C   UNL A   1      31.615  25.583  23.633  1.00  0.00     0.138 C 
ATOM      9  C   UNL A   1      30.110  25.386  23.832  1.00  0.00     0.037 C 
ATOM     10  O   UNL A   1      31.792  26.888  23.043  1.00  0.00    -0.363 OA
ATOM     11  C   UNL A   1      29.542  26.782  23.704  1.00  0.00     0.045 C 
BRANCH   8  12
ATOM     12  C   UNL A   1      32.357  25.541  24.968  1.00  0.00     0.148 C 
BRANCH  12  13
ATOM     13  N   UNL A   1      31.643  24.862  26.040  1.00  0.00    -0.349 N 
ATOM     14  C   UNL A   1      31.971  23.707  26.712  1.00  0.00     0.252 C 
ATOM     15  O   UNL A   1      31.185  23.284  27.559  1.00  0.00    -0.269 OA
ATOM     16  H   UNL A   1      30.805  25.293  26.326  1.00  0.00     0.163 HD
BRANCH  14  17
ATOM     17  C   UNL A   1      33.202  22.994  26.352  1.00  0.00     0.053 A 
ATOM     18  C   UNL A   1      36.882  23.287  25.825  1.00  0.00     0.056 C 
ATOM     19  C   UNL A   1      35.492  22.782  26.007  1.00  0.00     0.003 A 
ATOM     20  C   UNL A   1      34.525  23.248  26.865  1.00  0.00     0.029 A 
ATOM     21  S   UNL A   1      34.866  21.472  25.117  1.00  0.00    -0.145 S 
ATOM     22  C   UNL A   1      33.252  21.974  25.406  1.00  0.00     0.014 A 
ATOM     23  C   UNL A   1      32.163  21.367  24.579  1.00  0.00     0.057 C 
ENDBRANCH  14  17
ENDBRANCH  12  13
ENDBRANCH   8  12
ENDBRANCH   4   7
ENDBRANCH   2   3
ENDBRANCH   1   2
BRANCH   1  24
ATOM     24  C   UNL A   1      33.687  28.696  25.857  1.00  0.00     0.023 C 
BRANCH  24  25
ATOM     25  C   UNL A   1      33.474  28.815  27.367  1.00  0.00     0.116 C 
BRANCH  25  26
ATOM     26  N   UNL A   1      33.647  30.146  27.932  1.00  0.00    -0.352 N 
ATOM     27  C   UNL A   1      34.801  30.831  28.250  1.00  0.00     0.251 C 
ATOM     28  H   UNL A   1      32.811  30.632  28.115  1.00  0.00     0.163 HD
ATOM     29  O   UNL A   1      34.800  32.032  28.500  1.00  0.00    -0.269 OA
BRANCH  27  30
ATOM     30  C   UNL A   1      36.054  30.090  28.401  1.00  0.00     0.039 A 
ATOM     31  C   UNL A   1      36.963  30.113  27.335  1.00  0.00     0.014 A 
ATOM     32  C   UNL A   1      36.367  29.482  29.611  1.00  0.00     0.014 A 
ATOM     33  C   UNL A   1      38.249  29.626  27.529  1.00  0.00     0.010 A 
ATOM     34  C   UNL A   1      37.672  29.090  29.832  1.00  0.00     0.010 A 
ATOM     35  C   UNL A   1      38.623  29.174  28.800  1.00  0.00    -0.014 A 
BRANCH  35  36
ATOM     36  C   UNL A   1      40.008  28.770  29.107  1.00  0.00     0.031 A 
ATOM     37  C   UNL A   1      40.933  29.794  29.687  1.00  0.00     0.074 A 
ATOM     38  C   UNL A   1      40.444  27.557  28.721  1.00  0.00     0.049 A 
ATOM     39  N   UNL A   1      42.232  29.763  29.808  1.00  0.00    -0.248 NA
ATOM     40  C   UNL A   1      40.312  31.055  30.128  1.00  0.00     0.031 C 
ATOM     41  C   UNL A   1      39.624  26.519  28.090  1.00  0.00     0.029 A 
ATOM     42  N   UNL A   1      41.696  27.006  28.770  1.00  0.00    -0.354 N 
ATOM     43  C   UNL A   1      42.587  31.014  30.290  1.00  0.00     0.074 A 
ATOM     44  C   UNL A   1      41.376  31.798  30.385  1.00  0.00     0.031 C 
ATOM     45  C   UNL A   1      40.395  25.454  27.817  1.00  0.00     0.029 A 
ATOM     46  C   UNL A   1      41.765  25.751  28.215  1.00  0.00     0.049 A 
ATOM     47  H   UNL A   1      42.472  27.464  29.166  1.00  0.00     0.167 HD
ATOM     48  C   UNL A   1      43.815  31.457  30.643  1.00  0.00     0.037 A 
ATOM     49  C   UNL A   1      42.827  24.945  28.038  1.00  0.00     0.037 A 
ATOM     50  C   UNL A   1      44.992  30.634  30.584  1.00  0.00     0.049 A 
ATOM     51  C   UNL A   1      44.171  25.429  28.501  1.00  0.00     0.074 A 
ATOM     52  C   UNL A   1      46.282  30.935  30.978  1.00  0.00     0.029 A 
ATOM     53  N   UNL A   1      45.010  29.331  30.103  1.00  0.00    -0.354 N 
ATOM     54  N   UNL A   1      44.496  26.597  29.007  1.00  0.00    -0.248 NA
ATOM     55  C   UNL A   1      45.293  24.491  28.381  1.00  0.00     0.031 C 
ATOM     56  C   UNL A   1      47.085  29.820  30.715  1.00  0.00     0.029 A 
ATOM     57  C   UNL A   1      46.289  28.812  30.191  1.00  0.00     0.049 A 
ATOM     58  H   UNL A   1      44.227  28.846  29.754  1.00  0.00     0.167 HD
ATOM     59  C   UNL A   1      45.853  26.529  29.287  1.00  0.00     0.074 A 
ATOM     60  C   UNL A   1      46.286  25.197  28.907  1.00  0.00     0.031 C 
ATOM     61  C   UNL A   1      46.673  27.476  29.806  1.00  0.00     0.037 A 
BRANCH  48  62
ATOM     62  C   UNL A   1      43.921  32.878  31.115  1.00  0.00     0.057 A 
ATOM     63  C   UNL A   1      44.192  33.934  30.232  1.00  0.00     0.134 A 
ATOM     64  C   UNL A   1      43.791  33.194  32.473  1.00  0.00     0.134 A 
ATOM     65  F   UNL A   1      44.349  33.700  28.920  1.00  0.00    -0.206 F 
ATOM     66  C   UNL A   1      44.378  35.241  30.688  1.00  0.00     0.040 A 
ATOM     67  C   UNL A   1      43.942  34.503  32.937  1.00  0.00     0.040 A 
ATOM     68  F   UNL A   1      43.531  32.234  33.374  1.00  0.00    -0.206 F 
ATOM     69  C   UNL A   1      44.250  35.528  32.045  1.00  0.00     0.006 A 
ENDBRANCH  48  62
BRANCH  49  70
ATOM     70  C   UNL A   1      42.649  23.601  27.432  1.00  0.00     0.057 A 
ATOM     71  C   UNL A   1      42.321  22.494  28.223  1.00  0.00     0.134 A 
ATOM     72  C   UNL A   1      42.765  23.393  26.051  1.00  0.00     0.134 A 
ATOM     73  F   UNL A   1      42.206  22.627  29.552  1.00  0.00    -0.206 F 
ATOM     74  C   UNL A   1      42.130  21.227  27.669  1.00  0.00     0.040 A 
ATOM     75  C   UNL A   1      42.555  22.136  25.480  1.00  0.00     0.040 A 
ATOM     76  F   UNL A   1      43.062  24.415  25.236  1.00  0.00    -0.206 F 
ATOM     77  C   UNL A   1      42.241  21.047  26.292  1.00  0.00     0.006 A 
ENDBRANCH  49  70
BRANCH  61  78
ATOM     78  C   UNL A   1      48.104  27.088  30.013  1.00  0.00     0.057 A 
ATOM     79  C   UNL A   1      48.529  26.437  31.177  1.00  0.00     0.134 A 
ATOM     80  C   UNL A   1      49.056  27.326  29.014  1.00  0.00     0.134 A 
ATOM     81  F   UNL A   1      47.665  26.194  32.175  1.00  0.00    -0.206 F 
ATOM     82  C   UNL A   1      49.858  26.050  31.348  1.00  0.00     0.040 A 
ATOM     83  C   UNL A   1      50.381  26.921  29.163  1.00  0.00     0.040 A 
ATOM     84  F   UNL A   1      48.707  27.938  27.872  1.00  0.00    -0.206 F 
ATOM     85  C   UNL A   1      50.787  26.285  30.334  1.00  0.00     0.006 A 
ENDBRANCH  61  78
ENDBRANCH  35  36
ENDBRANCH  27  30
ENDBRANCH  25  26
ENDBRANCH  24  25
ENDBRANCH   1  24
TORSDOF 14
ENDMDL
MODEL 3
REMARK VINA RESULT:     -10.7      4.746      8.379
REMARK SMILES Cc1cc(C(=O)NC[C@H]2CC[C@@H](C(=O)NCCCCNC(=O)c3ccc(-c4c5nc(c(-c6c(F)cccc6F)c6ccc([nH]6)c(-c6c(F)cccc6F)c6nc(c(-c7c(F)cccc7F)c7ccc4[nH]7)C=C6)C=C5)cc3)O2)c(C)s1
REMARK SMILES IDX 17 1 16 2 15 3 13 4 14 5 12 7 9 8 10 9 77 10 11 11 8 12 7 13
REMARK SMILES IDX 5 14 6 15 4 17 1 18 2 19 3 20 80 21 78 22 79 23 18 24 19 25
REMARK SMILES IDX 20 26 21 27 22 29 23 30 24 31 76 32 25 33 75 34 26 35 27 36
REMARK SMILES IDX 28 37 69 38 29 39 74 40 68 41 70 42 30 43 73 44 67 45 66 46
REMARK SMILES IDX 31 48 57 49 40 50 56 51 41 52 44 53 55 54 71 55 42 56 43 57
REMARK SMILES IDX 54 59 72 60 45 61 32 62 33 63 38 64 34 65 35 66 37 67 39 68
REMARK SMILES IDX 36 69 58 70 59 71 64 72 60 73 61 74 63 75 65 76 62 77 46 78
REMARK SMILES IDX 47 79 52 80 48 81 49 82 51 83 53 84 50 85
REMARK H PARENT 15 6 7 16 20 28 70 47 44 58
REMARK Flexibility Score: inf
ROOT
ATOM      1  C   UNL A   1      31.722  30.532  26.880  1.00  0.00     0.023 C 
ENDROOT
BRANCH   1   2
ATOM      2  C   UNL A   1      33.089  30.088  26.377  1.00  0.00     0.116 C 
BRANCH   2   3
ATOM      3  N   UNL A   1      33.121  29.880  24.946  1.00  0.00    -0.354 N 
ATOM      4  C   UNL A   1      32.424  28.994  24.174  1.00  0.00     0.249 C 
ATOM      5  O   UNL A   1      32.580  29.065  22.951  1.00  0.00    -0.272 OA
ATOM      6  H   UNL A   1      33.739  30.466  24.452  1.00  0.00     0.163 HD
BRANCH   4   7
ATOM      7  C   UNL A   1      31.445  27.962  24.771  1.00  0.00     0.207 C 
ATOM      8  C   UNL A   1      30.214  26.010  24.437  1.00  0.00     0.138 C 
ATOM      9  C   UNL A   1      30.974  25.882  25.759  1.00  0.00     0.037 C 
ATOM     10  O   UNL A   1      30.627  27.255  23.836  1.00  0.00    -0.363 OA
ATOM     11  C   UNL A   1      32.091  26.894  25.635  1.00  0.00     0.045 C 
BRANCH   8  12
ATOM     12  C   UNL A   1      30.563  24.865  23.488  1.00  0.00     0.148 C 
BRANCH  12  13
ATOM     13  N   UNL A   1      31.408  25.243  22.364  1.00  0.00    -0.349 N 
ATOM     14  C   UNL A   1      32.729  24.939  22.124  1.00  0.00     0.252 C 
ATOM     15  O   UNL A   1      33.262  25.412  21.122  1.00  0.00    -0.269 OA
ATOM     16  H   UNL A   1      30.971  25.794  21.675  1.00  0.00     0.163 HD
BRANCH  14  17
ATOM     17  C   UNL A   1      33.464  24.123  23.097  1.00  0.00     0.053 A 
ATOM     18  C   UNL A   1      36.703  23.640  24.882  1.00  0.00     0.056 C 
ATOM     19  C   UNL A   1      35.285  23.560  24.430  1.00  0.00     0.003 A 
ATOM     20  C   UNL A   1      34.463  24.586  24.028  1.00  0.00     0.029 A 
ATOM     21  S   UNL A   1      34.431  22.090  24.339  1.00  0.00    -0.145 S 
ATOM     22  C   UNL A   1      33.311  22.744  23.219  1.00  0.00     0.014 A 
ATOM     23  C   UNL A   1      32.425  21.800  22.469  1.00  0.00     0.057 C 
ENDBRANCH  14  17
ENDBRANCH  12  13
ENDBRANCH   8  12
ENDBRANCH   4   7
ENDBRANCH   2   3
ENDBRANCH   1   2
BRANCH   1  24
ATOM     24  C   UNL A   1      31.311  31.972  26.578  1.00  0.00     0.023 C 
BRANCH  24  25
ATOM     25  C   UNL A   1      32.408  33.036  26.564  1.00  0.00     0.116 C 
BRANCH  25  26
ATOM     26  N   UNL A   1      32.347  34.030  27.626  1.00  0.00    -0.352 N 
ATOM     27  C   UNL A   1      33.303  34.402  28.548  1.00  0.00     0.251 C 
ATOM     28  H   UNL A   1      31.492  34.511  27.696  1.00  0.00     0.163 HD
ATOM     29  O   UNL A   1      33.192  35.416  29.230  1.00  0.00    -0.269 OA
BRANCH  27  30
ATOM     30  C   UNL A   1      34.436  33.513  28.802  1.00  0.00     0.039 A 
ATOM     31  C   UNL A   1      35.718  34.075  28.841  1.00  0.00     0.014 A 
ATOM     32  C   UNL A   1      34.220  32.173  29.107  1.00  0.00     0.014 A 
ATOM     33  C   UNL A   1      36.780  33.314  29.310  1.00  0.00     0.010 A 
ATOM     34  C   UNL A   1      35.255  31.449  29.664  1.00  0.00     0.010 A 
ATOM     35  C   UNL A   1      36.535  32.019  29.783  1.00  0.00    -0.014 A 
BRANCH  35  36
ATOM     36  C   UNL A   1      37.592  31.208  30.417  1.00  0.00     0.031 A 
ATOM     37  C   UNL A   1      37.907  31.455  31.859  1.00  0.00     0.074 A 
ATOM     38  C   UNL A   1      38.341  30.389  29.657  1.00  0.00     0.049 A 
ATOM     39  N   UNL A   1      38.934  31.062  32.562  1.00  0.00    -0.248 NA
ATOM     40  C   UNL A   1      36.967  32.322  32.590  1.00  0.00     0.031 C 
ATOM     41  C   UNL A   1      38.142  30.135  28.227  1.00  0.00     0.029 A 
ATOM     42  N   UNL A   1      39.444  29.643  29.975  1.00  0.00    -0.354 N 
ATOM     43  C   UNL A   1      38.790  31.675  33.798  1.00  0.00     0.074 A 
ATOM     44  C   UNL A   1      37.610  32.509  33.731  1.00  0.00     0.031 C 
ATOM     45  C   UNL A   1      39.089  29.288  27.794  1.00  0.00     0.029 A 
ATOM     46  C   UNL A   1      39.981  28.973  28.903  1.00  0.00     0.049 A 
ATOM     47  H   UNL A   1      39.816  29.591  30.885  1.00  0.00     0.167 HD
ATOM     48  C   UNL A   1      39.565  31.532  34.897  1.00  0.00     0.037 A 
ATOM     49  C   UNL A   1      41.083  28.205  28.831  1.00  0.00     0.037 A 
ATOM     50  C   UNL A   1      40.704  30.656  34.945  1.00  0.00     0.049 A 
ATOM     51  C   UNL A   1      41.891  28.004  30.082  1.00  0.00     0.074 A 
ATOM     52  C   UNL A   1      41.530  30.365  36.014  1.00  0.00     0.029 A 
ATOM     53  N   UNL A   1      41.166  29.917  33.864  1.00  0.00    -0.354 N 
ATOM     54  N   UNL A   1      41.722  28.545  31.267  1.00  0.00    -0.248 NA
ATOM     55  C   UNL A   1      43.032  27.086  29.995  1.00  0.00     0.031 C 
ATOM     56  C   UNL A   1      42.506  29.465  35.573  1.00  0.00     0.029 A 
ATOM     57  C   UNL A   1      42.267  29.169  34.239  1.00  0.00     0.049 A 
ATOM     58  H   UNL A   1      40.768  29.923  32.963  1.00  0.00     0.167 HD
ATOM     59  C   UNL A   1      42.719  28.017  32.073  1.00  0.00     0.074 A 
ATOM     60  C   UNL A   1      43.480  27.101  31.244  1.00  0.00     0.031 C 
ATOM     61  C   UNL A   1      42.990  28.264  33.379  1.00  0.00     0.037 A 
BRANCH  48  62
ATOM     62  C   UNL A   1      39.193  32.340  36.106  1.00  0.00     0.057 A 
ATOM     63  C   UNL A   1      38.253  31.885  37.041  1.00  0.00     0.134 A 
ATOM     64  C   UNL A   1      39.750  33.608  36.320  1.00  0.00     0.134 A 
ATOM     65  F   UNL A   1      37.664  30.688  36.887  1.00  0.00    -0.206 F 
ATOM     66  C   UNL A   1      37.844  32.678  38.116  1.00  0.00     0.040 A 
ATOM     67  C   UNL A   1      39.372  34.397  37.409  1.00  0.00     0.040 A 
ATOM     68  F   UNL A   1      40.655  34.108  35.466  1.00  0.00    -0.206 F 
ATOM     69  C   UNL A   1      38.407  33.938  38.303  1.00  0.00     0.006 A 
ENDBRANCH  48  62
BRANCH  49  70
ATOM     70  C   UNL A   1      41.454  27.553  27.550  1.00  0.00     0.057 A 
ATOM     71  C   UNL A   1      40.998  26.266  27.240  1.00  0.00     0.134 A 
ATOM     72  C   UNL A   1      42.239  28.205  26.590  1.00  0.00     0.134 A 
ATOM     73  F   UNL A   1      40.251  25.586  28.123  1.00  0.00    -0.206 F 
ATOM     74  C   UNL A   1      41.319  25.645  26.032  1.00  0.00     0.040 A 
ATOM     75  C   UNL A   1      42.550  27.604  25.369  1.00  0.00     0.040 A 
ATOM     76  F   UNL A   1      42.695  29.444  26.818  1.00  0.00    -0.206 F 
ATOM     77  C   UNL A   1      42.093  26.317  25.089  1.00  0.00     0.006 A 
ENDBRANCH  49  70
BRANCH  61  78
ATOM     78  C   UNL A   1      44.136  27.513  33.984  1.00  0.00     0.057 A 
ATOM     79  C   UNL A   1      43.967  26.243  34.548  1.00  0.00     0.134 A 
ATOM     80  C   UNL A   1      45.429  28.047  33.954  1.00  0.00     0.134 A 
ATOM     81  F   UNL A   1      42.748  25.686  34.617  1.00  0.00    -0.206 F 
ATOM     82  C   UNL A   1      45.046  25.537  35.080  1.00  0.00     0.040 A 
ATOM     83  C   UNL A   1      46.519  27.340  34.459  1.00  0.00     0.040 A 
ATOM     84  F   UNL A   1      45.655  29.256  33.417  1.00  0.00    -0.206 F 
ATOM     85  C   UNL A   1      46.328  26.082  35.029  1.00  0.00     0.006 A 
ENDBRANCH  61  78
ENDBRANCH  35  36
ENDBRANCH  27  30
ENDBRANCH  25  26
ENDBRANCH  24  25
ENDBRANCH   1  24
TORSDOF 14
ENDMDL
