MODEL 1
REMARK VINA RESULT:     -13.2      0.000      0.000
REMARK SMILES O=C(NCCCCNC(=O)C1(Cc2ccccc2Cl)CCN(c2ncnc3[nH]ccc23)CC1)c1ccc(-c2c3nc(c(-c4c(F)cccc4F)c4ccc([nH]4)c(-c4c(F)cccc4F)c4nc(c(-c5c(F)cccc5F)c5ccc2[nH]5)C=C4)C=C3)cc1
REMARK SMILES IDX 5 1 4 2 3 3 1 4 2 5 34 7 35 8 87 9 36 10 86 11 37 12 38 13
REMARK SMILES IDX 39 14 80 15 40 16 85 17 79 18 81 19 41 20 84 21 78 22 77 23
REMARK SMILES IDX 42 25 68 26 51 27 67 28 52 29 55 30 66 31 82 32 53 33 54 34
REMARK SMILES IDX 65 36 83 37 56 38 43 39 44 40 49 41 45 42 46 43 48 44 50 45
REMARK SMILES IDX 47 46 69 47 70 48 75 49 71 50 72 51 74 52 76 53 73 54 57 55
REMARK SMILES IDX 58 56 63 57 59 58 60 59 62 60 64 61 61 62 6 63 7 64 8 65
REMARK SMILES IDX 9 66 10 68 11 69 20 70 33 71 21 72 32 73 22 74 12 75 13 76
REMARK SMILES IDX 14 77 18 78 15 79 17 80 19 81 16 82 23 83 24 84 31 85 25 86
REMARK SMILES IDX 27 87 30 88 26 89 28 90 29 91
REMARK H PARENT 3 6 81 24 55 35 8 67 28 92
REMARK Flexibility Score: inf
ROOT
ATOM      1  C   UNL A   1      37.745  19.944  24.624  1.00  0.00     0.023 C 
ENDROOT
BRANCH   1   2
ATOM      2  C   UNL A   1      38.717  20.118  25.775  1.00  0.00     0.116 C 
BRANCH   2   3
ATOM      3  N   UNL A   1      39.827  19.176  25.754  1.00  0.00    -0.352 N 
ATOM      4  O   UNL A   1      42.005  18.582  25.980  1.00  0.00    -0.269 OA
ATOM      5  C   UNL A   1      41.135  19.427  26.103  1.00  0.00     0.251 C 
ATOM      6  H   UNL A   1      39.621  18.260  25.456  1.00  0.00     0.163 HD
BRANCH   5   7
ATOM      7  C   UNL A   1      41.454  20.779  26.593  1.00  0.00     0.039 A 
ATOM      8  C   UNL A   1      41.888  21.753  25.691  1.00  0.00     0.014 A 
ATOM      9  C   UNL A   1      41.417  21.030  27.966  1.00  0.00     0.014 A 
ATOM     10  C   UNL A   1      42.409  22.942  26.174  1.00  0.00     0.010 A 
ATOM     11  C   UNL A   1      41.854  22.264  28.442  1.00  0.00     0.010 A 
ATOM     12  C   UNL A   1      42.365  23.221  27.549  1.00  0.00    -0.014 A 
BRANCH  12  13
ATOM     13  C   UNL A   1      42.723  24.578  28.013  1.00  0.00     0.031 A 
ATOM     14  C   UNL A   1      41.677  25.609  28.312  1.00  0.00     0.074 A 
ATOM     15  C   UNL A   1      44.033  24.857  28.146  1.00  0.00     0.049 A 
ATOM     16  N   UNL A   1      41.841  26.856  28.669  1.00  0.00    -0.248 NA
ATOM     17  C   UNL A   1      40.270  25.198  28.189  1.00  0.00     0.031 C 
ATOM     18  C   UNL A   1      45.125  23.920  27.858  1.00  0.00     0.029 A 
ATOM     19  N   UNL A   1      44.674  25.996  28.553  1.00  0.00    -0.354 N 
ATOM     20  C   UNL A   1      40.565  27.390  28.783  1.00  0.00     0.074 A 
ATOM     21  C   UNL A   1      39.632  26.331  28.459  1.00  0.00     0.031 C 
ATOM     22  C   UNL A   1      46.296  24.511  28.124  1.00  0.00     0.029 A 
ATOM     23  C   UNL A   1      46.042  25.888  28.524  1.00  0.00     0.049 A 
ATOM     24  H   UNL A   1      44.201  26.811  28.837  1.00  0.00     0.167 HD
ATOM     25  C   UNL A   1      40.217  28.652  29.127  1.00  0.00     0.037 A 
ATOM     26  C   UNL A   1      46.994  26.809  28.751  1.00  0.00     0.037 A 
ATOM     27  C   UNL A   1      41.163  29.681  29.479  1.00  0.00     0.049 A 
ATOM     28  C   UNL A   1      46.573  28.200  29.107  1.00  0.00     0.074 A 
ATOM     29  C   UNL A   1      40.911  30.965  29.928  1.00  0.00     0.029 A 
ATOM     30  N   UNL A   1      42.541  29.545  29.409  1.00  0.00    -0.354 N 
ATOM     31  N   UNL A   1      45.362  28.678  29.261  1.00  0.00    -0.248 NA
ATOM     32  C   UNL A   1      47.643  29.184  29.300  1.00  0.00     0.031 C 
ATOM     33  C   UNL A   1      42.136  31.621  30.086  1.00  0.00     0.029 A 
ATOM     34  C   UNL A   1      43.152  30.735  29.769  1.00  0.00     0.049 A 
ATOM     35  H   UNL A   1      43.015  28.724  29.143  1.00  0.00     0.167 HD
ATOM     36  C   UNL A   1      45.521  30.020  29.563  1.00  0.00     0.074 A 
ATOM     37  C   UNL A   1      46.948  30.273  29.602  1.00  0.00     0.031 C 
ATOM     38  C   UNL A   1      44.573  30.963  29.778  1.00  0.00     0.037 A 
BRANCH  25  39
ATOM     39  C   UNL A   1      38.762  29.014  29.125  1.00  0.00     0.057 A 
ATOM     40  C   UNL A   1      37.970  28.911  30.275  1.00  0.00     0.134 A 
ATOM     41  C   UNL A   1      38.172  29.564  27.980  1.00  0.00     0.134 A 
ATOM     42  F   UNL A   1      38.474  28.387  31.402  1.00  0.00    -0.206 F 
ATOM     43  C   UNL A   1      36.642  29.343  30.285  1.00  0.00     0.040 A 
ATOM     44  C   UNL A   1      36.850  30.014  27.982  1.00  0.00     0.040 A 
ATOM     45  F   UNL A   1      38.879  29.695  26.847  1.00  0.00    -0.206 F 
ATOM     46  C   UNL A   1      36.081  29.904  29.139  1.00  0.00     0.006 A 
ENDBRANCH  25  39
BRANCH  26  47
ATOM     47  C   UNL A   1      48.421  26.444  28.589  1.00  0.00     0.057 A 
ATOM     48  C   UNL A   1      49.157  25.903  29.646  1.00  0.00     0.134 A 
ATOM     49  C   UNL A   1      49.072  26.603  27.358  1.00  0.00     0.134 A 
ATOM     50  F   UNL A   1      48.590  25.740  30.850  1.00  0.00    -0.206 F 
ATOM     51  C   UNL A   1      50.495  25.538  29.489  1.00  0.00     0.040 A 
ATOM     52  C   UNL A   1      50.400  26.218  27.180  1.00  0.00     0.040 A 
ATOM     53  F   UNL A   1      48.415  27.107  26.303  1.00  0.00    -0.206 F 
ATOM     54  C   UNL A   1      51.117  25.689  28.250  1.00  0.00     0.006 A 
ENDBRANCH  26  47
BRANCH  38  55
ATOM     55  C   UNL A   1      45.062  32.349  30.059  1.00  0.00     0.057 A 
ATOM     56  C   UNL A   1      45.375  32.758  31.361  1.00  0.00     0.134 A 
ATOM     57  C   UNL A   1      45.239  33.273  29.024  1.00  0.00     0.134 A 
ATOM     58  F   UNL A   1      45.206  31.921  32.396  1.00  0.00    -0.206 F 
ATOM     59  C   UNL A   1      45.832  34.048  31.626  1.00  0.00     0.040 A 
ATOM     60  C   UNL A   1      45.715  34.559  29.273  1.00  0.00     0.040 A 
ATOM     61  F   UNL A   1      44.959  32.937  27.755  1.00  0.00    -0.206 F 
ATOM     62  C   UNL A   1      46.008  34.952  30.578  1.00  0.00     0.006 A 
ENDBRANCH  38  55
ENDBRANCH  12  13
ENDBRANCH   5   7
ENDBRANCH   2   3
ENDBRANCH   1   2
BRANCH   1  63
ATOM     63  C   UNL A   1      36.299  20.256  24.987  1.00  0.00     0.023 C 
BRANCH  63  64
ATOM     64  C   UNL A   1      36.101  21.566  25.757  1.00  0.00     0.116 C 
BRANCH  64  65
ATOM     65  N   UNL A   1      34.997  21.432  26.676  1.00  0.00    -0.356 N 
ATOM     66  C   UNL A   1      33.715  21.859  26.642  1.00  0.00     0.226 C 
ATOM     67  H   UNL A   1      35.222  20.928  27.491  1.00  0.00     0.163 HD
ATOM     68  O   UNL A   1      33.212  22.023  27.764  1.00  0.00    -0.274 OA
BRANCH  66  69
ATOM     69  C   UNL A   1      32.826  22.012  25.386  1.00  0.00     0.057 C 
ATOM     70  C   UNL A   1      33.440  22.299  24.004  1.00  0.00     0.039 C 
ATOM     71  C   UNL A   1      31.849  23.198  25.693  1.00  0.00     0.039 C 
ATOM     72  C   UNL A   1      34.048  23.683  23.847  1.00  0.00     0.119 C 
ATOM     73  C   UNL A   1      32.547  24.562  25.598  1.00  0.00     0.119 C 
ATOM     74  N   UNL A   1      33.092  24.699  24.249  1.00  0.00    -0.356 N 
BRANCH  69  75
ATOM     75  C   UNL A   1      31.965  20.697  25.305  1.00  0.00     0.054 C 
BRANCH  75  76
ATOM     76  C   UNL A   1      32.579  19.516  24.566  1.00  0.00    -0.028 A 
ATOM     77  C   UNL A   1      33.272  18.542  25.315  1.00  0.00     0.005 A 
ATOM     78  C   UNL A   1      32.509  19.341  23.175  1.00  0.00     0.044 A 
ATOM     79  C   UNL A   1      33.830  17.415  24.708  1.00  0.00     0.000 A 
ATOM     80  C   UNL A   1      33.070  18.209  22.568  1.00  0.00     0.021 A 
ATOM     81  Cl  UNL A   1      31.786  20.503  22.124  1.00  0.00    -0.084 Cl
ATOM     82  C   UNL A   1      33.722  17.244  23.334  1.00  0.00     0.002 A 
ENDBRANCH  75  76
ENDBRANCH  69  75
BRANCH  74  83
ATOM     83  C   UNL A   1      33.411  25.982  23.809  1.00  0.00     0.141 A 
ATOM     84  N   UNL A   1      33.482  26.257  22.482  1.00  0.00    -0.219 NA
ATOM     85  C   UNL A   1      33.654  27.045  24.706  1.00  0.00     0.061 A 
ATOM     86  C   UNL A   1      33.732  27.524  22.092  1.00  0.00     0.226 A 
ATOM     87  C   UNL A   1      33.892  28.295  24.160  1.00  0.00     0.142 A 
ATOM     88  C   UNL A   1      33.740  27.201  26.122  1.00  0.00     0.033 A 
ATOM     89  N   UNL A   1      33.936  28.610  22.858  1.00  0.00    -0.218 NA
ATOM     90  N   UNL A   1      34.076  29.183  25.186  1.00  0.00    -0.346 N 
ATOM     91  C   UNL A   1      33.984  28.530  26.389  1.00  0.00     0.085 A 
ATOM     92  H   UNL A   1      34.249  30.146  25.077  1.00  0.00     0.167 HD
ENDBRANCH  74  83
ENDBRANCH  66  69
ENDBRANCH  64  65
ENDBRANCH  63  64
ENDBRANCH   1  63
TORSDOF 14
ENDMDL
MODEL 2
REMARK VINA RESULT:     -13.1      4.817      9.885
REMARK SMILES O=C(NCCCCNC(=O)C1(Cc2ccccc2Cl)CCN(c2ncnc3[nH]ccc23)CC1)c1ccc(-c2c3nc(c(-c4c(F)cccc4F)c4ccc([nH]4)c(-c4c(F)cccc4F)c4nc(c(-c5c(F)cccc5F)c5ccc2[nH]5)C=C4)C=C3)cc1
REMARK SMILES IDX 5 1 4 2 3 3 1 4 2 5 34 7 35 8 87 9 36 10 86 11 37 12 38 13
REMARK SMILES IDX 39 14 80 15 40 16 85 17 79 18 81 19 41 20 84 21 78 22 77 23
REMARK SMILES IDX 42 25 68 26 51 27 67 28 52 29 55 30 66 31 82 32 53 33 54 34
REMARK SMILES IDX 65 36 83 37 56 38 43 39 44 40 49 41 45 42 46 43 48 44 50 45
REMARK SMILES IDX 47 46 69 47 70 48 75 49 71 50 72 51 74 52 76 53 73 54 57 55
REMARK SMILES IDX 58 56 63 57 59 58 60 59 62 60 64 61 61 62 6 63 7 64 8 65
REMARK SMILES IDX 9 66 10 68 11 69 20 70 33 71 21 72 32 73 22 74 12 75 13 76
REMARK SMILES IDX 14 77 18 78 15 79 17 80 19 81 16 82 23 83 24 84 31 85 25 86
REMARK SMILES IDX 27 87 30 88 26 89 28 90 29 91
REMARK H PARENT 3 6 81 24 55 35 8 67 28 92
REMARK Flexibility Score: inf
ROOT
ATOM      1  C   UNL A   1      31.313  31.877  26.129  1.00  0.00     0.023 C 
ENDROOT
BRANCH   1   2
ATOM      2  C   UNL A   1      32.438  32.394  27.005  1.00  0.00     0.116 C 
BRANCH   2   3
ATOM      3  N   UNL A   1      32.242  33.761  27.466  1.00  0.00    -0.352 N 
ATOM      4  O   UNL A   1      32.722  35.573  28.745  1.00  0.00    -0.269 OA
ATOM      5  C   UNL A   1      33.016  34.450  28.373  1.00  0.00     0.251 C 
ATOM      6  H   UNL A   1      31.472  34.246  27.090  1.00  0.00     0.163 HD
BRANCH   5   7
ATOM      7  C   UNL A   1      34.200  33.757  28.912  1.00  0.00     0.039 A 
ATOM      8  C   UNL A   1      34.028  32.704  29.814  1.00  0.00     0.014 A 
ATOM      9  C   UNL A   1      35.472  34.236  28.593  1.00  0.00     0.014 A 
ATOM     10  C   UNL A   1      35.126  32.209  30.497  1.00  0.00     0.010 A 
ATOM     11  C   UNL A   1      36.584  33.672  29.214  1.00  0.00     0.010 A 
ATOM     12  C   UNL A   1      36.415  32.665  30.179  1.00  0.00    -0.014 A 
BRANCH  12  13
ATOM     13  C   UNL A   1      37.582  31.969  30.762  1.00  0.00     0.031 A 
ATOM     14  C   UNL A   1      38.345  30.934  29.995  1.00  0.00     0.074 A 
ATOM     15  C   UNL A   1      37.926  32.297  32.022  1.00  0.00     0.049 A 
ATOM     16  N   UNL A   1      39.350  30.199  30.396  1.00  0.00    -0.248 NA
ATOM     17  C   UNL A   1      37.929  30.679  28.607  1.00  0.00     0.031 C 
ATOM     18  C   UNL A   1      37.227  33.282  32.855  1.00  0.00     0.029 A 
ATOM     19  N   UNL A   1      38.939  31.847  32.824  1.00  0.00    -0.354 N 
ATOM     20  C   UNL A   1      39.668  29.373  29.326  1.00  0.00     0.074 A 
ATOM     21  C   UNL A   1      38.750  29.696  28.254  1.00  0.00     0.031 C 
ATOM     22  C   UNL A   1      37.849  33.383  34.037  1.00  0.00     0.029 A 
ATOM     23  C   UNL A   1      38.937  32.416  34.073  1.00  0.00     0.049 A 
ATOM     24  H   UNL A   1      39.604  31.181  32.534  1.00  0.00     0.167 HD
ATOM     25  C   UNL A   1      40.640  28.433  29.259  1.00  0.00     0.037 A 
ATOM     26  C   UNL A   1      39.698  32.158  35.150  1.00  0.00     0.037 A 
ATOM     27  C   UNL A   1      41.564  28.152  30.328  1.00  0.00     0.049 A 
ATOM     28  C   UNL A   1      40.748  31.097  35.046  1.00  0.00     0.074 A 
ATOM     29  C   UNL A   1      42.642  27.284  30.329  1.00  0.00     0.029 A 
ATOM     30  N   UNL A   1      41.513  28.727  31.589  1.00  0.00    -0.354 N 
ATOM     31  N   UNL A   1      41.072  30.359  34.012  1.00  0.00    -0.248 NA
ATOM     32  C   UNL A   1      41.524  30.816  36.259  1.00  0.00     0.031 C 
ATOM     33  C   UNL A   1      43.214  27.298  31.606  1.00  0.00     0.029 A 
ATOM     34  C   UNL A   1      42.514  28.201  32.389  1.00  0.00     0.049 A 
ATOM     35  H   UNL A   1      40.861  29.407  31.874  1.00  0.00     0.167 HD
ATOM     36  C   UNL A   1      42.084  29.522  34.448  1.00  0.00     0.074 A 
ATOM     37  C   UNL A   1      42.343  29.864  35.833  1.00  0.00     0.031 C 
ATOM     38  C   UNL A   1      42.735  28.547  33.769  1.00  0.00     0.037 A 
BRANCH  25  39
ATOM     39  C   UNL A   1      40.755  27.619  28.006  1.00  0.00     0.057 A 
ATOM     40  C   UNL A   1      41.563  28.016  26.934  1.00  0.00     0.134 A 
ATOM     41  C   UNL A   1      40.124  26.372  27.913  1.00  0.00     0.134 A 
ATOM     42  F   UNL A   1      42.189  29.202  26.958  1.00  0.00    -0.206 F 
ATOM     43  C   UNL A   1      41.737  27.201  25.813  1.00  0.00     0.040 A 
ATOM     44  C   UNL A   1      40.303  25.541  26.805  1.00  0.00     0.040 A 
ATOM     45  F   UNL A   1      39.340  25.930  28.910  1.00  0.00    -0.206 F 
ATOM     46  C   UNL A   1      41.113  25.956  25.751  1.00  0.00     0.006 A 
ENDBRANCH  25  39
BRANCH  26  47
ATOM     47  C   UNL A   1      39.444  32.882  36.417  1.00  0.00     0.057 A 
ATOM     48  C   UNL A   1      40.133  34.056  36.734  1.00  0.00     0.134 A 
ATOM     49  C   UNL A   1      38.482  32.428  37.329  1.00  0.00     0.134 A 
ATOM     50  F   UNL A   1      41.075  34.531  35.905  1.00  0.00    -0.206 F 
ATOM     51  C   UNL A   1      39.880  34.752  37.917  1.00  0.00     0.040 A 
ATOM     52  C   UNL A   1      38.199  33.128  38.502  1.00  0.00     0.040 A 
ATOM     53  F   UNL A   1      37.780  31.314  37.076  1.00  0.00    -0.206 F 
ATOM     54  C   UNL A   1      38.904  34.291  38.801  1.00  0.00     0.006 A 
ENDBRANCH  26  47
BRANCH  38  55
ATOM     55  C   UNL A   1      43.774  27.784  34.528  1.00  0.00     0.057 A 
ATOM     56  C   UNL A   1      45.088  28.255  34.632  1.00  0.00     0.134 A 
ATOM     57  C   UNL A   1      43.457  26.585  35.174  1.00  0.00     0.134 A 
ATOM     58  F   UNL A   1      45.455  29.390  34.016  1.00  0.00    -0.206 F 
ATOM     59  C   UNL A   1      46.059  27.547  35.339  1.00  0.00     0.040 A 
ATOM     60  C   UNL A   1      44.413  25.878  35.902  1.00  0.00     0.040 A 
ATOM     61  F   UNL A   1      42.213  26.085  35.113  1.00  0.00    -0.206 F 
ATOM     62  C   UNL A   1      45.721  26.356  35.983  1.00  0.00     0.006 A 
ENDBRANCH  38  55
ENDBRANCH  12  13
ENDBRANCH   5   7
ENDBRANCH   2   3
ENDBRANCH   1   2
BRANCH   1  63
ATOM     63  C   UNL A   1      31.317  30.364  25.950  1.00  0.00     0.023 C 
BRANCH  63  64
ATOM     64  C   UNL A   1      32.699  29.755  25.690  1.00  0.00     0.116 C 
BRANCH  64  65
ATOM     65  N   UNL A   1      32.951  29.703  24.270  1.00  0.00    -0.356 N 
ATOM     66  C   UNL A   1      32.772  28.740  23.338  1.00  0.00     0.226 C 
ATOM     67  H   UNL A   1      33.329  30.536  23.906  1.00  0.00     0.163 HD
ATOM     68  O   UNL A   1      33.541  28.831  22.370  1.00  0.00    -0.274 OA
BRANCH  66  69
ATOM     69  C   UNL A   1      31.648  27.677  23.315  1.00  0.00     0.057 C 
ATOM     70  C   UNL A   1      30.897  27.280  24.599  1.00  0.00     0.039 C 
ATOM     71  C   UNL A   1      32.308  26.367  22.764  1.00  0.00     0.039 C 
ATOM     72  C   UNL A   1      31.724  26.508  25.613  1.00  0.00     0.119 C 
ATOM     73  C   UNL A   1      33.195  25.681  23.812  1.00  0.00     0.119 C 
ATOM     74  N   UNL A   1      32.366  25.373  24.975  1.00  0.00    -0.356 N 
BRANCH  69  75
ATOM     75  C   UNL A   1      30.609  28.173  22.242  1.00  0.00     0.054 C 
BRANCH  75  76
ATOM     76  C   UNL A   1      29.549  29.158  22.713  1.00  0.00    -0.028 A 
ATOM     77  C   UNL A   1      29.830  30.539  22.629  1.00  0.00     0.005 A 
ATOM     78  C   UNL A   1      28.306  28.777  23.242  1.00  0.00     0.044 A 
ATOM     79  C   UNL A   1      28.891  31.499  23.010  1.00  0.00     0.000 A 
ATOM     80  C   UNL A   1      27.366  29.743  23.624  1.00  0.00     0.021 A 
ATOM     81  Cl  UNL A   1      27.869  27.128  23.501  1.00  0.00    -0.084 Cl
ATOM     82  C   UNL A   1      27.654  31.102  23.501  1.00  0.00     0.002 A 
ENDBRANCH  75  76
ENDBRANCH  69  75
BRANCH  74  83
ATOM     83  C   UNL A   1      32.840  24.414  25.869  1.00  0.00     0.141 A 
ATOM     84  N   UNL A   1      31.989  23.789  26.722  1.00  0.00    -0.219 NA
ATOM     85  C   UNL A   1      34.201  24.041  25.919  1.00  0.00     0.061 A 
ATOM     86  C   UNL A   1      32.472  22.822  27.530  1.00  0.00     0.226 A 
ATOM     87  C   UNL A   1      34.549  23.027  26.795  1.00  0.00     0.142 A 
ATOM     88  C   UNL A   1      35.407  24.453  25.279  1.00  0.00     0.033 A 
ATOM     89  N   UNL A   1      33.733  22.365  27.627  1.00  0.00    -0.218 NA
ATOM     90  N   UNL A   1      35.894  22.800  26.675  1.00  0.00    -0.346 N 
ATOM     91  C   UNL A   1      36.431  23.661  25.751  1.00  0.00     0.085 A 
ATOM     92  H   UNL A   1      36.400  22.120  27.175  1.00  0.00     0.167 HD
ENDBRANCH  74  83
ENDBRANCH  66  69
ENDBRANCH  64  65
ENDBRANCH  63  64
ENDBRANCH   1  63
TORSDOF 14
ENDMDL
MODEL 3
REMARK VINA RESULT:     -12.9      0.674      6.073
REMARK SMILES O=C(NCCCCNC(=O)C1(Cc2ccccc2Cl)CCN(c2ncnc3[nH]ccc23)CC1)c1ccc(-c2c3nc(c(-c4c(F)cccc4F)c4ccc([nH]4)c(-c4c(F)cccc4F)c4nc(c(-c5c(F)cccc5F)c5ccc2[nH]5)C=C4)C=C3)cc1
REMARK SMILES IDX 5 1 4 2 3 3 1 4 2 5 34 7 35 8 87 9 36 10 86 11 37 12 38 13
REMARK SMILES IDX 39 14 80 15 40 16 85 17 79 18 81 19 41 20 84 21 78 22 77 23
REMARK SMILES IDX 42 25 68 26 51 27 67 28 52 29 55 30 66 31 82 32 53 33 54 34
REMARK SMILES IDX 65 36 83 37 56 38 43 39 44 40 49 41 45 42 46 43 48 44 50 45
REMARK SMILES IDX 47 46 69 47 70 48 75 49 71 50 72 51 74 52 76 53 73 54 57 55
REMARK SMILES IDX 58 56 63 57 59 58 60 59 62 60 64 61 61 62 6 63 7 64 8 65
REMARK SMILES IDX 9 66 10 68 11 69 20 70 33 71 21 72 32 73 22 74 12 75 13 76
REMARK SMILES IDX 14 77 18 78 15 79 17 80 19 81 16 82 23 83 24 84 31 85 25 86
REMARK SMILES IDX 27 87 30 88 26 89 28 90 29 91
REMARK H PARENT 3 6 81 24 55 35 8 67 28 92
REMARK Flexibility Score: inf
ROOT
ATOM      1  C   UNL A   1      37.683  19.830  25.059  1.00  0.00     0.023 C 
ENDROOT
BRANCH   1   2
ATOM      2  C   UNL A   1      38.992  20.277  25.682  1.00  0.00     0.116 C 
BRANCH   2   3
ATOM      3  N   UNL A   1      40.009  19.235  25.724  1.00  0.00    -0.352 N 
ATOM      4  O   UNL A   1      42.113  18.448  26.041  1.00  0.00    -0.269 OA
ATOM      5  C   UNL A   1      41.322  19.373  26.111  1.00  0.00     0.251 C 
ATOM      6  H   UNL A   1      39.726  18.334  25.443  1.00  0.00     0.163 HD
BRANCH   5   7
ATOM      7  C   UNL A   1      41.752  20.704  26.577  1.00  0.00     0.039 A 
ATOM      8  C   UNL A   1      41.614  21.037  27.926  1.00  0.00     0.014 A 
ATOM      9  C   UNL A   1      42.190  21.643  25.641  1.00  0.00     0.014 A 
ATOM     10  C   UNL A   1      41.794  22.352  28.323  1.00  0.00     0.010 A 
ATOM     11  C   UNL A   1      42.461  22.943  26.061  1.00  0.00     0.010 A 
ATOM     12  C   UNL A   1      42.251  23.307  27.401  1.00  0.00    -0.014 A 
BRANCH  12  13
ATOM     13  C   UNL A   1      42.643  24.644  27.895  1.00  0.00     0.031 A 
ATOM     14  C   UNL A   1      44.066  24.971  28.235  1.00  0.00     0.074 A 
ATOM     15  C   UNL A   1      41.665  25.558  28.040  1.00  0.00     0.049 A 
ATOM     16  N   UNL A   1      44.550  26.078  28.735  1.00  0.00    -0.248 NA
ATOM     17  C   UNL A   1      45.074  23.927  27.997  1.00  0.00     0.031 C 
ATOM     18  C   UNL A   1      40.246  25.322  27.751  1.00  0.00     0.029 A 
ATOM     19  N   UNL A   1      41.704  26.860  28.460  1.00  0.00    -0.354 N 
ATOM     20  C   UNL A   1      45.910  25.858  28.900  1.00  0.00     0.074 A 
ATOM     21  C   UNL A   1      46.179  24.510  28.447  1.00  0.00     0.031 C 
ATOM     22  C   UNL A   1      39.557  26.447  27.975  1.00  0.00     0.029 A 
ATOM     23  C   UNL A   1      40.469  27.456  28.495  1.00  0.00     0.049 A 
ATOM     24  H   UNL A   1      42.536  27.322  28.713  1.00  0.00     0.167 HD
ATOM     25  C   UNL A   1      46.839  26.712  29.390  1.00  0.00     0.037 A 
ATOM     26  C   UNL A   1      40.099  28.668  28.941  1.00  0.00     0.037 A 
ATOM     27  C   UNL A   1      46.554  28.063  29.804  1.00  0.00     0.049 A 
ATOM     28  C   UNL A   1      41.150  29.578  29.496  1.00  0.00     0.074 A 
ATOM     29  C   UNL A   1      47.439  29.039  30.228  1.00  0.00     0.029 A 
ATOM     30  N   UNL A   1      45.286  28.622  29.854  1.00  0.00    -0.354 N 
ATOM     31  N   UNL A   1      42.441  29.376  29.599  1.00  0.00    -0.248 NA
ATOM     32  C   UNL A   1      40.695  30.872  30.014  1.00  0.00     0.031 C 
ATOM     33  C   UNL A   1      46.700  30.174  30.581  1.00  0.00     0.029 A 
ATOM     34  C   UNL A   1      45.361  29.917  30.342  1.00  0.00     0.049 A 
ATOM     35  H   UNL A   1      44.456  28.167  29.584  1.00  0.00     0.167 HD
ATOM     36  C   UNL A   1      42.954  30.512  30.200  1.00  0.00     0.074 A 
ATOM     37  C   UNL A   1      41.838  31.415  30.409  1.00  0.00     0.031 C 
ATOM     38  C   UNL A   1      44.232  30.784  30.558  1.00  0.00     0.037 A 
BRANCH  25  39
ATOM     39  C   UNL A   1      48.250  26.224  29.529  1.00  0.00     0.057 A 
ATOM     40  C   UNL A   1      49.181  26.336  28.490  1.00  0.00     0.134 A 
ATOM     41  C   UNL A   1      48.706  25.724  30.756  1.00  0.00     0.134 A 
ATOM     42  F   UNL A   1      48.806  26.801  27.289  1.00  0.00    -0.206 F 
ATOM     43  C   UNL A   1      50.516  25.966  28.666  1.00  0.00     0.040 A 
ATOM     44  C   UNL A   1      50.042  25.366  30.949  1.00  0.00     0.040 A 
ATOM     45  F   UNL A   1      47.865  25.597  31.794  1.00  0.00    -0.206 F 
ATOM     46  C   UNL A   1      50.952  25.488  29.900  1.00  0.00     0.006 A 
ENDBRANCH  25  39
BRANCH  26  47
ATOM     47  C   UNL A   1      38.667  29.049  28.927  1.00  0.00     0.057 A 
ATOM     48  C   UNL A   1      37.869  28.919  30.067  1.00  0.00     0.134 A 
ATOM     49  C   UNL A   1      38.072  29.582  27.775  1.00  0.00     0.134 A 
ATOM     50  F   UNL A   1      38.381  28.404  31.195  1.00  0.00    -0.206 F 
ATOM     51  C   UNL A   1      36.526  29.298  30.062  1.00  0.00     0.040 A 
ATOM     52  C   UNL A   1      36.738  29.989  27.765  1.00  0.00     0.040 A 
ATOM     53  F   UNL A   1      38.788  29.741  26.653  1.00  0.00    -0.206 F 
ATOM     54  C   UNL A   1      35.960  29.842  28.910  1.00  0.00     0.006 A 
ENDBRANCH  26  47
BRANCH  38  55
ATOM     55  C   UNL A   1      44.474  32.103  31.221  1.00  0.00     0.057 A 
ATOM     56  C   UNL A   1      44.732  33.256  30.471  1.00  0.00     0.134 A 
ATOM     57  C   UNL A   1      44.430  32.226  32.614  1.00  0.00     0.134 A 
ATOM     58  F   UNL A   1      44.806  33.193  29.132  1.00  0.00    -0.206 F 
ATOM     59  C   UNL A   1      44.957  34.487  31.085  1.00  0.00     0.040 A 
ATOM     60  C   UNL A   1      44.631  33.456  33.240  1.00  0.00     0.040 A 
ATOM     61  F   UNL A   1      44.183  31.157  33.386  1.00  0.00    -0.206 F 
ATOM     62  C   UNL A   1      44.901  34.590  32.475  1.00  0.00     0.006 A 
ENDBRANCH  38  55
ENDBRANCH  12  13
ENDBRANCH   5   7
ENDBRANCH   2   3
ENDBRANCH   1   2
BRANCH   1  63
ATOM     63  C   UNL A   1      36.849  20.972  24.493  1.00  0.00     0.023 C 
BRANCH  63  64
ATOM     64  C   UNL A   1      36.446  22.038  25.518  1.00  0.00     0.116 C 
BRANCH  64  65
ATOM     65  N   UNL A   1      35.459  21.498  26.423  1.00  0.00    -0.356 N 
ATOM     66  C   UNL A   1      34.114  21.608  26.489  1.00  0.00     0.226 C 
ATOM     67  H   UNL A   1      35.843  20.937  27.134  1.00  0.00     0.163 HD
ATOM     68  O   UNL A   1      33.656  21.464  27.631  1.00  0.00    -0.274 OA
BRANCH  66  69
ATOM     69  C   UNL A   1      33.140  21.747  25.295  1.00  0.00     0.057 C 
ATOM     70  C   UNL A   1      33.653  22.072  23.880  1.00  0.00     0.039 C 
ATOM     71  C   UNL A   1      32.148  22.896  25.682  1.00  0.00     0.039 C 
ATOM     72  C   UNL A   1      34.204  23.476  23.704  1.00  0.00     0.119 C 
ATOM     73  C   UNL A   1      32.794  24.283  25.561  1.00  0.00     0.119 C 
ATOM     74  N   UNL A   1      33.244  24.455  24.182  1.00  0.00    -0.356 N 
BRANCH  69  75
ATOM     75  C   UNL A   1      32.319  20.405  25.251  1.00  0.00     0.054 C 
BRANCH  75  76
ATOM     76  C   UNL A   1      32.936  19.244  24.484  1.00  0.00    -0.028 A 
ATOM     77  C   UNL A   1      33.802  18.369  25.173  1.00  0.00     0.005 A 
ATOM     78  C   UNL A   1      32.707  18.996  23.121  1.00  0.00     0.044 A 
ATOM     79  C   UNL A   1      34.376  17.263  24.541  1.00  0.00     0.000 A 
ATOM     80  C   UNL A   1      33.284  17.886  22.490  1.00  0.00     0.021 A 
ATOM     81  Cl  UNL A   1      31.756  20.042  22.130  1.00  0.00    -0.084 Cl
ATOM     82  C   UNL A   1      34.111  17.017  23.200  1.00  0.00     0.002 A 
ENDBRANCH  75  76
ENDBRANCH  69  75
BRANCH  74  83
ATOM     83  C   UNL A   1      33.492  25.754  23.741  1.00  0.00     0.141 A 
ATOM     84  N   UNL A   1      33.551  26.030  22.413  1.00  0.00    -0.219 NA
ATOM     85  C   UNL A   1      33.673  26.829  24.637  1.00  0.00     0.061 A 
ATOM     86  C   UNL A   1      33.731  27.309  22.023  1.00  0.00     0.226 A 
ATOM     87  C   UNL A   1      33.841  28.090  24.089  1.00  0.00     0.142 A 
ATOM     88  C   UNL A   1      33.746  26.992  26.052  1.00  0.00     0.033 A 
ATOM     89  N   UNL A   1      33.872  28.406  22.788  1.00  0.00    -0.218 NA
ATOM     90  N   UNL A   1      33.973  28.988  25.115  1.00  0.00    -0.346 N 
ATOM     91  C   UNL A   1      33.915  28.333  26.319  1.00  0.00     0.085 A 
ATOM     92  H   UNL A   1      34.092  29.959  25.004  1.00  0.00     0.167 HD
ENDBRANCH  74  83
ENDBRANCH  66  69
ENDBRANCH  64  65
ENDBRANCH  63  64
ENDBRANCH   1  63
TORSDOF 14
ENDMDL
