MODEL 1
REMARK VINA RESULT:     -11.5      0.000      0.000
REMARK SMILES C[C@H](C(=O)NCCCCNC(=O)c1ccc(-c2c3nc(c(-c4c(F)cccc4F)c4ccc([nH]4)c(-c4c(F)cccc4F)c4nc(c(-c5c(F)cccc5F)c5ccc2[nH]5)C=C4)C=C3)cc1)[C@@H](C)Nc1ccccc1Oc1ccccc1
REMARK SMILES IDX 6 1 5 2 3 3 4 4 2 6 1 7 67 8 68 9 69 10 70 12 71 13 75 14
REMARK SMILES IDX 72 15 74 16 73 17 76 18 77 19 78 20 82 21 79 22 81 23 80 24
REMARK SMILES IDX 7 25 8 26 9 27 10 28 11 29 12 31 13 32 14 33 66 34 15 35
REMARK SMILES IDX 65 36 16 37 17 38 18 39 59 40 19 41 64 42 58 43 60 44 20 45
REMARK SMILES IDX 63 46 57 47 56 48 21 50 47 51 30 52 46 53 31 54 34 55 45 56
REMARK SMILES IDX 61 57 32 58 33 59 44 61 62 62 35 63 22 64 23 65 28 66 24 67
REMARK SMILES IDX 25 68 27 69 29 70 26 71 48 72 49 73 54 74 50 75 51 76 53 77
REMARK SMILES IDX 55 78 52 79 36 80 37 81 42 82 38 83 39 84 41 85 43 86 40 87
REMARK H PARENT 5 5 69 11 10 30 60 49 34 60
REMARK Flexibility Score: inf
ROOT
ATOM      1  C   UNL A   1      33.100  28.068  27.139  1.00  0.00     0.116 C 
ENDROOT
BRANCH   1   2
ATOM      2  N   UNL A   1      33.261  27.537  25.799  1.00  0.00    -0.356 N 
ATOM      3  C   UNL A   1      32.899  26.345  25.252  1.00  0.00     0.224 C 
ATOM      4  O   UNL A   1      33.288  26.134  24.101  1.00  0.00    -0.275 OA
ATOM      5  H   UNL A   1      33.714  28.149  25.174  1.00  0.00     0.163 HD
BRANCH   3   6
ATOM      6  C   UNL A   1      32.029  25.336  26.013  1.00  0.00     0.097 C 
ATOM      7  C   UNL A   1      30.818  25.016  25.120  1.00  0.00     0.020 C 
BRANCH   6   8
ATOM      8  C   UNL A   1      32.855  24.072  26.398  1.00  0.00     0.088 C 
ATOM      9  C   UNL A   1      31.972  23.043  27.120  1.00  0.00     0.031 C 
BRANCH   8  10
ATOM     10  N   UNL A   1      33.395  23.385  25.225  1.00  0.00    -0.379 N 
ATOM     11  H   UNL A   1      32.778  23.297  24.462  1.00  0.00     0.160 HD
BRANCH  10  12
ATOM     12  C   UNL A   1      34.658  22.838  25.040  1.00  0.00     0.078 A 
ATOM     13  C   UNL A   1      35.691  23.774  24.802  1.00  0.00     0.029 A 
ATOM     14  C   UNL A   1      35.057  21.488  25.137  1.00  0.00     0.150 A 
ATOM     15  C   UNL A   1      37.034  23.405  24.669  1.00  0.00     0.002 A 
ATOM     16  C   UNL A   1      36.412  21.117  25.016  1.00  0.00     0.049 A 
ATOM     17  C   UNL A   1      37.397  22.071  24.777  1.00  0.00     0.004 A 
BRANCH  14  18
ATOM     18  O   UNL A   1      34.224  20.459  25.509  1.00  0.00    -0.455 OA
BRANCH  18  19
ATOM     19  C   UNL A   1      33.813  19.541  24.566  1.00  0.00     0.127 A 
ATOM     20  C   UNL A   1      34.610  18.393  24.499  1.00  0.00     0.047 A 
ATOM     21  C   UNL A   1      32.660  19.626  23.785  1.00  0.00     0.047 A 
ATOM     22  C   UNL A   1      34.219  17.304  23.721  1.00  0.00     0.004 A 
ATOM     23  C   UNL A   1      32.258  18.525  23.021  1.00  0.00     0.004 A 
ATOM     24  C   UNL A   1      33.026  17.359  23.004  1.00  0.00     0.000 A 
ENDBRANCH  18  19
ENDBRANCH  14  18
ENDBRANCH  10  12
ENDBRANCH   8  10
ENDBRANCH   6   8
ENDBRANCH   3   6
ENDBRANCH   1   2
BRANCH   1  25
ATOM     25  C   UNL A   1      31.786  28.847  27.242  1.00  0.00     0.023 C 
BRANCH  25  26
ATOM     26  C   UNL A   1      31.824  30.222  26.576  1.00  0.00     0.023 C 
BRANCH  26  27
ATOM     27  C   UNL A   1      32.899  31.147  27.136  1.00  0.00     0.116 C 
BRANCH  27  28
ATOM     28  N   UNL A   1      32.433  32.523  27.307  1.00  0.00    -0.352 N 
ATOM     29  C   UNL A   1      32.980  33.569  28.013  1.00  0.00     0.251 C 
ATOM     30  H   UNL A   1      31.592  32.734  26.841  1.00  0.00     0.163 HD
ATOM     31  O   UNL A   1      32.357  34.611  28.152  1.00  0.00    -0.269 OA
BRANCH  29  32
ATOM     32  C   UNL A   1      34.312  33.414  28.643  1.00  0.00     0.039 A 
ATOM     33  C   UNL A   1      34.409  32.778  29.884  1.00  0.00     0.014 A 
ATOM     34  C   UNL A   1      35.462  33.846  27.984  1.00  0.00     0.014 A 
ATOM     35  C   UNL A   1      35.670  32.463  30.398  1.00  0.00     0.010 A 
ATOM     36  C   UNL A   1      36.707  33.438  28.445  1.00  0.00     0.010 A 
ATOM     37  C   UNL A   1      36.826  32.722  29.646  1.00  0.00    -0.014 A 
BRANCH  37  38
ATOM     38  C   UNL A   1      38.168  32.225  30.055  1.00  0.00     0.031 A 
ATOM     39  C   UNL A   1      38.691  30.929  29.495  1.00  0.00     0.074 A 
ATOM     40  C   UNL A   1      38.848  32.862  31.031  1.00  0.00     0.049 A 
ATOM     41  N   UNL A   1      39.728  30.225  29.871  1.00  0.00    -0.248 NA
ATOM     42  C   UNL A   1      37.918  30.321  28.400  1.00  0.00     0.031 C 
ATOM     43  C   UNL A   1      38.417  34.088  31.711  1.00  0.00     0.029 A 
ATOM     44  N   UNL A   1      40.037  32.550  31.645  1.00  0.00    -0.354 N 
ATOM     45  C   UNL A   1      39.702  29.072  29.095  1.00  0.00     0.074 A 
ATOM     46  C   UNL A   1      38.527  29.152  28.255  1.00  0.00     0.031 C 
ATOM     47  C   UNL A   1      39.332  34.429  32.632  1.00  0.00     0.029 A 
ATOM     48  C   UNL A   1      40.389  33.425  32.646  1.00  0.00     0.049 A 
ATOM     49  H   UNL A   1      40.585  31.773  31.393  1.00  0.00     0.167 HD
ATOM     50  C   UNL A   1      40.588  28.049  29.071  1.00  0.00     0.037 A 
ATOM     51  C   UNL A   1      41.432  33.408  33.497  1.00  0.00     0.037 A 
ATOM     52  C   UNL A   1      41.796  28.012  29.851  1.00  0.00     0.049 A 
ATOM     53  C   UNL A   1      42.427  32.283  33.415  1.00  0.00     0.074 A 
ATOM     54  C   UNL A   1      42.820  27.082  29.807  1.00  0.00     0.029 A 
ATOM     55  N   UNL A   1      42.145  28.949  30.811  1.00  0.00    -0.354 N 
ATOM     56  N   UNL A   1      42.433  31.244  32.616  1.00  0.00    -0.248 NA
ATOM     57  C   UNL A   1      43.557  32.324  34.354  1.00  0.00     0.031 C 
ATOM     58  C   UNL A   1      43.773  27.437  30.766  1.00  0.00     0.029 A 
ATOM     59  C   UNL A   1      43.358  28.606  31.382  1.00  0.00     0.049 A 
ATOM     60  H   UNL A   1      41.609  29.740  31.051  1.00  0.00     0.167 HD
ATOM     61  C   UNL A   1      43.570  30.520  32.943  1.00  0.00     0.074 A 
ATOM     62  C   UNL A   1      44.244  31.248  33.997  1.00  0.00     0.031 C 
ATOM     63  C   UNL A   1      44.015  29.349  32.425  1.00  0.00     0.037 A 
BRANCH  50  64
ATOM     64  C   UNL A   1      40.304  26.894  28.158  1.00  0.00     0.057 A 
ATOM     65  C   UNL A   1      40.881  26.797  26.886  1.00  0.00     0.134 A 
ATOM     66  C   UNL A   1      39.493  25.833  28.583  1.00  0.00     0.134 A 
ATOM     67  F   UNL A   1      41.659  27.784  26.416  1.00  0.00    -0.206 F 
ATOM     68  C   UNL A   1      40.647  25.696  26.060  1.00  0.00     0.040 A 
ATOM     69  C   UNL A   1      39.272  24.716  27.776  1.00  0.00     0.040 A 
ATOM     70  F   UNL A   1      38.914  25.860  29.793  1.00  0.00    -0.206 F 
ATOM     71  C   UNL A   1      39.847  24.647  26.510  1.00  0.00     0.006 A 
ENDBRANCH  50  64
BRANCH  51  72
ATOM     72  C   UNL A   1      41.598  34.485  34.509  1.00  0.00     0.057 A 
ATOM     73  C   UNL A   1      41.090  34.341  35.805  1.00  0.00     0.134 A 
ATOM     74  C   UNL A   1      42.236  35.692  34.198  1.00  0.00     0.134 A 
ATOM     75  F   UNL A   1      40.450  33.215  36.157  1.00  0.00    -0.206 F 
ATOM     76  C   UNL A   1      41.185  35.365  36.748  1.00  0.00     0.040 A 
ATOM     77  C   UNL A   1      42.361  36.716  35.140  1.00  0.00     0.040 A 
ATOM     78  F   UNL A   1      42.751  35.891  32.977  1.00  0.00    -0.206 F 
ATOM     79  C   UNL A   1      41.825  36.558  36.416  1.00  0.00     0.006 A 
ENDBRANCH  51  72
BRANCH  63  80
ATOM     80  C   UNL A   1      45.293  28.796  32.977  1.00  0.00     0.057 A 
ATOM     81  C   UNL A   1      45.296  27.883  34.039  1.00  0.00     0.134 A 
ATOM     82  C   UNL A   1      46.525  29.139  32.410  1.00  0.00     0.134 A 
ATOM     83  F   UNL A   1      44.147  27.527  34.634  1.00  0.00    -0.206 F 
ATOM     84  C   UNL A   1      46.485  27.339  34.526  1.00  0.00     0.040 A 
ATOM     85  C   UNL A   1      47.718  28.583  32.872  1.00  0.00     0.040 A 
ATOM     86  F   UNL A   1      46.587  30.002  31.384  1.00  0.00    -0.206 F 
ATOM     87  C   UNL A   1      47.700  27.684  33.936  1.00  0.00     0.006 A 
ENDBRANCH  63  80
ENDBRANCH  37  38
ENDBRANCH  29  32
ENDBRANCH  27  28
ENDBRANCH  26  27
ENDBRANCH  25  26
ENDBRANCH   1  25
TORSDOF 16
ENDMDL
MODEL 2
REMARK VINA RESULT:     -11.4      3.038      7.437
REMARK SMILES C[C@H](C(=O)NCCCCNC(=O)c1ccc(-c2c3nc(c(-c4c(F)cccc4F)c4ccc([nH]4)c(-c4c(F)cccc4F)c4nc(c(-c5c(F)cccc5F)c5ccc2[nH]5)C=C4)C=C3)cc1)[C@@H](C)Nc1ccccc1Oc1ccccc1
REMARK SMILES IDX 6 1 5 2 3 3 4 4 2 6 1 7 67 8 68 9 69 10 70 12 71 13 75 14
REMARK SMILES IDX 72 15 74 16 73 17 76 18 77 19 78 20 82 21 79 22 81 23 80 24
REMARK SMILES IDX 7 25 8 26 9 27 10 28 11 29 12 31 13 32 14 33 66 34 15 35
REMARK SMILES IDX 65 36 16 37 17 38 18 39 59 40 19 41 64 42 58 43 60 44 20 45
REMARK SMILES IDX 63 46 57 47 56 48 21 50 47 51 30 52 46 53 31 54 34 55 45 56
REMARK SMILES IDX 61 57 32 58 33 59 44 61 62 62 35 63 22 64 23 65 28 66 24 67
REMARK SMILES IDX 25 68 27 69 29 70 26 71 48 72 49 73 54 74 50 75 51 76 53 77
REMARK SMILES IDX 55 78 52 79 36 80 37 81 42 82 38 83 39 84 41 85 43 86 40 87
REMARK H PARENT 5 5 69 11 10 30 60 49 34 60
REMARK Flexibility Score: inf
ROOT
ATOM      1  C   UNL A   1      31.366  28.909  24.202  1.00  0.00     0.116 C 
ENDROOT
BRANCH   1   2
ATOM      2  N   UNL A   1      30.692  27.724  24.697  1.00  0.00    -0.356 N 
ATOM      3  C   UNL A   1      31.132  26.451  24.890  1.00  0.00     0.224 C 
ATOM      4  O   UNL A   1      30.277  25.623  25.213  1.00  0.00    -0.275 OA
ATOM      5  H   UNL A   1      29.748  27.867  24.936  1.00  0.00     0.163 HD
BRANCH   3   6
ATOM      6  C   UNL A   1      32.613  26.075  24.746  1.00  0.00     0.097 C 
ATOM      7  C   UNL A   1      33.051  25.439  26.077  1.00  0.00     0.020 C 
BRANCH   6   8
ATOM      8  C   UNL A   1      32.830  25.138  23.520  1.00  0.00     0.088 C 
ATOM      9  C   UNL A   1      33.581  25.873  22.400  1.00  0.00     0.031 C 
BRANCH   8  10
ATOM     10  N   UNL A   1      33.647  23.972  23.853  1.00  0.00    -0.379 N 
ATOM     11  H   UNL A   1      34.590  24.159  24.067  1.00  0.00     0.160 HD
BRANCH  10  12
ATOM     12  C   UNL A   1      33.274  22.635  23.907  1.00  0.00     0.078 A 
ATOM     13  C   UNL A   1      32.543  22.167  22.791  1.00  0.00     0.029 A 
ATOM     14  C   UNL A   1      33.594  21.670  24.886  1.00  0.00     0.150 A 
ATOM     15  C   UNL A   1      32.153  20.830  22.645  1.00  0.00     0.002 A 
ATOM     16  C   UNL A   1      33.212  20.322  24.733  1.00  0.00     0.049 A 
ATOM     17  C   UNL A   1      32.490  19.904  23.620  1.00  0.00     0.004 A 
BRANCH  14  18
ATOM     18  O   UNL A   1      34.419  21.901  25.961  1.00  0.00    -0.455 OA
BRANCH  18  19
ATOM     19  C   UNL A   1      35.766  22.106  25.754  1.00  0.00     0.127 A 
ATOM     20  C   UNL A   1      36.208  23.392  26.089  1.00  0.00     0.047 A 
ATOM     21  C   UNL A   1      36.692  21.144  25.350  1.00  0.00     0.047 A 
ATOM     22  C   UNL A   1      37.570  23.692  26.101  1.00  0.00     0.004 A 
ATOM     23  C   UNL A   1      38.059  21.441  25.382  1.00  0.00     0.004 A 
ATOM     24  C   UNL A   1      38.498  22.706  25.775  1.00  0.00     0.000 A 
ENDBRANCH  18  19
ENDBRANCH  14  18
ENDBRANCH  10  12
ENDBRANCH   8  10
ENDBRANCH   6   8
ENDBRANCH   3   6
ENDBRANCH   1   2
BRANCH   1  25
ATOM     25  C   UNL A   1      31.887  29.746  25.373  1.00  0.00     0.023 C 
BRANCH  25  26
ATOM     26  C   UNL A   1      33.333  29.440  25.762  1.00  0.00     0.023 C 
BRANCH  26  27
ATOM     27  C   UNL A   1      33.539  29.252  27.262  1.00  0.00     0.116 C 
BRANCH  27  28
ATOM     28  N   UNL A   1      33.732  30.516  27.973  1.00  0.00    -0.352 N 
ATOM     29  C   UNL A   1      34.813  30.985  28.681  1.00  0.00     0.251 C 
ATOM     30  H   UNL A   1      32.963  31.130  27.938  1.00  0.00     0.163 HD
ATOM     31  O   UNL A   1      34.724  32.017  29.330  1.00  0.00    -0.269 OA
BRANCH  29  32
ATOM     32  C   UNL A   1      36.077  30.211  28.692  1.00  0.00     0.039 A 
ATOM     33  C   UNL A   1      36.894  30.226  27.558  1.00  0.00     0.014 A 
ATOM     34  C   UNL A   1      36.476  29.521  29.835  1.00  0.00     0.014 A 
ATOM     35  C   UNL A   1      38.169  29.655  27.621  1.00  0.00     0.010 A 
ATOM     36  C   UNL A   1      37.780  29.051  29.929  1.00  0.00     0.010 A 
ATOM     37  C   UNL A   1      38.650  29.131  28.831  1.00  0.00    -0.014 A 
BRANCH  37  38
ATOM     38  C   UNL A   1      40.064  28.701  29.003  1.00  0.00     0.031 A 
ATOM     39  C   UNL A   1      41.103  29.694  29.448  1.00  0.00     0.074 A 
ATOM     40  C   UNL A   1      40.436  27.460  28.623  1.00  0.00     0.049 A 
ATOM     41  N   UNL A   1      42.406  29.579  29.461  1.00  0.00    -0.248 NA
ATOM     42  C   UNL A   1      40.614  31.010  29.892  1.00  0.00     0.031 C 
ATOM     43  C   UNL A   1      39.539  26.423  28.103  1.00  0.00     0.029 A 
ATOM     44  N   UNL A   1      41.675  26.867  28.588  1.00  0.00    -0.354 N 
ATOM     45  C   UNL A   1      42.891  30.817  29.865  1.00  0.00     0.074 A 
ATOM     46  C   UNL A   1      41.746  31.681  30.051  1.00  0.00     0.031 C 
ATOM     47  C   UNL A   1      40.254  25.322  27.817  1.00  0.00     0.029 A 
ATOM     48  C   UNL A   1      41.662  25.587  28.084  1.00  0.00     0.049 A 
ATOM     49  H   UNL A   1      42.495  27.317  28.894  1.00  0.00     0.167 HD
ATOM     50  C   UNL A   1      44.173  31.193  30.081  1.00  0.00     0.037 A 
ATOM     51  C   UNL A   1      42.673  24.732  27.841  1.00  0.00     0.037 A 
ATOM     52  C   UNL A   1      45.301  30.308  29.971  1.00  0.00     0.049 A 
ATOM     53  C   UNL A   1      44.083  25.162  28.136  1.00  0.00     0.074 A 
ATOM     54  C   UNL A   1      46.624  30.559  30.289  1.00  0.00     0.029 A 
ATOM     55  N   UNL A   1      45.238  29.002  29.515  1.00  0.00    -0.354 N 
ATOM     56  N   UNL A   1      44.517  26.309  28.598  1.00  0.00    -0.248 NA
ATOM     57  C   UNL A   1      45.147  24.182  27.870  1.00  0.00     0.031 C 
ATOM     58  C   UNL A   1      47.368  29.414  29.991  1.00  0.00     0.029 A 
ATOM     59  C   UNL A   1      46.503  28.440  29.521  1.00  0.00     0.049 A 
ATOM     60  H   UNL A   1      44.415  28.541  29.229  1.00  0.00     0.167 HD
ATOM     61  C   UNL A   1      45.895  26.183  28.696  1.00  0.00     0.074 A 
ATOM     62  C   UNL A   1      46.226  24.841  28.266  1.00  0.00     0.031 C 
ATOM     63  C   UNL A   1      46.809  27.100  29.096  1.00  0.00     0.037 A 
BRANCH  50  64
ATOM     64  C   UNL A   1      44.430  32.616  30.480  1.00  0.00     0.057 A 
ATOM     65  C   UNL A   1      44.643  33.624  29.532  1.00  0.00     0.134 A 
ATOM     66  C   UNL A   1      44.399  32.994  31.830  1.00  0.00     0.134 A 
ATOM     67  F   UNL A   1      44.694  33.327  28.225  1.00  0.00    -0.206 F 
ATOM     68  C   UNL A   1      44.835  34.954  29.910  1.00  0.00     0.040 A 
ATOM     69  C   UNL A   1      44.565  34.324  32.218  1.00  0.00     0.040 A 
ATOM     70  F   UNL A   1      44.194  32.079  32.789  1.00  0.00    -0.206 F 
ATOM     71  C   UNL A   1      44.788  35.307  31.258  1.00  0.00     0.006 A 
ENDBRANCH  50  64
BRANCH  51  72
ATOM     72  C   UNL A   1      42.400  23.381  27.284  1.00  0.00     0.057 A 
ATOM     73  C   UNL A   1      42.072  22.309  28.123  1.00  0.00     0.134 A 
ATOM     74  C   UNL A   1      42.492  23.119  25.912  1.00  0.00     0.134 A 
ATOM     75  F   UNL A   1      41.989  22.492  29.449  1.00  0.00    -0.206 F 
ATOM     76  C   UNL A   1      41.872  21.021  27.623  1.00  0.00     0.040 A 
ATOM     77  C   UNL A   1      42.269  21.841  25.395  1.00  0.00     0.040 A 
ATOM     78  F   UNL A   1      42.796  24.103  25.054  1.00  0.00    -0.206 F 
ATOM     79  C   UNL A   1      41.969  20.785  26.253  1.00  0.00     0.006 A 
ENDBRANCH  51  72
BRANCH  63  80
ATOM     80  C   UNL A   1      48.246  26.677  29.103  1.00  0.00     0.057 A 
ATOM     81  C   UNL A   1      48.806  26.006  30.198  1.00  0.00     0.134 A 
ATOM     82  C   UNL A   1      49.063  26.898  27.989  1.00  0.00     0.134 A 
ATOM     83  F   UNL A   1      48.078  25.778  31.301  1.00  0.00    -0.206 F 
ATOM     84  C   UNL A   1      50.134  25.579  30.186  1.00  0.00     0.040 A 
ATOM     85  C   UNL A   1      50.385  26.455  27.956  1.00  0.00     0.040 A 
ATOM     86  F   UNL A   1      48.582  27.529  26.906  1.00  0.00    -0.206 F 
ATOM     87  C   UNL A   1      50.925  25.797  29.059  1.00  0.00     0.006 A 
ENDBRANCH  63  80
ENDBRANCH  37  38
ENDBRANCH  29  32
ENDBRANCH  27  28
ENDBRANCH  26  27
ENDBRANCH  25  26
ENDBRANCH   1  25
TORSDOF 16
ENDMDL
MODEL 3
REMARK VINA RESULT:     -11.4      3.359      8.909
REMARK SMILES C[C@H](C(=O)NCCCCNC(=O)c1ccc(-c2c3nc(c(-c4c(F)cccc4F)c4ccc([nH]4)c(-c4c(F)cccc4F)c4nc(c(-c5c(F)cccc5F)c5ccc2[nH]5)C=C4)C=C3)cc1)[C@@H](C)Nc1ccccc1Oc1ccccc1
REMARK SMILES IDX 6 1 5 2 3 3 4 4 2 6 1 7 67 8 68 9 69 10 70 12 71 13 75 14
REMARK SMILES IDX 72 15 74 16 73 17 76 18 77 19 78 20 82 21 79 22 81 23 80 24
REMARK SMILES IDX 7 25 8 26 9 27 10 28 11 29 12 31 13 32 14 33 66 34 15 35
REMARK SMILES IDX 65 36 16 37 17 38 18 39 59 40 19 41 64 42 58 43 60 44 20 45
REMARK SMILES IDX 63 46 57 47 56 48 21 50 47 51 30 52 46 53 31 54 34 55 45 56
REMARK SMILES IDX 61 57 32 58 33 59 44 61 62 62 35 63 22 64 23 65 28 66 24 67
REMARK SMILES IDX 25 68 27 69 29 70 26 71 48 72 49 73 54 74 50 75 51 76 53 77
REMARK SMILES IDX 55 78 52 79 36 80 37 81 42 82 38 83 39 84 41 85 43 86 40 87
REMARK H PARENT 5 5 69 11 10 30 60 49 34 60
REMARK Flexibility Score: inf
ROOT
ATOM      1  C   UNL A   1      34.713  21.530  24.659  1.00  0.00     0.116 C 
ENDROOT
BRANCH   1   2
ATOM      2  N   UNL A   1      34.822  22.850  25.250  1.00  0.00    -0.356 N 
ATOM      3  C   UNL A   1      33.883  23.796  25.523  1.00  0.00     0.224 C 
ATOM      4  O   UNL A   1      34.306  24.884  25.921  1.00  0.00    -0.275 OA
ATOM      5  H   UNL A   1      35.740  23.107  25.498  1.00  0.00     0.163 HD
BRANCH   3   6
ATOM      6  C   UNL A   1      32.382  23.513  25.375  1.00  0.00     0.097 C 
ATOM      7  C   UNL A   1      31.794  23.425  26.795  1.00  0.00     0.020 C 
BRANCH   6   8
ATOM      8  C   UNL A   1      31.697  24.603  24.497  1.00  0.00     0.088 C 
ATOM      9  C   UNL A   1      30.700  23.965  23.518  1.00  0.00     0.031 C 
BRANCH   8  10
ATOM     10  N   UNL A   1      30.923  25.552  25.296  1.00  0.00    -0.379 N 
ATOM     11  H   UNL A   1      30.088  25.201  25.684  1.00  0.00     0.160 HD
BRANCH  10  12
ATOM     12  C   UNL A   1      31.204  26.882  25.583  1.00  0.00     0.078 A 
ATOM     13  C   UNL A   1      31.621  27.138  26.909  1.00  0.00     0.029 A 
ATOM     14  C   UNL A   1      31.204  27.990  24.710  1.00  0.00     0.150 A 
ATOM     15  C   UNL A   1      32.017  28.406  27.349  1.00  0.00     0.002 A 
ATOM     16  C   UNL A   1      31.614  29.265  25.149  1.00  0.00     0.049 A 
ATOM     17  C   UNL A   1      32.014  29.475  26.465  1.00  0.00     0.004 A 
BRANCH  14  18
ATOM     18  O   UNL A   1      30.973  27.911  23.356  1.00  0.00    -0.455 OA
BRANCH  18  19
ATOM     19  C   UNL A   1      29.961  28.659  22.793  1.00  0.00     0.127 A 
ATOM     20  C   UNL A   1      28.676  28.288  23.207  1.00  0.00     0.047 A 
ATOM     21  C   UNL A   1      30.123  29.766  21.960  1.00  0.00     0.047 A 
ATOM     22  C   UNL A   1      27.570  29.062  22.862  1.00  0.00     0.004 A 
ATOM     23  C   UNL A   1      29.014  30.554  21.631  1.00  0.00     0.004 A 
ATOM     24  C   UNL A   1      27.743  30.213  22.097  1.00  0.00     0.000 A 
ENDBRANCH  18  19
ENDBRANCH  14  18
ENDBRANCH  10  12
ENDBRANCH   8  10
ENDBRANCH   6   8
ENDBRANCH   3   6
ENDBRANCH   1   2
BRANCH   1  25
ATOM     25  C   UNL A   1      35.962  20.705  24.979  1.00  0.00     0.023 C 
BRANCH  25  26
ATOM     26  C   UNL A   1      37.273  21.380  24.577  1.00  0.00     0.023 C 
BRANCH  26  27
ATOM     27  C   UNL A   1      38.336  21.358  25.671  1.00  0.00     0.116 C 
BRANCH  27  28
ATOM     28  N   UNL A   1      39.179  20.164  25.621  1.00  0.00    -0.352 N 
ATOM     29  C   UNL A   1      40.505  19.994  25.948  1.00  0.00     0.251 C 
ATOM     30  H   UNL A   1      38.725  19.351  25.302  1.00  0.00     0.163 HD
ATOM     31  O   UNL A   1      41.071  18.940  25.698  1.00  0.00    -0.269 OA
BRANCH  29  32
ATOM     32  C   UNL A   1      41.258  21.109  26.567  1.00  0.00     0.039 A 
ATOM     33  C   UNL A   1      41.883  22.050  25.744  1.00  0.00     0.014 A 
ATOM     34  C   UNL A   1      41.300  21.253  27.954  1.00  0.00     0.014 A 
ATOM     35  C   UNL A   1      42.436  23.202  26.311  1.00  0.00     0.010 A 
ATOM     36  C   UNL A   1      41.754  22.445  28.503  1.00  0.00     0.010 A 
ATOM     37  C   UNL A   1      42.308  23.444  27.688  1.00  0.00    -0.014 A 
BRANCH  37  38
ATOM     38  C   UNL A   1      42.696  24.741  28.305  1.00  0.00     0.031 A 
ATOM     39  C   UNL A   1      41.656  25.804  28.536  1.00  0.00     0.074 A 
ATOM     40  C   UNL A   1      43.999  25.013  28.525  1.00  0.00     0.049 A 
ATOM     41  N   UNL A   1      41.817  27.061  28.864  1.00  0.00    -0.248 NA
ATOM     42  C   UNL A   1      40.253  25.416  28.320  1.00  0.00     0.031 C 
ATOM     43  C   UNL A   1      45.116  24.096  28.274  1.00  0.00     0.029 A 
ATOM     44  N   UNL A   1      44.612  26.154  28.983  1.00  0.00    -0.354 N 
ATOM     45  C   UNL A   1      40.545  27.621  28.847  1.00  0.00     0.074 A 
ATOM     46  C   UNL A   1      39.628  26.580  28.438  1.00  0.00     0.031 C 
ATOM     47  C   UNL A   1      46.270  24.704  28.595  1.00  0.00     0.029 A 
ATOM     48  C   UNL A   1      45.984  26.067  29.026  1.00  0.00     0.049 A 
ATOM     49  H   UNL A   1      44.116  26.959  29.254  1.00  0.00     0.167 HD
ATOM     50  C   UNL A   1      40.173  28.884  29.162  1.00  0.00     0.037 A 
ATOM     51  C   UNL A   1      46.911  26.988  29.352  1.00  0.00     0.037 A 
ATOM     52  C   UNL A   1      41.078  29.893  29.644  1.00  0.00     0.049 A 
ATOM     53  C   UNL A   1      46.464  28.369  29.744  1.00  0.00     0.074 A 
ATOM     54  C   UNL A   1      40.781  31.162  30.109  1.00  0.00     0.029 A 
ATOM     55  N   UNL A   1      42.453  29.744  29.730  1.00  0.00    -0.354 N 
ATOM     56  N   UNL A   1      45.249  28.858  29.804  1.00  0.00    -0.248 NA
ATOM     57  C   UNL A   1      47.515  29.330  30.110  1.00  0.00     0.031 C 
ATOM     58  C   UNL A   1      41.982  31.795  30.442  1.00  0.00     0.029 A 
ATOM     59  C   UNL A   1      43.021  30.908  30.218  1.00  0.00     0.049 A 
ATOM     60  H   UNL A   1      42.951  28.932  29.480  1.00  0.00     0.167 HD
ATOM     61  C   UNL A   1      45.388  30.171  30.228  1.00  0.00     0.074 A 
ATOM     62  C   UNL A   1      46.802  30.400  30.434  1.00  0.00     0.031 C 
ATOM     63  C   UNL A   1      44.431  31.111  30.422  1.00  0.00     0.037 A 
BRANCH  50  64
ATOM     64  C   UNL A   1      38.725  29.245  29.021  1.00  0.00     0.057 A 
ATOM     65  C   UNL A   1      38.163  29.583  27.783  1.00  0.00     0.134 A 
ATOM     66  C   UNL A   1      37.866  29.193  30.127  1.00  0.00     0.134 A 
ATOM     67  F   UNL A   1      38.933  29.660  26.687  1.00  0.00    -0.206 F 
ATOM     68  C   UNL A   1      36.805  29.873  27.652  1.00  0.00     0.040 A 
ATOM     69  C   UNL A   1      36.501  29.457  30.004  1.00  0.00     0.040 A 
ATOM     70  F   UNL A   1      38.337  28.871  31.342  1.00  0.00    -0.206 F 
ATOM     71  C   UNL A   1      35.968  29.801  28.765  1.00  0.00     0.006 A 
ENDBRANCH  50  64
BRANCH  51  72
ATOM     72  C   UNL A   1      48.357  26.647  29.322  1.00  0.00     0.057 A 
ATOM     73  C   UNL A   1      49.129  26.881  28.177  1.00  0.00     0.134 A 
ATOM     74  C   UNL A   1      48.994  26.052  30.416  1.00  0.00     0.134 A 
ATOM     75  F   UNL A   1      48.570  27.430  27.088  1.00  0.00    -0.206 F 
ATOM     76  C   UNL A   1      50.473  26.512  28.111  1.00  0.00     0.040 A 
ATOM     77  C   UNL A   1      50.345  25.701  30.374  1.00  0.00     0.040 A 
ATOM     78  F   UNL A   1      48.314  25.807  31.546  1.00  0.00    -0.206 F 
ATOM     79  C   UNL A   1      51.086  25.921  29.214  1.00  0.00     0.006 A 
ENDBRANCH  51  72
BRANCH  63  80
ATOM     80  C   UNL A   1      44.880  32.460  30.894  1.00  0.00     0.057 A 
ATOM     81  C   UNL A   1      45.034  32.745  32.257  1.00  0.00     0.134 A 
ATOM     82  C   UNL A   1      45.209  33.465  29.978  1.00  0.00     0.134 A 
ATOM     83  F   UNL A   1      44.720  31.827  33.183  1.00  0.00    -0.206 F 
ATOM     84  C   UNL A   1      45.490  33.990  32.691  1.00  0.00     0.040 A 
ATOM     85  C   UNL A   1      45.689  34.706  30.400  1.00  0.00     0.040 A 
ATOM     86  F   UNL A   1      45.091  33.250  28.658  1.00  0.00    -0.206 F 
ATOM     87  C   UNL A   1      45.826  34.972  31.760  1.00  0.00     0.006 A 
ENDBRANCH  63  80
ENDBRANCH  37  38
ENDBRANCH  29  32
ENDBRANCH  27  28
ENDBRANCH  26  27
ENDBRANCH  25  26
ENDBRANCH   1  25
TORSDOF 16
ENDMDL
