MODEL 1
REMARK VINA RESULT:     -12.9      0.000      0.000
REMARK SMILES O=C(CCCN1C(=O)C(=O)/C(=C(/[O-])c2ccc(Cl)cc2)[C@@H]1c1ccccc1[N+](=O)[O-])NCCCCNC(=O)c1ccc(-c2c3nc(c(-c4c(F)cccc4F)c4ccc([nH]4)c(-c4c(F)cccc4F)c4nc(c(-c5c(F)cccc5F)c5ccc2[nH]5)C=C4)C=C3)cc1
REMARK SMILES IDX 32 1 31 2 1 3 2 4 3 6 4 7 5 8 6 9 7 10 21 11 8 12 9 13 11 14
REMARK SMILES IDX 10 15 12 16 13 17 22 18 23 19 27 20 24 21 26 22 25 23 28 24
REMARK SMILES IDX 29 25 30 26 14 27 15 28 20 29 16 30 19 31 17 32 18 33 33 34
REMARK SMILES IDX 34 35 35 36 36 37 37 38 38 40 39 41 40 42 92 43 41 44 91 45
REMARK SMILES IDX 42 46 43 47 44 48 85 49 45 50 90 51 84 52 86 53 46 54 89 55
REMARK SMILES IDX 83 56 82 57 47 59 73 60 56 61 72 62 57 63 60 64 71 65 87 66
REMARK SMILES IDX 58 67 59 68 70 70 88 71 61 72 48 73 49 74 54 75 50 76 51 77
REMARK SMILES IDX 53 78 55 79 52 80 74 81 75 82 80 83 76 84 77 85 79 86 81 87
REMARK SMILES IDX 78 88 62 89 63 90 68 91 64 92 65 93 67 94 69 95 66 96
REMARK H PARENT 31 5 36 39 86 58 60 69
REMARK Flexibility Score: inf
ROOT
ATOM      1  C   UNL A   1      35.204  19.980  25.015  1.00  0.00     0.116 C 
ENDROOT
BRANCH   1   2
ATOM      2  N   UNL A   1      34.308  20.568  24.043  1.00  0.00    -0.356 N 
ATOM      3  O   UNL A   1      32.392  19.798  24.974  1.00  0.00    -0.275 OA
ATOM      4  C   UNL A   1      32.949  20.528  24.155  1.00  0.00     0.220 C 
ATOM      5  H   UNL A   1      34.698  21.021  23.261  1.00  0.00     0.163 HD
BRANCH   4   6
ATOM      6  C   UNL A   1      32.134  21.450  23.253  1.00  0.00     0.102 C 
BRANCH   6   7
ATOM      7  C   UNL A   1      32.687  22.540  22.291  1.00  0.00     0.031 C 
BRANCH   7   8
ATOM      8  C   UNL A   1      32.302  24.051  22.242  1.00  0.00     0.121 C 
BRANCH   8   9
ATOM      9  N   UNL A   1      32.802  24.962  23.305  1.00  0.00    -0.324 N 
ATOM     10  C   UNL A   1      33.317  26.187  22.855  1.00  0.00     0.295 C 
ATOM     11  C   UNL A   1      32.328  25.061  24.722  1.00  0.00     0.157 C 
ATOM     12  O   UNL A   1      33.531  26.530  21.714  1.00  0.00    -0.265 OA
ATOM     13  C   UNL A   1      33.368  27.143  24.035  1.00  0.00     0.248 C 
ATOM     14  C   UNL A   1      32.572  26.522  25.126  1.00  0.00     0.025 C 
ATOM     15  O   UNL A   1      33.891  28.229  23.998  1.00  0.00    -0.283 OA
ATOM     16  C   UNL A   1      32.178  27.213  26.216  1.00  0.00    -0.092 C 
ATOM     17  O   UNL A   1      31.329  26.711  27.179  1.00  0.00    -0.872 OA
BRANCH  11  18
ATOM     18  C   UNL A   1      32.933  24.106  25.771  1.00  0.00     0.057 A 
ATOM     19  C   UNL A   1      34.335  24.084  25.974  1.00  0.00     0.013 A 
ATOM     20  C   UNL A   1      32.242  23.154  26.533  1.00  0.00     0.275 A 
ATOM     21  C   UNL A   1      34.966  23.200  26.875  1.00  0.00     0.001 A 
ATOM     22  C   UNL A   1      32.851  22.289  27.467  1.00  0.00     0.086 A 
ATOM     23  C   UNL A   1      34.221  22.315  27.639  1.00  0.00     0.007 A 
BRANCH  20  24
ATOM     24  N   UNL A   1      30.818  23.160  26.615  1.00  0.00     0.063 N 
ATOM     25  O   UNL A   1      30.278  22.255  25.982  1.00  0.00    -0.258 OA
ATOM     26  O   UNL A   1      30.262  24.058  27.251  1.00  0.00    -0.258 OA
ENDBRANCH  20  24
ENDBRANCH  11  18
BRANCH  16  27
ATOM     27  C   UNL A   1      32.728  28.522  26.611  1.00  0.00    -0.033 A 
ATOM     28  C   UNL A   1      33.998  28.658  27.182  1.00  0.00     0.009 A 
ATOM     29  C   UNL A   1      31.928  29.662  26.434  1.00  0.00     0.009 A 
ATOM     30  C   UNL A   1      34.440  29.912  27.618  1.00  0.00     0.021 A 
ATOM     31  C   UNL A   1      32.372  30.914  26.864  1.00  0.00     0.021 A 
ATOM     32  C   UNL A   1      33.622  31.031  27.466  1.00  0.00     0.041 A 
ATOM     33  Cl  UNL A   1      34.155  32.568  28.028  1.00  0.00    -0.084 Cl
ENDBRANCH  16  27
ENDBRANCH   8   9
ENDBRANCH   7   8
ENDBRANCH   6   7
ENDBRANCH   4   6
ENDBRANCH   1   2
BRANCH   1  34
ATOM     34  C   UNL A   1      36.599  20.604  24.968  1.00  0.00     0.023 C 
BRANCH  34  35
ATOM     35  C   UNL A   1      37.790  19.638  25.001  1.00  0.00     0.023 C 
BRANCH  35  36
ATOM     36  C   UNL A   1      39.040  20.091  25.750  1.00  0.00     0.116 C 
BRANCH  36  37
ATOM     37  N   UNL A   1      40.093  19.097  25.756  1.00  0.00    -0.352 N 
ATOM     38  C   UNL A   1      41.442  19.220  25.997  1.00  0.00     0.251 C 
ATOM     39  H   UNL A   1      39.795  18.181  25.554  1.00  0.00     0.163 HD
ATOM     40  O   UNL A   1      42.162  18.235  25.847  1.00  0.00    -0.269 OA
BRANCH  38  41
ATOM     41  C   UNL A   1      42.058  20.515  26.387  1.00  0.00     0.039 A 
ATOM     42  C   UNL A   1      42.582  21.329  25.376  1.00  0.00     0.014 A 
ATOM     43  C   UNL A   1      42.168  20.928  27.718  1.00  0.00     0.014 A 
ATOM     44  C   UNL A   1      43.142  22.573  25.686  1.00  0.00     0.010 A 
ATOM     45  C   UNL A   1      42.658  22.202  28.020  1.00  0.00     0.010 A 
ATOM     46  C   UNL A   1      43.147  23.044  27.008  1.00  0.00    -0.014 A 
BRANCH  46  47
ATOM     47  C   UNL A   1      43.636  24.412  27.339  1.00  0.00     0.031 A 
ATOM     48  C   UNL A   1      42.684  25.480  27.812  1.00  0.00     0.074 A 
ATOM     49  C   UNL A   1      44.938  24.717  27.163  1.00  0.00     0.049 A 
ATOM     50  N   UNL A   1      42.922  26.740  28.083  1.00  0.00    -0.248 NA
ATOM     51  C   UNL A   1      41.277  25.087  27.980  1.00  0.00     0.031 C 
ATOM     52  C   UNL A   1      45.966  23.790  26.684  1.00  0.00     0.029 A 
ATOM     53  N   UNL A   1      45.621  25.894  27.355  1.00  0.00    -0.354 N 
ATOM     54  C   UNL A   1      41.698  27.289  28.444  1.00  0.00     0.074 A 
ATOM     55  C   UNL A   1      40.711  26.239  28.304  1.00  0.00     0.031 C 
ATOM     56  C   UNL A   1      47.147  24.426  26.641  1.00  0.00     0.029 A 
ATOM     57  C   UNL A   1      46.957  25.817  27.043  1.00  0.00     0.049 A 
ATOM     58  H   UNL A   1      45.192  26.717  27.687  1.00  0.00     0.167 HD
ATOM     59  C   UNL A   1      41.421  28.546  28.870  1.00  0.00     0.037 A 
ATOM     60  C   UNL A   1      47.921  26.758  27.062  1.00  0.00     0.037 A 
ATOM     61  C   UNL A   1      42.403  29.590  29.019  1.00  0.00     0.049 A 
ATOM     62  C   UNL A   1      47.580  28.157  27.502  1.00  0.00     0.074 A 
ATOM     63  C   UNL A   1      42.225  30.879  29.493  1.00  0.00     0.029 A 
ATOM     64  N   UNL A   1      43.744  29.471  28.687  1.00  0.00    -0.354 N 
ATOM     65  N   UNL A   1      46.430  28.641  27.903  1.00  0.00    -0.248 NA
ATOM     66  C   UNL A   1      48.675  29.138  27.497  1.00  0.00     0.031 C 
ATOM     67  C   UNL A   1      43.443  31.558  29.389  1.00  0.00     0.029 A 
ATOM     68  C   UNL A   1      44.397  30.672  28.915  1.00  0.00     0.049 A 
ATOM     69  H   UNL A   1      44.170  28.654  28.340  1.00  0.00     0.167 HD
ATOM     70  C   UNL A   1      46.670  29.970  28.230  1.00  0.00     0.074 A 
ATOM     71  C   UNL A   1      48.077  30.212  27.994  1.00  0.00     0.031 C 
ATOM     72  C   UNL A   1      45.800  30.906  28.685  1.00  0.00     0.037 A 
BRANCH  59  73
ATOM     73  C   UNL A   1      39.990  28.870  29.203  1.00  0.00     0.057 A 
ATOM     74  C   UNL A   1      39.073  29.274  28.223  1.00  0.00     0.134 A 
ATOM     75  C   UNL A   1      39.513  28.732  30.513  1.00  0.00     0.134 A 
ATOM     76  F   UNL A   1      39.465  29.433  26.950  1.00  0.00    -0.206 F 
ATOM     77  C   UNL A   1      37.744  29.559  28.539  1.00  0.00     0.040 A 
ATOM     78  C   UNL A   1      38.177  28.982  30.835  1.00  0.00     0.040 A 
ATOM     79  F   UNL A   1      40.331  28.338  31.500  1.00  0.00    -0.206 F 
ATOM     80  C   UNL A   1      37.290  29.405  29.847  1.00  0.00     0.006 A 
ENDBRANCH  59  73
BRANCH  60  81
ATOM     81  C   UNL A   1      49.309  26.413  26.659  1.00  0.00     0.057 A 
ATOM     82  C   UNL A   1      50.215  25.869  27.577  1.00  0.00     0.134 A 
ATOM     83  C   UNL A   1      49.772  26.637  25.355  1.00  0.00     0.134 A 
ATOM     84  F   UNL A   1      49.841  25.648  28.846  1.00  0.00    -0.206 F 
ATOM     85  C   UNL A   1      51.535  25.584  27.222  1.00  0.00     0.040 A 
ATOM     86  C   UNL A   1      51.079  26.329  24.979  1.00  0.00     0.040 A 
ATOM     87  F   UNL A   1      48.950  27.145  24.423  1.00  0.00    -0.206 F 
ATOM     88  C   UNL A   1      51.969  25.809  25.918  1.00  0.00     0.006 A 
ENDBRANCH  60  81
BRANCH  72  89
ATOM     89  C   UNL A   1      46.353  32.267  29.004  1.00  0.00     0.057 A 
ATOM     90  C   UNL A   1      46.880  32.582  30.263  1.00  0.00     0.134 A 
ATOM     91  C   UNL A   1      46.392  33.265  28.022  1.00  0.00     0.134 A 
ATOM     92  F   UNL A   1      46.863  31.677  31.253  1.00  0.00    -0.206 F 
ATOM     93  C   UNL A   1      47.399  33.848  30.542  1.00  0.00     0.040 A 
ATOM     94  C   UNL A   1      46.938  34.525  28.279  1.00  0.00     0.040 A 
ATOM     95  F   UNL A   1      45.913  33.031  26.790  1.00  0.00    -0.206 F 
ATOM     96  C   UNL A   1      47.436  34.821  29.545  1.00  0.00     0.006 A 
ENDBRANCH  72  89
ENDBRANCH  46  47
ENDBRANCH  38  41
ENDBRANCH  36  37
ENDBRANCH  35  36
ENDBRANCH  34  35
ENDBRANCH   1  34
TORSDOF 17
ENDMDL
MODEL 2
REMARK VINA RESULT:     -12.8      0.352      5.788
REMARK SMILES O=C(CCCN1C(=O)C(=O)/C(=C(/[O-])c2ccc(Cl)cc2)[C@@H]1c1ccccc1[N+](=O)[O-])NCCCCNC(=O)c1ccc(-c2c3nc(c(-c4c(F)cccc4F)c4ccc([nH]4)c(-c4c(F)cccc4F)c4nc(c(-c5c(F)cccc5F)c5ccc2[nH]5)C=C4)C=C3)cc1
REMARK SMILES IDX 32 1 31 2 1 3 2 4 3 6 4 7 5 8 6 9 7 10 21 11 8 12 9 13 11 14
REMARK SMILES IDX 10 15 12 16 13 17 22 18 23 19 27 20 24 21 26 22 25 23 28 24
REMARK SMILES IDX 29 25 30 26 14 27 15 28 20 29 16 30 19 31 17 32 18 33 33 34
REMARK SMILES IDX 34 35 35 36 36 37 37 38 38 40 39 41 40 42 92 43 41 44 91 45
REMARK SMILES IDX 42 46 43 47 44 48 85 49 45 50 90 51 84 52 86 53 46 54 89 55
REMARK SMILES IDX 83 56 82 57 47 59 73 60 56 61 72 62 57 63 60 64 71 65 87 66
REMARK SMILES IDX 58 67 59 68 70 70 88 71 61 72 48 73 49 74 54 75 50 76 51 77
REMARK SMILES IDX 53 78 55 79 52 80 74 81 75 82 80 83 76 84 77 85 79 86 81 87
REMARK SMILES IDX 78 88 62 89 63 90 68 91 64 92 65 93 67 94 69 95 66 96
REMARK H PARENT 31 5 36 39 86 58 60 69
REMARK Flexibility Score: inf
ROOT
ATOM      1  C   UNL A   1      35.109  19.900  25.001  1.00  0.00     0.116 C 
ENDROOT
BRANCH   1   2
ATOM      2  N   UNL A   1      34.182  20.495  24.063  1.00  0.00    -0.356 N 
ATOM      3  O   UNL A   1      32.298  19.730  25.059  1.00  0.00    -0.275 OA
ATOM      4  C   UNL A   1      32.828  20.460  24.223  1.00  0.00     0.220 C 
ATOM      5  H   UNL A   1      34.547  20.949  23.270  1.00  0.00     0.163 HD
BRANCH   4   6
ATOM      6  C   UNL A   1      31.986  21.389  23.353  1.00  0.00     0.102 C 
BRANCH   6   7
ATOM      7  C   UNL A   1      32.509  22.464  22.359  1.00  0.00     0.031 C 
BRANCH   7   8
ATOM      8  C   UNL A   1      32.143  23.980  22.316  1.00  0.00     0.121 C 
BRANCH   8   9
ATOM      9  N   UNL A   1      32.681  24.886  23.365  1.00  0.00    -0.324 N 
ATOM     10  C   UNL A   1      33.223  26.093  22.900  1.00  0.00     0.295 C 
ATOM     11  C   UNL A   1      32.227  25.009  24.787  1.00  0.00     0.157 C 
ATOM     12  O   UNL A   1      33.432  26.421  21.753  1.00  0.00    -0.265 OA
ATOM     13  C   UNL A   1      33.314  27.057  24.070  1.00  0.00     0.248 C 
ATOM     14  C   UNL A   1      32.515  26.466  25.176  1.00  0.00     0.025 C 
ATOM     15  O   UNL A   1      33.865  28.128  24.018  1.00  0.00    -0.283 OA
ATOM     16  C   UNL A   1      32.152  27.176  26.265  1.00  0.00    -0.092 C 
ATOM     17  O   UNL A   1      31.302  26.705  27.242  1.00  0.00    -0.872 OA
BRANCH  11  18
ATOM     18  C   UNL A   1      32.818  24.046  25.837  1.00  0.00     0.057 A 
ATOM     19  C   UNL A   1      34.219  24.011  26.046  1.00  0.00     0.013 A 
ATOM     20  C   UNL A   1      32.116  23.099  26.594  1.00  0.00     0.275 A 
ATOM     21  C   UNL A   1      34.839  23.120  26.947  1.00  0.00     0.001 A 
ATOM     22  C   UNL A   1      32.713  22.226  27.529  1.00  0.00     0.086 A 
ATOM     23  C   UNL A   1      34.083  22.240  27.707  1.00  0.00     0.007 A 
BRANCH  20  24
ATOM     24  N   UNL A   1      30.691  23.117  26.669  1.00  0.00     0.063 N 
ATOM     25  O   UNL A   1      30.151  22.156  26.127  1.00  0.00    -0.258 OA
ATOM     26  O   UNL A   1      30.137  24.076  27.211  1.00  0.00    -0.258 OA
ENDBRANCH  20  24
ENDBRANCH  11  18
BRANCH  16  27
ATOM     27  C   UNL A   1      32.742  28.472  26.642  1.00  0.00    -0.033 A 
ATOM     28  C   UNL A   1      34.019  28.578  27.206  1.00  0.00     0.009 A 
ATOM     29  C   UNL A   1      31.974  29.633  26.457  1.00  0.00     0.009 A 
ATOM     30  C   UNL A   1      34.499  29.824  27.625  1.00  0.00     0.021 A 
ATOM     31  C   UNL A   1      32.456  30.877  26.871  1.00  0.00     0.021 A 
ATOM     32  C   UNL A   1      33.713  30.964  27.465  1.00  0.00     0.041 A 
ATOM     33  Cl  UNL A   1      34.293  32.491  28.007  1.00  0.00    -0.084 Cl
ENDBRANCH  16  27
ENDBRANCH   8   9
ENDBRANCH   7   8
ENDBRANCH   6   7
ENDBRANCH   4   6
ENDBRANCH   1   2
BRANCH   1  34
ATOM     34  C   UNL A   1      36.478  20.580  24.972  1.00  0.00     0.023 C 
BRANCH  34  35
ATOM     35  C   UNL A   1      37.707  19.664  25.009  1.00  0.00     0.023 C 
BRANCH  35  36
ATOM     36  C   UNL A   1      38.939  20.171  25.754  1.00  0.00     0.116 C 
BRANCH  36  37
ATOM     37  N   UNL A   1      40.014  19.202  25.805  1.00  0.00    -0.352 N 
ATOM     38  C   UNL A   1      41.357  19.364  26.058  1.00  0.00     0.251 C 
ATOM     39  H   UNL A   1      39.740  18.273  25.631  1.00  0.00     0.163 HD
ATOM     40  O   UNL A   1      42.101  18.391  25.950  1.00  0.00    -0.269 OA
BRANCH  38  41
ATOM     41  C   UNL A   1      41.938  20.685  26.413  1.00  0.00     0.039 A 
ATOM     42  C   UNL A   1      42.235  21.577  25.375  1.00  0.00     0.014 A 
ATOM     43  C   UNL A   1      42.234  21.051  27.729  1.00  0.00     0.014 A 
ATOM     44  C   UNL A   1      42.752  22.846  25.657  1.00  0.00     0.010 A 
ATOM     45  C   UNL A   1      42.678  22.345  28.016  1.00  0.00     0.010 A 
ATOM     46  C   UNL A   1      42.939  23.261  26.985  1.00  0.00    -0.014 A 
BRANCH  46  47
ATOM     47  C   UNL A   1      43.381  24.648  27.305  1.00  0.00     0.031 A 
ATOM     48  C   UNL A   1      44.831  25.042  27.198  1.00  0.00     0.074 A 
ATOM     49  C   UNL A   1      42.481  25.550  27.750  1.00  0.00     0.049 A 
ATOM     50  N   UNL A   1      45.403  26.182  27.496  1.00  0.00    -0.248 NA
ATOM     51  C   UNL A   1      45.762  24.013  26.712  1.00  0.00     0.031 C 
ATOM     52  C   UNL A   1      41.050  25.298  27.930  1.00  0.00     0.029 A 
ATOM     53  N   UNL A   1      42.637  26.858  28.141  1.00  0.00    -0.354 N 
ATOM     54  C   UNL A   1      46.758  26.005  27.244  1.00  0.00     0.074 A 
ATOM     55  C   UNL A   1      46.929  24.631  26.820  1.00  0.00     0.031 C 
ATOM     56  C   UNL A   1      40.458  26.418  28.375  1.00  0.00     0.029 A 
ATOM     57  C   UNL A   1      41.470  27.454  28.556  1.00  0.00     0.049 A 
ATOM     58  H   UNL A   1      43.503  27.325  28.125  1.00  0.00     0.167 HD
ATOM     59  C   UNL A   1      47.767  26.905  27.339  1.00  0.00     0.037 A 
ATOM     60  C   UNL A   1      41.238  28.690  29.042  1.00  0.00     0.037 A 
ATOM     61  C   UNL A   1      47.599  28.276  27.751  1.00  0.00     0.049 A 
ATOM     62  C   UNL A   1      42.381  29.660  29.174  1.00  0.00     0.074 A 
ATOM     63  C   UNL A   1      48.553  29.276  27.828  1.00  0.00     0.029 A 
ATOM     64  N   UNL A   1      46.402  28.838  28.169  1.00  0.00    -0.354 N 
ATOM     65  N   UNL A   1      43.645  29.496  28.868  1.00  0.00    -0.248 NA
ATOM     66  C   UNL A   1      42.063  30.989  29.714  1.00  0.00     0.031 C 
ATOM     67  C   UNL A   1      47.947  30.424  28.350  1.00  0.00     0.029 A 
ATOM     68  C   UNL A   1      46.600  30.160  28.534  1.00  0.00     0.049 A 
ATOM     69  H   UNL A   1      45.537  28.367  28.200  1.00  0.00     0.167 HD
ATOM     70  C   UNL A   1      44.264  30.708  29.146  1.00  0.00     0.074 A 
ATOM     71  C   UNL A   1      43.235  31.602  29.631  1.00  0.00     0.031 C 
ATOM     72  C   UNL A   1      45.570  31.049  29.009  1.00  0.00     0.037 A 
BRANCH  59  73
ATOM     73  C   UNL A   1      49.154  26.438  26.994  1.00  0.00     0.057 A 
ATOM     74  C   UNL A   1      49.650  26.490  25.684  1.00  0.00     0.134 A 
ATOM     75  C   UNL A   1      50.020  25.971  27.991  1.00  0.00     0.134 A 
ATOM     76  F   UNL A   1      48.872  26.920  24.678  1.00  0.00    -0.206 F 
ATOM     77  C   UNL A   1      50.944  26.067  25.375  1.00  0.00     0.040 A 
ATOM     78  C   UNL A   1      51.327  25.576  27.699  1.00  0.00     0.040 A 
ATOM     79  F   UNL A   1      49.617  25.904  29.268  1.00  0.00    -0.206 F 
ATOM     80  C   UNL A   1      51.790  25.616  26.386  1.00  0.00     0.006 A 
ENDBRANCH  59  73
BRANCH  60  81
ATOM     81  C   UNL A   1      39.862  29.090  29.437  1.00  0.00     0.057 A 
ATOM     82  C   UNL A   1      39.430  28.985  30.764  1.00  0.00     0.134 A 
ATOM     83  C   UNL A   1      38.939  29.566  28.496  1.00  0.00     0.134 A 
ATOM     84  F   UNL A   1      40.259  28.519  31.709  1.00  0.00    -0.206 F 
ATOM     85  C   UNL A   1      38.126  29.314  31.138  1.00  0.00     0.040 A 
ATOM     86  C   UNL A   1      37.642  29.928  28.861  1.00  0.00     0.040 A 
ATOM     87  F   UNL A   1      39.292  29.702  27.209  1.00  0.00    -0.206 F 
ATOM     88  C   UNL A   1      37.229  29.792  30.185  1.00  0.00     0.006 A 
ENDBRANCH  60  81
BRANCH  72  89
ATOM     89  C   UNL A   1      45.955  32.462  29.345  1.00  0.00     0.057 A 
ATOM     90  C   UNL A   1      45.901  33.495  28.400  1.00  0.00     0.134 A 
ATOM     91  C   UNL A   1      46.349  32.801  30.647  1.00  0.00     0.134 A 
ATOM     92  F   UNL A   1      45.544  33.239  27.133  1.00  0.00    -0.206 F 
ATOM     93  C   UNL A   1      46.252  34.806  28.730  1.00  0.00     0.040 A 
ATOM     94  C   UNL A   1      46.671  34.114  30.996  1.00  0.00     0.040 A 
ATOM     95  F   UNL A   1      46.414  31.864  31.606  1.00  0.00    -0.206 F 
ATOM     96  C   UNL A   1      46.631  35.119  30.034  1.00  0.00     0.006 A 
ENDBRANCH  72  89
ENDBRANCH  46  47
ENDBRANCH  38  41
ENDBRANCH  36  37
ENDBRANCH  35  36
ENDBRANCH  34  35
ENDBRANCH   1  34
TORSDOF 17
ENDMDL
MODEL 3
REMARK VINA RESULT:     -11.3      4.647      7.275
REMARK SMILES O=C(CCCN1C(=O)C(=O)/C(=C(/[O-])c2ccc(Cl)cc2)[C@@H]1c1ccccc1[N+](=O)[O-])NCCCCNC(=O)c1ccc(-c2c3nc(c(-c4c(F)cccc4F)c4ccc([nH]4)c(-c4c(F)cccc4F)c4nc(c(-c5c(F)cccc5F)c5ccc2[nH]5)C=C4)C=C3)cc1
REMARK SMILES IDX 32 1 31 2 1 3 2 4 3 6 4 7 5 8 6 9 7 10 21 11 8 12 9 13 11 14
REMARK SMILES IDX 10 15 12 16 13 17 22 18 23 19 27 20 24 21 26 22 25 23 28 24
REMARK SMILES IDX 29 25 30 26 14 27 15 28 20 29 16 30 19 31 17 32 18 33 33 34
REMARK SMILES IDX 34 35 35 36 36 37 37 38 38 40 39 41 40 42 92 43 41 44 91 45
REMARK SMILES IDX 42 46 43 47 44 48 85 49 45 50 90 51 84 52 86 53 46 54 89 55
REMARK SMILES IDX 83 56 82 57 47 59 73 60 56 61 72 62 57 63 60 64 71 65 87 66
REMARK SMILES IDX 58 67 59 68 70 70 88 71 61 72 48 73 49 74 54 75 50 76 51 77
REMARK SMILES IDX 53 78 55 79 52 80 74 81 75 82 80 83 76 84 77 85 79 86 81 87
REMARK SMILES IDX 78 88 62 89 63 90 68 91 64 92 65 93 67 94 69 95 66 96
REMARK H PARENT 31 5 36 39 86 58 60 69
REMARK Flexibility Score: inf
ROOT
ATOM      1  C   UNL A   1      37.806  22.762  25.460  1.00  0.00     0.116 C 
ENDROOT
BRANCH   1   2
ATOM      2  N   UNL A   1      36.514  22.970  26.077  1.00  0.00    -0.356 N 
ATOM      3  O   UNL A   1      35.616  20.990  25.446  1.00  0.00    -0.275 OA
ATOM      4  C   UNL A   1      35.541  22.016  26.121  1.00  0.00     0.220 C 
ATOM      5  H   UNL A   1      36.327  23.846  26.486  1.00  0.00     0.163 HD
BRANCH   4   6
ATOM      6  C   UNL A   1      34.366  22.241  27.068  1.00  0.00     0.102 C 
BRANCH   6   7
ATOM      7  C   UNL A   1      32.887  21.823  26.834  1.00  0.00     0.031 C 
BRANCH   7   8
ATOM      8  C   UNL A   1      31.926  22.313  25.707  1.00  0.00     0.121 C 
BRANCH   8   9
ATOM      9  N   UNL A   1      31.781  23.772  25.462  1.00  0.00    -0.324 N 
ATOM     10  C   UNL A   1      30.992  24.464  26.392  1.00  0.00     0.295 C 
ATOM     11  C   UNL A   1      32.759  24.688  24.793  1.00  0.00     0.157 C 
ATOM     12  O   UNL A   1      30.308  24.001  27.278  1.00  0.00    -0.265 OA
ATOM     13  C   UNL A   1      31.297  25.947  26.266  1.00  0.00     0.248 C 
ATOM     14  C   UNL A   1      32.525  26.063  25.435  1.00  0.00     0.025 C 
ATOM     15  O   UNL A   1      30.680  26.812  26.836  1.00  0.00    -0.283 OA
ATOM     16  C   UNL A   1      33.233  27.210  25.348  1.00  0.00    -0.092 C 
ATOM     17  O   UNL A   1      34.443  27.317  24.699  1.00  0.00    -0.872 OA
BRANCH  11  18
ATOM     18  C   UNL A   1      32.731  24.803  23.255  1.00  0.00     0.057 A 
ATOM     19  C   UNL A   1      32.009  25.857  22.644  1.00  0.00     0.013 A 
ATOM     20  C   UNL A   1      33.294  23.904  22.338  1.00  0.00     0.275 A 
ATOM     21  C   UNL A   1      31.891  25.996  21.244  1.00  0.00     0.001 A 
ATOM     22  C   UNL A   1      33.219  24.048  20.936  1.00  0.00     0.086 A 
ATOM     23  C   UNL A   1      32.516  25.102  20.388  1.00  0.00     0.007 A 
BRANCH  20  24
ATOM     24  N   UNL A   1      34.217  22.900  22.755  1.00  0.00     0.063 N 
ATOM     25  O   UNL A   1      35.393  23.257  22.716  1.00  0.00    -0.258 OA
ATOM     26  O   UNL A   1      33.787  21.788  23.068  1.00  0.00    -0.258 OA
ENDBRANCH  20  24
ENDBRANCH  11  18
BRANCH  16  27
ATOM     27  C   UNL A   1      32.734  28.526  25.782  1.00  0.00    -0.033 A 
ATOM     28  C   UNL A   1      31.753  29.227  25.069  1.00  0.00     0.009 A 
ATOM     29  C   UNL A   1      33.291  29.104  26.933  1.00  0.00     0.009 A 
ATOM     30  C   UNL A   1      31.375  30.511  25.476  1.00  0.00     0.021 A 
ATOM     31  C   UNL A   1      32.909  30.383  27.341  1.00  0.00     0.021 A 
ATOM     32  C   UNL A   1      31.961  31.087  26.603  1.00  0.00     0.041 A 
ATOM     33  Cl  UNL A   1      31.516  32.677  27.085  1.00  0.00    -0.084 Cl
ENDBRANCH  16  27
ENDBRANCH   8   9
ENDBRANCH   7   8
ENDBRANCH   6   7
ENDBRANCH   4   6
ENDBRANCH   1   2
BRANCH   1  34
ATOM     34  C   UNL A   1      38.558  21.582  26.076  1.00  0.00     0.023 C 
BRANCH  34  35
ATOM     35  C   UNL A   1      40.011  21.833  26.499  1.00  0.00     0.023 C 
BRANCH  35  36
ATOM     36  C   UNL A   1      40.389  23.254  26.903  1.00  0.00     0.116 C 
BRANCH  36  37
ATOM     37  N   UNL A   1      41.232  23.919  25.930  1.00  0.00    -0.352 N 
ATOM     38  C   UNL A   1      41.676  25.220  25.867  1.00  0.00     0.251 C 
ATOM     39  H   UNL A   1      41.538  23.346  25.191  1.00  0.00     0.163 HD
ATOM     40  O   UNL A   1      42.311  25.581  24.879  1.00  0.00    -0.269 OA
BRANCH  38  41
ATOM     41  C   UNL A   1      41.372  26.209  26.934  1.00  0.00     0.039 A 
ATOM     42  C   UNL A   1      40.425  25.863  27.905  1.00  0.00     0.014 A 
ATOM     43  C   UNL A   1      41.961  27.476  26.979  1.00  0.00     0.014 A 
ATOM     44  C   UNL A   1      40.126  26.744  28.950  1.00  0.00     0.010 A 
ATOM     45  C   UNL A   1      41.720  28.324  28.064  1.00  0.00     0.010 A 
ATOM     46  C   UNL A   1      40.804  27.968  29.066  1.00  0.00    -0.014 A 
BRANCH  46  47
ATOM     47  C   UNL A   1      40.580  28.867  30.234  1.00  0.00     0.031 A 
ATOM     48  C   UNL A   1      39.497  29.914  30.208  1.00  0.00     0.074 A 
ATOM     49  C   UNL A   1      41.391  28.780  31.309  1.00  0.00     0.049 A 
ATOM     50  N   UNL A   1      39.202  30.822  31.106  1.00  0.00    -0.248 NA
ATOM     51  C   UNL A   1      38.650  29.960  29.007  1.00  0.00     0.031 C 
ATOM     52  C   UNL A   1      42.499  27.834  31.458  1.00  0.00     0.029 A 
ATOM     53  N   UNL A   1      41.419  29.505  32.476  1.00  0.00    -0.354 N 
ATOM     54  C   UNL A   1      38.145  31.551  30.576  1.00  0.00     0.074 A 
ATOM     55  C   UNL A   1      37.886  31.014  29.256  1.00  0.00     0.031 C 
ATOM     56  C   UNL A   1      43.081  28.021  32.653  1.00  0.00     0.029 A 
ATOM     57  C   UNL A   1      42.422  29.129  33.337  1.00  0.00     0.049 A 
ATOM     58  H   UNL A   1      40.779  30.226  32.677  1.00  0.00     0.167 HD
ATOM     59  C   UNL A   1      37.440  32.562  31.140  1.00  0.00     0.037 A 
ATOM     60  C   UNL A   1      42.784  29.626  34.537  1.00  0.00     0.037 A 
ATOM     61  C   UNL A   1      37.689  33.092  32.457  1.00  0.00     0.049 A 
ATOM     62  C   UNL A   1      42.010  30.775  35.125  1.00  0.00     0.074 A 
ATOM     63  C   UNL A   1      36.995  34.081  33.133  1.00  0.00     0.029 A 
ATOM     64  N   UNL A   1      38.718  32.687  33.293  1.00  0.00    -0.354 N 
ATOM     65  N   UNL A   1      40.971  31.408  34.639  1.00  0.00    -0.248 NA
ATOM     66  C   UNL A   1      42.457  31.274  36.434  1.00  0.00     0.031 C 
ATOM     67  C   UNL A   1      37.640  34.317  34.351  1.00  0.00     0.029 A 
ATOM     68  C   UNL A   1      38.696  33.428  34.465  1.00  0.00     0.049 A 
ATOM     69  H   UNL A   1      39.368  31.977  33.087  1.00  0.00     0.167 HD
ATOM     70  C   UNL A   1      40.620  32.355  35.594  1.00  0.00     0.074 A 
ATOM     71  C   UNL A   1      41.548  32.203  36.693  1.00  0.00     0.031 C 
ATOM     72  C   UNL A   1      39.617  33.268  35.561  1.00  0.00     0.037 A 
BRANCH  59  73
ATOM     73  C   UNL A   1      36.328  33.173  30.332  1.00  0.00     0.057 A 
ATOM     74  C   UNL A   1      36.580  34.057  29.274  1.00  0.00     0.134 A 
ATOM     75  C   UNL A   1      34.992  32.838  30.586  1.00  0.00     0.134 A 
ATOM     76  F   UNL A   1      37.836  34.428  28.980  1.00  0.00    -0.206 F 
ATOM     77  C   UNL A   1      35.542  34.609  28.520  1.00  0.00     0.040 A 
ATOM     78  C   UNL A   1      33.948  33.357  29.817  1.00  0.00     0.040 A 
ATOM     79  F   UNL A   1      34.678  31.988  31.575  1.00  0.00    -0.206 F 
ATOM     80  C   UNL A   1      34.222  34.253  28.786  1.00  0.00     0.006 A 
ENDBRANCH  59  73
BRANCH  60  81
ATOM     81  C   UNL A   1      43.933  29.037  35.272  1.00  0.00     0.057 A 
ATOM     82  C   UNL A   1      45.243  29.475  35.040  1.00  0.00     0.134 A 
ATOM     83  C   UNL A   1      43.756  28.010  36.209  1.00  0.00     0.134 A 
ATOM     84  F   UNL A   1      45.482  30.443  34.142  1.00  0.00    -0.206 F 
ATOM     85  C   UNL A   1      46.334  28.898  35.691  1.00  0.00     0.040 A 
ATOM     86  C   UNL A   1      44.835  27.445  36.889  1.00  0.00     0.040 A 
ATOM     87  F   UNL A   1      42.525  27.552  36.487  1.00  0.00    -0.206 F 
ATOM     88  C   UNL A   1      46.131  27.883  36.623  1.00  0.00     0.006 A 
ENDBRANCH  60  81
BRANCH  72  89
ATOM     89  C   UNL A   1      39.440  34.144  36.769  1.00  0.00     0.057 A 
ATOM     90  C   UNL A   1      38.793  33.695  37.928  1.00  0.00     0.134 A 
ATOM     91  C   UNL A   1      39.959  35.445  36.785  1.00  0.00     0.134 A 
ATOM     92  F   UNL A   1      38.262  32.464  37.976  1.00  0.00    -0.206 F 
ATOM     93  C   UNL A   1      38.644  34.518  39.047  1.00  0.00     0.040 A 
ATOM     94  C   UNL A   1      39.845  36.266  37.909  1.00  0.00     0.040 A 
ATOM     95  F   UNL A   1      40.599  35.938  35.713  1.00  0.00    -0.206 F 
ATOM     96  C   UNL A   1      39.179  35.805  39.041  1.00  0.00     0.006 A 
ENDBRANCH  72  89
ENDBRANCH  46  47
ENDBRANCH  38  41
ENDBRANCH  36  37
ENDBRANCH  35  36
ENDBRANCH  34  35
ENDBRANCH   1  34
TORSDOF 17
ENDMDL
