MODEL 1
REMARK VINA RESULT:     -14.1      0.000      0.000
REMARK SMILES O=C(NCCCCNC(=O)c1ccccc1C(=O)Nc1ccc(N2C(=O)[C@H]3[C@@H]4CC[C@@H](C4)[C@@H]3C2=O)cc1)c1ccc(-c2c3nc(c(-c4c(F)cccc4F)c4ccc([nH]4)c(-c4c(F)cccc4F)c4nc(c(-c5c(F)cccc5F)c5ccc2[nH]5)C=C4)C=C3)cc1
REMARK SMILES IDX 6 1 5 2 4 3 3 4 1 5 2 6 38 8 39 9 91 10 40 11 90 12 41 13
REMARK SMILES IDX 42 14 43 15 84 16 44 17 89 18 83 19 85 20 45 21 88 22 82 23
REMARK SMILES IDX 81 24 46 26 72 27 55 28 71 29 56 30 59 31 70 32 86 33 57 34
REMARK SMILES IDX 58 35 69 37 87 38 60 39 47 40 48 41 53 42 49 43 50 44 52 45
REMARK SMILES IDX 54 46 51 47 73 48 74 49 79 50 75 51 76 52 78 53 80 54 77 55
REMARK SMILES IDX 61 56 62 57 67 58 63 59 64 60 66 61 68 62 65 63 7 64 8 65
REMARK SMILES IDX 9 66 10 68 11 69 12 70 16 71 13 72 15 73 14 74 17 75 18 76
REMARK SMILES IDX 19 77 20 79 21 80 37 81 22 82 36 83 23 84 24 85 25 86 34 87
REMARK SMILES IDX 26 88 27 89 33 90 35 91 28 92 31 93 29 94 32 95 30 96
REMARK H PARENT 3 7 85 25 59 36 8 67 19 78
REMARK Flexibility Score: inf
ROOT
ATOM      1  C   UNL A   1      31.435  30.927  25.883  1.00  0.00     0.023 C 
ENDROOT
BRANCH   1   2
ATOM      2  C   UNL A   1      31.228  32.311  26.501  1.00  0.00     0.023 C 
BRANCH   2   3
ATOM      3  C   UNL A   1      32.446  32.859  27.231  1.00  0.00     0.116 C 
BRANCH   3   4
ATOM      4  N   UNL A   1      32.287  34.239  27.661  1.00  0.00    -0.352 N 
ATOM      5  O   UNL A   1      32.607  36.082  28.924  1.00  0.00    -0.269 OA
ATOM      6  C   UNL A   1      32.984  34.960  28.601  1.00  0.00     0.251 C 
ATOM      7  H   UNL A   1      31.567  34.734  27.208  1.00  0.00     0.163 HD
BRANCH   6   8
ATOM      8  C   UNL A   1      34.178  34.372  29.247  1.00  0.00     0.039 A 
ATOM      9  C   UNL A   1      35.447  34.573  28.707  1.00  0.00     0.014 A 
ATOM     10  C   UNL A   1      34.027  33.611  30.409  1.00  0.00     0.014 A 
ATOM     11  C   UNL A   1      36.528  33.862  29.208  1.00  0.00     0.010 A 
ATOM     12  C   UNL A   1      35.143  32.996  30.991  1.00  0.00     0.010 A 
ATOM     13  C   UNL A   1      36.400  33.089  30.374  1.00  0.00    -0.014 A 
BRANCH  13  14
ATOM     14  C   UNL A   1      37.622  32.476  30.959  1.00  0.00     0.031 A 
ATOM     15  C   UNL A   1      38.228  32.976  32.242  1.00  0.00     0.074 A 
ATOM     16  C   UNL A   1      38.156  31.408  30.332  1.00  0.00     0.049 A 
ATOM     17  N   UNL A   1      39.257  32.504  32.901  1.00  0.00    -0.248 NA
ATOM     18  C   UNL A   1      37.611  34.157  32.864  1.00  0.00     0.031 C 
ATOM     19  C   UNL A   1      37.675  30.851  29.064  1.00  0.00     0.029 A 
ATOM     20  N   UNL A   1      39.193  30.584  30.681  1.00  0.00    -0.354 N 
ATOM     21  C   UNL A   1      39.415  33.328  34.009  1.00  0.00     0.074 A 
ATOM     22  C   UNL A   1      38.399  34.356  33.912  1.00  0.00     0.031 C 
ATOM     23  C   UNL A   1      38.371  29.744  28.776  1.00  0.00     0.029 A 
ATOM     24  C   UNL A   1      39.400  29.558  29.789  1.00  0.00     0.049 A 
ATOM     25  H   UNL A   1      39.738  30.712  31.491  1.00  0.00     0.167 HD
ATOM     26  C   UNL A   1      40.313  33.226  35.019  1.00  0.00     0.037 A 
ATOM     27  C   UNL A   1      40.330  28.587  29.771  1.00  0.00     0.037 A 
ATOM     28  C   UNL A   1      41.326  32.201  35.105  1.00  0.00     0.049 A 
ATOM     29  C   UNL A   1      41.330  28.522  30.886  1.00  0.00     0.074 A 
ATOM     30  C   UNL A   1      42.276  32.010  36.094  1.00  0.00     0.029 A 
ATOM     31  N   UNL A   1      41.525  31.200  34.166  1.00  0.00    -0.354 N 
ATOM     32  N   UNL A   1      41.442  29.289  31.943  1.00  0.00    -0.248 NA
ATOM     33  C   UNL A   1      42.334  27.454  30.806  1.00  0.00     0.031 C 
ATOM     34  C   UNL A   1      43.080  30.924  35.730  1.00  0.00     0.029 A 
ATOM     35  C   UNL A   1      42.593  30.400  34.544  1.00  0.00     0.049 A 
ATOM     36  H   UNL A   1      40.986  31.076  33.352  1.00  0.00     0.167 HD
ATOM     37  C   UNL A   1      42.518  28.789  32.661  1.00  0.00     0.074 A 
ATOM     38  C   UNL A   1      42.999  27.630  31.938  1.00  0.00     0.031 C 
ATOM     39  C   UNL A   1      43.066  29.252  33.810  1.00  0.00     0.037 A 
BRANCH  26  40
ATOM     40  C   UNL A   1      40.250  34.249  36.119  1.00  0.00     0.057 A 
ATOM     41  C   UNL A   1      40.905  35.484  36.017  1.00  0.00     0.134 A 
ATOM     42  C   UNL A   1      39.470  34.029  37.262  1.00  0.00     0.134 A 
ATOM     43  F   UNL A   1      41.675  35.759  34.953  1.00  0.00    -0.206 F 
ATOM     44  C   UNL A   1      40.801  36.453  37.017  1.00  0.00     0.040 A 
ATOM     45  C   UNL A   1      39.335  35.001  38.256  1.00  0.00     0.040 A 
ATOM     46  F   UNL A   1      38.806  32.874  37.423  1.00  0.00    -0.206 F 
ATOM     47  C   UNL A   1      40.005  36.216  38.136  1.00  0.00     0.006 A 
ENDBRANCH  26  40
BRANCH  27  48
ATOM     48  C   UNL A   1      40.374  27.623  28.641  1.00  0.00     0.057 A 
ATOM     49  C   UNL A   1      41.132  27.878  27.492  1.00  0.00     0.134 A 
ATOM     50  C   UNL A   1      39.645  26.428  28.680  1.00  0.00     0.134 A 
ATOM     51  F   UNL A   1      41.842  29.010  27.387  1.00  0.00    -0.206 F 
ATOM     52  C   UNL A   1      41.137  26.994  26.411  1.00  0.00     0.040 A 
ATOM     53  C   UNL A   1      39.671  25.519  27.623  1.00  0.00     0.040 A 
ATOM     54  F   UNL A   1      38.909  26.118  29.757  1.00  0.00    -0.206 F 
ATOM     55  C   UNL A   1      40.409  25.808  26.478  1.00  0.00     0.006 A 
ENDBRANCH  27  48
BRANCH  39  56
ATOM     56  C   UNL A   1      44.230  28.481  34.363  1.00  0.00     0.057 A 
ATOM     57  C   UNL A   1      44.058  27.429  35.273  1.00  0.00     0.134 A 
ATOM     58  C   UNL A   1      45.541  28.801  33.987  1.00  0.00     0.134 A 
ATOM     59  F   UNL A   1      42.830  27.082  35.688  1.00  0.00    -0.206 F 
ATOM     60  C   UNL A   1      45.149  26.753  35.823  1.00  0.00     0.040 A 
ATOM     61  C   UNL A   1      46.638  28.109  34.504  1.00  0.00     0.040 A 
ATOM     62  F   UNL A   1      45.779  29.789  33.112  1.00  0.00    -0.206 F 
ATOM     63  C   UNL A   1      46.443  27.091  35.435  1.00  0.00     0.006 A 
ENDBRANCH  39  56
ENDBRANCH  13  14
ENDBRANCH   6   8
ENDBRANCH   3   4
ENDBRANCH   2   3
ENDBRANCH   1   2
BRANCH   1  64
ATOM     64  C   UNL A   1      32.591  30.133  26.490  1.00  0.00     0.116 C 
BRANCH  64  65
ATOM     65  N   UNL A   1      33.440  29.536  25.479  1.00  0.00    -0.352 N 
ATOM     66  C   UNL A   1      33.124  28.602  24.532  1.00  0.00     0.252 C 
ATOM     67  H   UNL A   1      34.374  29.845  25.474  1.00  0.00     0.163 HD
ATOM     68  O   UNL A   1      34.018  28.075  23.872  1.00  0.00    -0.269 OA
BRANCH  66  69
ATOM     69  C   UNL A   1      31.744  28.105  24.375  1.00  0.00     0.052 A 
ATOM     70  C   UNL A   1      31.149  28.576  23.181  1.00  0.00     0.014 A 
ATOM     71  C   UNL A   1      31.044  27.221  25.208  1.00  0.00     0.052 A 
ATOM     72  C   UNL A   1      29.919  28.097  22.743  1.00  0.00     0.001 A 
ATOM     73  C   UNL A   1      29.810  26.725  24.719  1.00  0.00     0.014 A 
ATOM     74  C   UNL A   1      29.262  27.141  23.501  1.00  0.00     0.001 A 
BRANCH  71  75
ATOM     75  C   UNL A   1      31.460  26.600  26.506  1.00  0.00     0.256 C 
ATOM     76  O   UNL A   1      31.466  27.336  27.502  1.00  0.00    -0.269 OA
ATOM     77  N   UNL A   1      31.754  25.280  26.750  1.00  0.00    -0.322 N 
ATOM     78  H   UNL A   1      31.923  25.080  27.700  1.00  0.00     0.170 HD
BRANCH  77  79
ATOM     79  C   UNL A   1      31.858  24.169  25.919  1.00  0.00     0.041 A 
ATOM     80  C   UNL A   1      32.878  24.204  24.964  1.00  0.00     0.028 A 
ATOM     81  C   UNL A   1      31.071  23.032  26.057  1.00  0.00     0.028 A 
ATOM     82  C   UNL A   1      33.309  23.021  24.371  1.00  0.00     0.029 A 
ATOM     83  C   UNL A   1      31.417  21.877  25.351  1.00  0.00     0.029 A 
ATOM     84  C   UNL A   1      32.605  21.841  24.604  1.00  0.00     0.052 A 
BRANCH  84  85
ATOM     85  N   UNL A   1      33.170  20.597  24.273  1.00  0.00    -0.250 N 
ATOM     86  C   UNL A   1      32.578  19.691  23.384  1.00  0.00     0.237 C 
ATOM     87  C   UNL A   1      34.220  20.013  25.014  1.00  0.00     0.237 C 
ATOM     88  O   UNL A   1      31.778  19.878  22.489  1.00  0.00    -0.274 OA
ATOM     89  C   UNL A   1      33.029  18.376  23.913  1.00  0.00     0.095 C 
ATOM     90  C   UNL A   1      34.459  18.718  24.298  1.00  0.00     0.095 C 
ATOM     91  O   UNL A   1      34.875  20.456  25.942  1.00  0.00    -0.274 OA
ATOM     92  C   UNL A   1      33.170  16.969  23.333  1.00  0.00     0.002 C 
ATOM     93  C   UNL A   1      34.997  17.329  24.628  1.00  0.00     0.002 C 
ATOM     94  C   UNL A   1      32.903  16.045  24.542  1.00  0.00     0.005 C 
ATOM     95  C   UNL A   1      34.695  16.723  23.232  1.00  0.00     0.009 C 
ATOM     96  C   UNL A   1      34.061  16.449  25.504  1.00  0.00     0.005 C 
ENDBRANCH  84  85
ENDBRANCH  77  79
ENDBRANCH  71  75
ENDBRANCH  66  69
ENDBRANCH  64  65
ENDBRANCH   1  64
TORSDOF 14
ENDMDL
MODEL 2
REMARK VINA RESULT:     -14.1      4.673      8.380
REMARK SMILES O=C(NCCCCNC(=O)c1ccccc1C(=O)Nc1ccc(N2C(=O)[C@H]3[C@@H]4CC[C@@H](C4)[C@@H]3C2=O)cc1)c1ccc(-c2c3nc(c(-c4c(F)cccc4F)c4ccc([nH]4)c(-c4c(F)cccc4F)c4nc(c(-c5c(F)cccc5F)c5ccc2[nH]5)C=C4)C=C3)cc1
REMARK SMILES IDX 6 1 5 2 4 3 3 4 1 5 2 6 38 8 39 9 91 10 40 11 90 12 41 13
REMARK SMILES IDX 42 14 43 15 84 16 44 17 89 18 83 19 85 20 45 21 88 22 82 23
REMARK SMILES IDX 81 24 46 26 72 27 55 28 71 29 56 30 59 31 70 32 86 33 57 34
REMARK SMILES IDX 58 35 69 37 87 38 60 39 47 40 48 41 53 42 49 43 50 44 52 45
REMARK SMILES IDX 54 46 51 47 73 48 74 49 79 50 75 51 76 52 78 53 80 54 77 55
REMARK SMILES IDX 61 56 62 57 67 58 63 59 64 60 66 61 68 62 65 63 7 64 8 65
REMARK SMILES IDX 9 66 10 68 11 69 12 70 16 71 13 72 15 73 14 74 17 75 18 76
REMARK SMILES IDX 19 77 20 79 21 80 37 81 22 82 36 83 23 84 24 85 25 86 34 87
REMARK SMILES IDX 26 88 27 89 33 90 35 91 28 92 31 93 29 94 32 95 30 96
REMARK H PARENT 3 7 85 25 59 36 8 67 19 78
REMARK Flexibility Score: inf
ROOT
ATOM      1  C   UNL A   1      32.591  29.343  27.202  1.00  0.00     0.023 C 
ENDROOT
BRANCH   1   2
ATOM      2  C   UNL A   1      33.941  28.627  27.255  1.00  0.00     0.023 C 
BRANCH   2   3
ATOM      3  C   UNL A   1      35.134  29.553  27.445  1.00  0.00     0.116 C 
BRANCH   3   4
ATOM      4  N   UNL A   1      35.153  30.208  28.743  1.00  0.00    -0.352 N 
ATOM      5  O   UNL A   1      35.937  30.781  30.781  1.00  0.00    -0.269 OA
ATOM      6  C   UNL A   1      36.161  30.299  29.675  1.00  0.00     0.251 C 
ATOM      7  H   UNL A   1      34.313  30.655  28.995  1.00  0.00     0.163 HD
BRANCH   6   8
ATOM      8  C   UNL A   1      37.512  29.790  29.354  1.00  0.00     0.039 A 
ATOM      9  C   UNL A   1      38.320  29.248  30.352  1.00  0.00     0.014 A 
ATOM     10  C   UNL A   1      37.977  29.855  28.037  1.00  0.00     0.014 A 
ATOM     11  C   UNL A   1      39.649  28.955  30.077  1.00  0.00     0.010 A 
ATOM     12  C   UNL A   1      39.279  29.436  27.736  1.00  0.00     0.010 A 
ATOM     13  C   UNL A   1      40.138  29.014  28.761  1.00  0.00    -0.014 A 
BRANCH  13  14
ATOM     14  C   UNL A   1      41.522  28.537  28.496  1.00  0.00     0.031 A 
ATOM     15  C   UNL A   1      41.817  27.106  28.140  1.00  0.00     0.074 A 
ATOM     16  C   UNL A   1      42.520  29.443  28.528  1.00  0.00     0.049 A 
ATOM     17  N   UNL A   1      42.965  26.559  27.826  1.00  0.00    -0.248 NA
ATOM     18  C   UNL A   1      40.687  26.164  28.144  1.00  0.00     0.031 C 
ATOM     19  C   UNL A   1      42.362  30.856  28.890  1.00  0.00     0.029 A 
ATOM     20  N   UNL A   1      43.852  29.329  28.228  1.00  0.00    -0.354 N 
ATOM     21  C   UNL A   1      42.701  25.214  27.599  1.00  0.00     0.074 A 
ATOM     22  C   UNL A   1      41.289  25.017  27.851  1.00  0.00     0.031 C 
ATOM     23  C   UNL A   1      43.531  31.487  28.730  1.00  0.00     0.029 A 
ATOM     24  C   UNL A   1      44.541  30.513  28.336  1.00  0.00     0.049 A 
ATOM     25  H   UNL A   1      44.276  28.481  27.961  1.00  0.00     0.167 HD
ATOM     26  C   UNL A   1      43.555  24.239  27.202  1.00  0.00     0.037 A 
ATOM     27  C   UNL A   1      45.846  30.788  28.162  1.00  0.00     0.037 A 
ATOM     28  C   UNL A   1      44.963  24.441  26.958  1.00  0.00     0.049 A 
ATOM     29  C   UNL A   1      46.770  29.679  27.755  1.00  0.00     0.074 A 
ATOM     30  C   UNL A   1      45.908  23.516  26.546  1.00  0.00     0.029 A 
ATOM     31  N   UNL A   1      45.630  25.648  27.110  1.00  0.00    -0.354 N 
ATOM     32  N   UNL A   1      46.495  28.421  27.511  1.00  0.00    -0.248 NA
ATOM     33  C   UNL A   1      48.187  30.030  27.598  1.00  0.00     0.031 C 
ATOM     34  C   UNL A   1      47.153  24.151  26.495  1.00  0.00     0.029 A 
ATOM     35  C   UNL A   1      46.976  25.486  26.817  1.00  0.00     0.049 A 
ATOM     36  H   UNL A   1      45.209  26.494  27.386  1.00  0.00     0.167 HD
ATOM     37  C   UNL A   1      47.701  27.833  27.159  1.00  0.00     0.074 A 
ATOM     38  C   UNL A   1      48.700  28.881  27.183  1.00  0.00     0.031 C 
ATOM     39  C   UNL A   1      47.961  26.538  26.852  1.00  0.00     0.037 A 
BRANCH  26  40
ATOM     40  C   UNL A   1      42.997  22.855  27.007  1.00  0.00     0.057 A 
ATOM     41  C   UNL A   1      42.653  22.038  28.092  1.00  0.00     0.134 A 
ATOM     42  C   UNL A   1      42.735  22.362  25.722  1.00  0.00     0.134 A 
ATOM     43  F   UNL A   1      42.884  22.445  29.350  1.00  0.00    -0.206 F 
ATOM     44  C   UNL A   1      42.086  20.775  27.906  1.00  0.00     0.040 A 
ATOM     45  C   UNL A   1      42.142  21.112  25.524  1.00  0.00     0.040 A 
ATOM     46  F   UNL A   1      43.028  23.093  24.637  1.00  0.00    -0.206 F 
ATOM     47  C   UNL A   1      41.820  20.313  26.619  1.00  0.00     0.006 A 
ENDBRANCH  26  40
BRANCH  27  48
ATOM     48  C   UNL A   1      46.354  32.162  28.406  1.00  0.00     0.057 A 
ATOM     49  C   UNL A   1      46.771  32.573  29.677  1.00  0.00     0.134 A 
ATOM     50  C   UNL A   1      46.421  33.103  27.370  1.00  0.00     0.134 A 
ATOM     51  F   UNL A   1      46.719  31.724  30.713  1.00  0.00    -0.206 F 
ATOM     52  C   UNL A   1      47.205  33.878  29.916  1.00  0.00     0.040 A 
ATOM     53  C   UNL A   1      46.888  34.399  27.587  1.00  0.00     0.040 A 
ATOM     54  F   UNL A   1      46.049  32.770  26.126  1.00  0.00    -0.206 F 
ATOM     55  C   UNL A   1      47.270  34.794  28.867  1.00  0.00     0.006 A 
ENDBRANCH  27  48
BRANCH  39  56
ATOM     56  C   UNL A   1      49.380  26.202  26.493  1.00  0.00     0.057 A 
ATOM     57  C   UNL A   1      50.304  25.764  27.451  1.00  0.00     0.134 A 
ATOM     58  C   UNL A   1      49.831  26.327  25.172  1.00  0.00     0.134 A 
ATOM     59  F   UNL A   1      49.943  25.638  28.737  1.00  0.00    -0.206 F 
ATOM     60  C   UNL A   1      51.635  25.505  27.118  1.00  0.00     0.040 A 
ATOM     61  C   UNL A   1      51.150  26.038  24.821  1.00  0.00     0.040 A 
ATOM     62  F   UNL A   1      48.998  26.731  24.202  1.00  0.00    -0.206 F 
ATOM     63  C   UNL A   1      52.060  25.639  25.798  1.00  0.00     0.006 A 
ENDBRANCH  39  56
ENDBRANCH  13  14
ENDBRANCH   6   8
ENDBRANCH   3   4
ENDBRANCH   2   3
ENDBRANCH   1   2
BRANCH   1  64
ATOM     64  C   UNL A   1      31.388  28.441  27.474  1.00  0.00     0.116 C 
BRANCH  64  65
ATOM     65  N   UNL A   1      31.743  27.036  27.473  1.00  0.00    -0.352 N 
ATOM     66  C   UNL A   1      31.472  26.081  26.533  1.00  0.00     0.252 C 
ATOM     67  H   UNL A   1      32.248  26.726  28.258  1.00  0.00     0.163 HD
ATOM     68  O   UNL A   1      31.693  24.897  26.783  1.00  0.00    -0.269 OA
BRANCH  66  69
ATOM     69  C   UNL A   1      30.787  26.419  25.271  1.00  0.00     0.052 A 
ATOM     70  C   UNL A   1      29.446  25.969  25.264  1.00  0.00     0.014 A 
ATOM     71  C   UNL A   1      31.290  27.149  24.183  1.00  0.00     0.052 A 
ATOM     72  C   UNL A   1      28.563  26.328  24.251  1.00  0.00     0.001 A 
ATOM     73  C   UNL A   1      30.358  27.527  23.184  1.00  0.00     0.014 A 
ATOM     74  C   UNL A   1      29.015  27.139  23.223  1.00  0.00     0.001 A 
BRANCH  71  75
ATOM     75  C   UNL A   1      32.658  27.718  23.965  1.00  0.00     0.256 C 
ATOM     76  O   UNL A   1      32.748  28.951  23.904  1.00  0.00    -0.269 OA
ATOM     77  N   UNL A   1      33.851  27.038  23.914  1.00  0.00    -0.322 N 
ATOM     78  H   UNL A   1      34.639  27.626  23.845  1.00  0.00     0.170 HD
BRANCH  77  79
ATOM     79  C   UNL A   1      34.166  25.683  23.942  1.00  0.00     0.041 A 
ATOM     80  C   UNL A   1      34.629  25.180  25.161  1.00  0.00     0.028 A 
ATOM     81  C   UNL A   1      33.960  24.827  22.867  1.00  0.00     0.028 A 
ATOM     82  C   UNL A   1      34.592  23.810  25.400  1.00  0.00     0.029 A 
ATOM     83  C   UNL A   1      34.062  23.448  23.069  1.00  0.00     0.029 A 
ATOM     84  C   UNL A   1      34.259  22.941  24.363  1.00  0.00     0.052 A 
BRANCH  84  85
ATOM     85  N   UNL A   1      33.924  21.603  24.633  1.00  0.00    -0.250 N 
ATOM     86  C   UNL A   1      34.872  20.610  24.911  1.00  0.00     0.237 C 
ATOM     87  C   UNL A   1      32.646  21.064  24.365  1.00  0.00     0.237 C 
ATOM     88  O   UNL A   1      36.005  20.704  25.340  1.00  0.00    -0.274 OA
ATOM     89  C   UNL A   1      34.222  19.382  24.379  1.00  0.00     0.095 C 
ATOM     90  C   UNL A   1      32.784  19.636  24.800  1.00  0.00     0.095 C 
ATOM     91  O   UNL A   1      31.625  21.607  23.980  1.00  0.00    -0.274 OA
ATOM     92  C   UNL A   1      34.378  17.882  24.626  1.00  0.00     0.002 C 
ATOM     93  C   UNL A   1      32.153  18.289  24.462  1.00  0.00     0.002 C 
ATOM     94  C   UNL A   1      34.028  17.247  23.262  1.00  0.00     0.005 C 
ATOM     95  C   UNL A   1      33.092  17.459  25.376  1.00  0.00     0.009 C 
ATOM     96  C   UNL A   1      32.550  17.703  23.077  1.00  0.00     0.005 C 
ENDBRANCH  84  85
ENDBRANCH  77  79
ENDBRANCH  71  75
ENDBRANCH  66  69
ENDBRANCH  64  65
ENDBRANCH   1  64
TORSDOF 14
ENDMDL
MODEL 3
REMARK VINA RESULT:     -13.9      0.582      5.891
REMARK SMILES O=C(NCCCCNC(=O)c1ccccc1C(=O)Nc1ccc(N2C(=O)[C@H]3[C@@H]4CC[C@@H](C4)[C@@H]3C2=O)cc1)c1ccc(-c2c3nc(c(-c4c(F)cccc4F)c4ccc([nH]4)c(-c4c(F)cccc4F)c4nc(c(-c5c(F)cccc5F)c5ccc2[nH]5)C=C4)C=C3)cc1
REMARK SMILES IDX 6 1 5 2 4 3 3 4 1 5 2 6 38 8 39 9 91 10 40 11 90 12 41 13
REMARK SMILES IDX 42 14 43 15 84 16 44 17 89 18 83 19 85 20 45 21 88 22 82 23
REMARK SMILES IDX 81 24 46 26 72 27 55 28 71 29 56 30 59 31 70 32 86 33 57 34
REMARK SMILES IDX 58 35 69 37 87 38 60 39 47 40 48 41 53 42 49 43 50 44 52 45
REMARK SMILES IDX 54 46 51 47 73 48 74 49 79 50 75 51 76 52 78 53 80 54 77 55
REMARK SMILES IDX 61 56 62 57 67 58 63 59 64 60 66 61 68 62 65 63 7 64 8 65
REMARK SMILES IDX 9 66 10 68 11 69 12 70 16 71 13 72 15 73 14 74 17 75 18 76
REMARK SMILES IDX 19 77 20 79 21 80 37 81 22 82 36 83 23 84 24 85 25 86 34 87
REMARK SMILES IDX 26 88 27 89 33 90 35 91 28 92 31 93 29 94 32 95 30 96
REMARK H PARENT 3 7 85 25 59 36 8 67 19 78
REMARK Flexibility Score: inf
ROOT
ATOM      1  C   UNL A   1      31.284  31.223  26.101  1.00  0.00     0.023 C 
ENDROOT
BRANCH   1   2
ATOM      2  C   UNL A   1      31.369  32.702  26.481  1.00  0.00     0.023 C 
BRANCH   2   3
ATOM      3  C   UNL A   1      32.626  33.078  27.253  1.00  0.00     0.116 C 
BRANCH   3   4
ATOM      4  N   UNL A   1      32.616  34.450  27.737  1.00  0.00    -0.352 N 
ATOM      5  O   UNL A   1      33.114  36.192  29.082  1.00  0.00    -0.269 OA
ATOM      6  C   UNL A   1      33.368  35.047  28.720  1.00  0.00     0.251 C 
ATOM      7  H   UNL A   1      31.968  35.042  27.291  1.00  0.00     0.163 HD
BRANCH   6   8
ATOM      8  C   UNL A   1      34.470  34.301  29.365  1.00  0.00     0.039 A 
ATOM      9  C   UNL A   1      35.791  34.502  28.966  1.00  0.00     0.014 A 
ATOM     10  C   UNL A   1      34.180  33.387  30.382  1.00  0.00     0.014 A 
ATOM     11  C   UNL A   1      36.788  33.661  29.440  1.00  0.00     0.010 A 
ATOM     12  C   UNL A   1      35.209  32.628  30.952  1.00  0.00     0.010 A 
ATOM     13  C   UNL A   1      36.519  32.735  30.461  1.00  0.00    -0.014 A 
BRANCH  13  14
ATOM     14  C   UNL A   1      37.654  31.970  31.044  1.00  0.00     0.031 A 
ATOM     15  C   UNL A   1      38.351  30.876  30.284  1.00  0.00     0.074 A 
ATOM     16  C   UNL A   1      38.089  32.322  32.271  1.00  0.00     0.049 A 
ATOM     17  N   UNL A   1      39.391  30.164  30.641  1.00  0.00    -0.248 NA
ATOM     18  C   UNL A   1      37.814  30.526  28.960  1.00  0.00     0.031 C 
ATOM     19  C   UNL A   1      37.474  33.348  33.119  1.00  0.00     0.029 A 
ATOM     20  N   UNL A   1      39.158  31.885  33.009  1.00  0.00    -0.354 N 
ATOM     21  C   UNL A   1      39.632  29.283  29.594  1.00  0.00     0.074 A 
ATOM     22  C   UNL A   1      38.603  29.521  28.604  1.00  0.00     0.031 C 
ATOM     23  C   UNL A   1      38.209  33.506  34.226  1.00  0.00     0.029 A 
ATOM     24  C   UNL A   1      39.298  32.539  34.210  1.00  0.00     0.049 A 
ATOM     25  H   UNL A   1      39.767  31.173  32.708  1.00  0.00     0.167 HD
ATOM     26  C   UNL A   1      40.627  28.372  29.466  1.00  0.00     0.037 A 
ATOM     27  C   UNL A   1      40.187  32.366  35.204  1.00  0.00     0.037 A 
ATOM     28  C   UNL A   1      41.646  28.135  30.461  1.00  0.00     0.049 A 
ATOM     29  C   UNL A   1      41.256  31.326  35.045  1.00  0.00     0.074 A 
ATOM     30  C   UNL A   1      42.701  27.240  30.419  1.00  0.00     0.029 A 
ATOM     31  N   UNL A   1      41.735  28.794  31.679  1.00  0.00    -0.354 N 
ATOM     32  N   UNL A   1      41.488  30.526  34.033  1.00  0.00    -0.248 NA
ATOM     33  C   UNL A   1      42.188  31.166  36.168  1.00  0.00     0.031 C 
ATOM     34  C   UNL A   1      43.398  27.321  31.629  1.00  0.00     0.029 A 
ATOM     35  C   UNL A   1      42.815  28.311  32.402  1.00  0.00     0.049 A 
ATOM     36  H   UNL A   1      41.121  29.500  31.984  1.00  0.00     0.167 HD
ATOM     37  C   UNL A   1      42.600  29.778  34.390  1.00  0.00     0.074 A 
ATOM     38  C   UNL A   1      43.017  30.247  35.695  1.00  0.00     0.031 C 
ATOM     39  C   UNL A   1      43.215  28.784  33.704  1.00  0.00     0.037 A 
BRANCH  26  40
ATOM     40  C   UNL A   1      40.669  27.551  28.206  1.00  0.00     0.057 A 
ATOM     41  C   UNL A   1      41.416  27.950  27.090  1.00  0.00     0.134 A 
ATOM     42  C   UNL A   1      40.014  26.315  28.132  1.00  0.00     0.134 A 
ATOM     43  F   UNL A   1      42.063  29.127  27.090  1.00  0.00    -0.206 F 
ATOM     44  C   UNL A   1      41.496  27.160  25.941  1.00  0.00     0.040 A 
ATOM     45  C   UNL A   1      40.109  25.502  27.000  1.00  0.00     0.040 A 
ATOM     46  F   UNL A   1      39.289  25.863  29.167  1.00  0.00    -0.206 F 
ATOM     47  C   UNL A   1      40.849  25.926  25.899  1.00  0.00     0.006 A 
ENDBRANCH  26  40
BRANCH  27  48
ATOM     48  C   UNL A   1      40.079  33.174  36.445  1.00  0.00     0.057 A 
ATOM     49  C   UNL A   1      39.205  32.815  37.478  1.00  0.00     0.134 A 
ATOM     50  C   UNL A   1      40.840  34.337  36.621  1.00  0.00     0.134 A 
ATOM     51  F   UNL A   1      38.439  31.720  37.366  1.00  0.00    -0.206 F 
ATOM     52  C   UNL A   1      39.069  33.599  38.625  1.00  0.00     0.040 A 
ATOM     53  C   UNL A   1      40.742  35.109  37.777  1.00  0.00     0.040 A 
ATOM     54  F   UNL A   1      41.705  34.729  35.674  1.00  0.00    -0.206 F 
ATOM     55  C   UNL A   1      39.844  34.748  38.779  1.00  0.00     0.006 A 
ENDBRANCH  27  48
BRANCH  39  56
ATOM     56  C   UNL A   1      44.421  28.164  34.351  1.00  0.00     0.057 A 
ATOM     57  C   UNL A   1      45.711  28.679  34.161  1.00  0.00     0.134 A 
ATOM     58  C   UNL A   1      44.291  27.031  35.164  1.00  0.00     0.134 A 
ATOM     59  F   UNL A   1      45.907  29.752  33.381  1.00  0.00    -0.206 F 
ATOM     60  C   UNL A   1      46.832  28.064  34.722  1.00  0.00     0.040 A 
ATOM     61  C   UNL A   1      45.401  26.428  35.758  1.00  0.00     0.040 A 
ATOM     62  F   UNL A   1      43.086  26.492  35.397  1.00  0.00    -0.206 F 
ATOM     63  C   UNL A   1      46.677  26.937  35.526  1.00  0.00     0.006 A 
ENDBRANCH  39  56
ENDBRANCH  13  14
ENDBRANCH   6   8
ENDBRANCH   3   4
ENDBRANCH   2   3
ENDBRANCH   1   2
BRANCH   1  64
ATOM     64  C   UNL A   1      32.357  30.345  26.742  1.00  0.00     0.116 C 
BRANCH  64  65
ATOM     65  N   UNL A   1      33.306  29.837  25.772  1.00  0.00    -0.352 N 
ATOM     66  C   UNL A   1      33.107  28.934  24.765  1.00  0.00     0.252 C 
ATOM     67  H   UNL A   1      34.221  30.192  25.848  1.00  0.00     0.163 HD
ATOM     68  O   UNL A   1      34.072  28.481  24.151  1.00  0.00    -0.269 OA
BRANCH  66  69
ATOM     69  C   UNL A   1      31.769  28.377  24.487  1.00  0.00     0.052 A 
ATOM     70  C   UNL A   1      31.245  28.857  23.263  1.00  0.00     0.014 A 
ATOM     71  C   UNL A   1      31.052  27.435  25.238  1.00  0.00     0.052 A 
ATOM     72  C   UNL A   1      30.078  28.335  22.718  1.00  0.00     0.001 A 
ATOM     73  C   UNL A   1      29.884  26.897  24.640  1.00  0.00     0.014 A 
ATOM     74  C   UNL A   1      29.413  27.326  23.394  1.00  0.00     0.001 A 
BRANCH  71  75
ATOM     75  C   UNL A   1      31.397  26.794  26.547  1.00  0.00     0.256 C 
ATOM     76  O   UNL A   1      31.374  27.520  27.549  1.00  0.00    -0.269 OA
ATOM     77  N   UNL A   1      31.651  25.465  26.790  1.00  0.00    -0.322 N 
ATOM     78  H   UNL A   1      31.774  25.253  27.744  1.00  0.00     0.170 HD
BRANCH  77  79
ATOM     79  C   UNL A   1      31.768  24.359  25.953  1.00  0.00     0.041 A 
ATOM     80  C   UNL A   1      32.819  24.389  25.031  1.00  0.00     0.028 A 
ATOM     81  C   UNL A   1      30.963  23.232  26.057  1.00  0.00     0.028 A 
ATOM     82  C   UNL A   1      33.253  23.206  24.443  1.00  0.00     0.029 A 
ATOM     83  C   UNL A   1      31.317  22.078  25.352  1.00  0.00     0.029 A 
ATOM     84  C   UNL A   1      32.528  22.033  24.643  1.00  0.00     0.052 A 
BRANCH  84  85
ATOM     85  N   UNL A   1      33.087  20.785  24.320  1.00  0.00    -0.250 N 
ATOM     86  C   UNL A   1      32.541  19.916  23.367  1.00  0.00     0.237 C 
ATOM     87  C   UNL A   1      34.069  20.157  25.117  1.00  0.00     0.237 C 
ATOM     88  O   UNL A   1      31.811  20.145  22.423  1.00  0.00    -0.274 OA
ATOM     89  C   UNL A   1      32.924  18.577  23.891  1.00  0.00     0.095 C 
ATOM     90  C   UNL A   1      34.330  18.875  24.385  1.00  0.00     0.095 C 
ATOM     91  O   UNL A   1      34.666  20.561  26.101  1.00  0.00    -0.274 OA
ATOM     92  C   UNL A   1      33.076  17.182  23.285  1.00  0.00     0.002 C 
ATOM     93  C   UNL A   1      34.813  17.467  24.715  1.00  0.00     0.002 C 
ATOM     94  C   UNL A   1      32.703  16.235  24.447  1.00  0.00     0.005 C 
ATOM     95  C   UNL A   1      34.598  16.904  23.286  1.00  0.00     0.009 C 
ATOM     96  C   UNL A   1      33.798  16.587  25.499  1.00  0.00     0.005 C 
ENDBRANCH  84  85
ENDBRANCH  77  79
ENDBRANCH  71  75
ENDBRANCH  66  69
ENDBRANCH  64  65
ENDBRANCH   1  64
TORSDOF 14
ENDMDL
