MODEL 1
REMARK VINA RESULT:     -11.5      0.000      0.000
REMARK SMILES CC[NH+]1CCC([N@@H+]2CCO[C@H](CC(=O)NCCCCNC(=O)c3ccc(-c4c5nc(c(-c6c(F)cccc6F)c6ccc([nH]6)c(-c6c(F)cccc6F)c6nc(c(-c7c(F)cccc7F)c7ccc4[nH]7)C=C6)C=C5)cc3)C2)CC1
REMARK SMILES IDX 17 1 16 2 15 3 13 4 14 5 12 7 11 8 7 9 8 10 77 11 9 13 10 14
REMARK SMILES IDX 6 15 3 16 4 17 79 18 5 20 78 21 2 22 1 23 18 24 19 25 20 26
REMARK SMILES IDX 21 27 22 29 23 30 24 31 76 32 25 33 75 34 26 35 27 36 28 37
REMARK SMILES IDX 69 38 29 39 74 40 68 41 70 42 30 43 73 44 67 45 66 46 31 48
REMARK SMILES IDX 57 49 40 50 56 51 41 52 44 53 55 54 71 55 42 56 43 57 54 59
REMARK SMILES IDX 72 60 45 61 32 62 33 63 38 64 34 65 35 66 37 67 39 68 36 69
REMARK SMILES IDX 58 70 59 71 64 72 60 73 61 74 63 75 65 76 62 77 46 78 47 79
REMARK SMILES IDX 52 80 48 81 49 82 51 83 53 84 50 85
REMARK H PARENT 15 6 7 12 3 19 20 28 70 47 44 58
REMARK Flexibility Score: inf
ROOT
ATOM      1  C   UNL A   1      37.412  20.713  24.753  1.00  0.00     0.023 C 
ENDROOT
BRANCH   1   2
ATOM      2  C   UNL A   1      35.939  20.390  25.013  1.00  0.00     0.116 C 
BRANCH   2   3
ATOM      3  N   UNL A   1      35.415  21.176  26.113  1.00  0.00    -0.356 N 
ATOM      4  C   UNL A   1      34.985  22.469  26.117  1.00  0.00     0.222 C 
ATOM      5  O   UNL A   1      34.660  22.974  27.190  1.00  0.00    -0.275 OA
ATOM      6  H   UNL A   1      35.362  20.710  26.980  1.00  0.00     0.163 HD
BRANCH   4   7
ATOM      7  C   UNL A   1      34.906  23.238  24.818  1.00  0.00     0.138 C 
BRANCH   7   8
ATOM      8  C   UNL A   1      33.482  23.669  24.484  1.00  0.00     0.182 C 
ATOM      9  N   UNL A   1      32.064  21.622  23.886  1.00  0.00    -0.328 N 
ATOM     10  C   UNL A   1      32.024  22.176  22.529  1.00  0.00     0.291 C 
ATOM     11  C   UNL A   1      32.374  22.662  24.866  1.00  0.00     0.295 C 
ATOM     12  H   UNL A   1      31.120  21.342  24.155  1.00  0.00     0.348 HD
ATOM     13  C   UNL A   1      33.257  23.028  22.197  1.00  0.00     0.222 C 
ATOM     14  O   UNL A   1      33.393  24.114  23.117  1.00  0.00    -0.366 OA
BRANCH   9  15
ATOM     15  C   UNL A   1      32.585  20.254  24.035  1.00  0.00     0.195 C 
ATOM     16  N   UNL A   1      32.611  17.326  24.387  1.00  0.00    -0.335 N 
ATOM     17  C   UNL A   1      33.057  18.217  25.461  1.00  0.00     0.268 C 
ATOM     18  C   UNL A   1      32.868  17.927  23.068  1.00  0.00     0.268 C 
ATOM     19  H   UNL A   1      31.607  17.203  24.520  1.00  0.00     0.348 HD
ATOM     20  C   UNL A   1      32.353  19.573  25.391  1.00  0.00     0.126 C 
ATOM     21  C   UNL A   1      32.181  19.284  22.912  1.00  0.00     0.126 C 
BRANCH  16  22
ATOM     22  C   UNL A   1      33.231  15.992  24.452  1.00  0.00     0.258 C 
ATOM     23  C   UNL A   1      32.601  15.056  25.479  1.00  0.00     0.071 C 
ENDBRANCH  16  22
ENDBRANCH   9  15
ENDBRANCH   7   8
ENDBRANCH   4   7
ENDBRANCH   2   3
ENDBRANCH   1   2
BRANCH   1  24
ATOM     24  C   UNL A   1      38.373  19.551  24.997  1.00  0.00     0.023 C 
BRANCH  24  25
ATOM     25  C   UNL A   1      39.502  19.852  25.972  1.00  0.00     0.116 C 
BRANCH  25  26
ATOM     26  N   UNL A   1      40.552  18.845  25.950  1.00  0.00    -0.352 N 
ATOM     27  C   UNL A   1      41.905  19.015  26.101  1.00  0.00     0.251 C 
ATOM     28  H   UNL A   1      40.251  17.918  25.808  1.00  0.00     0.163 HD
ATOM     29  O   UNL A   1      42.674  18.076  25.928  1.00  0.00    -0.269 OA
BRANCH  27  30
ATOM     30  C   UNL A   1      42.428  20.353  26.437  1.00  0.00     0.039 A 
ATOM     31  C   UNL A   1      42.926  21.158  25.412  1.00  0.00     0.014 A 
ATOM     32  C   UNL A   1      42.385  20.822  27.753  1.00  0.00     0.014 A 
ATOM     33  C   UNL A   1      43.324  22.465  25.698  1.00  0.00     0.010 A 
ATOM     34  C   UNL A   1      42.709  22.147  28.021  1.00  0.00     0.010 A 
ATOM     35  C   UNL A   1      43.183  22.980  26.997  1.00  0.00    -0.014 A 
BRANCH  35  36
ATOM     36  C   UNL A   1      43.530  24.389  27.305  1.00  0.00     0.031 A 
ATOM     37  C   UNL A   1      44.960  24.844  27.230  1.00  0.00     0.074 A 
ATOM     38  C   UNL A   1      42.568  25.236  27.716  1.00  0.00     0.049 A 
ATOM     39  N   UNL A   1      45.472  26.011  27.525  1.00  0.00    -0.248 NA
ATOM     40  C   UNL A   1      45.951  23.847  26.793  1.00  0.00     0.031 C 
ATOM     41  C   UNL A   1      41.153  24.898  27.880  1.00  0.00     0.029 A 
ATOM     42  N   UNL A   1      42.638  26.557  28.082  1.00  0.00    -0.354 N 
ATOM     43  C   UNL A   1      46.840  25.885  27.324  1.00  0.00     0.074 A 
ATOM     44  C   UNL A   1      47.086  24.513  26.937  1.00  0.00     0.031 C 
ATOM     45  C   UNL A   1      40.485  25.989  28.290  1.00  0.00     0.029 A 
ATOM     46  C   UNL A   1      41.429  27.091  28.454  1.00  0.00     0.049 A 
ATOM     47  H   UNL A   1      43.477  27.073  28.079  1.00  0.00     0.167 HD
ATOM     48  C   UNL A   1      47.802  26.832  27.428  1.00  0.00     0.037 A 
ATOM     49  C   UNL A   1      41.117  28.328  28.884  1.00  0.00     0.037 A 
ATOM     50  C   UNL A   1      47.549  28.202  27.788  1.00  0.00     0.049 A 
ATOM     51  C   UNL A   1      42.203  29.361  28.991  1.00  0.00     0.074 A 
ATOM     52  C   UNL A   1      48.446  29.254  27.862  1.00  0.00     0.029 A 
ATOM     53  N   UNL A   1      46.307  28.710  28.138  1.00  0.00    -0.354 N 
ATOM     54  N   UNL A   1      43.483  29.247  28.730  1.00  0.00    -0.248 NA
ATOM     55  C   UNL A   1      41.801  30.700  29.448  1.00  0.00     0.031 C 
ATOM     56  C   UNL A   1      47.753  30.389  28.297  1.00  0.00     0.029 A 
ATOM     57  C   UNL A   1      46.417  30.055  28.449  1.00  0.00     0.049 A 
ATOM     58  H   UNL A   1      45.471  28.191  28.163  1.00  0.00     0.167 HD
ATOM     59  C   UNL A   1      44.033  30.501  28.963  1.00  0.00     0.074 A 
ATOM     60  C   UNL A   1      42.945  31.364  29.373  1.00  0.00     0.031 C 
ATOM     61  C   UNL A   1      45.322  30.902  28.848  1.00  0.00     0.037 A 
BRANCH  48  62
ATOM     62  C   UNL A   1      49.215  26.416  27.142  1.00  0.00     0.057 A 
ATOM     63  C   UNL A   1      50.074  25.974  28.156  1.00  0.00     0.134 A 
ATOM     64  C   UNL A   1      49.713  26.429  25.833  1.00  0.00     0.134 A 
ATOM     65  F   UNL A   1      49.663  25.949  29.434  1.00  0.00    -0.206 F 
ATOM     66  C   UNL A   1      51.387  25.585  27.884  1.00  0.00     0.040 A 
ATOM     67  C   UNL A   1      51.015  26.017  25.545  1.00  0.00     0.040 A 
ATOM     68  F   UNL A   1      48.942  26.836  24.814  1.00  0.00    -0.206 F 
ATOM     69  C   UNL A   1      51.858  25.600  26.573  1.00  0.00     0.006 A 
ENDBRANCH  48  62
BRANCH  49  70
ATOM     70  C   UNL A   1      39.712  28.667  29.220  1.00  0.00     0.057 A 
ATOM     71  C   UNL A   1      39.213  28.475  30.514  1.00  0.00     0.134 A 
ATOM     72  C   UNL A   1      38.832  29.180  28.260  1.00  0.00     0.134 A 
ATOM     73  F   UNL A   1      40.002  27.969  31.473  1.00  0.00    -0.206 F 
ATOM     74  C   UNL A   1      37.885  28.762  30.836  1.00  0.00     0.040 A 
ATOM     75  C   UNL A   1      37.509  29.495  28.574  1.00  0.00     0.040 A 
ATOM     76  F   UNL A   1      39.251  29.395  27.004  1.00  0.00    -0.206 F 
ATOM     77  C   UNL A   1      37.030  29.278  29.864  1.00  0.00     0.006 A 
ENDBRANCH  49  70
BRANCH  61  78
ATOM     78  C   UNL A   1      45.621  32.343  29.137  1.00  0.00     0.057 A 
ATOM     79  C   UNL A   1      45.534  33.330  28.148  1.00  0.00     0.134 A 
ATOM     80  C   UNL A   1      45.965  32.752  30.433  1.00  0.00     0.134 A 
ATOM     81  F   UNL A   1      45.222  33.002  26.885  1.00  0.00    -0.206 F 
ATOM     82  C   UNL A   1      45.799  34.670  28.431  1.00  0.00     0.040 A 
ATOM     83  C   UNL A   1      46.207  34.092  30.733  1.00  0.00     0.040 A 
ATOM     84  F   UNL A   1      46.057  31.858  31.428  1.00  0.00    -0.206 F 
ATOM     85  C   UNL A   1      46.131  35.056  29.730  1.00  0.00     0.006 A 
ENDBRANCH  61  78
ENDBRANCH  35  36
ENDBRANCH  27  30
ENDBRANCH  25  26
ENDBRANCH  24  25
ENDBRANCH   1  24
TORSDOF 14
ENDMDL
MODEL 2
REMARK VINA RESULT:     -11.5      1.661      2.583
REMARK SMILES CC[NH+]1CCC([N@@H+]2CCO[C@H](CC(=O)NCCCCNC(=O)c3ccc(-c4c5nc(c(-c6c(F)cccc6F)c6ccc([nH]6)c(-c6c(F)cccc6F)c6nc(c(-c7c(F)cccc7F)c7ccc4[nH]7)C=C6)C=C5)cc3)C2)CC1
REMARK SMILES IDX 17 1 16 2 15 3 13 4 14 5 12 7 11 8 7 9 8 10 77 11 9 13 10 14
REMARK SMILES IDX 6 15 3 16 4 17 79 18 5 20 78 21 2 22 1 23 18 24 19 25 20 26
REMARK SMILES IDX 21 27 22 29 23 30 24 31 76 32 25 33 75 34 26 35 27 36 28 37
REMARK SMILES IDX 69 38 29 39 74 40 68 41 70 42 30 43 73 44 67 45 66 46 31 48
REMARK SMILES IDX 57 49 40 50 56 51 41 52 44 53 55 54 71 55 42 56 43 57 54 59
REMARK SMILES IDX 72 60 45 61 32 62 33 63 38 64 34 65 35 66 37 67 39 68 36 69
REMARK SMILES IDX 58 70 59 71 64 72 60 73 61 74 63 75 65 76 62 77 46 78 47 79
REMARK SMILES IDX 52 80 48 81 49 82 51 83 53 84 50 85
REMARK H PARENT 15 6 7 12 3 19 20 28 70 47 44 58
REMARK Flexibility Score: inf
ROOT
ATOM      1  C   UNL A   1      39.039  22.570  26.323  1.00  0.00     0.023 C 
ENDROOT
BRANCH   1   2
ATOM      2  C   UNL A   1      37.790  23.388  25.981  1.00  0.00     0.116 C 
BRANCH   2   3
ATOM      3  N   UNL A   1      37.623  23.514  24.547  1.00  0.00    -0.356 N 
ATOM      4  C   UNL A   1      36.649  22.994  23.747  1.00  0.00     0.222 C 
ATOM      5  O   UNL A   1      36.746  23.151  22.531  1.00  0.00    -0.275 OA
ATOM      6  H   UNL A   1      38.308  24.051  24.085  1.00  0.00     0.163 HD
BRANCH   4   7
ATOM      7  C   UNL A   1      35.482  22.260  24.364  1.00  0.00     0.138 C 
BRANCH   7   8
ATOM      8  C   UNL A   1      34.265  23.158  24.557  1.00  0.00     0.182 C 
ATOM      9  N   UNL A   1      32.126  21.750  24.550  1.00  0.00    -0.328 N 
ATOM     10  C   UNL A   1      31.809  22.427  23.289  1.00  0.00     0.291 C 
ATOM     11  C   UNL A   1      33.087  22.527  25.333  1.00  0.00     0.295 C 
ATOM     12  H   UNL A   1      31.298  21.762  25.147  1.00  0.00     0.348 HD
ATOM     13  C   UNL A   1      33.062  22.867  22.518  1.00  0.00     0.222 C 
ATOM     14  O   UNL A   1      33.865  23.749  23.306  1.00  0.00    -0.366 OA
BRANCH   9  15
ATOM     15  C   UNL A   1      32.172  20.280  24.528  1.00  0.00     0.195 C 
ATOM     16  N   UNL A   1      33.266  17.548  24.326  1.00  0.00    -0.335 N 
ATOM     17  C   UNL A   1      32.418  18.100  23.266  1.00  0.00     0.268 C 
ATOM     18  C   UNL A   1      32.905  18.119  25.634  1.00  0.00     0.268 C 
ATOM     19  H   UNL A   1      34.223  17.810  24.088  1.00  0.00     0.348 HD
ATOM     20  C   UNL A   1      32.538  19.623  23.190  1.00  0.00     0.126 C 
ATOM     21  C   UNL A   1      33.016  19.643  25.646  1.00  0.00     0.126 C 
BRANCH  16  22
ATOM     22  C   UNL A   1      33.215  16.079  24.396  1.00  0.00     0.258 C 
ATOM     23  C   UNL A   1      32.494  15.533  25.625  1.00  0.00     0.071 C 
ENDBRANCH  16  22
ENDBRANCH   9  15
ENDBRANCH   7   8
ENDBRANCH   4   7
ENDBRANCH   2   3
ENDBRANCH   1   2
BRANCH   1  24
ATOM     24  C   UNL A   1      39.131  21.220  25.615  1.00  0.00     0.023 C 
BRANCH  24  25
ATOM     25  C   UNL A   1      39.583  20.066  26.498  1.00  0.00     0.116 C 
BRANCH  25  26
ATOM     26  N   UNL A   1      40.715  19.340  25.942  1.00  0.00    -0.352 N 
ATOM     27  C   UNL A   1      42.017  19.753  25.811  1.00  0.00     0.251 C 
ATOM     28  H   UNL A   1      40.521  18.430  25.617  1.00  0.00     0.163 HD
ATOM     29  O   UNL A   1      42.830  19.067  25.201  1.00  0.00    -0.269 OA
BRANCH  27  30
ATOM     30  C   UNL A   1      42.419  21.053  26.381  1.00  0.00     0.039 A 
ATOM     31  C   UNL A   1      42.767  22.090  25.514  1.00  0.00     0.014 A 
ATOM     32  C   UNL A   1      42.410  21.256  27.764  1.00  0.00     0.014 A 
ATOM     33  C   UNL A   1      43.044  23.355  26.033  1.00  0.00     0.010 A 
ATOM     34  C   UNL A   1      42.611  22.533  28.273  1.00  0.00     0.010 A 
ATOM     35  C   UNL A   1      42.933  23.594  27.413  1.00  0.00    -0.014 A 
BRANCH  35  36
ATOM     36  C   UNL A   1      43.151  24.949  27.976  1.00  0.00     0.031 A 
ATOM     37  C   UNL A   1      44.527  25.369  28.410  1.00  0.00     0.074 A 
ATOM     38  C   UNL A   1      42.100  25.770  28.159  1.00  0.00     0.049 A 
ATOM     39  N   UNL A   1      44.908  26.481  28.984  1.00  0.00    -0.248 NA
ATOM     40  C   UNL A   1      45.614  24.401  28.194  1.00  0.00     0.031 C 
ATOM     41  C   UNL A   1      40.709  25.456  27.828  1.00  0.00     0.029 A 
ATOM     42  N   UNL A   1      42.039  27.038  28.679  1.00  0.00    -0.354 N 
ATOM     43  C   UNL A   1      46.270  26.340  29.212  1.00  0.00     0.074 A 
ATOM     44  C   UNL A   1      46.640  25.014  28.765  1.00  0.00     0.031 C 
ATOM     45  C   UNL A   1      39.936  26.511  28.131  1.00  0.00     0.029 A 
ATOM     46  C   UNL A   1      40.768  27.561  28.710  1.00  0.00     0.049 A 
ATOM     47  H   UNL A   1      42.830  27.528  29.001  1.00  0.00     0.167 HD
ATOM     48  C   UNL A   1      47.141  27.242  29.724  1.00  0.00     0.037 A 
ATOM     49  C   UNL A   1      40.325  28.749  29.161  1.00  0.00     0.037 A 
ATOM     50  C   UNL A   1      46.774  28.569  30.142  1.00  0.00     0.049 A 
ATOM     51  C   UNL A   1      41.311  29.733  29.725  1.00  0.00     0.074 A 
ATOM     52  C   UNL A   1      47.592  29.580  30.617  1.00  0.00     0.029 A 
ATOM     53  N   UNL A   1      45.480  29.068  30.140  1.00  0.00    -0.354 N 
ATOM     54  N   UNL A   1      42.609  29.613  29.869  1.00  0.00    -0.248 NA
ATOM     55  C   UNL A   1      40.772  31.021  30.184  1.00  0.00     0.031 C 
ATOM     56  C   UNL A   1      46.786  30.677  30.941  1.00  0.00     0.029 A 
ATOM     57  C   UNL A   1      45.474  30.366  30.623  1.00  0.00     0.049 A 
ATOM     58  H   UNL A   1      44.684  28.573  29.838  1.00  0.00     0.167 HD
ATOM     59  C   UNL A   1      43.045  30.817  30.408  1.00  0.00     0.074 A 
ATOM     60  C   UNL A   1      41.875  31.658  30.551  1.00  0.00     0.031 C 
ATOM     61  C   UNL A   1      44.301  31.192  30.752  1.00  0.00     0.037 A 
BRANCH  48  62
ATOM     62  C   UNL A   1      48.576  26.822  29.851  1.00  0.00     0.057 A 
ATOM     63  C   UNL A   1      49.512  27.079  28.841  1.00  0.00     0.134 A 
ATOM     64  C   UNL A   1      49.033  26.179  31.007  1.00  0.00     0.134 A 
ATOM     65  F   UNL A   1      49.136  27.680  27.701  1.00  0.00    -0.206 F 
ATOM     66  C   UNL A   1      50.847  26.688  28.965  1.00  0.00     0.040 A 
ATOM     67  C   UNL A   1      50.371  25.807  31.154  1.00  0.00     0.040 A 
ATOM     68  F   UNL A   1      48.191  25.907  32.015  1.00  0.00    -0.206 F 
ATOM     69  C   UNL A   1      51.280  26.056  30.128  1.00  0.00     0.006 A 
ENDBRANCH  48  62
BRANCH  49  70
ATOM     70  C   UNL A   1      38.882  29.086  29.074  1.00  0.00     0.057 A 
ATOM     71  C   UNL A   1      38.313  29.514  27.869  1.00  0.00     0.134 A 
ATOM     72  C   UNL A   1      38.041  28.999  30.190  1.00  0.00     0.134 A 
ATOM     73  F   UNL A   1      39.072  29.634  26.770  1.00  0.00    -0.206 F 
ATOM     74  C   UNL A   1      36.964  29.862  27.780  1.00  0.00     0.040 A 
ATOM     75  C   UNL A   1      36.685  29.320  30.110  1.00  0.00     0.040 A 
ATOM     76  F   UNL A   1      38.523  28.588  31.372  1.00  0.00    -0.206 F 
ATOM     77  C   UNL A   1      36.145  29.761  28.903  1.00  0.00     0.006 A 
ENDBRANCH  49  70
BRANCH  61  78
ATOM     78  C   UNL A   1      44.479  32.582  31.287  1.00  0.00     0.057 A 
ATOM     79  C   UNL A   1      44.428  32.860  32.659  1.00  0.00     0.134 A 
ATOM     80  C   UNL A   1      44.739  33.651  30.418  1.00  0.00     0.134 A 
ATOM     81  F   UNL A   1      44.170  31.884  33.541  1.00  0.00    -0.206 F 
ATOM     82  C   UNL A   1      44.610  34.155  33.146  1.00  0.00     0.040 A 
ATOM     83  C   UNL A   1      44.948  34.944  30.897  1.00  0.00     0.040 A 
ATOM     84  F   UNL A   1      44.808  33.451  29.094  1.00  0.00    -0.206 F 
ATOM     85  C   UNL A   1      44.878  35.201  32.264  1.00  0.00     0.006 A 
ENDBRANCH  61  78
ENDBRANCH  35  36
ENDBRANCH  27  30
ENDBRANCH  25  26
ENDBRANCH  24  25
ENDBRANCH   1  24
TORSDOF 14
ENDMDL
MODEL 3
REMARK VINA RESULT:     -11.5      5.786     10.771
REMARK SMILES CC[NH+]1CCC([N@@H+]2CCO[C@H](CC(=O)NCCCCNC(=O)c3ccc(-c4c5nc(c(-c6c(F)cccc6F)c6ccc([nH]6)c(-c6c(F)cccc6F)c6nc(c(-c7c(F)cccc7F)c7ccc4[nH]7)C=C6)C=C5)cc3)C2)CC1
REMARK SMILES IDX 17 1 16 2 15 3 13 4 14 5 12 7 11 8 7 9 8 10 77 11 9 13 10 14
REMARK SMILES IDX 6 15 3 16 4 17 79 18 5 20 78 21 2 22 1 23 18 24 19 25 20 26
REMARK SMILES IDX 21 27 22 29 23 30 24 31 76 32 25 33 75 34 26 35 27 36 28 37
REMARK SMILES IDX 69 38 29 39 74 40 68 41 70 42 30 43 73 44 67 45 66 46 31 48
REMARK SMILES IDX 57 49 40 50 56 51 41 52 44 53 55 54 71 55 42 56 43 57 54 59
REMARK SMILES IDX 72 60 45 61 32 62 33 63 38 64 34 65 35 66 37 67 39 68 36 69
REMARK SMILES IDX 58 70 59 71 64 72 60 73 61 74 63 75 65 76 62 77 46 78 47 79
REMARK SMILES IDX 52 80 48 81 49 82 51 83 53 84 50 85
REMARK H PARENT 15 6 7 12 3 19 20 28 70 47 44 58
REMARK Flexibility Score: inf
ROOT
ATOM      1  C   UNL A   1      31.564  30.697  26.164  1.00  0.00     0.023 C 
ENDROOT
BRANCH   1   2
ATOM      2  C   UNL A   1      33.008  30.198  26.271  1.00  0.00     0.116 C 
BRANCH   2   3
ATOM      3  N   UNL A   1      33.464  29.638  25.013  1.00  0.00    -0.356 N 
ATOM      4  C   UNL A   1      33.791  28.349  24.716  1.00  0.00     0.222 C 
ATOM      5  O   UNL A   1      34.244  28.103  23.599  1.00  0.00    -0.275 OA
ATOM      6  H   UNL A   1      33.547  30.278  24.269  1.00  0.00     0.163 HD
BRANCH   4   7
ATOM      7  C   UNL A   1      33.581  27.263  25.746  1.00  0.00     0.138 C 
BRANCH   7   8
ATOM      8  C   UNL A   1      33.296  25.906  25.112  1.00  0.00     0.182 C 
ATOM      9  N   UNL A   1      31.112  26.006  23.777  1.00  0.00    -0.328 N 
ATOM     10  C   UNL A   1      30.574  25.092  24.790  1.00  0.00     0.291 C 
ATOM     11  C   UNL A   1      32.572  25.949  23.746  1.00  0.00     0.295 C 
ATOM     12  H   UNL A   1      30.860  25.656  22.852  1.00  0.00     0.348 HD
ATOM     13  C   UNL A   1      31.254  25.251  26.157  1.00  0.00     0.222 C 
ATOM     14  O   UNL A   1      32.663  25.025  26.058  1.00  0.00    -0.366 OA
BRANCH   9  15
ATOM     15  C   UNL A   1      30.393  27.272  23.570  1.00  0.00     0.195 C 
ATOM     16  N   UNL A   1      28.696  29.311  22.281  1.00  0.00    -0.335 N 
ATOM     17  C   UNL A   1      30.144  29.500  22.394  1.00  0.00     0.268 C 
ATOM     18  C   UNL A   1      28.184  28.507  23.403  1.00  0.00     0.268 C 
ATOM     19  H   UNL A   1      28.542  28.815  21.403  1.00  0.00     0.348 HD
ATOM     20  C   UNL A   1      30.882  28.160  22.417  1.00  0.00     0.126 C 
ATOM     21  C   UNL A   1      28.862  27.139  23.484  1.00  0.00     0.126 C 
BRANCH  16  22
ATOM     22  C   UNL A   1      27.955  30.582  22.206  1.00  0.00     0.258 C 
ATOM     23  C   UNL A   1      27.632  31.202  23.562  1.00  0.00     0.071 C 
ENDBRANCH  16  22
ENDBRANCH   9  15
ENDBRANCH   7   8
ENDBRANCH   4   7
ENDBRANCH   2   3
ENDBRANCH   1   2
BRANCH   1  24
ATOM     24  C   UNL A   1      31.369  32.168  26.525  1.00  0.00     0.023 C 
BRANCH  24  25
ATOM     25  C   UNL A   1      32.538  32.803  27.264  1.00  0.00     0.116 C 
BRANCH  25  26
ATOM     26  N   UNL A   1      32.286  34.186  27.639  1.00  0.00    -0.352 N 
ATOM     27  C   UNL A   1      32.954  34.960  28.554  1.00  0.00     0.251 C 
ATOM     28  H   UNL A   1      31.537  34.625  27.173  1.00  0.00     0.163 HD
ATOM     29  O   UNL A   1      32.535  36.075  28.851  1.00  0.00    -0.269 OA
BRANCH  27  30
ATOM     30  C   UNL A   1      34.161  34.421  29.208  1.00  0.00     0.039 A 
ATOM     31  C   UNL A   1      34.022  33.723  30.409  1.00  0.00     0.014 A 
ATOM     32  C   UNL A   1      35.417  34.569  28.612  1.00  0.00     0.014 A 
ATOM     33  C   UNL A   1      35.139  33.115  30.982  1.00  0.00     0.010 A 
ATOM     34  C   UNL A   1      36.512  33.898  29.144  1.00  0.00     0.010 A 
ATOM     35  C   UNL A   1      36.384  33.168  30.334  1.00  0.00    -0.014 A 
BRANCH  35  36
ATOM     36  C   UNL A   1      37.568  32.465  30.889  1.00  0.00     0.031 A 
ATOM     37  C   UNL A   1      38.229  32.978  32.136  1.00  0.00     0.074 A 
ATOM     38  C   UNL A   1      38.083  31.409  30.231  1.00  0.00     0.049 A 
ATOM     39  N   UNL A   1      39.308  32.545  32.737  1.00  0.00    -0.248 NA
ATOM     40  C   UNL A   1      37.614  34.151  32.778  1.00  0.00     0.031 C 
ATOM     41  C   UNL A   1      37.562  30.850  28.983  1.00  0.00     0.029 A 
ATOM     42  N   UNL A   1      39.169  30.622  30.519  1.00  0.00    -0.354 N 
ATOM     43  C   UNL A   1      39.508  33.398  33.814  1.00  0.00     0.074 A 
ATOM     44  C   UNL A   1      38.472  34.407  33.754  1.00  0.00     0.031 C 
ATOM     45  C   UNL A   1      38.314  29.797  28.625  1.00  0.00     0.029 A 
ATOM     46  C   UNL A   1      39.390  29.629  29.597  1.00  0.00     0.049 A 
ATOM     47  H   UNL A   1      39.738  30.757  31.312  1.00  0.00     0.167 HD
ATOM     48  C   UNL A   1      40.453  33.333  34.782  1.00  0.00     0.037 A 
ATOM     49  C   UNL A   1      40.356  28.692  29.538  1.00  0.00     0.037 A 
ATOM     50  C   UNL A   1      41.465  32.313  34.853  1.00  0.00     0.049 A 
ATOM     51  C   UNL A   1      41.393  28.641  30.624  1.00  0.00     0.074 A 
ATOM     52  C   UNL A   1      42.430  32.123  35.826  1.00  0.00     0.029 A 
ATOM     53  N   UNL A   1      41.644  31.311  33.910  1.00  0.00    -0.354 N 
ATOM     54  N   UNL A   1      41.528  29.411  31.677  1.00  0.00    -0.248 NA
ATOM     55  C   UNL A   1      42.412  27.586  30.518  1.00  0.00     0.031 C 
ATOM     56  C   UNL A   1      43.220  31.031  35.451  1.00  0.00     0.029 A 
ATOM     57  C   UNL A   1      42.717  30.513  34.269  1.00  0.00     0.049 A 
ATOM     58  H   UNL A   1      41.090  31.187  33.106  1.00  0.00     0.167 HD
ATOM     59  C   UNL A   1      42.626  28.919  32.371  1.00  0.00     0.074 A 
ATOM     60  C   UNL A   1      43.111  27.774  31.628  1.00  0.00     0.031 C 
ATOM     61  C   UNL A   1      43.181  29.372  33.521  1.00  0.00     0.037 A 
BRANCH  48  62
ATOM     62  C   UNL A   1      40.428  34.394  35.843  1.00  0.00     0.057 A 
ATOM     63  C   UNL A   1      41.129  35.598  35.700  1.00  0.00     0.134 A 
ATOM     64  C   UNL A   1      39.672  34.222  37.009  1.00  0.00     0.134 A 
ATOM     65  F   UNL A   1      41.884  35.821  34.612  1.00  0.00    -0.206 F 
ATOM     66  C   UNL A   1      41.101  36.583  36.689  1.00  0.00     0.040 A 
ATOM     67  C   UNL A   1      39.614  35.210  37.993  1.00  0.00     0.040 A 
ATOM     68  F   UNL A   1      38.973  33.094  37.209  1.00  0.00    -0.206 F 
ATOM     69  C   UNL A   1      40.336  36.392  37.838  1.00  0.00     0.006 A 
ENDBRANCH  48  62
BRANCH  49  70
ATOM     70  C   UNL A   1      40.372  27.709  28.427  1.00  0.00     0.057 A 
ATOM     71  C   UNL A   1      39.712  26.480  28.540  1.00  0.00     0.134 A 
ATOM     72  C   UNL A   1      41.052  27.967  27.230  1.00  0.00     0.134 A 
ATOM     73  F   UNL A   1      39.058  26.169  29.669  1.00  0.00    -0.206 F 
ATOM     74  C   UNL A   1      39.743  25.535  27.514  1.00  0.00     0.040 A 
ATOM     75  C   UNL A   1      41.071  27.041  26.186  1.00  0.00     0.040 A 
ATOM     76  F   UNL A   1      41.698  29.129  27.055  1.00  0.00    -0.206 F 
ATOM     77  C   UNL A   1      40.422  25.817  26.330  1.00  0.00     0.006 A 
ENDBRANCH  49  70
BRANCH  61  78
ATOM     78  C   UNL A   1      44.355  28.611  34.062  1.00  0.00     0.057 A 
ATOM     79  C   UNL A   1      44.195  27.507  34.907  1.00  0.00     0.134 A 
ATOM     80  C   UNL A   1      45.662  28.968  33.703  1.00  0.00     0.134 A 
ATOM     81  F   UNL A   1      42.971  27.122  35.300  1.00  0.00    -0.206 F 
ATOM     82  C   UNL A   1      45.293  26.796  35.394  1.00  0.00     0.040 A 
ATOM     83  C   UNL A   1      46.766  28.249  34.161  1.00  0.00     0.040 A 
ATOM     84  F   UNL A   1      45.884  30.011  32.889  1.00  0.00    -0.206 F 
ATOM     85  C   UNL A   1      46.584  27.164  35.015  1.00  0.00     0.006 A 
ENDBRANCH  61  78
ENDBRANCH  35  36
ENDBRANCH  27  30
ENDBRANCH  25  26
ENDBRANCH  24  25
ENDBRANCH   1  24
TORSDOF 14
ENDMDL
