MODEL 1
REMARK VINA RESULT:     -12.7      0.000      0.000
REMARK SMILES Cc1ccc(NC(=O)C[C@H]2SC[C@H](C(=O)NCCCCNC(=O)c3ccc(-c4c5nc(c(-c6c(F)cccc6F)c6ccc([nH]6)c(-c6c(F)cccc6F)c6nc(c(-c7c(F)cccc7F)c7ccc4[nH]7)C=C6)C=C5)cc3)NC2=O)cc1
REMARK SMILES IDX 18 1 17 2 16 3 14 4 15 5 13 7 10 8 11 9 79 10 12 11 78 12
REMARK SMILES IDX 80 13 9 15 7 16 6 17 8 19 5 20 1 21 2 22 3 23 82 24 4 25
REMARK SMILES IDX 81 26 19 27 20 28 21 29 22 30 23 32 24 33 25 34 77 35 26 36
REMARK SMILES IDX 76 37 27 38 28 39 29 40 70 41 30 42 75 43 69 44 71 45 31 46
REMARK SMILES IDX 74 47 68 48 67 49 32 51 58 52 41 53 57 54 42 55 45 56 56 57
REMARK SMILES IDX 72 58 43 59 44 60 55 62 73 63 46 64 33 65 34 66 39 67 35 68
REMARK SMILES IDX 36 69 38 70 40 71 37 72 59 73 60 74 65 75 61 76 62 77 64 78
REMARK SMILES IDX 66 79 63 80 47 81 48 82 53 83 49 84 50 85 52 86 54 87 51 88
REMARK H PARENT 16 6 78 14 6 18 21 31 71 50 45 61
REMARK Flexibility Score: inf
ROOT
ATOM      1  C   UNL A   1      32.181  30.165  26.989  1.00  0.00     0.023 C 
ENDROOT
BRANCH   1   2
ATOM      2  C   UNL A   1      31.824  30.256  25.495  1.00  0.00     0.116 C 
BRANCH   2   3
ATOM      3  N   UNL A   1      32.897  29.831  24.617  1.00  0.00    -0.354 N 
ATOM      4  C   UNL A   1      33.128  28.661  23.961  1.00  0.00     0.243 C 
ATOM      5  O   UNL A   1      34.090  28.651  23.184  1.00  0.00    -0.273 OA
ATOM      6  H   UNL A   1      33.588  30.516  24.468  1.00  0.00     0.163 HD
BRANCH   4   7
ATOM      7  C   UNL A   1      32.223  27.420  24.087  1.00  0.00     0.181 C 
ATOM      8  C   UNL A   1      31.790  24.443  24.468  1.00  0.00     0.145 C 
ATOM      9  S   UNL A   1      30.994  25.201  22.980  1.00  0.00    -0.145 SA
ATOM     10  C   UNL A   1      31.854  25.480  25.599  1.00  0.00     0.234 C 
ATOM     11  C   UNL A   1      32.135  26.608  22.801  1.00  0.00     0.105 C 
ATOM     12  N   UNL A   1      32.502  26.665  25.309  1.00  0.00    -0.343 N 
ATOM     13  O   UNL A   1      31.457  25.297  26.745  1.00  0.00    -0.274 OA
ATOM     14  H   UNL A   1      33.171  27.012  25.941  1.00  0.00     0.164 HD
BRANCH   8  15
ATOM     15  C   UNL A   1      31.184  23.054  24.731  1.00  0.00     0.124 C 
BRANCH  15  16
ATOM     16  C   UNL A   1      31.059  22.500  26.144  1.00  0.00     0.226 C 
ATOM     17  N   UNL A   1      32.095  21.929  26.825  1.00  0.00    -0.326 N 
ATOM     18  H   UNL A   1      31.860  21.496  27.678  1.00  0.00     0.169 HD
ATOM     19  O   UNL A   1      29.957  22.528  26.707  1.00  0.00    -0.275 OA
BRANCH  17  20
ATOM     20  C   UNL A   1      33.443  21.880  26.471  1.00  0.00     0.041 A 
ATOM     21  C   UNL A   1      37.018  22.670  24.342  1.00  0.00     0.044 C 
ATOM     22  C   UNL A   1      35.859  22.317  25.208  1.00  0.00    -0.051 A 
ATOM     23  C   UNL A   1      35.186  21.109  25.013  1.00  0.00     0.005 A 
ATOM     24  C   UNL A   1      35.431  23.201  26.200  1.00  0.00     0.005 A 
ATOM     25  C   UNL A   1      33.970  20.889  25.650  1.00  0.00     0.026 A 
ATOM     26  C   UNL A   1      34.229  22.970  26.853  1.00  0.00     0.026 A 
ENDBRANCH  17  20
ENDBRANCH  15  16
ENDBRANCH   8  15
ENDBRANCH   4   7
ENDBRANCH   2   3
ENDBRANCH   1   2
BRANCH   1  27
ATOM     27  C   UNL A   1      33.199  31.191  27.496  1.00  0.00     0.023 C 
BRANCH  27  28
ATOM     28  C   UNL A   1      34.615  30.658  27.664  1.00  0.00     0.116 C 
BRANCH  28  29
ATOM     29  N   UNL A   1      35.515  31.534  28.407  1.00  0.00    -0.352 N 
ATOM     30  C   UNL A   1      36.760  31.258  28.955  1.00  0.00     0.251 C 
ATOM     31  H   UNL A   1      35.192  32.455  28.538  1.00  0.00     0.163 HD
ATOM     32  O   UNL A   1      37.358  32.119  29.577  1.00  0.00    -0.269 OA
BRANCH  30  33
ATOM     33  C   UNL A   1      37.420  29.960  28.655  1.00  0.00     0.039 A 
ATOM     34  C   UNL A   1      37.501  29.018  29.689  1.00  0.00     0.014 A 
ATOM     35  C   UNL A   1      38.139  29.769  27.480  1.00  0.00     0.014 A 
ATOM     36  C   UNL A   1      38.509  28.059  29.658  1.00  0.00     0.010 A 
ATOM     37  C   UNL A   1      39.201  28.890  27.489  1.00  0.00     0.010 A 
ATOM     38  C   UNL A   1      39.428  28.090  28.611  1.00  0.00    -0.014 A 
BRANCH  38  39
ATOM     39  C   UNL A   1      40.724  27.435  28.677  1.00  0.00     0.031 A 
ATOM     40  C   UNL A   1      40.881  26.023  28.295  1.00  0.00     0.074 A 
ATOM     41  C   UNL A   1      41.807  28.154  29.047  1.00  0.00     0.049 A 
ATOM     42  N   UNL A   1      41.785  25.245  28.785  1.00  0.00    -0.248 NA
ATOM     43  C   UNL A   1      39.997  25.361  27.342  1.00  0.00     0.031 C 
ATOM     44  C   UNL A   1      43.208  27.765  28.932  1.00  0.00     0.029 A 
ATOM     45  N   UNL A   1      41.827  29.330  29.802  1.00  0.00    -0.354 N 
ATOM     46  C   UNL A   1      41.778  24.086  28.046  1.00  0.00     0.074 A 
ATOM     47  C   UNL A   1      40.607  24.181  27.204  1.00  0.00     0.031 C 
ATOM     48  C   UNL A   1      43.931  28.502  29.787  1.00  0.00     0.029 A 
ATOM     49  C   UNL A   1      43.000  29.299  30.571  1.00  0.00     0.049 A 
ATOM     50  H   UNL A   1      41.148  30.042  29.796  1.00  0.00     0.167 HD
ATOM     51  C   UNL A   1      42.839  23.233  28.114  1.00  0.00     0.037 A 
ATOM     52  C   UNL A   1      42.994  29.392  31.930  1.00  0.00     0.037 A 
ATOM     53  C   UNL A   1      43.881  23.747  29.000  1.00  0.00     0.049 A 
ATOM     54  C   UNL A   1      43.622  28.189  32.573  1.00  0.00     0.074 A 
ATOM     55  C   UNL A   1      45.032  24.473  28.737  1.00  0.00     0.029 A 
ATOM     56  N   UNL A   1      43.661  23.842  30.372  1.00  0.00    -0.354 N 
ATOM     57  N   UNL A   1      43.712  27.031  31.978  1.00  0.00    -0.248 NA
ATOM     58  C   UNL A   1      44.217  28.187  33.905  1.00  0.00     0.031 C 
ATOM     59  C   UNL A   1      45.479  25.048  29.951  1.00  0.00     0.029 A 
ATOM     60  C   UNL A   1      44.619  24.647  30.959  1.00  0.00     0.049 A 
ATOM     61  H   UNL A   1      42.926  23.399  30.856  1.00  0.00     0.167 HD
ATOM     62  C   UNL A   1      44.380  26.157  32.789  1.00  0.00     0.074 A 
ATOM     63  C   UNL A   1      44.666  26.922  33.989  1.00  0.00     0.031 C 
ATOM     64  C   UNL A   1      44.656  24.879  32.396  1.00  0.00     0.037 A 
BRANCH  51  65
ATOM     65  C   UNL A   1      43.043  22.129  27.105  1.00  0.00     0.057 A 
ATOM     66  C   UNL A   1      42.285  20.944  27.144  1.00  0.00     0.134 A 
ATOM     67  C   UNL A   1      44.023  22.162  26.096  1.00  0.00     0.134 A 
ATOM     68  F   UNL A   1      41.241  20.800  27.969  1.00  0.00    -0.206 F 
ATOM     69  C   UNL A   1      42.569  19.833  26.339  1.00  0.00     0.040 A 
ATOM     70  C   UNL A   1      44.354  21.041  25.320  1.00  0.00     0.040 A 
ATOM     71  F   UNL A   1      44.684  23.293  25.809  1.00  0.00    -0.206 F 
ATOM     72  C   UNL A   1      43.635  19.863  25.452  1.00  0.00     0.006 A 
ENDBRANCH  51  65
BRANCH  52  73
ATOM     73  C   UNL A   1      41.896  30.224  32.486  1.00  0.00     0.057 A 
ATOM     74  C   UNL A   1      42.064  31.618  32.511  1.00  0.00     0.134 A 
ATOM     75  C   UNL A   1      40.584  29.749  32.543  1.00  0.00     0.134 A 
ATOM     76  F   UNL A   1      43.297  32.147  32.549  1.00  0.00    -0.206 F 
ATOM     77  C   UNL A   1      40.984  32.499  32.391  1.00  0.00     0.040 A 
ATOM     78  C   UNL A   1      39.491  30.622  32.458  1.00  0.00     0.040 A 
ATOM     79  F   UNL A   1      40.338  28.430  32.551  1.00  0.00    -0.206 F 
ATOM     80  C   UNL A   1      39.691  31.995  32.319  1.00  0.00     0.006 A 
ENDBRANCH  52  73
BRANCH  64  81
ATOM     81  C   UNL A   1      45.114  23.768  33.304  1.00  0.00     0.057 A 
ATOM     82  C   UNL A   1      46.389  23.713  33.883  1.00  0.00     0.134 A 
ATOM     83  C   UNL A   1      44.204  22.788  33.759  1.00  0.00     0.134 A 
ATOM     84  F   UNL A   1      47.320  24.643  33.625  1.00  0.00    -0.206 F 
ATOM     85  C   UNL A   1      46.751  22.726  34.808  1.00  0.00     0.040 A 
ATOM     86  C   UNL A   1      44.539  21.832  34.721  1.00  0.00     0.040 A 
ATOM     87  F   UNL A   1      42.941  22.733  33.312  1.00  0.00    -0.206 F 
ATOM     88  C   UNL A   1      45.821  21.790  35.241  1.00  0.00     0.006 A 
ENDBRANCH  64  81
ENDBRANCH  38  39
ENDBRANCH  30  33
ENDBRANCH  28  29
ENDBRANCH  27  28
ENDBRANCH   1  27
TORSDOF 14
ENDMDL
MODEL 2
REMARK VINA RESULT:     -12.5      3.886      9.296
REMARK SMILES Cc1ccc(NC(=O)C[C@H]2SC[C@H](C(=O)NCCCCNC(=O)c3ccc(-c4c5nc(c(-c6c(F)cccc6F)c6ccc([nH]6)c(-c6c(F)cccc6F)c6nc(c(-c7c(F)cccc7F)c7ccc4[nH]7)C=C6)C=C5)cc3)NC2=O)cc1
REMARK SMILES IDX 18 1 17 2 16 3 14 4 15 5 13 7 10 8 11 9 79 10 12 11 78 12
REMARK SMILES IDX 80 13 9 15 7 16 6 17 8 19 5 20 1 21 2 22 3 23 82 24 4 25
REMARK SMILES IDX 81 26 19 27 20 28 21 29 22 30 23 32 24 33 25 34 77 35 26 36
REMARK SMILES IDX 76 37 27 38 28 39 29 40 70 41 30 42 75 43 69 44 71 45 31 46
REMARK SMILES IDX 74 47 68 48 67 49 32 51 58 52 41 53 57 54 42 55 45 56 56 57
REMARK SMILES IDX 72 58 43 59 44 60 55 62 73 63 46 64 33 65 34 66 39 67 35 68
REMARK SMILES IDX 36 69 38 70 40 71 37 72 59 73 60 74 65 75 61 76 62 77 64 78
REMARK SMILES IDX 66 79 63 80 47 81 48 82 53 83 49 84 50 85 52 86 54 87 51 88
REMARK H PARENT 16 6 78 14 6 18 21 31 71 50 45 61
REMARK Flexibility Score: inf
ROOT
ATOM      1  C   UNL A   1      36.409  21.522  24.914  1.00  0.00     0.023 C 
ENDROOT
BRANCH   1   2
ATOM      2  C   UNL A   1      35.392  21.567  26.067  1.00  0.00     0.116 C 
BRANCH   2   3
ATOM      3  N   UNL A   1      34.462  20.456  26.063  1.00  0.00    -0.354 N 
ATOM      4  C   UNL A   1      33.232  20.297  25.501  1.00  0.00     0.243 C 
ATOM      5  O   UNL A   1      32.734  19.169  25.584  1.00  0.00    -0.273 OA
ATOM      6  H   UNL A   1      34.778  19.667  26.562  1.00  0.00     0.163 HD
BRANCH   4   7
ATOM      7  C   UNL A   1      32.501  21.411  24.727  1.00  0.00     0.181 C 
ATOM      8  C   UNL A   1      32.370  24.177  23.488  1.00  0.00     0.145 C 
ATOM      9  S   UNL A   1      31.019  23.748  24.676  1.00  0.00    -0.145 SA
ATOM     10  C   UNL A   1      32.840  22.905  22.766  1.00  0.00     0.234 C 
ATOM     11  C   UNL A   1      31.939  22.501  25.630  1.00  0.00     0.105 C 
ATOM     12  N   UNL A   1      33.273  21.867  23.570  1.00  0.00    -0.343 N 
ATOM     13  O   UNL A   1      32.940  22.782  21.550  1.00  0.00    -0.274 OA
ATOM     14  H   UNL A   1      34.125  21.423  23.360  1.00  0.00     0.164 HD
BRANCH   8  15
ATOM     15  C   UNL A   1      31.974  25.420  22.675  1.00  0.00     0.124 C 
BRANCH  15  16
ATOM     16  C   UNL A   1      33.026  26.321  22.043  1.00  0.00     0.226 C 
ATOM     17  N   UNL A   1      33.496  27.459  22.631  1.00  0.00    -0.326 N 
ATOM     18  H   UNL A   1      34.079  28.022  22.071  1.00  0.00     0.169 HD
ATOM     19  O   UNL A   1      33.463  26.041  20.920  1.00  0.00    -0.275 OA
BRANCH  17  20
ATOM     20  C   UNL A   1      33.260  27.929  23.923  1.00  0.00     0.041 A 
ATOM     21  C   UNL A   1      31.479  28.298  27.747  1.00  0.00     0.044 C 
ATOM     22  C   UNL A   1      32.228  28.271  26.461  1.00  0.00    -0.051 A 
ATOM     23  C   UNL A   1      31.935  29.205  25.464  1.00  0.00     0.005 A 
ATOM     24  C   UNL A   1      33.206  27.301  26.241  1.00  0.00     0.005 A 
ATOM     25  C   UNL A   1      32.456  29.033  24.187  1.00  0.00     0.026 A 
ATOM     26  C   UNL A   1      33.744  27.144  24.971  1.00  0.00     0.026 A 
ENDBRANCH  17  20
ENDBRANCH  15  16
ENDBRANCH   8  15
ENDBRANCH   4   7
ENDBRANCH   2   3
ENDBRANCH   1   2
BRANCH   1  27
ATOM     27  C   UNL A   1      37.884  21.482  25.324  1.00  0.00     0.023 C 
BRANCH  27  28
ATOM     28  C   UNL A   1      38.417  22.775  25.926  1.00  0.00     0.116 C 
BRANCH  28  29
ATOM     29  N   UNL A   1      39.843  22.767  26.228  1.00  0.00    -0.352 N 
ATOM     30  C   UNL A   1      40.654  23.800  26.680  1.00  0.00     0.251 C 
ATOM     31  H   UNL A   1      40.297  21.904  26.093  1.00  0.00     0.163 HD
ATOM     32  O   UNL A   1      41.846  23.611  26.849  1.00  0.00    -0.269 OA
BRANCH  30  33
ATOM     33  C   UNL A   1      40.037  25.087  27.094  1.00  0.00     0.039 A 
ATOM     34  C   UNL A   1      40.411  26.242  26.396  1.00  0.00     0.014 A 
ATOM     35  C   UNL A   1      39.303  25.192  28.271  1.00  0.00     0.014 A 
ATOM     36  C   UNL A   1      40.304  27.480  27.021  1.00  0.00     0.010 A 
ATOM     37  C   UNL A   1      39.288  26.399  28.937  1.00  0.00     0.010 A 
ATOM     38  C   UNL A   1      39.858  27.525  28.340  1.00  0.00    -0.014 A 
BRANCH  38  39
ATOM     39  C   UNL A   1      40.088  28.664  29.214  1.00  0.00     0.031 A 
ATOM     40  C   UNL A   1      39.021  29.640  29.487  1.00  0.00     0.074 A 
ATOM     41  C   UNL A   1      41.287  28.795  29.824  1.00  0.00     0.049 A 
ATOM     42  N   UNL A   1      39.239  30.877  29.779  1.00  0.00    -0.248 NA
ATOM     43  C   UNL A   1      37.605  29.298  29.418  1.00  0.00     0.031 C 
ATOM     44  C   UNL A   1      41.631  29.700  30.914  1.00  0.00     0.029 A 
ATOM     45  N   UNL A   1      42.508  28.249  29.417  1.00  0.00    -0.354 N 
ATOM     46  C   UNL A   1      38.044  31.422  30.185  1.00  0.00     0.074 A 
ATOM     47  C   UNL A   1      37.047  30.420  29.881  1.00  0.00     0.031 C 
ATOM     48  C   UNL A   1      42.962  29.864  30.935  1.00  0.00     0.029 A 
ATOM     49  C   UNL A   1      43.504  29.171  29.776  1.00  0.00     0.049 A 
ATOM     50  H   UNL A   1      42.644  27.386  28.966  1.00  0.00     0.167 HD
ATOM     51  C   UNL A   1      38.036  32.601  30.870  1.00  0.00     0.037 A 
ATOM     52  C   UNL A   1      44.373  29.706  28.873  1.00  0.00     0.037 A 
ATOM     53  C   UNL A   1      39.392  33.099  31.090  1.00  0.00     0.049 A 
ATOM     54  C   UNL A   1      44.277  31.205  28.829  1.00  0.00     0.074 A 
ATOM     55  C   UNL A   1      40.250  32.973  32.171  1.00  0.00     0.029 A 
ATOM     56  N   UNL A   1      40.168  33.538  30.020  1.00  0.00    -0.354 N 
ATOM     57  N   UNL A   1      43.215  31.860  29.212  1.00  0.00    -0.248 NA
ATOM     58  C   UNL A   1      45.353  32.083  28.386  1.00  0.00     0.031 C 
ATOM     59  C   UNL A   1      41.559  33.291  31.737  1.00  0.00     0.029 A 
ATOM     60  C   UNL A   1      41.495  33.641  30.398  1.00  0.00     0.049 A 
ATOM     61  H   UNL A   1      39.822  33.744  29.122  1.00  0.00     0.167 HD
ATOM     62  C   UNL A   1      43.450  33.202  29.108  1.00  0.00     0.074 A 
ATOM     63  C   UNL A   1      44.798  33.293  28.576  1.00  0.00     0.031 C 
ATOM     64  C   UNL A   1      42.520  34.127  29.485  1.00  0.00     0.037 A 
BRANCH  51  65
ATOM     65  C   UNL A   1      36.816  33.083  31.616  1.00  0.00     0.057 A 
ATOM     66  C   UNL A   1      36.616  32.781  32.977  1.00  0.00     0.134 A 
ATOM     67  C   UNL A   1      35.770  33.811  31.021  1.00  0.00     0.134 A 
ATOM     68  F   UNL A   1      37.565  32.194  33.716  1.00  0.00    -0.206 F 
ATOM     69  C   UNL A   1      35.419  33.058  33.649  1.00  0.00     0.040 A 
ATOM     70  C   UNL A   1      34.546  34.049  31.664  1.00  0.00     0.040 A 
ATOM     71  F   UNL A   1      35.905  34.340  29.796  1.00  0.00    -0.206 F 
ATOM     72  C   UNL A   1      34.361  33.656  32.981  1.00  0.00     0.006 A 
ENDBRANCH  51  65
BRANCH  52  73
ATOM     73  C   UNL A   1      44.723  28.805  27.745  1.00  0.00     0.057 A 
ATOM     74  C   UNL A   1      45.631  27.761  27.984  1.00  0.00     0.134 A 
ATOM     75  C   UNL A   1      43.877  28.662  26.643  1.00  0.00     0.134 A 
ATOM     76  F   UNL A   1      46.534  27.867  28.970  1.00  0.00    -0.206 F 
ATOM     77  C   UNL A   1      45.567  26.548  27.292  1.00  0.00     0.040 A 
ATOM     78  C   UNL A   1      43.826  27.464  25.919  1.00  0.00     0.040 A 
ATOM     79  F   UNL A   1      42.999  29.627  26.330  1.00  0.00    -0.206 F 
ATOM     80  C   UNL A   1      44.627  26.382  26.281  1.00  0.00     0.006 A 
ENDBRANCH  52  73
BRANCH  64  81
ATOM     81  C   UNL A   1      42.561  35.593  29.146  1.00  0.00     0.057 A 
ATOM     82  C   UNL A   1      43.426  36.510  29.758  1.00  0.00     0.134 A 
ATOM     83  C   UNL A   1      41.827  36.099  28.050  1.00  0.00     0.134 A 
ATOM     84  F   UNL A   1      44.261  36.141  30.740  1.00  0.00    -0.206 F 
ATOM     85  C   UNL A   1      43.519  37.845  29.346  1.00  0.00     0.040 A 
ATOM     86  C   UNL A   1      41.950  37.414  27.598  1.00  0.00     0.040 A 
ATOM     87  F   UNL A   1      40.977  35.331  27.351  1.00  0.00    -0.206 F 
ATOM     88  C   UNL A   1      42.790  38.298  28.254  1.00  0.00     0.006 A 
ENDBRANCH  64  81
ENDBRANCH  38  39
ENDBRANCH  30  33
ENDBRANCH  28  29
ENDBRANCH  27  28
ENDBRANCH   1  27
TORSDOF 14
ENDMDL
MODEL 3
REMARK VINA RESULT:     -12.5      4.051      8.917
REMARK SMILES Cc1ccc(NC(=O)C[C@H]2SC[C@H](C(=O)NCCCCNC(=O)c3ccc(-c4c5nc(c(-c6c(F)cccc6F)c6ccc([nH]6)c(-c6c(F)cccc6F)c6nc(c(-c7c(F)cccc7F)c7ccc4[nH]7)C=C6)C=C5)cc3)NC2=O)cc1
REMARK SMILES IDX 18 1 17 2 16 3 14 4 15 5 13 7 10 8 11 9 79 10 12 11 78 12
REMARK SMILES IDX 80 13 9 15 7 16 6 17 8 19 5 20 1 21 2 22 3 23 82 24 4 25
REMARK SMILES IDX 81 26 19 27 20 28 21 29 22 30 23 32 24 33 25 34 77 35 26 36
REMARK SMILES IDX 76 37 27 38 28 39 29 40 70 41 30 42 75 43 69 44 71 45 31 46
REMARK SMILES IDX 74 47 68 48 67 49 32 51 58 52 41 53 57 54 42 55 45 56 56 57
REMARK SMILES IDX 72 58 43 59 44 60 55 62 73 63 46 64 33 65 34 66 39 67 35 68
REMARK SMILES IDX 36 69 38 70 40 71 37 72 59 73 60 74 65 75 61 76 62 77 64 78
REMARK SMILES IDX 66 79 63 80 47 81 48 82 53 83 49 84 50 85 52 86 54 87 51 88
REMARK H PARENT 16 6 78 14 6 18 21 31 71 50 45 61
REMARK Flexibility Score: inf
ROOT
ATOM      1  C   UNL A   1      39.666  21.998  26.184  1.00  0.00     0.023 C 
ENDROOT
BRANCH   1   2
ATOM      2  C   UNL A   1      38.170  21.861  25.852  1.00  0.00     0.116 C 
BRANCH   2   3
ATOM      3  N   UNL A   1      37.823  22.350  24.532  1.00  0.00    -0.354 N 
ATOM      4  C   UNL A   1      36.625  22.630  23.949  1.00  0.00     0.243 C 
ATOM      5  O   UNL A   1      36.670  23.149  22.828  1.00  0.00    -0.273 OA
ATOM      6  H   UNL A   1      38.598  22.508  23.947  1.00  0.00     0.163 HD
BRANCH   4   7
ATOM      7  C   UNL A   1      35.267  22.403  24.643  1.00  0.00     0.181 C 
ATOM      8  C   UNL A   1      32.305  22.959  24.989  1.00  0.00     0.145 C 
ATOM      9  S   UNL A   1      33.352  23.128  26.505  1.00  0.00    -0.145 SA
ATOM     10  C   UNL A   1      32.902  21.881  24.072  1.00  0.00     0.234 C 
ATOM     11  C   UNL A   1      34.924  23.484  25.660  1.00  0.00     0.105 C 
ATOM     12  N   UNL A   1      34.216  22.065  23.683  1.00  0.00    -0.343 N 
ATOM     13  O   UNL A   1      32.280  20.936  23.599  1.00  0.00    -0.274 OA
ATOM     14  H   UNL A   1      34.451  21.967  22.732  1.00  0.00     0.164 HD
BRANCH   8  15
ATOM     15  C   UNL A   1      30.822  22.896  25.386  1.00  0.00     0.124 C 
BRANCH  15  16
ATOM     16  C   UNL A   1      30.282  23.697  26.563  1.00  0.00     0.226 C 
ATOM     17  N   UNL A   1      30.162  25.057  26.559  1.00  0.00    -0.326 N 
ATOM     18  H   UNL A   1      29.920  25.468  27.420  1.00  0.00     0.169 HD
ATOM     19  O   UNL A   1      29.962  23.103  27.600  1.00  0.00    -0.275 OA
BRANCH  17  20
ATOM     20  C   UNL A   1      30.337  25.939  25.493  1.00  0.00     0.041 A 
ATOM     21  C   UNL A   1      30.225  29.536  23.261  1.00  0.00     0.044 C 
ATOM     22  C   UNL A   1      30.363  28.210  23.921  1.00  0.00    -0.051 A 
ATOM     23  C   UNL A   1      29.428  27.203  23.666  1.00  0.00     0.005 A 
ATOM     24  C   UNL A   1      31.413  27.977  24.811  1.00  0.00     0.005 A 
ATOM     25  C   UNL A   1      29.416  26.060  24.457  1.00  0.00     0.026 A 
ATOM     26  C   UNL A   1      31.413  26.824  25.585  1.00  0.00     0.026 A 
ENDBRANCH  17  20
ENDBRANCH  15  16
ENDBRANCH   8  15
ENDBRANCH   4   7
ENDBRANCH   2   3
ENDBRANCH   1   2
BRANCH   1  27
ATOM     27  C   UNL A   1      40.402  20.693  26.501  1.00  0.00     0.023 C 
BRANCH  27  28
ATOM     28  C   UNL A   1      41.902  20.840  26.720  1.00  0.00     0.116 C 
BRANCH  28  29
ATOM     29  N   UNL A   1      42.734  20.172  25.726  1.00  0.00    -0.352 N 
ATOM     30  C   UNL A   1      43.765  20.685  24.950  1.00  0.00     0.251 C 
ATOM     31  H   UNL A   1      42.536  19.218  25.585  1.00  0.00     0.163 HD
ATOM     32  O   UNL A   1      44.332  19.973  24.140  1.00  0.00    -0.269 OA
BRANCH  30  33
ATOM     33  C   UNL A   1      44.267  22.058  25.217  1.00  0.00     0.039 A 
ATOM     34  C   UNL A   1      45.199  22.220  26.250  1.00  0.00     0.014 A 
ATOM     35  C   UNL A   1      43.671  23.172  24.637  1.00  0.00     0.014 A 
ATOM     36  C   UNL A   1      45.307  23.454  26.882  1.00  0.00     0.010 A 
ATOM     37  C   UNL A   1      43.696  24.369  25.320  1.00  0.00     0.010 A 
ATOM     38  C   UNL A   1      44.456  24.484  26.486  1.00  0.00    -0.014 A 
BRANCH  38  39
ATOM     39  C   UNL A   1      44.187  25.650  27.313  1.00  0.00     0.031 A 
ATOM     40  C   UNL A   1      42.836  26.228  27.392  1.00  0.00     0.074 A 
ATOM     41  C   UNL A   1      45.185  26.173  28.058  1.00  0.00     0.049 A 
ATOM     42  N   UNL A   1      42.603  27.473  27.635  1.00  0.00    -0.248 NA
ATOM     43  C   UNL A   1      41.628  25.442  27.167  1.00  0.00     0.031 C 
ATOM     44  C   UNL A   1      45.067  27.157  29.127  1.00  0.00     0.029 A 
ATOM     45  N   UNL A   1      46.560  26.049  27.840  1.00  0.00    -0.354 N 
ATOM     46  C   UNL A   1      41.253  27.605  27.856  1.00  0.00     0.074 A 
ATOM     47  C   UNL A   1      40.682  26.328  27.490  1.00  0.00     0.031 C 
ATOM     48  C   UNL A   1      46.259  27.747  29.304  1.00  0.00     0.029 A 
ATOM     49  C   UNL A   1      47.148  27.250  28.265  1.00  0.00     0.049 A 
ATOM     50  H   UNL A   1      47.026  25.270  27.462  1.00  0.00     0.167 HD
ATOM     51  C   UNL A   1      40.773  28.727  28.463  1.00  0.00     0.037 A 
ATOM     52  C   UNL A   1      47.915  28.026  27.448  1.00  0.00     0.037 A 
ATOM     53  C   UNL A   1      41.854  29.643  28.821  1.00  0.00     0.049 A 
ATOM     54  C   UNL A   1      47.350  29.410  27.303  1.00  0.00     0.074 A 
ATOM     55  C   UNL A   1      42.551  29.820  30.006  1.00  0.00     0.029 A 
ATOM     56  N   UNL A   1      42.587  30.295  27.832  1.00  0.00    -0.354 N 
ATOM     57  N   UNL A   1      46.092  29.689  27.511  1.00  0.00    -0.248 NA
ATOM     58  C   UNL A   1      48.137  30.584  26.946  1.00  0.00     0.031 C 
ATOM     59  C   UNL A   1      43.734  30.541  29.720  1.00  0.00     0.029 A 
ATOM     60  C   UNL A   1      43.745  30.831  28.366  1.00  0.00     0.049 A 
ATOM     61  H   UNL A   1      42.320  30.363  26.887  1.00  0.00     0.167 HD
ATOM     62  C   UNL A   1      45.896  31.033  27.358  1.00  0.00     0.074 A 
ATOM     63  C   UNL A   1      47.203  31.550  26.994  1.00  0.00     0.031 C 
ATOM     64  C   UNL A   1      44.676  31.610  27.561  1.00  0.00     0.037 A 
BRANCH  51  65
ATOM     65  C   UNL A   1      39.373  28.797  29.022  1.00  0.00     0.057 A 
ATOM     66  C   UNL A   1      38.309  29.345  28.280  1.00  0.00     0.134 A 
ATOM     67  C   UNL A   1      39.027  28.384  30.321  1.00  0.00     0.134 A 
ATOM     68  F   UNL A   1      38.446  29.681  26.992  1.00  0.00    -0.206 F 
ATOM     69  C   UNL A   1      37.044  29.587  28.831  1.00  0.00     0.040 A 
ATOM     70  C   UNL A   1      37.782  28.668  30.903  1.00  0.00     0.040 A 
ATOM     71  F   UNL A   1      39.878  27.667  31.070  1.00  0.00    -0.206 F 
ATOM     72  C   UNL A   1      36.789  29.289  30.161  1.00  0.00     0.006 A 
ENDBRANCH  51  65
BRANCH  52  73
ATOM     73  C   UNL A   1      48.686  27.271  26.428  1.00  0.00     0.057 A 
ATOM     74  C   UNL A   1      48.173  27.199  25.123  1.00  0.00     0.134 A 
ATOM     75  C   UNL A   1      50.056  27.043  26.577  1.00  0.00     0.134 A 
ATOM     76  F   UNL A   1      46.853  27.317  24.912  1.00  0.00    -0.206 F 
ATOM     77  C   UNL A   1      49.003  27.110  24.002  1.00  0.00     0.040 A 
ATOM     78  C   UNL A   1      50.896  26.919  25.462  1.00  0.00     0.040 A 
ATOM     79  F   UNL A   1      50.621  27.067  27.793  1.00  0.00    -0.206 F 
ATOM     80  C   UNL A   1      50.379  27.014  24.171  1.00  0.00     0.006 A 
ENDBRANCH  52  73
BRANCH  64  81
ATOM     81  C   UNL A   1      44.290  33.004  27.143  1.00  0.00     0.057 A 
ATOM     82  C   UNL A   1      43.917  33.350  25.837  1.00  0.00     0.134 A 
ATOM     83  C   UNL A   1      44.121  34.023  28.107  1.00  0.00     0.134 A 
ATOM     84  F   UNL A   1      43.924  32.451  24.843  1.00  0.00    -0.206 F 
ATOM     85  C   UNL A   1      43.459  34.630  25.502  1.00  0.00     0.040 A 
ATOM     86  C   UNL A   1      43.616  35.287  27.792  1.00  0.00     0.040 A 
ATOM     87  F   UNL A   1      44.413  33.829  29.402  1.00  0.00    -0.206 F 
ATOM     88  C   UNL A   1      43.294  35.599  26.482  1.00  0.00     0.006 A 
ENDBRANCH  64  81
ENDBRANCH  38  39
ENDBRANCH  30  33
ENDBRANCH  28  29
ENDBRANCH  27  28
ENDBRANCH   1  27
TORSDOF 14
ENDMDL
