MODEL 1
REMARK VINA RESULT:     -11.6      0.000      0.000
REMARK SMILES Nc1cc(F)c(OCc2ccc(C(=O)NCCCCNC(=O)c3ccc(-c4c5nc(c(-c6c(F)cccc6F)c6ccc([nH]6)c(-c6c(F)cccc6F)c6nc(c(-c7c(F)cccc7F)c7ccc4[nH]7)C=C6)C=C5)cc3)cc2)cc1F
REMARK SMILES IDX 16 1 15 2 13 3 14 4 12 6 9 7 10 8 78 9 11 10 77 11 8 12 7 13
REMARK SMILES IDX 6 14 2 15 3 16 80 17 4 18 79 19 81 20 5 21 1 22 17 25 18 26
REMARK SMILES IDX 19 27 20 28 21 29 22 31 23 32 24 33 76 34 25 35 75 36 26 37
REMARK SMILES IDX 27 38 28 39 69 40 29 41 74 42 68 43 70 44 30 45 73 46 67 47
REMARK SMILES IDX 66 48 31 50 57 51 40 52 56 53 41 54 44 55 55 56 71 57 42 58
REMARK SMILES IDX 43 59 54 61 72 62 45 63 32 64 33 65 38 66 34 67 35 68 37 69
REMARK SMILES IDX 39 70 36 71 58 72 59 73 64 74 60 75 61 76 63 77 65 78 62 79
REMARK SMILES IDX 46 80 47 81 52 82 48 83 49 84 51 85 53 86 50 87
REMARK H PARENT 15 5 1 23 1 24 20 30 70 49 44 60
REMARK Flexibility Score: inf
ROOT
ATOM      1  C   UNL A   1      34.948  21.747  26.315  1.00  0.00     0.116 C 
ENDROOT
BRANCH   1   2
ATOM      2  N   UNL A   1      34.150  20.540  26.188  1.00  0.00    -0.352 N 
ATOM      3  C   UNL A   1      32.988  20.320  25.482  1.00  0.00     0.251 C 
ATOM      4  O   UNL A   1      32.476  19.204  25.497  1.00  0.00    -0.269 OA
ATOM      5  H   UNL A   1      34.491  19.759  26.682  1.00  0.00     0.163 HD
BRANCH   3   6
ATOM      6  C   UNL A   1      32.303  21.433  24.783  1.00  0.00     0.039 A 
ATOM      7  C   UNL A   1      31.327  23.822  23.701  1.00  0.00    -0.011 A 
ATOM      8  C   UNL A   1      30.952  23.426  24.994  1.00  0.00     0.008 A 
ATOM      9  C   UNL A   1      32.061  22.933  22.904  1.00  0.00     0.008 A 
ATOM     10  C   UNL A   1      31.456  22.247  25.540  1.00  0.00     0.014 A 
ATOM     11  C   UNL A   1      32.516  21.725  23.434  1.00  0.00     0.014 A 
BRANCH   7  12
ATOM     12  C   UNL A   1      31.024  25.217  23.205  1.00  0.00     0.265 C 
BRANCH  12  13
ATOM     13  O   UNL A   1      32.206  26.029  23.137  1.00  0.00    -0.486 OA
BRANCH  13  14
ATOM     14  C   UNL A   1      32.325  27.127  23.947  1.00  0.00     0.158 A 
ATOM     15  C   UNL A   1      32.780  29.266  25.756  1.00  0.00     0.071 A 
ATOM     16  C   UNL A   1      33.641  28.173  25.725  1.00  0.00     0.071 A 
ATOM     17  C   UNL A   1      31.682  29.255  24.887  1.00  0.00     0.149 A 
ATOM     18  C   UNL A   1      33.415  27.125  24.828  1.00  0.00     0.167 A 
ATOM     19  C   UNL A   1      31.465  28.221  23.975  1.00  0.00     0.091 A 
ATOM     20  F   UNL A   1      30.809  30.277  24.915  1.00  0.00    -0.205 F 
ATOM     21  F   UNL A   1      34.270  26.090  24.833  1.00  0.00    -0.203 F 
BRANCH  15  22
ATOM     22  N   UNL A   1      32.940  30.275  26.696  1.00  0.00    -0.396 N 
ATOM     23  H   UNL A   1      32.318  31.037  26.713  1.00  0.00     0.156 HD
ATOM     24  H   UNL A   1      33.677  30.227  27.348  1.00  0.00     0.156 HD
ENDBRANCH  15  22
ENDBRANCH  13  14
ENDBRANCH  12  13
ENDBRANCH   7  12
ENDBRANCH   3   6
ENDBRANCH   1   2
BRANCH   1  25
ATOM     25  C   UNL A   1      35.926  21.991  25.171  1.00  0.00     0.023 C 
BRANCH  25  26
ATOM     26  C   UNL A   1      36.962  20.904  24.915  1.00  0.00     0.023 C 
BRANCH  26  27
ATOM     27  C   UNL A   1      38.336  21.128  25.534  1.00  0.00     0.116 C 
BRANCH  27  28
ATOM     28  N   UNL A   1      39.208  19.964  25.480  1.00  0.00    -0.352 N 
ATOM     29  C   UNL A   1      40.510  19.808  25.907  1.00  0.00     0.251 C 
ATOM     30  H   UNL A   1      38.804  19.161  25.076  1.00  0.00     0.163 HD
ATOM     31  O   UNL A   1      41.100  18.753  25.708  1.00  0.00    -0.269 OA
BRANCH  29  32
ATOM     32  C   UNL A   1      41.217  20.940  26.547  1.00  0.00     0.039 A 
ATOM     33  C   UNL A   1      41.188  21.113  27.931  1.00  0.00     0.014 A 
ATOM     34  C   UNL A   1      41.862  21.878  25.737  1.00  0.00     0.014 A 
ATOM     35  C   UNL A   1      41.592  22.328  28.476  1.00  0.00     0.010 A 
ATOM     36  C   UNL A   1      42.359  23.057  26.302  1.00  0.00     0.010 A 
ATOM     37  C   UNL A   1      42.157  23.326  27.664  1.00  0.00    -0.014 A 
BRANCH  37  38
ATOM     38  C   UNL A   1      42.467  24.657  28.250  1.00  0.00     0.031 A 
ATOM     39  C   UNL A   1      43.888  25.035  28.586  1.00  0.00     0.074 A 
ATOM     40  C   UNL A   1      41.482  25.562  28.407  1.00  0.00     0.049 A 
ATOM     41  N   UNL A   1      44.351  26.155  29.085  1.00  0.00    -0.248 NA
ATOM     42  C   UNL A   1      44.927  24.023  28.333  1.00  0.00     0.031 C 
ATOM     43  C   UNL A   1      40.068  25.332  28.102  1.00  0.00     0.029 A 
ATOM     44  N   UNL A   1      41.523  26.865  28.833  1.00  0.00    -0.354 N 
ATOM     45  C   UNL A   1      45.722  25.973  29.228  1.00  0.00     0.074 A 
ATOM     46  C   UNL A   1      46.016  24.626  28.789  1.00  0.00     0.031 C 
ATOM     47  C   UNL A   1      39.388  26.471  28.295  1.00  0.00     0.029 A 
ATOM     48  C   UNL A   1      40.302  27.492  28.794  1.00  0.00     0.049 A 
ATOM     49  H   UNL A   1      42.348  27.307  29.137  1.00  0.00     0.167 HD
ATOM     50  C   UNL A   1      46.654  26.849  29.673  1.00  0.00     0.037 A 
ATOM     51  C   UNL A   1      39.955  28.747  29.133  1.00  0.00     0.037 A 
ATOM     52  C   UNL A   1      46.374  28.202  30.079  1.00  0.00     0.049 A 
ATOM     53  C   UNL A   1      41.002  29.686  29.655  1.00  0.00     0.074 A 
ATOM     54  C   UNL A   1      47.257  29.171  30.524  1.00  0.00     0.029 A 
ATOM     55  N   UNL A   1      45.115  28.779  30.080  1.00  0.00    -0.354 N 
ATOM     56  N   UNL A   1      42.291  29.493  29.793  1.00  0.00    -0.248 NA
ATOM     57  C   UNL A   1      40.541  31.015  30.081  1.00  0.00     0.031 C 
ATOM     58  C   UNL A   1      46.525  30.326  30.825  1.00  0.00     0.029 A 
ATOM     59  C   UNL A   1      45.193  30.086  30.534  1.00  0.00     0.049 A 
ATOM     60  H   UNL A   1      44.286  28.327  29.800  1.00  0.00     0.167 HD
ATOM     61  C   UNL A   1      42.796  30.676  30.316  1.00  0.00     0.074 A 
ATOM     62  C   UNL A   1      41.679  31.588  30.445  1.00  0.00     0.031 C 
ATOM     63  C   UNL A   1      44.070  30.977  30.663  1.00  0.00     0.037 A 
BRANCH  50  64
ATOM     64  C   UNL A   1      48.073  26.366  29.755  1.00  0.00     0.057 A 
ATOM     65  C   UNL A   1      48.558  25.773  30.928  1.00  0.00     0.134 A 
ATOM     66  C   UNL A   1      48.970  26.518  28.690  1.00  0.00     0.134 A 
ATOM     67  F   UNL A   1      47.752  25.603  31.987  1.00  0.00    -0.206 F 
ATOM     68  C   UNL A   1      49.883  25.348  31.039  1.00  0.00     0.040 A 
ATOM     69  C   UNL A   1      50.292  26.079  28.781  1.00  0.00     0.040 A 
ATOM     70  F   UNL A   1      48.566  27.066  27.534  1.00  0.00    -0.206 F 
ATOM     71  C   UNL A   1      50.753  25.496  29.961  1.00  0.00     0.006 A 
ENDBRANCH  50  64
BRANCH  51  72
ATOM     72  C   UNL A   1      38.544  29.185  29.001  1.00  0.00     0.057 A 
ATOM     73  C   UNL A   1      37.666  29.149  30.090  1.00  0.00     0.134 A 
ATOM     74  C   UNL A   1      38.045  29.657  27.782  1.00  0.00     0.134 A 
ATOM     75  F   UNL A   1      38.085  28.703  31.283  1.00  0.00    -0.206 F 
ATOM     76  C   UNL A   1      36.337  29.556  29.970  1.00  0.00     0.040 A 
ATOM     77  C   UNL A   1      36.725  30.090  27.653  1.00  0.00     0.040 A 
ATOM     78  F   UNL A   1      38.847  29.735  26.709  1.00  0.00    -0.206 F 
ATOM     79  C   UNL A   1      35.865  30.034  28.748  1.00  0.00     0.006 A 
ENDBRANCH  51  72
BRANCH  63  80
ATOM     80  C   UNL A   1      44.315  32.353  31.204  1.00  0.00     0.057 A 
ATOM     81  C   UNL A   1      44.605  33.419  30.345  1.00  0.00     0.134 A 
ATOM     82  C   UNL A   1      44.268  32.618  32.579  1.00  0.00     0.134 A 
ATOM     83  F   UNL A   1      44.668  33.228  29.019  1.00  0.00    -0.206 F 
ATOM     84  C   UNL A   1      44.837  34.705  30.835  1.00  0.00     0.040 A 
ATOM     85  C   UNL A   1      44.477  33.904  33.078  1.00  0.00     0.040 A 
ATOM     86  F   UNL A   1      43.979  31.640  33.450  1.00  0.00    -0.206 F 
ATOM     87  C   UNL A   1      44.766  34.952  32.205  1.00  0.00     0.006 A 
ENDBRANCH  63  80
ENDBRANCH  37  38
ENDBRANCH  29  32
ENDBRANCH  27  28
ENDBRANCH  26  27
ENDBRANCH  25  26
ENDBRANCH   1  25
TORSDOF 15
ENDMDL
MODEL 2
REMARK VINA RESULT:     -11.6      3.972      9.173
REMARK SMILES Nc1cc(F)c(OCc2ccc(C(=O)NCCCCNC(=O)c3ccc(-c4c5nc(c(-c6c(F)cccc6F)c6ccc([nH]6)c(-c6c(F)cccc6F)c6nc(c(-c7c(F)cccc7F)c7ccc4[nH]7)C=C6)C=C5)cc3)cc2)cc1F
REMARK SMILES IDX 16 1 15 2 13 3 14 4 12 6 9 7 10 8 78 9 11 10 77 11 8 12 7 13
REMARK SMILES IDX 6 14 2 15 3 16 80 17 4 18 79 19 81 20 5 21 1 22 17 25 18 26
REMARK SMILES IDX 19 27 20 28 21 29 22 31 23 32 24 33 76 34 25 35 75 36 26 37
REMARK SMILES IDX 27 38 28 39 69 40 29 41 74 42 68 43 70 44 30 45 73 46 67 47
REMARK SMILES IDX 66 48 31 50 57 51 40 52 56 53 41 54 44 55 55 56 71 57 42 58
REMARK SMILES IDX 43 59 54 61 72 62 45 63 32 64 33 65 38 66 34 67 35 68 37 69
REMARK SMILES IDX 39 70 36 71 58 72 59 73 64 74 60 75 61 76 63 77 65 78 62 79
REMARK SMILES IDX 46 80 47 81 52 82 48 83 49 84 51 85 53 86 50 87
REMARK H PARENT 15 5 1 23 1 24 20 30 70 49 44 60
REMARK Flexibility Score: inf
ROOT
ATOM      1  C   UNL A   1      31.418  29.798  25.203  1.00  0.00     0.116 C 
ENDROOT
BRANCH   1   2
ATOM      2  N   UNL A   1      32.514  29.699  24.255  1.00  0.00    -0.352 N 
ATOM      3  C   UNL A   1      33.213  28.592  23.826  1.00  0.00     0.251 C 
ATOM      4  O   UNL A   1      34.107  28.728  22.996  1.00  0.00    -0.269 OA
ATOM      5  H   UNL A   1      32.803  30.553  23.858  1.00  0.00     0.163 HD
BRANCH   3   6
ATOM      6  C   UNL A   1      32.960  27.258  24.421  1.00  0.00     0.039 A 
ATOM      7  C   UNL A   1      32.827  24.583  25.229  1.00  0.00    -0.011 A 
ATOM      8  C   UNL A   1      32.169  25.003  24.064  1.00  0.00     0.008 A 
ATOM      9  C   UNL A   1      33.413  25.544  26.063  1.00  0.00     0.008 A 
ATOM     10  C   UNL A   1      32.253  26.331  23.650  1.00  0.00     0.014 A 
ATOM     11  C   UNL A   1      33.446  26.884  25.676  1.00  0.00     0.014 A 
BRANCH   7  12
ATOM     12  C   UNL A   1      32.983  23.111  25.537  1.00  0.00     0.265 C 
BRANCH  12  13
ATOM     13  O   UNL A   1      33.854  22.458  24.602  1.00  0.00    -0.486 OA
BRANCH  13  14
ATOM     14  C   UNL A   1      35.198  22.389  24.858  1.00  0.00     0.158 A 
ATOM     15  C   UNL A   1      37.953  21.964  25.392  1.00  0.00     0.071 A 
ATOM     16  C   UNL A   1      37.114  20.888  25.115  1.00  0.00     0.071 A 
ATOM     17  C   UNL A   1      37.385  23.243  25.420  1.00  0.00     0.149 A 
ATOM     18  C   UNL A   1      35.759  21.104  24.847  1.00  0.00     0.167 A 
ATOM     19  C   UNL A   1      36.037  23.465  25.132  1.00  0.00     0.091 A 
ATOM     20  F   UNL A   1      38.157  24.301  25.721  1.00  0.00    -0.205 F 
ATOM     21  F   UNL A   1      34.986  20.038  24.585  1.00  0.00    -0.203 F 
BRANCH  15  22
ATOM     22  N   UNL A   1      39.281  21.761  25.743  1.00  0.00    -0.396 N 
ATOM     23  H   UNL A   1      39.560  20.907  26.142  1.00  0.00     0.156 HD
ATOM     24  H   UNL A   1      39.944  22.474  25.591  1.00  0.00     0.156 HD
ENDBRANCH  15  22
ENDBRANCH  13  14
ENDBRANCH  12  13
ENDBRANCH   7  12
ENDBRANCH   3   6
ENDBRANCH   1   2
BRANCH   1  25
ATOM     25  C   UNL A   1      31.798  30.374  26.562  1.00  0.00     0.023 C 
BRANCH  25  26
ATOM     26  C   UNL A   1      31.286  31.773  26.879  1.00  0.00     0.023 C 
BRANCH  26  27
ATOM     27  C   UNL A   1      32.214  32.925  26.517  1.00  0.00     0.116 C 
BRANCH  27  28
ATOM     28  N   UNL A   1      32.180  34.034  27.459  1.00  0.00    -0.352 N 
ATOM     29  C   UNL A   1      33.056  34.370  28.470  1.00  0.00     0.251 C 
ATOM     30  H   UNL A   1      31.410  34.640  27.360  1.00  0.00     0.163 HD
ATOM     31  O   UNL A   1      32.811  35.317  29.207  1.00  0.00    -0.269 OA
BRANCH  29  32
ATOM     32  C   UNL A   1      34.262  33.544  28.705  1.00  0.00     0.039 A 
ATOM     33  C   UNL A   1      34.155  32.234  29.172  1.00  0.00     0.014 A 
ATOM     34  C   UNL A   1      35.521  34.119  28.517  1.00  0.00     0.014 A 
ATOM     35  C   UNL A   1      35.283  31.590  29.669  1.00  0.00     0.010 A 
ATOM     36  C   UNL A   1      36.667  33.430  28.925  1.00  0.00     0.010 A 
ATOM     37  C   UNL A   1      36.550  32.192  29.577  1.00  0.00    -0.014 A 
BRANCH  37  38
ATOM     38  C   UNL A   1      37.719  31.539  30.224  1.00  0.00     0.031 A 
ATOM     39  C   UNL A   1      38.017  31.771  31.685  1.00  0.00     0.074 A 
ATOM     40  C   UNL A   1      38.471  30.670  29.520  1.00  0.00     0.049 A 
ATOM     41  N   UNL A   1      38.979  31.274  32.423  1.00  0.00    -0.248 NA
ATOM     42  C   UNL A   1      37.121  32.685  32.412  1.00  0.00     0.031 C 
ATOM     43  C   UNL A   1      38.277  30.339  28.108  1.00  0.00     0.029 A 
ATOM     44  N   UNL A   1      39.526  29.884  29.905  1.00  0.00    -0.354 N 
ATOM     45  C   UNL A   1      38.819  31.831  33.687  1.00  0.00     0.074 A 
ATOM     46  C   UNL A   1      37.684  32.725  33.612  1.00  0.00     0.031 C 
ATOM     47  C   UNL A   1      39.146  29.378  27.760  1.00  0.00     0.029 A 
ATOM     48  C   UNL A   1      39.995  29.069  28.905  1.00  0.00     0.049 A 
ATOM     49  H   UNL A   1      39.911  29.904  30.812  1.00  0.00     0.167 HD
ATOM     50  C   UNL A   1      39.543  31.610  34.810  1.00  0.00     0.037 A 
ATOM     51  C   UNL A   1      41.004  28.179  28.905  1.00  0.00     0.037 A 
ATOM     52  C   UNL A   1      40.651  30.696  34.900  1.00  0.00     0.049 A 
ATOM     53  C   UNL A   1      41.811  27.979  30.155  1.00  0.00     0.074 A 
ATOM     54  C   UNL A   1      41.432  30.390  36.002  1.00  0.00     0.029 A 
ATOM     55  N   UNL A   1      41.131  29.934  33.848  1.00  0.00    -0.354 N 
ATOM     56  N   UNL A   1      41.651  28.522  31.337  1.00  0.00    -0.248 NA
ATOM     57  C   UNL A   1      42.947  27.052  30.064  1.00  0.00     0.031 C 
ATOM     58  C   UNL A   1      42.406  29.465  35.607  1.00  0.00     0.029 A 
ATOM     59  C   UNL A   1      42.208  29.170  34.269  1.00  0.00     0.049 A 
ATOM     60  H   UNL A   1      40.762  29.935  32.935  1.00  0.00     0.167 HD
ATOM     61  C   UNL A   1      42.662  27.998  32.132  1.00  0.00     0.074 A 
ATOM     62  C   UNL A   1      43.412  27.076  31.305  1.00  0.00     0.031 C 
ATOM     63  C   UNL A   1      42.947  28.263  33.430  1.00  0.00     0.037 A 
BRANCH  50  64
ATOM     64  C   UNL A   1      39.162  32.383  36.040  1.00  0.00     0.057 A 
ATOM     65  C   UNL A   1      38.296  31.828  36.991  1.00  0.00     0.134 A 
ATOM     66  C   UNL A   1      39.623  33.686  36.267  1.00  0.00     0.134 A 
ATOM     67  F   UNL A   1      37.815  30.587  36.831  1.00  0.00    -0.206 F 
ATOM     68  C   UNL A   1      37.902  32.542  38.124  1.00  0.00     0.040 A 
ATOM     69  C   UNL A   1      39.252  34.402  37.407  1.00  0.00     0.040 A 
ATOM     70  F   UNL A   1      40.466  34.269  35.402  1.00  0.00    -0.206 F 
ATOM     71  C   UNL A   1      38.384  33.832  38.337  1.00  0.00     0.006 A 
ENDBRANCH  50  64
BRANCH  51  72
ATOM     72  C   UNL A   1      41.318  27.415  27.673  1.00  0.00     0.057 A 
ATOM     73  C   UNL A   1      40.796  26.135  27.458  1.00  0.00     0.134 A 
ATOM     74  C   UNL A   1      42.142  27.955  26.680  1.00  0.00     0.134 A 
ATOM     75  F   UNL A   1      40.003  25.564  28.376  1.00  0.00    -0.206 F 
ATOM     76  C   UNL A   1      41.092  25.411  26.302  1.00  0.00     0.040 A 
ATOM     77  C   UNL A   1      42.427  27.252  25.509  1.00  0.00     0.040 A 
ATOM     78  F   UNL A   1      42.653  29.187  26.821  1.00  0.00    -0.206 F 
ATOM     79  C   UNL A   1      41.905  25.973  25.321  1.00  0.00     0.006 A 
ENDBRANCH  51  72
BRANCH  63  80
ATOM     80  C   UNL A   1      44.111  27.533  34.028  1.00  0.00     0.057 A 
ATOM     81  C   UNL A   1      45.395  28.089  34.004  1.00  0.00     0.134 A 
ATOM     82  C   UNL A   1      43.957  26.275  34.625  1.00  0.00     0.134 A 
ATOM     83  F   UNL A   1      45.607  29.289  33.443  1.00  0.00    -0.206 F 
ATOM     84  C   UNL A   1      46.488  27.420  34.555  1.00  0.00     0.040 A 
ATOM     85  C   UNL A   1      45.039  25.606  35.198  1.00  0.00     0.040 A 
ATOM     86  F   UNL A   1      42.748  25.698  34.693  1.00  0.00    -0.206 F 
ATOM     87  C   UNL A   1      46.310  26.178  35.161  1.00  0.00     0.006 A 
ENDBRANCH  63  80
ENDBRANCH  37  38
ENDBRANCH  29  32
ENDBRANCH  27  28
ENDBRANCH  26  27
ENDBRANCH  25  26
ENDBRANCH   1  25
TORSDOF 15
ENDMDL
MODEL 3
REMARK VINA RESULT:     -11.5      2.093      7.547
REMARK SMILES Nc1cc(F)c(OCc2ccc(C(=O)NCCCCNC(=O)c3ccc(-c4c5nc(c(-c6c(F)cccc6F)c6ccc([nH]6)c(-c6c(F)cccc6F)c6nc(c(-c7c(F)cccc7F)c7ccc4[nH]7)C=C6)C=C5)cc3)cc2)cc1F
REMARK SMILES IDX 16 1 15 2 13 3 14 4 12 6 9 7 10 8 78 9 11 10 77 11 8 12 7 13
REMARK SMILES IDX 6 14 2 15 3 16 80 17 4 18 79 19 81 20 5 21 1 22 17 25 18 26
REMARK SMILES IDX 19 27 20 28 21 29 22 31 23 32 24 33 76 34 25 35 75 36 26 37
REMARK SMILES IDX 27 38 28 39 69 40 29 41 74 42 68 43 70 44 30 45 73 46 67 47
REMARK SMILES IDX 66 48 31 50 57 51 40 52 56 53 41 54 44 55 55 56 71 57 42 58
REMARK SMILES IDX 43 59 54 61 72 62 45 63 32 64 33 65 38 66 34 67 35 68 37 69
REMARK SMILES IDX 39 70 36 71 58 72 59 73 64 74 60 75 61 76 63 77 65 78 62 79
REMARK SMILES IDX 46 80 47 81 52 82 48 83 49 84 51 85 53 86 50 87
REMARK H PARENT 15 5 1 23 1 24 20 30 70 49 44 60
REMARK Flexibility Score: inf
ROOT
ATOM      1  C   UNL A   1      31.502  29.458  25.036  1.00  0.00     0.116 C 
ENDROOT
BRANCH   1   2
ATOM      2  N   UNL A   1      30.663  29.645  23.865  1.00  0.00    -0.352 N 
ATOM      3  C   UNL A   1      30.231  28.727  22.934  1.00  0.00     0.251 C 
ATOM      4  O   UNL A   1      29.505  29.097  22.015  1.00  0.00    -0.269 OA
ATOM      5  H   UNL A   1      30.357  30.568  23.713  1.00  0.00     0.163 HD
BRANCH   3   6
ATOM      6  C   UNL A   1      30.704  27.323  22.975  1.00  0.00     0.039 A 
ATOM      7  C   UNL A   1      31.975  24.853  23.311  1.00  0.00    -0.011 A 
ATOM      8  C   UNL A   1      32.417  25.747  22.325  1.00  0.00     0.008 A 
ATOM      9  C   UNL A   1      30.797  25.142  24.013  1.00  0.00     0.008 A 
ATOM     10  C   UNL A   1      31.797  26.986  22.173  1.00  0.00     0.014 A 
ATOM     11  C   UNL A   1      30.143  26.360  23.817  1.00  0.00     0.014 A 
BRANCH   7  12
ATOM     12  C   UNL A   1      32.801  23.642  23.679  1.00  0.00     0.265 C 
BRANCH  12  13
ATOM     13  O   UNL A   1      34.140  23.733  23.170  1.00  0.00    -0.486 OA
BRANCH  13  14
ATOM     14  C   UNL A   1      35.195  23.348  23.956  1.00  0.00     0.158 A 
ATOM     15  C   UNL A   1      37.360  22.803  25.708  1.00  0.00     0.071 A 
ATOM     16  C   UNL A   1      36.594  23.955  25.869  1.00  0.00     0.071 A 
ATOM     17  C   UNL A   1      37.037  21.951  24.646  1.00  0.00     0.149 A 
ATOM     18  C   UNL A   1      35.525  24.215  25.006  1.00  0.00     0.167 A 
ATOM     19  C   UNL A   1      35.958  22.196  23.795  1.00  0.00     0.091 A 
ATOM     20  F   UNL A   1      37.778  20.849  24.437  1.00  0.00    -0.205 F 
ATOM     21  F   UNL A   1      34.814  25.337  25.198  1.00  0.00    -0.203 F 
BRANCH  15  22
ATOM     22  N   UNL A   1      38.475  22.571  26.501  1.00  0.00    -0.396 N 
ATOM     23  H   UNL A   1      38.482  21.818  27.134  1.00  0.00     0.156 HD
ATOM     24  H   UNL A   1      39.260  23.161  26.430  1.00  0.00     0.156 HD
ENDBRANCH  15  22
ENDBRANCH  13  14
ENDBRANCH  12  13
ENDBRANCH   7  12
ENDBRANCH   3   6
ENDBRANCH   1   2
BRANCH   1  25
ATOM     25  C   UNL A   1      32.994  29.351  24.744  1.00  0.00     0.023 C 
BRANCH  25  26
ATOM     26  C   UNL A   1      33.843  28.629  25.783  1.00  0.00     0.023 C 
BRANCH  26  27
ATOM     27  C   UNL A   1      33.441  28.834  27.238  1.00  0.00     0.116 C 
BRANCH  27  28
ATOM     28  N   UNL A   1      33.611  30.198  27.715  1.00  0.00    -0.352 N 
ATOM     29  C   UNL A   1      34.724  30.827  28.230  1.00  0.00     0.251 C 
ATOM     30  H   UNL A   1      32.804  30.760  27.661  1.00  0.00     0.163 HD
ATOM     31  O   UNL A   1      34.645  31.978  28.643  1.00  0.00    -0.269 OA
BRANCH  29  32
ATOM     32  C   UNL A   1      36.003  30.089  28.343  1.00  0.00     0.039 A 
ATOM     33  C   UNL A   1      36.370  29.470  29.537  1.00  0.00     0.014 A 
ATOM     34  C   UNL A   1      36.875  30.078  27.251  1.00  0.00     0.014 A 
ATOM     35  C   UNL A   1      37.685  29.051  29.714  1.00  0.00     0.010 A 
ATOM     36  C   UNL A   1      38.167  29.565  27.401  1.00  0.00     0.010 A 
ATOM     37  C   UNL A   1      38.607  29.120  28.656  1.00  0.00    -0.014 A 
BRANCH  37  38
ATOM     38  C   UNL A   1      40.034  28.781  28.907  1.00  0.00     0.031 A 
ATOM     39  C   UNL A   1      40.591  27.445  28.481  1.00  0.00     0.074 A 
ATOM     40  C   UNL A   1      40.854  29.704  29.445  1.00  0.00     0.049 A 
ATOM     41  N   UNL A   1      41.811  26.981  28.599  1.00  0.00    -0.248 NA
ATOM     42  C   UNL A   1      39.656  26.503  27.844  1.00  0.00     0.031 C 
ATOM     43  C   UNL A   1      40.448  31.042  29.880  1.00  0.00     0.029 A 
ATOM     44  N   UNL A   1      42.203  29.670  29.687  1.00  0.00    -0.354 N 
ATOM     45  C   UNL A   1      41.784  25.693  28.077  1.00  0.00     0.074 A 
ATOM     46  C   UNL A   1      40.421  25.435  27.664  1.00  0.00     0.031 C 
ATOM     47  C   UNL A   1      41.533  31.720  30.282  1.00  0.00     0.029 A 
ATOM     48  C   UNL A   1      42.698  30.847  30.191  1.00  0.00     0.049 A 
ATOM     49  H   UNL A   1      42.762  28.878  29.517  1.00  0.00     0.167 HD
ATOM     50  C   UNL A   1      42.801  24.809  27.942  1.00  0.00     0.037 A 
ATOM     51  C   UNL A   1      43.950  31.185  30.550  1.00  0.00     0.037 A 
ATOM     52  C   UNL A   1      44.165  25.071  28.319  1.00  0.00     0.049 A 
ATOM     53  C   UNL A   1      45.052  30.173  30.421  1.00  0.00     0.074 A 
ATOM     54  C   UNL A   1      45.269  24.244  28.200  1.00  0.00     0.029 A 
ATOM     55  N   UNL A   1      44.613  26.256  28.880  1.00  0.00    -0.354 N 
ATOM     56  N   UNL A   1      45.005  28.958  29.935  1.00  0.00    -0.248 NA
ATOM     57  C   UNL A   1      46.378  30.581  30.905  1.00  0.00     0.031 C 
ATOM     58  C   UNL A   1      46.381  24.918  28.720  1.00  0.00     0.029 A 
ATOM     59  C   UNL A   1      45.974  26.176  29.130  1.00  0.00     0.049 A 
ATOM     60  H   UNL A   1      44.048  27.038  29.074  1.00  0.00     0.167 HD
ATOM     61  C   UNL A   1      46.294  28.456  30.048  1.00  0.00     0.074 A 
ATOM     62  C   UNL A   1      47.105  29.508  30.625  1.00  0.00     0.031 C 
ATOM     63  C   UNL A   1      46.763  27.231  29.711  1.00  0.00     0.037 A 
BRANCH  50  64
ATOM     64  C   UNL A   1      42.473  23.461  27.368  1.00  0.00     0.057 A 
ATOM     65  C   UNL A   1      42.568  23.231  25.989  1.00  0.00     0.134 A 
ATOM     66  C   UNL A   1      42.031  22.402  28.171  1.00  0.00     0.134 A 
ATOM     67  F   UNL A   1      42.980  24.204  25.163  1.00  0.00    -0.206 F 
ATOM     68  C   UNL A   1      42.235  21.996  25.430  1.00  0.00     0.040 A 
ATOM     69  C   UNL A   1      41.714  21.156  27.626  1.00  0.00     0.040 A 
ATOM     70  F   UNL A   1      41.931  22.553  29.500  1.00  0.00    -0.206 F 
ATOM     71  C   UNL A   1      41.811  20.952  26.250  1.00  0.00     0.006 A 
ENDBRANCH  50  64
BRANCH  51  72
ATOM     72  C   UNL A   1      44.228  32.542  31.080  1.00  0.00     0.057 A 
ATOM     73  C   UNL A   1      44.146  32.819  32.450  1.00  0.00     0.134 A 
ATOM     74  C   UNL A   1      44.587  33.591  30.227  1.00  0.00     0.134 A 
ATOM     75  F   UNL A   1      43.803  31.855  33.316  1.00  0.00    -0.206 F 
ATOM     76  C   UNL A   1      44.402  34.094  32.952  1.00  0.00     0.040 A 
ATOM     77  C   UNL A   1      44.869  34.865  30.719  1.00  0.00     0.040 A 
ATOM     78  F   UNL A   1      44.703  33.379  28.907  1.00  0.00    -0.206 F 
ATOM     79  C   UNL A   1      44.771  35.121  32.085  1.00  0.00     0.006 A 
ENDBRANCH  51  72
BRANCH  63  80
ATOM     80  C   UNL A   1      48.221  26.976  29.949  1.00  0.00     0.057 A 
ATOM     81  C   UNL A   1      48.661  26.391  31.142  1.00  0.00     0.134 A 
ATOM     82  C   UNL A   1      49.188  27.316  28.995  1.00  0.00     0.134 A 
ATOM     83  F   UNL A   1      47.783  26.047  32.096  1.00  0.00    -0.206 F 
ATOM     84  C   UNL A   1      50.015  26.150  31.378  1.00  0.00     0.040 A 
ATOM     85  C   UNL A   1      50.543  27.060  29.210  1.00  0.00     0.040 A 
ATOM     86  F   UNL A   1      48.826  27.864  27.825  1.00  0.00    -0.206 F 
ATOM     87  C   UNL A   1      50.959  26.478  30.407  1.00  0.00     0.006 A 
ENDBRANCH  63  80
ENDBRANCH  37  38
ENDBRANCH  29  32
ENDBRANCH  27  28
ENDBRANCH  26  27
ENDBRANCH  25  26
ENDBRANCH   1  25
TORSDOF 15
ENDMDL
