MODEL 1
REMARK VINA RESULT:     -13.1      0.000      0.000
REMARK SMILES Cc1ccc(C(=O)NCCCCNC(=O)c2ccc(-c3c4nc(c(-c5c(F)cccc5F)c5ccc([nH]5)c(-c5c(F)cccc5F)c5nc(c(-c6c(F)cccc6F)c6ccc3[nH]6)C=C5)C=C4)cc2)cc1NC(=O)C(=O)NC[C@@H](c1ccccc1)[NH+]1CC[NH+](C)CC1
REMARK SMILES IDX 9 1 8 2 6 3 7 4 5 6 1 7 2 8 3 9 71 10 4 11 70 12 72 13 73 14
REMARK SMILES IDX 74 16 75 17 76 18 77 19 78 21 79 22 86 23 87 24 92 25 88 27
REMARK SMILES IDX 91 28 89 29 90 30 80 32 81 33 85 34 82 35 84 36 83 37 10 38
REMARK SMILES IDX 11 39 12 40 13 41 14 42 15 44 16 45 17 46 69 47 18 48 68 49
REMARK SMILES IDX 19 50 20 51 21 52 62 53 22 54 67 55 61 56 63 57 23 58 66 59
REMARK SMILES IDX 60 60 59 61 24 63 50 64 33 65 49 66 34 67 37 68 48 69 64 70
REMARK SMILES IDX 35 71 36 72 47 74 65 75 38 76 25 77 26 78 31 79 27 80 28 81
REMARK SMILES IDX 30 82 32 83 29 84 51 85 52 86 57 87 53 88 54 89 56 90 58 91
REMARK SMILES IDX 55 92 39 93 40 94 45 95 41 96 42 97 44 98 46 99 43 100
REMARK H PARENT 8 5 72 15 77 20 86 26 89 31 13 43 63 62 37 73
REMARK Flexibility Score: inf
ROOT
ATOM      1  C   UNL A   1      33.120  29.053  24.445  1.00  0.00     0.116 C 
ENDROOT
BRANCH   1   2
ATOM      2  N   UNL A   1      31.876  29.238  23.731  1.00  0.00    -0.352 N 
ATOM      3  C   UNL A   1      30.805  28.368  23.632  1.00  0.00     0.251 C 
ATOM      4  O   UNL A   1      29.816  28.716  22.990  1.00  0.00    -0.269 OA
ATOM      5  H   UNL A   1      31.780  30.094  23.253  1.00  0.00     0.163 HD
BRANCH   3   6
ATOM      6  C   UNL A   1      30.847  26.994  24.219  1.00  0.00     0.041 A 
ATOM      7  C   UNL A   1      30.509  23.125  26.115  1.00  0.00     0.046 C 
ATOM      8  C   UNL A   1      30.677  24.441  25.403  1.00  0.00    -0.027 A 
ATOM      9  C   UNL A   1      30.571  25.610  26.182  1.00  0.00     0.006 A 
ATOM     10  C   UNL A   1      30.921  24.556  24.019  1.00  0.00     0.045 A 
ATOM     11  C   UNL A   1      30.631  26.874  25.594  1.00  0.00     0.014 A 
ATOM     12  C   UNL A   1      31.082  25.834  23.463  1.00  0.00     0.040 A 
BRANCH  10  13
ATOM     13  N   UNL A   1      31.037  23.394  23.221  1.00  0.00    -0.318 N 
ATOM     14  C   UNL A   1      32.155  22.632  22.897  1.00  0.00     0.313 C 
ATOM     15  H   UNL A   1      30.191  23.071  22.832  1.00  0.00     0.170 HD
ATOM     16  O   UNL A   1      32.044  21.538  22.352  1.00  0.00    -0.263 OA
BRANCH  14  17
ATOM     17  C   UNL A   1      33.557  23.253  23.076  1.00  0.00     0.309 C 
ATOM     18  O   UNL A   1      34.327  23.326  22.125  1.00  0.00    -0.264 OA
ATOM     19  N   UNL A   1      33.949  23.719  24.315  1.00  0.00    -0.341 N 
ATOM     20  H   UNL A   1      34.135  24.683  24.409  1.00  0.00     0.164 HD
BRANCH  19  21
ATOM     21  C   UNL A   1      34.106  22.866  25.505  1.00  0.00     0.186 C 
BRANCH  21  22
ATOM     22  C   UNL A   1      35.192  21.727  25.281  1.00  0.00     0.235 C 
BRANCH  22  23
ATOM     23  N   UNL A   1      36.371  21.968  24.417  1.00  0.00    -0.318 N 
ATOM     24  C   UNL A   1      37.513  21.070  24.617  1.00  0.00     0.325 C 
ATOM     25  C   UNL A   1      36.870  23.347  24.326  1.00  0.00     0.325 C 
ATOM     26  H   UNL A   1      35.933  21.743  23.524  1.00  0.00     0.349 HD
ATOM     27  C   UNL A   1      38.524  21.494  25.713  1.00  0.00     0.324 C 
ATOM     28  C   UNL A   1      37.668  23.801  25.555  1.00  0.00     0.324 C 
ATOM     29  N   UNL A   1      38.821  22.933  25.838  1.00  0.00    -0.328 N 
ATOM     30  C   UNL A   1      39.353  23.225  27.171  1.00  0.00     0.333 C 
ATOM     31  H   UNL A   1      39.520  23.144  25.126  1.00  0.00     0.348 HD
ENDBRANCH  22  23
BRANCH  22  32
ATOM     32  C   UNL A   1      34.609  20.332  25.010  1.00  0.00     0.011 A 
ATOM     33  C   UNL A   1      33.244  20.107  25.262  1.00  0.00     0.010 A 
ATOM     34  C   UNL A   1      35.395  19.235  24.630  1.00  0.00     0.010 A 
ATOM     35  C   UNL A   1      32.670  18.845  25.093  1.00  0.00     0.001 A 
ATOM     36  C   UNL A   1      34.825  17.964  24.477  1.00  0.00     0.001 A 
ATOM     37  C   UNL A   1      33.460  17.772  24.697  1.00  0.00     0.000 A 
ENDBRANCH  22  32
ENDBRANCH  21  22
ENDBRANCH  19  21
ENDBRANCH  14  17
ENDBRANCH  10  13
ENDBRANCH   3   6
ENDBRANCH   1   2
BRANCH   1  38
ATOM     38  C   UNL A   1      33.096  29.141  25.967  1.00  0.00     0.023 C 
BRANCH  38  39
ATOM     39  C   UNL A   1      32.496  30.396  26.578  1.00  0.00     0.023 C 
BRANCH  39  40
ATOM     40  C   UNL A   1      33.474  31.284  27.329  1.00  0.00     0.116 C 
BRANCH  40  41
ATOM     41  N   UNL A   1      33.026  32.631  27.638  1.00  0.00    -0.352 N 
ATOM     42  C   UNL A   1      33.516  33.515  28.595  1.00  0.00     0.251 C 
ATOM     43  H   UNL A   1      32.273  32.964  27.097  1.00  0.00     0.163 HD
ATOM     44  O   UNL A   1      32.864  34.501  28.887  1.00  0.00    -0.269 OA
BRANCH  42  45
ATOM     45  C   UNL A   1      34.887  33.345  29.166  1.00  0.00     0.039 A 
ATOM     46  C   UNL A   1      35.994  33.751  28.402  1.00  0.00     0.014 A 
ATOM     47  C   UNL A   1      35.112  32.686  30.366  1.00  0.00     0.014 A 
ATOM     48  C   UNL A   1      37.280  33.313  28.735  1.00  0.00     0.010 A 
ATOM     49  C   UNL A   1      36.345  32.139  30.623  1.00  0.00     0.010 A 
ATOM     50  C   UNL A   1      37.425  32.418  29.784  1.00  0.00    -0.014 A 
BRANCH  50  51
ATOM     51  C   UNL A   1      38.649  31.755  30.204  1.00  0.00     0.031 A 
ATOM     52  C   UNL A   1      38.941  30.410  29.665  1.00  0.00     0.074 A 
ATOM     53  C   UNL A   1      39.640  32.540  30.683  1.00  0.00     0.049 A 
ATOM     54  N   UNL A   1      39.989  29.723  29.961  1.00  0.00    -0.248 NA
ATOM     55  C   UNL A   1      38.037  29.705  28.750  1.00  0.00     0.031 C 
ATOM     56  C   UNL A   1      41.081  32.347  30.551  1.00  0.00     0.029 A 
ATOM     57  N   UNL A   1      39.523  33.618  31.568  1.00  0.00    -0.354 N 
ATOM     58  C   UNL A   1      40.088  28.729  29.017  1.00  0.00     0.074 A 
ATOM     59  C   UNL A   1      38.781  28.644  28.422  1.00  0.00     0.031 C 
ATOM     60  C   UNL A   1      41.710  33.064  31.498  1.00  0.00     0.029 A 
ATOM     61  C   UNL A   1      40.680  33.567  32.388  1.00  0.00     0.049 A 
ATOM     62  H   UNL A   1      38.791  34.274  31.612  1.00  0.00     0.167 HD
ATOM     63  C   UNL A   1      41.323  28.237  28.720  1.00  0.00     0.037 A 
ATOM     64  C   UNL A   1      40.601  33.270  33.725  1.00  0.00     0.037 A 
ATOM     65  C   UNL A   1      42.303  28.658  29.721  1.00  0.00     0.049 A 
ATOM     66  C   UNL A   1      41.372  32.049  34.131  1.00  0.00     0.074 A 
ATOM     67  C   UNL A   1      43.355  29.557  29.702  1.00  0.00     0.029 A 
ATOM     68  N   UNL A   1      42.096  28.318  31.056  1.00  0.00    -0.354 N 
ATOM     69  N   UNL A   1      41.768  31.143  33.288  1.00  0.00    -0.248 NA
ATOM     70  C   UNL A   1      41.696  31.722  35.515  1.00  0.00     0.031 C 
ATOM     71  C   UNL A   1      43.687  29.857  31.052  1.00  0.00     0.029 A 
ATOM     72  C   UNL A   1      42.881  29.095  31.884  1.00  0.00     0.049 A 
ATOM     73  H   UNL A   1      41.475  27.621  31.367  1.00  0.00     0.167 HD
ATOM     74  C   UNL A   1      42.339  30.112  33.974  1.00  0.00     0.074 A 
ATOM     75  C   UNL A   1      42.299  30.532  35.363  1.00  0.00     0.031 C 
ATOM     76  C   UNL A   1      42.764  28.988  33.333  1.00  0.00     0.037 A 
BRANCH  63  77
ATOM     77  C   UNL A   1      41.709  27.564  27.418  1.00  0.00     0.057 A 
ATOM     78  C   UNL A   1      41.824  26.160  27.362  1.00  0.00     0.134 A 
ATOM     79  C   UNL A   1      42.109  28.220  26.234  1.00  0.00     0.134 A 
ATOM     80  F   UNL A   1      41.500  25.393  28.412  1.00  0.00    -0.206 F 
ATOM     81  C   UNL A   1      42.300  25.475  26.235  1.00  0.00     0.040 A 
ATOM     82  C   UNL A   1      42.534  27.543  25.082  1.00  0.00     0.040 A 
ATOM     83  F   UNL A   1      42.180  29.552  26.135  1.00  0.00    -0.206 F 
ATOM     84  C   UNL A   1      42.645  26.164  25.082  1.00  0.00     0.006 A 
ENDBRANCH  63  77
BRANCH  64  85
ATOM     85  C   UNL A   1      39.285  33.629  34.315  1.00  0.00     0.057 A 
ATOM     86  C   UNL A   1      38.391  32.565  34.483  1.00  0.00     0.134 A 
ATOM     87  C   UNL A   1      39.207  34.708  35.206  1.00  0.00     0.134 A 
ATOM     88  F   UNL A   1      38.387  31.532  33.626  1.00  0.00    -0.206 F 
ATOM     89  C   UNL A   1      37.709  32.425  35.679  1.00  0.00     0.040 A 
ATOM     90  C   UNL A   1      38.471  34.599  36.380  1.00  0.00     0.040 A 
ATOM     91  F   UNL A   1      39.975  35.793  35.043  1.00  0.00    -0.206 F 
ATOM     92  C   UNL A   1      37.815  33.407  36.658  1.00  0.00     0.006 A 
ENDBRANCH  64  85
BRANCH  76  93
ATOM     93  C   UNL A   1      43.172  27.725  34.029  1.00  0.00     0.057 A 
ATOM     94  C   UNL A   1      42.268  26.770  34.521  1.00  0.00     0.134 A 
ATOM     95  C   UNL A   1      44.533  27.370  34.113  1.00  0.00     0.134 A 
ATOM     96  F   UNL A   1      40.943  26.923  34.385  1.00  0.00    -0.206 F 
ATOM     97  C   UNL A   1      42.691  25.586  35.133  1.00  0.00     0.040 A 
ATOM     98  C   UNL A   1      44.965  26.166  34.671  1.00  0.00     0.040 A 
ATOM     99  F   UNL A   1      45.497  28.173  33.639  1.00  0.00    -0.206 F 
ATOM    100  C   UNL A   1      44.044  25.277  35.205  1.00  0.00     0.006 A 
ENDBRANCH  76  93
ENDBRANCH  50  51
ENDBRANCH  42  45
ENDBRANCH  40  41
ENDBRANCH  39  40
ENDBRANCH  38  39
ENDBRANCH   1  38
TORSDOF 17
ENDMDL
MODEL 2
REMARK VINA RESULT:     -12.4      1.690      2.652
REMARK SMILES Cc1ccc(C(=O)NCCCCNC(=O)c2ccc(-c3c4nc(c(-c5c(F)cccc5F)c5ccc([nH]5)c(-c5c(F)cccc5F)c5nc(c(-c6c(F)cccc6F)c6ccc3[nH]6)C=C5)C=C4)cc2)cc1NC(=O)C(=O)NC[C@@H](c1ccccc1)[NH+]1CC[NH+](C)CC1
REMARK SMILES IDX 9 1 8 2 6 3 7 4 5 6 1 7 2 8 3 9 71 10 4 11 70 12 72 13 73 14
REMARK SMILES IDX 74 16 75 17 76 18 77 19 78 21 79 22 86 23 87 24 92 25 88 27
REMARK SMILES IDX 91 28 89 29 90 30 80 32 81 33 85 34 82 35 84 36 83 37 10 38
REMARK SMILES IDX 11 39 12 40 13 41 14 42 15 44 16 45 17 46 69 47 18 48 68 49
REMARK SMILES IDX 19 50 20 51 21 52 62 53 22 54 67 55 61 56 63 57 23 58 66 59
REMARK SMILES IDX 60 60 59 61 24 63 50 64 33 65 49 66 34 67 37 68 48 69 64 70
REMARK SMILES IDX 35 71 36 72 47 74 65 75 38 76 25 77 26 78 31 79 27 80 28 81
REMARK SMILES IDX 30 82 32 83 29 84 51 85 52 86 57 87 53 88 54 89 56 90 58 91
REMARK SMILES IDX 55 92 39 93 40 94 45 95 41 96 42 97 44 98 46 99 43 100
REMARK H PARENT 8 5 72 15 77 20 86 26 89 31 13 43 63 62 37 73
REMARK Flexibility Score: inf
ROOT
ATOM      1  C   UNL A   1      34.332  29.309  26.811  1.00  0.00     0.116 C 
ENDROOT
BRANCH   1   2
ATOM      2  N   UNL A   1      33.314  28.742  27.668  1.00  0.00    -0.352 N 
ATOM      3  C   UNL A   1      32.223  27.969  27.311  1.00  0.00     0.251 C 
ATOM      4  O   UNL A   1      31.473  27.559  28.193  1.00  0.00    -0.269 OA
ATOM      5  H   UNL A   1      33.409  28.931  28.630  1.00  0.00     0.163 HD
BRANCH   3   6
ATOM      6  C   UNL A   1      31.892  27.683  25.882  1.00  0.00     0.041 A 
ATOM      7  C   UNL A   1      30.975  27.359  21.670  1.00  0.00     0.046 C 
ATOM      8  C   UNL A   1      31.319  27.397  23.136  1.00  0.00    -0.027 A 
ATOM      9  C   UNL A   1      30.536  28.232  23.957  1.00  0.00     0.006 A 
ATOM     10  C   UNL A   1      32.373  26.657  23.712  1.00  0.00     0.045 A 
ATOM     11  C   UNL A   1      30.833  28.392  25.311  1.00  0.00     0.014 A 
ATOM     12  C   UNL A   1      32.591  26.753  25.095  1.00  0.00     0.040 A 
BRANCH  10  13
ATOM     13  N   UNL A   1      33.166  25.809  22.905  1.00  0.00    -0.318 N 
ATOM     14  C   UNL A   1      32.913  24.529  22.425  1.00  0.00     0.313 C 
ATOM     15  H   UNL A   1      34.038  26.184  22.640  1.00  0.00     0.170 HD
ATOM     16  O   UNL A   1      33.630  24.014  21.572  1.00  0.00    -0.263 OA
BRANCH  14  17
ATOM     17  C   UNL A   1      31.812  23.683  23.102  1.00  0.00     0.309 C 
ATOM     18  O   UNL A   1      30.922  24.227  23.745  1.00  0.00    -0.264 OA
ATOM     19  N   UNL A   1      31.837  22.308  22.990  1.00  0.00    -0.341 N 
ATOM     20  H   UNL A   1      31.090  21.869  22.520  1.00  0.00     0.164 HD
BRANCH  19  21
ATOM     21  C   UNL A   1      32.911  21.456  23.530  1.00  0.00     0.186 C 
BRANCH  21  22
ATOM     22  C   UNL A   1      32.407  20.560  24.742  1.00  0.00     0.235 C 
BRANCH  22  23
ATOM     23  N   UNL A   1      32.683  20.960  26.141  1.00  0.00    -0.318 N 
ATOM     24  C   UNL A   1      32.292  22.324  26.512  1.00  0.00     0.325 C 
ATOM     25  C   UNL A   1      34.032  20.701  26.664  1.00  0.00     0.325 C 
ATOM     26  H   UNL A   1      32.049  20.304  26.597  1.00  0.00     0.349 HD
ATOM     27  C   UNL A   1      33.344  23.429  26.237  1.00  0.00     0.324 C 
ATOM     28  C   UNL A   1      35.091  21.690  26.163  1.00  0.00     0.324 C 
ATOM     29  N   UNL A   1      34.759  23.088  26.476  1.00  0.00    -0.328 N 
ATOM     30  C   UNL A   1      35.630  23.992  25.721  1.00  0.00     0.333 C 
ATOM     31  H   UNL A   1      34.915  23.203  27.477  1.00  0.00     0.348 HD
ENDBRANCH  22  23
BRANCH  22  32
ATOM     32  C   UNL A   1      32.643  19.052  24.563  1.00  0.00     0.011 A 
ATOM     33  C   UNL A   1      32.485  18.205  25.676  1.00  0.00     0.010 A 
ATOM     34  C   UNL A   1      33.119  18.488  23.372  1.00  0.00     0.010 A 
ATOM     35  C   UNL A   1      32.744  16.835  25.590  1.00  0.00     0.001 A 
ATOM     36  C   UNL A   1      33.397  17.117  23.289  1.00  0.00     0.001 A 
ATOM     37  C   UNL A   1      33.197  16.289  24.395  1.00  0.00     0.000 A 
ENDBRANCH  22  32
ENDBRANCH  21  22
ENDBRANCH  19  21
ENDBRANCH  14  17
ENDBRANCH  10  13
ENDBRANCH   3   6
ENDBRANCH   1   2
BRANCH   1  38
ATOM     38  C   UNL A   1      35.519  30.005  27.469  1.00  0.00     0.023 C 
BRANCH  38  39
ATOM     39  C   UNL A   1      35.406  31.504  27.690  1.00  0.00     0.023 C 
BRANCH  39  40
ATOM     40  C   UNL A   1      34.102  31.973  28.311  1.00  0.00     0.116 C 
BRANCH  40  41
ATOM     41  N   UNL A   1      33.967  33.401  28.544  1.00  0.00    -0.352 N 
ATOM     42  C   UNL A   1      34.655  34.205  29.449  1.00  0.00     0.251 C 
ATOM     43  H   UNL A   1      33.300  33.862  27.987  1.00  0.00     0.163 HD
ATOM     44  O   UNL A   1      34.242  35.325  29.686  1.00  0.00    -0.269 OA
BRANCH  42  45
ATOM     45  C   UNL A   1      35.962  33.766  30.026  1.00  0.00     0.039 A 
ATOM     46  C   UNL A   1      37.145  34.066  29.329  1.00  0.00     0.014 A 
ATOM     47  C   UNL A   1      36.041  32.966  31.157  1.00  0.00     0.014 A 
ATOM     48  C   UNL A   1      38.335  33.400  29.641  1.00  0.00     0.010 A 
ATOM     49  C   UNL A   1      37.164  32.209  31.381  1.00  0.00     0.010 A 
ATOM     50  C   UNL A   1      38.303  32.396  30.596  1.00  0.00    -0.014 A 
BRANCH  50  51
ATOM     51  C   UNL A   1      39.394  31.511  30.970  1.00  0.00     0.031 A 
ATOM     52  C   UNL A   1      39.535  30.225  30.253  1.00  0.00     0.074 A 
ATOM     53  C   UNL A   1      40.450  32.070  31.604  1.00  0.00     0.049 A 
ATOM     54  N   UNL A   1      40.458  29.359  30.494  1.00  0.00    -0.248 NA
ATOM     55  C   UNL A   1      38.606  29.793  29.204  1.00  0.00     0.031 C 
ATOM     56  C   UNL A   1      41.856  31.691  31.513  1.00  0.00     0.029 A 
ATOM     57  N   UNL A   1      40.422  33.020  32.632  1.00  0.00    -0.354 N 
ATOM     58  C   UNL A   1      40.483  28.503  29.419  1.00  0.00     0.074 A 
ATOM     59  C   UNL A   1      39.218  28.691  28.759  1.00  0.00     0.031 C 
ATOM     60  C   UNL A   1      42.512  32.170  32.582  1.00  0.00     0.029 A 
ATOM     61  C   UNL A   1      41.504  32.688  33.488  1.00  0.00     0.049 A 
ATOM     62  H   UNL A   1      39.785  33.762  32.738  1.00  0.00     0.167 HD
ATOM     63  C   UNL A   1      41.655  27.884  29.110  1.00  0.00     0.037 A 
ATOM     64  C   UNL A   1      41.297  32.223  34.761  1.00  0.00     0.037 A 
ATOM     65  C   UNL A   1      42.615  28.014  30.206  1.00  0.00     0.049 A 
ATOM     66  C   UNL A   1      41.865  30.859  35.019  1.00  0.00     0.074 A 
ATOM     67  C   UNL A   1      43.779  28.746  30.368  1.00  0.00     0.029 A 
ATOM     68  N   UNL A   1      42.275  27.527  31.466  1.00  0.00    -0.354 N 
ATOM     69  N   UNL A   1      42.188  30.031  34.072  1.00  0.00    -0.248 NA
ATOM     70  C   UNL A   1      42.048  30.299  36.353  1.00  0.00     0.031 C 
ATOM     71  C   UNL A   1      44.058  28.804  31.762  1.00  0.00     0.029 A 
ATOM     72  C   UNL A   1      43.102  28.059  32.434  1.00  0.00     0.049 A 
ATOM     73  H   UNL A   1      41.545  26.890  31.642  1.00  0.00     0.167 HD
ATOM     74  C   UNL A   1      42.566  28.843  34.624  1.00  0.00     0.074 A 
ATOM     75  C   UNL A   1      42.492  29.067  36.056  1.00  0.00     0.031 C 
ATOM     76  C   UNL A   1      42.876  27.769  33.845  1.00  0.00     0.037 A 
BRANCH  63  77
ATOM     77  C   UNL A   1      42.032  27.349  27.743  1.00  0.00     0.057 A 
ATOM     78  C   UNL A   1      42.343  28.246  26.701  1.00  0.00     0.134 A 
ATOM     79  C   UNL A   1      41.981  25.998  27.340  1.00  0.00     0.134 A 
ATOM     80  F   UNL A   1      42.413  29.567  26.917  1.00  0.00    -0.206 F 
ATOM     81  C   UNL A   1      42.575  27.836  25.380  1.00  0.00     0.040 A 
ATOM     82  C   UNL A   1      42.264  25.569  26.034  1.00  0.00     0.040 A 
ATOM     83  F   UNL A   1      41.590  25.015  28.158  1.00  0.00    -0.206 F 
ATOM     84  C   UNL A   1      42.550  26.491  25.043  1.00  0.00     0.006 A 
ENDBRANCH  63  77
BRANCH  64  85
ATOM     85  C   UNL A   1      40.005  32.683  35.336  1.00  0.00     0.057 A 
ATOM     86  C   UNL A   1      39.002  31.710  35.417  1.00  0.00     0.134 A 
ATOM     87  C   UNL A   1      40.010  33.712  36.288  1.00  0.00     0.134 A 
ATOM     88  F   UNL A   1      38.921  30.733  34.501  1.00  0.00    -0.206 F 
ATOM     89  C   UNL A   1      38.271  31.575  36.584  1.00  0.00     0.040 A 
ATOM     90  C   UNL A   1      39.228  33.615  37.433  1.00  0.00     0.040 A 
ATOM     91  F   UNL A   1      40.889  34.719  36.210  1.00  0.00    -0.206 F 
ATOM     92  C   UNL A   1      38.445  32.484  37.622  1.00  0.00     0.006 A 
ENDBRANCH  64  85
BRANCH  76  93
ATOM     93  C   UNL A   1      43.060  26.376  34.366  1.00  0.00     0.057 A 
ATOM     94  C   UNL A   1      44.287  25.694  34.372  1.00  0.00     0.134 A 
ATOM     95  C   UNL A   1      41.994  25.713  35.007  1.00  0.00     0.134 A 
ATOM     96  F   UNL A   1      45.409  26.265  33.914  1.00  0.00    -0.206 F 
ATOM     97  C   UNL A   1      44.424  24.407  34.902  1.00  0.00     0.040 A 
ATOM     98  C   UNL A   1      42.133  24.451  35.588  1.00  0.00     0.040 A 
ATOM     99  F   UNL A   1      40.780  26.274  35.109  1.00  0.00    -0.206 F 
ATOM    100  C   UNL A   1      43.346  23.783  35.517  1.00  0.00     0.006 A 
ENDBRANCH  76  93
ENDBRANCH  50  51
ENDBRANCH  42  45
ENDBRANCH  40  41
ENDBRANCH  39  40
ENDBRANCH  38  39
ENDBRANCH   1  38
TORSDOF 17
ENDMDL
MODEL 3
REMARK VINA RESULT:     -12.3      1.065      2.588
REMARK SMILES Cc1ccc(C(=O)NCCCCNC(=O)c2ccc(-c3c4nc(c(-c5c(F)cccc5F)c5ccc([nH]5)c(-c5c(F)cccc5F)c5nc(c(-c6c(F)cccc6F)c6ccc3[nH]6)C=C5)C=C4)cc2)cc1NC(=O)C(=O)NC[C@@H](c1ccccc1)[NH+]1CC[NH+](C)CC1
REMARK SMILES IDX 9 1 8 2 6 3 7 4 5 6 1 7 2 8 3 9 71 10 4 11 70 12 72 13 73 14
REMARK SMILES IDX 74 16 75 17 76 18 77 19 78 21 79 22 86 23 87 24 92 25 88 27
REMARK SMILES IDX 91 28 89 29 90 30 80 32 81 33 85 34 82 35 84 36 83 37 10 38
REMARK SMILES IDX 11 39 12 40 13 41 14 42 15 44 16 45 17 46 69 47 18 48 68 49
REMARK SMILES IDX 19 50 20 51 21 52 62 53 22 54 67 55 61 56 63 57 23 58 66 59
REMARK SMILES IDX 60 60 59 61 24 63 50 64 33 65 49 66 34 67 37 68 48 69 64 70
REMARK SMILES IDX 35 71 36 72 47 74 65 75 38 76 25 77 26 78 31 79 27 80 28 81
REMARK SMILES IDX 30 82 32 83 29 84 51 85 52 86 57 87 53 88 54 89 56 90 58 91
REMARK SMILES IDX 55 92 39 93 40 94 45 95 41 96 42 97 44 98 46 99 43 100
REMARK H PARENT 8 5 72 15 77 20 86 26 89 31 13 43 63 62 37 73
REMARK Flexibility Score: inf
ROOT
ATOM      1  C   UNL A   1      33.415  29.373  25.209  1.00  0.00     0.116 C 
ENDROOT
BRANCH   1   2
ATOM      2  N   UNL A   1      32.142  29.756  24.640  1.00  0.00    -0.352 N 
ATOM      3  C   UNL A   1      31.036  28.961  24.398  1.00  0.00     0.251 C 
ATOM      4  O   UNL A   1      30.027  29.477  23.923  1.00  0.00    -0.269 OA
ATOM      5  H   UNL A   1      32.051  30.704  24.392  1.00  0.00     0.163 HD
BRANCH   3   6
ATOM      6  C   UNL A   1      31.059  27.484  24.629  1.00  0.00     0.041 A 
ATOM      7  C   UNL A   1      30.640  23.260  25.444  1.00  0.00     0.046 C 
ATOM      8  C   UNL A   1      30.845  24.715  25.111  1.00  0.00    -0.027 A 
ATOM      9  C   UNL A   1      30.574  25.650  26.128  1.00  0.00     0.006 A 
ATOM     10  C   UNL A   1      31.276  25.174  23.849  1.00  0.00     0.045 A 
ATOM     11  C   UNL A   1      30.658  27.021  25.884  1.00  0.00     0.014 A 
ATOM     12  C   UNL A   1      31.453  26.553  23.655  1.00  0.00     0.040 A 
BRANCH  10  13
ATOM     13  N   UNL A   1      31.559  24.250  22.817  1.00  0.00    -0.318 N 
ATOM     14  C   UNL A   1      32.753  23.634  22.462  1.00  0.00     0.313 C 
ATOM     15  H   UNL A   1      30.785  24.002  22.259  1.00  0.00     0.170 HD
ATOM     16  O   UNL A   1      32.779  22.704  21.661  1.00  0.00    -0.263 OA
BRANCH  14  17
ATOM     17  C   UNL A   1      34.083  24.243  22.960  1.00  0.00     0.309 C 
ATOM     18  O   UNL A   1      34.394  25.386  22.647  1.00  0.00    -0.264 OA
ATOM     19  N   UNL A   1      34.928  23.493  23.752  1.00  0.00    -0.341 N 
ATOM     20  H   UNL A   1      35.099  23.806  24.671  1.00  0.00     0.164 HD
BRANCH  19  21
ATOM     21  C   UNL A   1      35.589  22.253  23.309  1.00  0.00     0.186 C 
BRANCH  21  22
ATOM     22  C   UNL A   1      36.255  21.468  24.519  1.00  0.00     0.235 C 
BRANCH  22  23
ATOM     23  N   UNL A   1      35.420  20.699  25.471  1.00  0.00    -0.318 N 
ATOM     24  C   UNL A   1      35.420  19.242  25.300  1.00  0.00     0.325 C 
ATOM     25  C   UNL A   1      34.034  21.148  25.667  1.00  0.00     0.325 C 
ATOM     26  H   UNL A   1      35.936  20.927  26.320  1.00  0.00     0.349 HD
ATOM     27  C   UNL A   1      34.382  18.678  24.297  1.00  0.00     0.324 C 
ATOM     28  C   UNL A   1      33.091  20.768  24.518  1.00  0.00     0.324 C 
ATOM     29  N   UNL A   1      33.054  19.319  24.267  1.00  0.00    -0.328 N 
ATOM     30  C   UNL A   1      32.391  19.049  22.989  1.00  0.00     0.333 C 
ATOM     31  H   UNL A   1      32.520  18.909  25.033  1.00  0.00     0.348 HD
ENDBRANCH  22  23
BRANCH  22  32
ATOM     32  C   UNL A   1      37.335  22.256  25.276  1.00  0.00     0.011 A 
ATOM     33  C   UNL A   1      38.508  21.589  25.674  1.00  0.00     0.010 A 
ATOM     34  C   UNL A   1      37.163  23.584  25.692  1.00  0.00     0.010 A 
ATOM     35  C   UNL A   1      39.498  22.237  26.416  1.00  0.00     0.001 A 
ATOM     36  C   UNL A   1      38.146  24.230  26.453  1.00  0.00     0.001 A 
ATOM     37  C   UNL A   1      39.319  23.559  26.804  1.00  0.00     0.000 A 
ENDBRANCH  22  32
ENDBRANCH  21  22
ENDBRANCH  19  21
ENDBRANCH  14  17
ENDBRANCH  10  13
ENDBRANCH   3   6
ENDBRANCH   1   2
BRANCH   1  38
ATOM     38  C   UNL A   1      33.511  29.228  26.724  1.00  0.00     0.023 C 
BRANCH  38  39
ATOM     39  C   UNL A   1      33.139  30.441  27.560  1.00  0.00     0.023 C 
BRANCH  39  40
ATOM     40  C   UNL A   1      34.080  31.627  27.440  1.00  0.00     0.116 C 
BRANCH  40  41
ATOM     41  N   UNL A   1      33.618  32.885  28.001  1.00  0.00    -0.352 N 
ATOM     42  C   UNL A   1      34.051  33.536  29.153  1.00  0.00     0.251 C 
ATOM     43  H   UNL A   1      32.903  33.338  27.498  1.00  0.00     0.163 HD
ATOM     44  O   UNL A   1      33.385  34.449  29.609  1.00  0.00    -0.269 OA
BRANCH  42  45
ATOM     45  C   UNL A   1      35.381  33.225  29.758  1.00  0.00     0.039 A 
ATOM     46  C   UNL A   1      36.543  33.660  29.097  1.00  0.00     0.014 A 
ATOM     47  C   UNL A   1      35.515  32.415  30.876  1.00  0.00     0.014 A 
ATOM     48  C   UNL A   1      37.788  33.116  29.429  1.00  0.00     0.010 A 
ATOM     49  C   UNL A   1      36.705  31.776  31.117  1.00  0.00     0.010 A 
ATOM     50  C   UNL A   1      37.838  32.095  30.366  1.00  0.00    -0.014 A 
BRANCH  50  51
ATOM     51  C   UNL A   1      39.006  31.322  30.754  1.00  0.00     0.031 A 
ATOM     52  C   UNL A   1      39.233  30.014  30.102  1.00  0.00     0.074 A 
ATOM     53  C   UNL A   1      40.028  31.996  31.327  1.00  0.00     0.049 A 
ATOM     54  N   UNL A   1      40.228  29.238  30.360  1.00  0.00    -0.248 NA
ATOM     55  C   UNL A   1      38.316  29.452  29.105  1.00  0.00     0.031 C 
ATOM     56  C   UNL A   1      41.458  31.725  31.214  1.00  0.00     0.029 A 
ATOM     57  N   UNL A   1      39.950  32.996  32.303  1.00  0.00    -0.354 N 
ATOM     58  C   UNL A   1      40.295  28.329  29.332  1.00  0.00     0.074 A 
ATOM     59  C   UNL A   1      39.004  28.380  28.700  1.00  0.00     0.031 C 
ATOM     60  C   UNL A   1      42.100  32.313  32.237  1.00  0.00     0.029 A 
ATOM     61  C   UNL A   1      41.076  32.799  33.143  1.00  0.00     0.049 A 
ATOM     62  H   UNL A   1      39.258  33.690  32.389  1.00  0.00     0.167 HD
ATOM     63  C   UNL A   1      41.506  27.789  29.022  1.00  0.00     0.037 A 
ATOM     64  C   UNL A   1      40.939  32.389  34.445  1.00  0.00     0.037 A 
ATOM     65  C   UNL A   1      42.480  28.055  30.081  1.00  0.00     0.049 A 
ATOM     66  C   UNL A   1      41.622  31.091  34.758  1.00  0.00     0.074 A 
ATOM     67  C   UNL A   1      43.583  28.885  30.170  1.00  0.00     0.029 A 
ATOM     68  N   UNL A   1      42.212  27.612  31.374  1.00  0.00    -0.354 N 
ATOM     69  N   UNL A   1      41.988  30.240  33.846  1.00  0.00    -0.248 NA
ATOM     70  C   UNL A   1      41.883  30.621  36.113  1.00  0.00     0.031 C 
ATOM     71  C   UNL A   1      43.892  29.041  31.550  1.00  0.00     0.029 A 
ATOM     72  C   UNL A   1      43.017  28.260  32.288  1.00  0.00     0.049 A 
ATOM     73  H   UNL A   1      41.540  26.929  31.605  1.00  0.00     0.167 HD
ATOM     74  C   UNL A   1      42.474  29.118  34.449  1.00  0.00     0.074 A 
ATOM     75  C   UNL A   1      42.417  29.414  35.868  1.00  0.00     0.031 C 
ATOM     76  C   UNL A   1      42.850  28.031  33.718  1.00  0.00     0.037 A 
BRANCH  63  77
ATOM     77  C   UNL A   1      41.890  27.212  27.674  1.00  0.00     0.057 A 
ATOM     78  C   UNL A   1      42.151  25.831  27.551  1.00  0.00     0.134 A 
ATOM     79  C   UNL A   1      42.154  27.952  26.502  1.00  0.00     0.134 A 
ATOM     80  F   UNL A   1      41.967  24.994  28.581  1.00  0.00    -0.206 F 
ATOM     81  C   UNL A   1      42.634  25.245  26.372  1.00  0.00     0.040 A 
ATOM     82  C   UNL A   1      42.585  27.369  25.301  1.00  0.00     0.040 A 
ATOM     83  F   UNL A   1      42.078  29.286  26.458  1.00  0.00    -0.206 F 
ATOM     84  C   UNL A   1      42.841  26.011  25.235  1.00  0.00     0.006 A 
ENDBRANCH  63  77
BRANCH  64  85
ATOM     85  C   UNL A   1      39.629  32.775  35.033  1.00  0.00     0.057 A 
ATOM     86  C   UNL A   1      38.702  31.737  35.170  1.00  0.00     0.134 A 
ATOM     87  C   UNL A   1      39.578  33.837  35.947  1.00  0.00     0.134 A 
ATOM     88  F   UNL A   1      38.673  30.723  34.292  1.00  0.00    -0.206 F 
ATOM     89  C   UNL A   1      38.005  31.592  36.358  1.00  0.00     0.040 A 
ATOM     90  C   UNL A   1      38.829  33.726  37.112  1.00  0.00     0.040 A 
ATOM     91  F   UNL A   1      40.380  34.901  35.813  1.00  0.00    -0.206 F 
ATOM     92  C   UNL A   1      38.134  32.550  37.359  1.00  0.00     0.006 A 
ENDBRANCH  64  85
BRANCH  76  93
ATOM     93  C   UNL A   1      43.159  26.687  34.306  1.00  0.00     0.057 A 
ATOM     94  C   UNL A   1      44.458  26.181  34.472  1.00  0.00     0.134 A 
ATOM     95  C   UNL A   1      42.126  25.898  34.849  1.00  0.00     0.134 A 
ATOM     96  F   UNL A   1      45.538  26.892  34.119  1.00  0.00    -0.206 F 
ATOM     97  C   UNL A   1      44.705  24.936  35.059  1.00  0.00     0.040 A 
ATOM     98  C   UNL A   1      42.366  24.679  35.487  1.00  0.00     0.040 A 
ATOM     99  F   UNL A   1      40.844  26.288  34.798  1.00  0.00    -0.206 F 
ATOM    100  C   UNL A   1      43.658  24.183  35.575  1.00  0.00     0.006 A 
ENDBRANCH  76  93
ENDBRANCH  50  51
ENDBRANCH  42  45
ENDBRANCH  40  41
ENDBRANCH  39  40
ENDBRANCH  38  39
ENDBRANCH   1  38
TORSDOF 17
ENDMDL
