MODEL 1
REMARK VINA RESULT:     -12.3      0.000      0.000
REMARK SMILES O=C(NCCCCNC(=O)c1ccc(-c2c3nc(c(-c4c(F)cccc4F)c4ccc([nH]4)c(-c4c(F)cccc4F)c4nc(c(-c5c(F)cccc5F)c5ccc2[nH]5)C=C4)C=C3)cc1)C1=Cc2cc(Cl)c(Cl)cc2O[C@@H]1C(F)(F)F
REMARK SMILES IDX 6 1 5 2 4 3 3 4 1 5 2 6 65 8 66 9 76 10 67 11 75 12 68 13
REMARK SMILES IDX 74 14 69 15 73 16 70 17 71 18 72 19 77 20 78 21 79 22 80 23
REMARK SMILES IDX 7 24 8 25 9 26 10 28 11 29 12 30 64 31 13 32 63 33 14 34
REMARK SMILES IDX 15 35 16 36 57 37 17 38 62 39 56 40 58 41 18 42 61 43 55 44
REMARK SMILES IDX 54 45 19 47 45 48 28 49 44 50 29 51 32 52 43 53 59 54 30 55
REMARK SMILES IDX 31 56 42 58 60 59 33 60 20 61 21 62 26 63 22 64 23 65 25 66
REMARK SMILES IDX 27 67 24 68 46 69 47 70 52 71 48 72 49 73 51 74 53 75 50 76
REMARK SMILES IDX 34 77 35 78 40 79 36 80 37 81 39 82 41 83 38 84
REMARK H PARENT 3 7 8 27 58 46 32 57
REMARK Flexibility Score: inf
ROOT
ATOM      1  C   UNL A   1      37.922  22.044  24.922  1.00  0.00     0.023 C 
ENDROOT
BRANCH   1   2
ATOM      2  C   UNL A   1      37.435  23.444  25.283  1.00  0.00     0.023 C 
BRANCH   2   3
ATOM      3  C   UNL A   1      35.916  23.621  25.329  1.00  0.00     0.116 C 
BRANCH   3   4
ATOM      4  N   UNL A   1      35.273  23.038  26.506  1.00  0.00    -0.352 N 
ATOM      5  O   UNL A   1      34.213  21.441  27.705  1.00  0.00    -0.270 OA
ATOM      6  C   UNL A   1      34.461  21.930  26.609  1.00  0.00     0.251 C 
ATOM      7  H   UNL A   1      35.448  23.510  27.352  1.00  0.00     0.163 HD
BRANCH   6   8
ATOM      8  C   UNL A   1      34.053  21.235  25.363  1.00  0.00     0.067 C 
ATOM      9  C   UNL A   1      34.840  20.390  24.680  1.00  0.00     0.025 C 
ATOM     10  C   UNL A   1      32.594  21.296  25.013  1.00  0.00     0.314 C 
ATOM     11  C   UNL A   1      34.199  19.054  24.603  1.00  0.00     0.019 A 
ATOM     12  O   UNL A   1      31.983  19.987  25.099  1.00  0.00    -0.475 OA
ATOM     13  C   UNL A   1      35.007  17.905  24.615  1.00  0.00     0.034 A 
ATOM     14  C   UNL A   1      32.828  18.919  24.902  1.00  0.00     0.129 A 
ATOM     15  C   UNL A   1      34.459  16.656  24.948  1.00  0.00     0.060 A 
ATOM     16  C   UNL A   1      32.276  17.671  25.188  1.00  0.00     0.069 A 
ATOM     17  Cl  UNL A   1      35.544  15.317  25.093  1.00  0.00    -0.083 Cl
ATOM     18  C   UNL A   1      33.094  16.541  25.236  1.00  0.00     0.063 A 
ATOM     19  Cl  UNL A   1      32.370  15.056  25.738  1.00  0.00    -0.083 Cl
BRANCH  10  20
ATOM     20  C   UNL A   1      32.382  21.919  23.616  1.00  0.00     0.429 C 
ATOM     21  F   UNL A   1      33.469  22.627  23.227  1.00  0.00    -0.167 F 
ATOM     22  F   UNL A   1      32.166  20.977  22.668  1.00  0.00    -0.167 F 
ATOM     23  F   UNL A   1      31.325  22.767  23.581  1.00  0.00    -0.167 F 
ENDBRANCH  10  20
ENDBRANCH   6   8
ENDBRANCH   3   4
ENDBRANCH   2   3
ENDBRANCH   1   2
BRANCH   1  24
ATOM     24  C   UNL A   1      38.241  21.108  26.088  1.00  0.00     0.116 C 
BRANCH  24  25
ATOM     25  N   UNL A   1      39.133  20.003  25.764  1.00  0.00    -0.352 N 
ATOM     26  C   UNL A   1      40.494  19.902  25.962  1.00  0.00     0.251 C 
ATOM     27  H   UNL A   1      38.706  19.220  25.347  1.00  0.00     0.163 HD
ATOM     28  O   UNL A   1      41.105  18.902  25.590  1.00  0.00    -0.269 OA
BRANCH  26  29
ATOM     29  C   UNL A   1      41.232  21.034  26.561  1.00  0.00     0.039 A 
ATOM     30  C   UNL A   1      41.843  21.960  25.711  1.00  0.00     0.014 A 
ATOM     31  C   UNL A   1      41.233  21.238  27.943  1.00  0.00     0.014 A 
ATOM     32  C   UNL A   1      42.339  23.155  26.236  1.00  0.00     0.010 A 
ATOM     33  C   UNL A   1      41.651  22.464  28.454  1.00  0.00     0.010 A 
ATOM     34  C   UNL A   1      42.181  23.445  27.602  1.00  0.00    -0.014 A 
BRANCH  34  35
ATOM     35  C   UNL A   1      42.501  24.792  28.139  1.00  0.00     0.031 A 
ATOM     36  C   UNL A   1      43.897  25.130  28.576  1.00  0.00     0.074 A 
ATOM     37  C   UNL A   1      41.507  25.687  28.312  1.00  0.00     0.049 A 
ATOM     38  N   UNL A   1      44.349  26.233  29.117  1.00  0.00    -0.248 NA
ATOM     39  C   UNL A   1      44.914  24.080  28.412  1.00  0.00     0.031 C 
ATOM     40  C   UNL A   1      40.095  25.456  27.997  1.00  0.00     0.029 A 
ATOM     41  N   UNL A   1      41.529  26.969  28.802  1.00  0.00    -0.354 N 
ATOM     42  C   UNL A   1      45.695  26.005  29.371  1.00  0.00     0.074 A 
ATOM     43  C   UNL A   1      45.975  24.641  28.974  1.00  0.00     0.031 C 
ATOM     44  C   UNL A   1      39.394  26.569  28.269  1.00  0.00     0.029 A 
ATOM     45  C   UNL A   1      40.298  27.579  28.809  1.00  0.00     0.049 A 
ATOM     46  H   UNL A   1      42.350  27.411  29.119  1.00  0.00     0.167 HD
ATOM     47  C   UNL A   1      46.619  26.860  29.867  1.00  0.00     0.037 A 
ATOM     48  C   UNL A   1      39.936  28.815  29.202  1.00  0.00     0.037 A 
ATOM     49  C   UNL A   1      46.346  28.224  30.235  1.00  0.00     0.049 A 
ATOM     50  C   UNL A   1      40.985  29.755  29.727  1.00  0.00     0.074 A 
ATOM     51  C   UNL A   1      47.231  29.191  30.682  1.00  0.00     0.029 A 
ATOM     52  N   UNL A   1      45.093  28.816  30.197  1.00  0.00    -0.354 N 
ATOM     53  N   UNL A   1      42.270  29.549  29.887  1.00  0.00    -0.248 NA
ATOM     54  C   UNL A   1      40.536  31.098  30.117  1.00  0.00     0.031 C 
ATOM     55  C   UNL A   1      46.505  30.358  30.948  1.00  0.00     0.029 A 
ATOM     56  C   UNL A   1      45.176  30.129  30.631  1.00  0.00     0.049 A 
ATOM     57  H   UNL A   1      44.266  28.368  29.907  1.00  0.00     0.167 HD
ATOM     58  C   UNL A   1      42.786  30.741  30.375  1.00  0.00     0.074 A 
ATOM     59  C   UNL A   1      41.678  31.670  30.470  1.00  0.00     0.031 C 
ATOM     60  C   UNL A   1      44.064  31.040  30.716  1.00  0.00     0.037 A 
BRANCH  47  61
ATOM     61  C   UNL A   1      48.018  26.342  30.027  1.00  0.00     0.057 A 
ATOM     62  C   UNL A   1      48.450  25.746  31.220  1.00  0.00     0.134 A 
ATOM     63  C   UNL A   1      48.938  26.421  28.974  1.00  0.00     0.134 A 
ATOM     64  F   UNL A   1      47.622  25.652  32.271  1.00  0.00    -0.206 F 
ATOM     65  C   UNL A   1      49.755  25.275  31.370  1.00  0.00     0.040 A 
ATOM     66  C   UNL A   1      50.239  25.930  29.103  1.00  0.00     0.040 A 
ATOM     67  F   UNL A   1      48.588  26.974  27.803  1.00  0.00    -0.206 F 
ATOM     68  C   UNL A   1      50.652  25.362  30.308  1.00  0.00     0.006 A 
ENDBRANCH  47  61
BRANCH  48  69
ATOM     69  C   UNL A   1      38.522  29.250  29.080  1.00  0.00     0.057 A 
ATOM     70  C   UNL A   1      38.009  29.686  27.853  1.00  0.00     0.134 A 
ATOM     71  C   UNL A   1      37.653  29.240  30.177  1.00  0.00     0.134 A 
ATOM     72  F   UNL A   1      38.799  29.734  26.771  1.00  0.00    -0.206 F 
ATOM     73  C   UNL A   1      36.686  30.112  27.723  1.00  0.00     0.040 A 
ATOM     74  C   UNL A   1      36.322  29.643  30.057  1.00  0.00     0.040 A 
ATOM     75  F   UNL A   1      38.082  28.825  31.377  1.00  0.00    -0.206 F 
ATOM     76  C   UNL A   1      35.837  30.087  28.827  1.00  0.00     0.006 A 
ENDBRANCH  48  69
BRANCH  60  77
ATOM     77  C   UNL A   1      44.333  32.433  31.199  1.00  0.00     0.057 A 
ATOM     78  C   UNL A   1      44.305  32.759  32.559  1.00  0.00     0.134 A 
ATOM     79  C   UNL A   1      44.660  33.451  30.293  1.00  0.00     0.134 A 
ATOM     80  F   UNL A   1      43.984  31.831  33.475  1.00  0.00    -0.206 F 
ATOM     81  C   UNL A   1      44.573  34.055  33.004  1.00  0.00     0.040 A 
ATOM     82  C   UNL A   1      44.953  34.745  30.727  1.00  0.00     0.040 A 
ATOM     83  F   UNL A   1      44.711  33.201  28.977  1.00  0.00    -0.206 F 
ATOM     84  C   UNL A   1      44.905  35.051  32.086  1.00  0.00     0.006 A 
ENDBRANCH  60  77
ENDBRANCH  34  35
ENDBRANCH  26  29
ENDBRANCH  24  25
ENDBRANCH   1  24
TORSDOF 12
ENDMDL
MODEL 2
REMARK VINA RESULT:     -12.2      2.715      7.364
REMARK SMILES O=C(NCCCCNC(=O)c1ccc(-c2c3nc(c(-c4c(F)cccc4F)c4ccc([nH]4)c(-c4c(F)cccc4F)c4nc(c(-c5c(F)cccc5F)c5ccc2[nH]5)C=C4)C=C3)cc1)C1=Cc2cc(Cl)c(Cl)cc2O[C@@H]1C(F)(F)F
REMARK SMILES IDX 6 1 5 2 4 3 3 4 1 5 2 6 65 8 66 9 76 10 67 11 75 12 68 13
REMARK SMILES IDX 74 14 69 15 73 16 70 17 71 18 72 19 77 20 78 21 79 22 80 23
REMARK SMILES IDX 7 24 8 25 9 26 10 28 11 29 12 30 64 31 13 32 63 33 14 34
REMARK SMILES IDX 15 35 16 36 57 37 17 38 62 39 56 40 58 41 18 42 61 43 55 44
REMARK SMILES IDX 54 45 19 47 45 48 28 49 44 50 29 51 32 52 43 53 59 54 30 55
REMARK SMILES IDX 31 56 42 58 60 59 33 60 20 61 21 62 26 63 22 64 23 65 25 66
REMARK SMILES IDX 27 67 24 68 46 69 47 70 52 71 48 72 49 73 51 74 53 75 50 76
REMARK SMILES IDX 34 77 35 78 40 79 36 80 37 81 39 82 41 83 38 84
REMARK H PARENT 3 7 8 27 58 46 32 57
REMARK Flexibility Score: inf
ROOT
ATOM      1  C   UNL A   1      33.293  28.350  27.251  1.00  0.00     0.023 C 
ENDROOT
BRANCH   1   2
ATOM      2  C   UNL A   1      31.777  28.176  27.245  1.00  0.00     0.023 C 
BRANCH   2   3
ATOM      3  C   UNL A   1      31.241  27.107  26.292  1.00  0.00     0.116 C 
BRANCH   3   4
ATOM      4  N   UNL A   1      31.250  25.750  26.836  1.00  0.00    -0.352 N 
ATOM      5  O   UNL A   1      32.093  23.692  27.247  1.00  0.00    -0.270 OA
ATOM      6  C   UNL A   1      32.058  24.679  26.520  1.00  0.00     0.251 C 
ATOM      7  H   UNL A   1      30.577  25.575  27.533  1.00  0.00     0.163 HD
BRANCH   6   8
ATOM      8  C   UNL A   1      33.015  24.824  25.397  1.00  0.00     0.067 C 
ATOM      9  C   UNL A   1      34.281  25.251  25.537  1.00  0.00     0.025 C 
ATOM     10  C   UNL A   1      32.607  24.210  24.090  1.00  0.00     0.314 C 
ATOM     11  C   UNL A   1      35.221  24.207  25.059  1.00  0.00     0.019 A 
ATOM     12  O   UNL A   1      33.469  23.099  23.744  1.00  0.00    -0.475 OA
ATOM     13  C   UNL A   1      36.464  24.062  25.696  1.00  0.00     0.034 A 
ATOM     14  C   UNL A   1      34.742  23.146  24.263  1.00  0.00     0.129 A 
ATOM     15  C   UNL A   1      37.194  22.870  25.564  1.00  0.00     0.060 A 
ATOM     16  C   UNL A   1      35.489  21.981  24.096  1.00  0.00     0.069 A 
ATOM     17  Cl  UNL A   1      38.638  22.705  26.501  1.00  0.00    -0.083 Cl
ATOM     18  C   UNL A   1      36.705  21.830  24.764  1.00  0.00     0.063 A 
ATOM     19  Cl  UNL A   1      37.505  20.306  24.626  1.00  0.00    -0.083 Cl
BRANCH  10  20
ATOM     20  C   UNL A   1      32.581  25.266  22.963  1.00  0.00     0.429 C 
ATOM     21  F   UNL A   1      31.632  24.974  22.042  1.00  0.00    -0.167 F 
ATOM     22  F   UNL A   1      32.306  26.504  23.434  1.00  0.00    -0.167 F 
ATOM     23  F   UNL A   1      33.762  25.346  22.300  1.00  0.00    -0.167 F 
ENDBRANCH  10  20
ENDBRANCH   6   8
ENDBRANCH   3   4
ENDBRANCH   2   3
ENDBRANCH   1   2
BRANCH   1  24
ATOM     24  C   UNL A   1      33.829  29.698  26.770  1.00  0.00     0.116 C 
BRANCH  24  25
ATOM     25  N   UNL A   1      33.865  30.744  27.784  1.00  0.00    -0.352 N 
ATOM     26  C   UNL A   1      34.870  31.050  28.677  1.00  0.00     0.251 C 
ATOM     27  H   UNL A   1      33.061  31.310  27.839  1.00  0.00     0.163 HD
ATOM     28  O   UNL A   1      34.719  31.950  29.501  1.00  0.00    -0.269 OA
BRANCH  26  29
ATOM     29  C   UNL A   1      36.109  30.244  28.688  1.00  0.00     0.039 A 
ATOM     30  C   UNL A   1      36.930  30.263  27.557  1.00  0.00     0.014 A 
ATOM     31  C   UNL A   1      36.509  29.560  29.838  1.00  0.00     0.014 A 
ATOM     32  C   UNL A   1      38.209  29.706  27.626  1.00  0.00     0.010 A 
ATOM     33  C   UNL A   1      37.813  29.081  29.932  1.00  0.00     0.010 A 
ATOM     34  C   UNL A   1      38.685  29.176  28.837  1.00  0.00    -0.014 A 
BRANCH  34  35
ATOM     35  C   UNL A   1      40.108  28.781  28.992  1.00  0.00     0.031 A 
ATOM     36  C   UNL A   1      41.117  29.751  29.535  1.00  0.00     0.074 A 
ATOM     37  C   UNL A   1      40.508  27.567  28.559  1.00  0.00     0.049 A 
ATOM     38  N   UNL A   1      42.407  29.601  29.690  1.00  0.00    -0.248 NA
ATOM     39  C   UNL A   1      40.613  31.077  29.929  1.00  0.00     0.031 C 
ATOM     40  C   UNL A   1      39.640  26.560  27.942  1.00  0.00     0.029 A 
ATOM     41  N   UNL A   1      41.746  26.976  28.563  1.00  0.00    -0.354 N 
ATOM     42  C   UNL A   1      42.872  30.813  30.184  1.00  0.00     0.074 A 
ATOM     43  C   UNL A   1      41.734  31.705  30.253  1.00  0.00     0.031 C 
ATOM     44  C   UNL A   1      40.366  25.466  27.661  1.00  0.00     0.029 A 
ATOM     45  C   UNL A   1      41.754  25.705  28.043  1.00  0.00     0.049 A 
ATOM     46  H   UNL A   1      42.554  27.422  28.907  1.00  0.00     0.167 HD
ATOM     47  C   UNL A   1      44.126  31.145  30.567  1.00  0.00     0.037 A 
ATOM     48  C   UNL A   1      42.763  24.827  27.894  1.00  0.00     0.037 A 
ATOM     49  C   UNL A   1      45.251  30.248  30.525  1.00  0.00     0.049 A 
ATOM     50  C   UNL A   1      44.143  25.210  28.350  1.00  0.00     0.074 A 
ATOM     51  C   UNL A   1      46.548  30.470  30.956  1.00  0.00     0.029 A 
ATOM     52  N   UNL A   1      45.212  28.957  30.021  1.00  0.00    -0.354 N 
ATOM     53  N   UNL A   1      44.550  26.334  28.888  1.00  0.00    -0.248 NA
ATOM     54  C   UNL A   1      45.199  24.202  28.185  1.00  0.00     0.031 C 
ATOM     55  C   UNL A   1      47.302  29.323  30.681  1.00  0.00     0.029 A 
ATOM     56  C   UNL A   1      46.466  28.376  30.113  1.00  0.00     0.049 A 
ATOM     57  H   UNL A   1      44.412  28.520  29.651  1.00  0.00     0.167 HD
ATOM     58  C   UNL A   1      45.904  26.162  29.146  1.00  0.00     0.074 A 
ATOM     59  C   UNL A   1      46.244  24.820  28.719  1.00  0.00     0.031 C 
ATOM     60  C   UNL A   1      46.785  27.037  29.687  1.00  0.00     0.037 A 
BRANCH  47  61
ATOM     61  C   UNL A   1      44.341  32.539  31.078  1.00  0.00     0.057 A 
ATOM     62  C   UNL A   1      44.209  32.854  32.438  1.00  0.00     0.134 A 
ATOM     63  C   UNL A   1      44.702  33.575  30.208  1.00  0.00     0.134 A 
ATOM     64  F   UNL A   1      43.853  31.909  33.322  1.00  0.00    -0.206 F 
ATOM     65  C   UNL A   1      44.398  34.154  32.909  1.00  0.00     0.040 A 
ATOM     66  C   UNL A   1      44.919  34.874  30.671  1.00  0.00     0.040 A 
ATOM     67  F   UNL A   1      44.851  33.342  28.895  1.00  0.00    -0.206 F 
ATOM     68  C   UNL A   1      44.760  35.167  32.024  1.00  0.00     0.006 A 
ENDBRANCH  47  61
BRANCH  48  69
ATOM     69  C   UNL A   1      42.501  23.483  27.321  1.00  0.00     0.057 A 
ATOM     70  C   UNL A   1      42.167  22.403  28.146  1.00  0.00     0.134 A 
ATOM     71  C   UNL A   1      42.575  23.244  25.943  1.00  0.00     0.134 A 
ATOM     72  F   UNL A   1      42.097  22.567  29.475  1.00  0.00    -0.206 F 
ATOM     73  C   UNL A   1      41.931  21.130  27.625  1.00  0.00     0.040 A 
ATOM     74  C   UNL A   1      42.322  21.981  25.407  1.00  0.00     0.040 A 
ATOM     75  F   UNL A   1      42.883  24.240  25.100  1.00  0.00    -0.206 F 
ATOM     76  C   UNL A   1      42.004  20.917  26.250  1.00  0.00     0.006 A 
ENDBRANCH  48  69
BRANCH  60  77
ATOM     77  C   UNL A   1      48.195  26.561  29.868  1.00  0.00     0.057 A 
ATOM     78  C   UNL A   1      48.599  25.879  31.022  1.00  0.00     0.134 A 
ATOM     79  C   UNL A   1      49.149  26.756  28.861  1.00  0.00     0.134 A 
ATOM     80  F   UNL A   1      47.735  25.674  32.029  1.00  0.00    -0.206 F 
ATOM     81  C   UNL A   1      49.909  25.424  31.178  1.00  0.00     0.040 A 
ATOM     82  C   UNL A   1      50.456  26.285  28.996  1.00  0.00     0.040 A 
ATOM     83  F   UNL A   1      48.824  27.396  27.729  1.00  0.00    -0.206 F 
ATOM     84  C   UNL A   1      50.841  25.622  30.159  1.00  0.00     0.006 A 
ENDBRANCH  60  77
ENDBRANCH  34  35
ENDBRANCH  26  29
ENDBRANCH  24  25
ENDBRANCH   1  24
TORSDOF 12
ENDMDL
MODEL 3
REMARK VINA RESULT:     -12.2      0.368      6.289
REMARK SMILES O=C(NCCCCNC(=O)c1ccc(-c2c3nc(c(-c4c(F)cccc4F)c4ccc([nH]4)c(-c4c(F)cccc4F)c4nc(c(-c5c(F)cccc5F)c5ccc2[nH]5)C=C4)C=C3)cc1)C1=Cc2cc(Cl)c(Cl)cc2O[C@@H]1C(F)(F)F
REMARK SMILES IDX 6 1 5 2 4 3 3 4 1 5 2 6 65 8 66 9 76 10 67 11 75 12 68 13
REMARK SMILES IDX 74 14 69 15 73 16 70 17 71 18 72 19 77 20 78 21 79 22 80 23
REMARK SMILES IDX 7 24 8 25 9 26 10 28 11 29 12 30 64 31 13 32 63 33 14 34
REMARK SMILES IDX 15 35 16 36 57 37 17 38 62 39 56 40 58 41 18 42 61 43 55 44
REMARK SMILES IDX 54 45 19 47 45 48 28 49 44 50 29 51 32 52 43 53 59 54 30 55
REMARK SMILES IDX 31 56 42 58 60 59 33 60 20 61 21 62 26 63 22 64 23 65 25 66
REMARK SMILES IDX 27 67 24 68 46 69 47 70 52 71 48 72 49 73 51 74 53 75 50 76
REMARK SMILES IDX 34 77 35 78 40 79 36 80 37 81 39 82 41 83 38 84
REMARK H PARENT 3 7 8 27 58 46 32 57
REMARK Flexibility Score: inf
ROOT
ATOM      1  C   UNL A   1      37.713  21.990  24.851  1.00  0.00     0.023 C 
ENDROOT
BRANCH   1   2
ATOM      2  C   UNL A   1      37.296  23.448  25.018  1.00  0.00     0.023 C 
BRANCH   2   3
ATOM      3  C   UNL A   1      35.793  23.691  25.157  1.00  0.00     0.116 C 
BRANCH   3   4
ATOM      4  N   UNL A   1      35.191  23.103  26.353  1.00  0.00    -0.352 N 
ATOM      5  O   UNL A   1      34.211  21.487  27.594  1.00  0.00    -0.270 OA
ATOM      6  C   UNL A   1      34.423  21.967  26.486  1.00  0.00     0.251 C 
ATOM      7  H   UNL A   1      35.361  23.595  27.189  1.00  0.00     0.163 HD
BRANCH   6   8
ATOM      8  C   UNL A   1      34.022  21.238  25.259  1.00  0.00     0.067 C 
ATOM      9  C   UNL A   1      34.814  20.376  24.602  1.00  0.00     0.025 C 
ATOM     10  C   UNL A   1      32.565  21.285  24.902  1.00  0.00     0.314 C 
ATOM     11  C   UNL A   1      34.177  19.037  24.559  1.00  0.00     0.019 A 
ATOM     12  O   UNL A   1      31.957  19.977  25.020  1.00  0.00    -0.475 OA
ATOM     13  C   UNL A   1      34.988  17.891  24.604  1.00  0.00     0.034 A 
ATOM     14  C   UNL A   1      32.805  18.906  24.855  1.00  0.00     0.129 A 
ATOM     15  C   UNL A   1      34.442  16.650  24.970  1.00  0.00     0.060 A 
ATOM     16  C   UNL A   1      32.255  17.665  25.173  1.00  0.00     0.069 A 
ATOM     17  Cl  UNL A   1      35.530  15.318  25.155  1.00  0.00    -0.083 Cl
ATOM     18  C   UNL A   1      33.076  16.539  25.255  1.00  0.00     0.063 A 
ATOM     19  Cl  UNL A   1      32.354  15.066  25.795  1.00  0.00    -0.083 Cl
BRANCH  10  20
ATOM     20  C   UNL A   1      32.356  21.869  23.487  1.00  0.00     0.429 C 
ATOM     21  F   UNL A   1      31.281  22.692  23.452  1.00  0.00    -0.167 F 
ATOM     22  F   UNL A   1      33.422  22.595  23.076  1.00  0.00    -0.167 F 
ATOM     23  F   UNL A   1      32.147  20.907  22.554  1.00  0.00    -0.167 F 
ENDBRANCH  10  20
ENDBRANCH   6   8
ENDBRANCH   3   4
ENDBRANCH   2   3
ENDBRANCH   1   2
BRANCH   1  24
ATOM     24  C   UNL A   1      38.377  21.325  26.057  1.00  0.00     0.116 C 
BRANCH  24  25
ATOM     25  N   UNL A   1      39.227  20.185  25.741  1.00  0.00    -0.352 N 
ATOM     26  C   UNL A   1      40.579  20.024  25.961  1.00  0.00     0.251 C 
ATOM     27  H   UNL A   1      38.773  19.423  25.312  1.00  0.00     0.163 HD
ATOM     28  O   UNL A   1      41.153  19.002  25.592  1.00  0.00    -0.269 OA
BRANCH  26  29
ATOM     29  C   UNL A   1      41.354  21.120  26.579  1.00  0.00     0.039 A 
ATOM     30  C   UNL A   1      41.953  22.069  25.746  1.00  0.00     0.014 A 
ATOM     31  C   UNL A   1      41.403  21.270  27.967  1.00  0.00     0.014 A 
ATOM     32  C   UNL A   1      42.486  23.234  26.301  1.00  0.00     0.010 A 
ATOM     33  C   UNL A   1      41.857  22.468  28.512  1.00  0.00     0.010 A 
ATOM     34  C   UNL A   1      42.377  23.473  27.682  1.00  0.00    -0.014 A 
BRANCH  34  35
ATOM     35  C   UNL A   1      42.736  24.793  28.260  1.00  0.00     0.031 A 
ATOM     36  C   UNL A   1      41.690  25.852  28.460  1.00  0.00     0.074 A 
ATOM     37  C   UNL A   1      44.030  25.067  28.526  1.00  0.00     0.049 A 
ATOM     38  N   UNL A   1      41.829  27.076  28.899  1.00  0.00    -0.248 NA
ATOM     39  C   UNL A   1      40.311  25.497  28.089  1.00  0.00     0.031 C 
ATOM     40  C   UNL A   1      45.152  24.151  28.306  1.00  0.00     0.029 A 
ATOM     41  N   UNL A   1      44.622  26.197  29.032  1.00  0.00    -0.354 N 
ATOM     42  C   UNL A   1      40.562  27.642  28.844  1.00  0.00     0.074 A 
ATOM     43  C   UNL A   1      39.678  26.645  28.279  1.00  0.00     0.031 C 
ATOM     44  C   UNL A   1      46.289  24.743  28.706  1.00  0.00     0.029 A 
ATOM     45  C   UNL A   1      45.984  26.089  29.179  1.00  0.00     0.049 A 
ATOM     46  H   UNL A   1      44.118  27.009  29.269  1.00  0.00     0.167 HD
ATOM     47  C   UNL A   1      40.166  28.872  29.249  1.00  0.00     0.037 A 
ATOM     48  C   UNL A   1      46.886  26.973  29.644  1.00  0.00     0.037 A 
ATOM     49  C   UNL A   1      41.040  29.852  29.837  1.00  0.00     0.049 A 
ATOM     50  C   UNL A   1      46.418  28.323  30.111  1.00  0.00     0.074 A 
ATOM     51  C   UNL A   1      40.720  31.101  30.343  1.00  0.00     0.029 A 
ATOM     52  N   UNL A   1      42.408  29.693  29.998  1.00  0.00    -0.354 N 
ATOM     53  N   UNL A   1      45.203  28.814  30.125  1.00  0.00    -0.248 NA
ATOM     54  C   UNL A   1      47.445  29.236  30.632  1.00  0.00     0.031 C 
ATOM     55  C   UNL A   1      41.902  31.711  30.779  1.00  0.00     0.029 A 
ATOM     56  C   UNL A   1      42.950  30.828  30.579  1.00  0.00     0.049 A 
ATOM     57  H   UNL A   1      42.918  28.893  29.737  1.00  0.00     0.167 HD
ATOM     58  C   UNL A   1      45.314  30.084  30.675  1.00  0.00     0.074 A 
ATOM     59  C   UNL A   1      46.713  30.280  30.996  1.00  0.00     0.031 C 
ATOM     60  C   UNL A   1      44.345  31.005  30.894  1.00  0.00     0.037 A 
BRANCH  47  61
ATOM     61  C   UNL A   1      38.716  29.216  29.078  1.00  0.00     0.057 A 
ATOM     62  C   UNL A   1      38.193  29.611  27.839  1.00  0.00     0.134 A 
ATOM     63  C   UNL A   1      37.827  29.137  30.158  1.00  0.00     0.134 A 
ATOM     64  F   UNL A   1      38.995  29.720  26.768  1.00  0.00    -0.206 F 
ATOM     65  C   UNL A   1      36.846  29.942  27.685  1.00  0.00     0.040 A 
ATOM     66  C   UNL A   1      36.472  29.440  30.011  1.00  0.00     0.040 A 
ATOM     67  F   UNL A   1      38.259  28.761  31.371  1.00  0.00    -0.206 F 
ATOM     68  C   UNL A   1      35.981  29.852  28.773  1.00  0.00     0.006 A 
ENDBRANCH  47  61
BRANCH  48  69
ATOM     69  C   UNL A   1      48.320  26.597  29.729  1.00  0.00     0.057 A 
ATOM     70  C   UNL A   1      48.818  25.913  30.844  1.00  0.00     0.134 A 
ATOM     71  C   UNL A   1      49.223  26.907  28.706  1.00  0.00     0.134 A 
ATOM     72  F   UNL A   1      48.003  25.604  31.864  1.00  0.00    -0.206 F 
ATOM     73  C   UNL A   1      50.165  25.564  30.947  1.00  0.00     0.040 A 
ATOM     74  C   UNL A   1      50.569  26.546  28.786  1.00  0.00     0.040 A 
ATOM     75  F   UNL A   1      48.805  27.554  27.608  1.00  0.00    -0.206 F 
ATOM     76  C   UNL A   1      51.044  25.878  29.913  1.00  0.00     0.006 A 
ENDBRANCH  48  69
BRANCH  60  77
ATOM     77  C   UNL A   1      44.762  32.296  31.531  1.00  0.00     0.057 A 
ATOM     78  C   UNL A   1      44.790  32.456  32.921  1.00  0.00     0.134 A 
ATOM     79  C   UNL A   1      45.173  33.379  30.744  1.00  0.00     0.134 A 
ATOM     80  F   UNL A   1      44.393  31.460  33.729  1.00  0.00    -0.206 F 
ATOM     81  C   UNL A   1      45.195  33.656  33.509  1.00  0.00     0.040 A 
ATOM     82  C   UNL A   1      45.602  34.576  31.320  1.00  0.00     0.040 A 
ATOM     83  F   UNL A   1      45.176  33.287  29.406  1.00  0.00    -0.206 F 
ATOM     84  C   UNL A   1      45.609  34.718  32.705  1.00  0.00     0.006 A 
ENDBRANCH  60  77
ENDBRANCH  34  35
ENDBRANCH  26  29
ENDBRANCH  24  25
ENDBRANCH   1  24
TORSDOF 12
ENDMDL
