MODEL 1
REMARK VINA RESULT:     -13.1      0.000      0.000
REMARK SMILES NS(=O)(=O)c1ccc(-n2nc(C(=O)NCCCCNC(=O)c3ccc(-c4c5nc(c(-c6c(F)cccc6F)c6ccc([nH]6)c(-c6c(F)cccc6F)c6nc(c(-c7c(F)cccc7F)c7ccc4[nH]7)C=C6)C=C5)cc3)c(Cl)c2-c2ccc(Cl)cc2)cc1
REMARK SMILES IDX 16 1 15 2 14 3 12 4 13 5 11 7 9 8 10 9 78 10 76 11 77 12
REMARK SMILES IDX 8 13 5 14 6 15 87 16 7 17 86 18 2 19 3 20 4 21 1 22 79 25
REMARK SMILES IDX 80 26 85 27 81 28 84 29 82 30 83 31 17 32 18 33 19 34 20 35
REMARK SMILES IDX 21 37 22 38 23 39 75 40 24 41 74 42 25 43 26 44 27 45 68 46
REMARK SMILES IDX 28 47 73 48 67 49 69 50 29 51 72 52 66 53 65 54 30 56 56 57
REMARK SMILES IDX 39 58 55 59 40 60 43 61 54 62 70 63 41 64 42 65 53 67 71 68
REMARK SMILES IDX 44 69 31 70 32 71 37 72 33 73 34 74 36 75 38 76 35 77 57 78
REMARK SMILES IDX 58 79 63 80 59 81 60 82 62 83 64 84 61 85 45 86 46 87 51 88
REMARK SMILES IDX 47 89 48 90 50 91 52 92 49 93
REMARK H PARENT 14 6 1 23 1 24 19 36 69 55 43 66
REMARK Flexibility Score: inf
ROOT
ATOM      1  C   UNL A   1      31.985  30.207  25.470  1.00  0.00     0.023 C 
ENDROOT
BRANCH   1   2
ATOM      2  C   UNL A   1      31.576  28.740  25.691  1.00  0.00     0.116 C 
BRANCH   2   3
ATOM      3  N   UNL A   1      30.672  28.269  24.652  1.00  0.00    -0.351 N 
ATOM      4  C   UNL A   1      30.600  27.110  23.900  1.00  0.00     0.273 C 
ATOM      5  O   UNL A   1      29.611  27.038  23.161  1.00  0.00    -0.267 OA
ATOM      6  H   UNL A   1      29.958  28.913  24.440  1.00  0.00     0.163 HD
BRANCH   4   7
ATOM      7  C   UNL A   1      31.568  25.995  24.006  1.00  0.00     0.169 A 
ATOM      8  N   UNL A   1      32.215  23.948  24.290  1.00  0.00    -0.231 N 
ATOM      9  N   UNL A   1      31.115  24.719  24.116  1.00  0.00    -0.160 NA
ATOM     10  C   UNL A   1      33.364  24.705  24.372  1.00  0.00     0.094 A 
ATOM     11  C   UNL A   1      32.977  25.952  23.919  1.00  0.00     0.100 A 
ATOM     12  Cl  UNL A   1      34.087  27.078  23.301  1.00  0.00    -0.079 Cl
BRANCH   8  13
ATOM     13  C   UNL A   1      32.162  22.535  24.192  1.00  0.00     0.065 A 
ATOM     14  C   UNL A   1      32.536  19.794  23.883  1.00  0.00     0.082 A 
ATOM     15  C   UNL A   1      32.187  20.575  22.774  1.00  0.00     0.024 A 
ATOM     16  C   UNL A   1      32.652  20.369  25.152  1.00  0.00     0.024 A 
ATOM     17  C   UNL A   1      31.967  21.948  22.933  1.00  0.00     0.030 A 
ATOM     18  C   UNL A   1      32.486  21.747  25.303  1.00  0.00     0.030 A 
BRANCH  14  19
ATOM     19  S   UNL A   1      32.938  18.086  23.651  1.00  0.00     0.238 S 
ATOM     20  O   UNL A   1      34.231  17.825  24.231  1.00  0.00    -0.207 OA
ATOM     21  O   UNL A   1      32.591  17.713  22.297  1.00  0.00    -0.207 OA
BRANCH  19  22
ATOM     22  N   UNL A   1      31.845  17.284  24.649  1.00  0.00    -0.225 NA
ATOM     23  H   UNL A   1      30.897  17.593  24.433  1.00  0.00     0.137 HD
ATOM     24  H   UNL A   1      32.058  17.494  25.625  1.00  0.00     0.137 HD
ENDBRANCH  19  22
ENDBRANCH  14  19
ENDBRANCH   8  13
BRANCH  10  25
ATOM     25  C   UNL A   1      34.744  24.259  24.514  1.00  0.00     0.002 A 
ATOM     26  C   UNL A   1      35.301  23.488  23.483  1.00  0.00     0.012 A 
ATOM     27  C   UNL A   1      35.379  24.323  25.760  1.00  0.00     0.012 A 
ATOM     28  C   UNL A   1      36.447  22.729  23.720  1.00  0.00     0.021 A 
ATOM     29  C   UNL A   1      36.525  23.562  25.994  1.00  0.00     0.021 A 
ATOM     30  C   UNL A   1      37.038  22.752  24.981  1.00  0.00     0.041 A 
ATOM     31  Cl  UNL A   1      38.378  21.725  25.310  1.00  0.00    -0.084 Cl
ENDBRANCH  10  25
ENDBRANCH   4   7
ENDBRANCH   2   3
ENDBRANCH   1   2
BRANCH   1  32
ATOM     32  C   UNL A   1      31.532  31.231  26.511  1.00  0.00     0.023 C 
BRANCH  32  33
ATOM     33  C   UNL A   1      32.667  31.988  27.185  1.00  0.00     0.116 C 
BRANCH  33  34
ATOM     34  N   UNL A   1      32.366  33.401  27.430  1.00  0.00    -0.352 N 
ATOM     35  C   UNL A   1      32.953  34.230  28.369  1.00  0.00     0.251 C 
ATOM     36  H   UNL A   1      31.670  33.804  26.863  1.00  0.00     0.163 HD
ATOM     37  O   UNL A   1      32.395  35.242  28.771  1.00  0.00    -0.269 OA
BRANCH  35  38
ATOM     38  C   UNL A   1      34.291  33.869  28.869  1.00  0.00     0.039 A 
ATOM     39  C   UNL A   1      34.457  33.069  30.000  1.00  0.00     0.014 A 
ATOM     40  C   UNL A   1      35.385  34.300  28.122  1.00  0.00     0.014 A 
ATOM     41  C   UNL A   1      35.739  32.623  30.318  1.00  0.00     0.010 A 
ATOM     42  C   UNL A   1      36.618  33.742  28.348  1.00  0.00     0.010 A 
ATOM     43  C   UNL A   1      36.812  32.939  29.467  1.00  0.00    -0.014 A 
BRANCH  43  44
ATOM     44  C   UNL A   1      38.115  32.300  29.640  1.00  0.00     0.031 A 
ATOM     45  C   UNL A   1      38.149  30.878  29.199  1.00  0.00     0.074 A 
ATOM     46  C   UNL A   1      39.241  32.986  29.946  1.00  0.00     0.049 A 
ATOM     47  N   UNL A   1      38.299  29.829  29.937  1.00  0.00    -0.248 NA
ATOM     48  C   UNL A   1      37.819  30.568  27.795  1.00  0.00     0.031 C 
ATOM     49  C   UNL A   1      39.399  34.437  30.098  1.00  0.00     0.029 A 
ATOM     50  N   UNL A   1      40.520  32.536  30.089  1.00  0.00    -0.354 N 
ATOM     51  C   UNL A   1      38.324  28.746  29.063  1.00  0.00     0.074 A 
ATOM     52  C   UNL A   1      37.824  29.234  27.805  1.00  0.00     0.031 C 
ATOM     53  C   UNL A   1      40.712  34.761  30.075  1.00  0.00     0.029 A 
ATOM     54  C   UNL A   1      41.489  33.537  30.088  1.00  0.00     0.049 A 
ATOM     55  H   UNL A   1      40.740  31.581  30.187  1.00  0.00     0.167 HD
ATOM     56  C   UNL A   1      39.025  27.621  29.373  1.00  0.00     0.037 A 
ATOM     57  C   UNL A   1      42.837  33.374  30.090  1.00  0.00     0.037 A 
ATOM     58  C   UNL A   1      39.330  27.584  30.784  1.00  0.00     0.049 A 
ATOM     59  C   UNL A   1      43.107  31.999  30.565  1.00  0.00     0.074 A 
ATOM     60  C   UNL A   1      38.591  27.575  31.950  1.00  0.00     0.029 A 
ATOM     61  N   UNL A   1      40.603  27.948  31.146  1.00  0.00    -0.354 N 
ATOM     62  N   UNL A   1      42.880  31.593  31.782  1.00  0.00    -0.248 NA
ATOM     63  C   UNL A   1      43.225  30.950  29.566  1.00  0.00     0.031 C 
ATOM     64  C   UNL A   1      39.338  28.371  32.869  1.00  0.00     0.029 A 
ATOM     65  C   UNL A   1      40.527  28.758  32.246  1.00  0.00     0.049 A 
ATOM     66  H   UNL A   1      41.430  27.674  30.690  1.00  0.00     0.167 HD
ATOM     67  C   UNL A   1      42.374  30.313  31.631  1.00  0.00     0.074 A 
ATOM     68  C   UNL A   1      42.720  29.930  30.263  1.00  0.00     0.031 C 
ATOM     69  C   UNL A   1      41.473  29.814  32.527  1.00  0.00     0.037 A 
BRANCH  56  70
ATOM     70  C   UNL A   1      39.818  26.805  28.372  1.00  0.00     0.057 A 
ATOM     71  C   UNL A   1      40.741  27.465  27.537  1.00  0.00     0.134 A 
ATOM     72  C   UNL A   1      39.496  25.490  27.976  1.00  0.00     0.134 A 
ATOM     73  F   UNL A   1      41.125  28.724  27.793  1.00  0.00    -0.206 F 
ATOM     74  C   UNL A   1      41.230  26.894  26.355  1.00  0.00     0.040 A 
ATOM     75  C   UNL A   1      40.019  24.893  26.824  1.00  0.00     0.040 A 
ATOM     76  F   UNL A   1      38.587  24.745  28.612  1.00  0.00    -0.206 F 
ATOM     77  C   UNL A   1      40.860  25.607  25.988  1.00  0.00     0.006 A 
ENDBRANCH  56  70
BRANCH  57  78
ATOM     78  C   UNL A   1      43.900  34.201  29.472  1.00  0.00     0.057 A 
ATOM     79  C   UNL A   1      44.170  34.126  28.097  1.00  0.00     0.134 A 
ATOM     80  C   UNL A   1      44.459  35.298  30.149  1.00  0.00     0.134 A 
ATOM     81  F   UNL A   1      43.652  33.136  27.355  1.00  0.00    -0.206 F 
ATOM     82  C   UNL A   1      44.917  35.104  27.426  1.00  0.00     0.040 A 
ATOM     83  C   UNL A   1      45.210  36.280  29.492  1.00  0.00     0.040 A 
ATOM     84  F   UNL A   1      44.213  35.504  31.452  1.00  0.00    -0.206 F 
ATOM     85  C   UNL A   1      45.427  36.195  28.122  1.00  0.00     0.006 A 
ENDBRANCH  57  78
BRANCH  69  86
ATOM     86  C   UNL A   1      41.305  30.548  33.831  1.00  0.00     0.057 A 
ATOM     87  C   UNL A   1      40.371  31.571  34.062  1.00  0.00     0.134 A 
ATOM     88  C   UNL A   1      42.040  30.106  34.936  1.00  0.00     0.134 A 
ATOM     89  F   UNL A   1      39.557  32.003  33.092  1.00  0.00    -0.206 F 
ATOM     90  C   UNL A   1      40.208  32.151  35.325  1.00  0.00     0.040 A 
ATOM     91  C   UNL A   1      41.863  30.652  36.209  1.00  0.00     0.040 A 
ATOM     92  F   UNL A   1      42.918  29.099  34.803  1.00  0.00    -0.206 F 
ATOM     93  C   UNL A   1      40.951  31.685  36.405  1.00  0.00     0.006 A 
ENDBRANCH  69  86
ENDBRANCH  43  44
ENDBRANCH  35  38
ENDBRANCH  33  34
ENDBRANCH  32  33
ENDBRANCH   1  32
TORSDOF 15
ENDMDL
MODEL 2
REMARK VINA RESULT:     -13.0      3.369      4.735
REMARK SMILES NS(=O)(=O)c1ccc(-n2nc(C(=O)NCCCCNC(=O)c3ccc(-c4c5nc(c(-c6c(F)cccc6F)c6ccc([nH]6)c(-c6c(F)cccc6F)c6nc(c(-c7c(F)cccc7F)c7ccc4[nH]7)C=C6)C=C5)cc3)c(Cl)c2-c2ccc(Cl)cc2)cc1
REMARK SMILES IDX 16 1 15 2 14 3 12 4 13 5 11 7 9 8 10 9 78 10 76 11 77 12
REMARK SMILES IDX 8 13 5 14 6 15 87 16 7 17 86 18 2 19 3 20 4 21 1 22 79 25
REMARK SMILES IDX 80 26 85 27 81 28 84 29 82 30 83 31 17 32 18 33 19 34 20 35
REMARK SMILES IDX 21 37 22 38 23 39 75 40 24 41 74 42 25 43 26 44 27 45 68 46
REMARK SMILES IDX 28 47 73 48 67 49 69 50 29 51 72 52 66 53 65 54 30 56 56 57
REMARK SMILES IDX 39 58 55 59 40 60 43 61 54 62 70 63 41 64 42 65 53 67 71 68
REMARK SMILES IDX 44 69 31 70 32 71 37 72 33 73 34 74 36 75 38 76 35 77 57 78
REMARK SMILES IDX 58 79 63 80 59 81 60 82 62 83 64 84 61 85 45 86 46 87 51 88
REMARK SMILES IDX 47 89 48 90 50 91 52 92 49 93
REMARK H PARENT 14 6 1 23 1 24 19 36 69 55 43 66
REMARK Flexibility Score: inf
ROOT
ATOM      1  C   UNL A   1      32.326  28.941  26.684  1.00  0.00     0.023 C 
ENDROOT
BRANCH   1   2
ATOM      2  C   UNL A   1      32.225  29.103  25.157  1.00  0.00     0.116 C 
BRANCH   2   3
ATOM      3  N   UNL A   1      31.008  28.504  24.629  1.00  0.00    -0.351 N 
ATOM      4  C   UNL A   1      30.663  27.222  24.240  1.00  0.00     0.273 C 
ATOM      5  O   UNL A   1      29.477  27.083  23.921  1.00  0.00    -0.267 OA
ATOM      6  H   UNL A   1      30.272  29.150  24.528  1.00  0.00     0.163 HD
BRANCH   4   7
ATOM      7  C   UNL A   1      31.596  26.071  24.270  1.00  0.00     0.169 A 
ATOM      8  N   UNL A   1      32.177  23.992  24.419  1.00  0.00    -0.231 N 
ATOM      9  N   UNL A   1      31.102  24.807  24.300  1.00  0.00    -0.160 NA
ATOM     10  C   UNL A   1      33.351  24.705  24.541  1.00  0.00     0.094 A 
ATOM     11  C   UNL A   1      33.002  25.990  24.171  1.00  0.00     0.100 A 
ATOM     12  Cl  UNL A   1      34.145  27.117  23.618  1.00  0.00    -0.079 Cl
BRANCH   8  13
ATOM     13  C   UNL A   1      32.079  22.590  24.231  1.00  0.00     0.065 A 
ATOM     14  C   UNL A   1      32.372  19.857  23.790  1.00  0.00     0.082 A 
ATOM     15  C   UNL A   1      32.154  20.714  22.704  1.00  0.00     0.024 A 
ATOM     16  C   UNL A   1      32.398  20.353  25.097  1.00  0.00     0.024 A 
ATOM     17  C   UNL A   1      31.974  22.084  22.927  1.00  0.00     0.030 A 
ATOM     18  C   UNL A   1      32.273  21.726  25.316  1.00  0.00     0.030 A 
BRANCH  14  19
ATOM     19  S   UNL A   1      32.727  18.149  23.490  1.00  0.00     0.238 S 
ATOM     20  O   UNL A   1      34.086  17.877  23.882  1.00  0.00    -0.207 OA
ATOM     21  O   UNL A   1      32.190  17.790  22.196  1.00  0.00    -0.207 OA
BRANCH  19  22
ATOM     22  N   UNL A   1      31.778  17.344  24.626  1.00  0.00    -0.225 NA
ATOM     23  H   UNL A   1      30.857  17.160  24.231  1.00  0.00     0.137 HD
ATOM     24  H   UNL A   1      31.682  17.924  25.460  1.00  0.00     0.137 HD
ENDBRANCH  19  22
ENDBRANCH  14  19
ENDBRANCH   8  13
BRANCH  10  25
ATOM     25  C   UNL A   1      34.716  24.207  24.645  1.00  0.00     0.002 A 
ATOM     26  C   UNL A   1      35.278  23.573  23.527  1.00  0.00     0.012 A 
ATOM     27  C   UNL A   1      35.324  24.079  25.900  1.00  0.00     0.012 A 
ATOM     28  C   UNL A   1      36.400  22.759  23.677  1.00  0.00     0.021 A 
ATOM     29  C   UNL A   1      36.446  23.263  26.046  1.00  0.00     0.021 A 
ATOM     30  C   UNL A   1      36.963  22.589  24.940  1.00  0.00     0.041 A 
ATOM     31  Cl  UNL A   1      38.270  21.491  25.147  1.00  0.00    -0.084 Cl
ENDBRANCH  10  25
ENDBRANCH   4   7
ENDBRANCH   2   3
ENDBRANCH   1   2
BRANCH   1  32
ATOM     32  C   UNL A   1      33.541  28.193  27.235  1.00  0.00     0.023 C 
BRANCH  32  33
ATOM     33  C   UNL A   1      34.854  28.952  27.115  1.00  0.00     0.116 C 
BRANCH  33  34
ATOM     34  N   UNL A   1      35.055  29.950  28.168  1.00  0.00    -0.352 N 
ATOM     35  C   UNL A   1      36.101  30.015  29.070  1.00  0.00     0.251 C 
ATOM     36  H   UNL A   1      34.369  30.653  28.240  1.00  0.00     0.163 HD
ATOM     37  O   UNL A   1      35.997  30.614  30.133  1.00  0.00    -0.269 OA
BRANCH  35  38
ATOM     38  C   UNL A   1      37.365  29.349  28.711  1.00  0.00     0.039 A 
ATOM     39  C   UNL A   1      38.077  29.702  27.563  1.00  0.00     0.014 A 
ATOM     40  C   UNL A   1      37.860  28.403  29.605  1.00  0.00     0.014 A 
ATOM     41  C   UNL A   1      39.346  29.158  27.373  1.00  0.00     0.010 A 
ATOM     42  C   UNL A   1      39.162  27.986  29.494  1.00  0.00     0.010 A 
ATOM     43  C   UNL A   1      39.896  28.324  28.361  1.00  0.00    -0.014 A 
BRANCH  43  44
ATOM     44  C   UNL A   1      41.302  27.928  28.306  1.00  0.00     0.031 A 
ATOM     45  C   UNL A   1      41.538  26.655  27.569  1.00  0.00     0.074 A 
ATOM     46  C   UNL A   1      42.316  28.744  28.675  1.00  0.00     0.049 A 
ATOM     47  N   UNL A   1      41.946  25.530  28.054  1.00  0.00    -0.248 NA
ATOM     48  C   UNL A   1      41.120  26.571  26.157  1.00  0.00     0.031 C 
ATOM     49  C   UNL A   1      42.232  30.140  29.124  1.00  0.00     0.029 A 
ATOM     50  N   UNL A   1      43.661  28.531  28.633  1.00  0.00    -0.354 N 
ATOM     51  C   UNL A   1      42.069  24.667  26.968  1.00  0.00     0.074 A 
ATOM     52  C   UNL A   1      41.360  25.288  25.881  1.00  0.00     0.031 C 
ATOM     53  C   UNL A   1      43.457  30.709  29.083  1.00  0.00     0.029 A 
ATOM     54  C   UNL A   1      44.435  29.681  28.782  1.00  0.00     0.049 A 
ATOM     55  H   UNL A   1      44.055  27.637  28.509  1.00  0.00     0.167 HD
ATOM     56  C   UNL A   1      42.985  23.661  26.983  1.00  0.00     0.037 A 
ATOM     57  C   UNL A   1      45.782  29.785  28.659  1.00  0.00     0.037 A 
ATOM     58  C   UNL A   1      43.439  23.405  28.329  1.00  0.00     0.049 A 
ATOM     59  C   UNL A   1      46.338  28.422  28.809  1.00  0.00     0.074 A 
ATOM     60  C   UNL A   1      42.841  23.023  29.513  1.00  0.00     0.029 A 
ATOM     61  N   UNL A   1      44.659  23.930  28.675  1.00  0.00    -0.354 N 
ATOM     62  N   UNL A   1      46.316  27.748  29.924  1.00  0.00    -0.248 NA
ATOM     63  C   UNL A   1      46.532  27.635  27.603  1.00  0.00     0.031 C 
ATOM     64  C   UNL A   1      43.530  23.751  30.529  1.00  0.00     0.029 A 
ATOM     65  C   UNL A   1      44.559  24.475  29.925  1.00  0.00     0.049 A 
ATOM     66  H   UNL A   1      45.470  23.917  28.117  1.00  0.00     0.167 HD
ATOM     67  C   UNL A   1      46.029  26.449  29.536  1.00  0.00     0.074 A 
ATOM     68  C   UNL A   1      46.291  26.419  28.097  1.00  0.00     0.031 C 
ATOM     69  C   UNL A   1      45.330  25.617  30.362  1.00  0.00     0.037 A 
BRANCH  56  70
ATOM     70  C   UNL A   1      43.799  23.229  25.780  1.00  0.00     0.057 A 
ATOM     71  C   UNL A   1      43.877  21.856  25.469  1.00  0.00     0.134 A 
ATOM     72  C   UNL A   1      44.747  24.038  25.120  1.00  0.00     0.134 A 
ATOM     73  F   UNL A   1      43.041  20.974  26.036  1.00  0.00    -0.206 F 
ATOM     74  C   UNL A   1      44.875  21.326  24.643  1.00  0.00     0.040 A 
ATOM     75  C   UNL A   1      45.716  23.524  24.253  1.00  0.00     0.040 A 
ATOM     76  F   UNL A   1      44.863  25.351  25.350  1.00  0.00    -0.206 F 
ATOM     77  C   UNL A   1      45.807  22.160  24.039  1.00  0.00     0.006 A 
ENDBRANCH  56  70
BRANCH  57  78
ATOM     78  C   UNL A   1      46.612  30.908  28.163  1.00  0.00     0.057 A 
ATOM     79  C   UNL A   1      46.412  31.447  26.883  1.00  0.00     0.134 A 
ATOM     80  C   UNL A   1      47.402  31.674  29.036  1.00  0.00     0.134 A 
ATOM     81  F   UNL A   1      45.643  30.809  25.988  1.00  0.00    -0.206 F 
ATOM     82  C   UNL A   1      46.932  32.693  26.505  1.00  0.00     0.040 A 
ATOM     83  C   UNL A   1      47.931  32.919  28.671  1.00  0.00     0.040 A 
ATOM     84  F   UNL A   1      47.606  31.286  30.303  1.00  0.00    -0.206 F 
ATOM     85  C   UNL A   1      47.682  33.441  27.407  1.00  0.00     0.006 A 
ENDBRANCH  57  78
BRANCH  69  86
ATOM     86  C   UNL A   1      45.174  26.033  31.801  1.00  0.00     0.057 A 
ATOM     87  C   UNL A   1      44.062  26.710  32.326  1.00  0.00     0.134 A 
ATOM     88  C   UNL A   1      46.144  25.611  32.718  1.00  0.00     0.134 A 
ATOM     89  F   UNL A   1      43.038  27.077  31.546  1.00  0.00    -0.206 F 
ATOM     90  C   UNL A   1      43.944  26.988  33.692  1.00  0.00     0.040 A 
ATOM     91  C   UNL A   1      46.021  25.850  34.088  1.00  0.00     0.040 A 
ATOM     92  F   UNL A   1      47.212  24.916  32.297  1.00  0.00    -0.206 F 
ATOM     93  C   UNL A   1      44.923  26.550  34.579  1.00  0.00     0.006 A 
ENDBRANCH  69  86
ENDBRANCH  43  44
ENDBRANCH  35  38
ENDBRANCH  33  34
ENDBRANCH  32  33
ENDBRANCH   1  32
TORSDOF 15
ENDMDL
MODEL 3
REMARK VINA RESULT:     -12.8      2.440      6.179
REMARK SMILES NS(=O)(=O)c1ccc(-n2nc(C(=O)NCCCCNC(=O)c3ccc(-c4c5nc(c(-c6c(F)cccc6F)c6ccc([nH]6)c(-c6c(F)cccc6F)c6nc(c(-c7c(F)cccc7F)c7ccc4[nH]7)C=C6)C=C5)cc3)c(Cl)c2-c2ccc(Cl)cc2)cc1
REMARK SMILES IDX 16 1 15 2 14 3 12 4 13 5 11 7 9 8 10 9 78 10 76 11 77 12
REMARK SMILES IDX 8 13 5 14 6 15 87 16 7 17 86 18 2 19 3 20 4 21 1 22 79 25
REMARK SMILES IDX 80 26 85 27 81 28 84 29 82 30 83 31 17 32 18 33 19 34 20 35
REMARK SMILES IDX 21 37 22 38 23 39 75 40 24 41 74 42 25 43 26 44 27 45 68 46
REMARK SMILES IDX 28 47 73 48 67 49 69 50 29 51 72 52 66 53 65 54 30 56 56 57
REMARK SMILES IDX 39 58 55 59 40 60 43 61 54 62 70 63 41 64 42 65 53 67 71 68
REMARK SMILES IDX 44 69 31 70 32 71 37 72 33 73 34 74 36 75 38 76 35 77 57 78
REMARK SMILES IDX 58 79 63 80 59 81 60 82 62 83 64 84 61 85 45 86 46 87 51 88
REMARK SMILES IDX 47 89 48 90 50 91 52 92 49 93
REMARK H PARENT 14 6 1 23 1 24 19 36 69 55 43 66
REMARK Flexibility Score: inf
ROOT
ATOM      1  C   UNL A   1      32.089  28.923  26.596  1.00  0.00     0.023 C 
ENDROOT
BRANCH   1   2
ATOM      2  C   UNL A   1      32.023  29.300  25.105  1.00  0.00     0.116 C 
BRANCH   2   3
ATOM      3  N   UNL A   1      30.867  28.707  24.448  1.00  0.00    -0.351 N 
ATOM      4  C   UNL A   1      30.572  27.433  23.996  1.00  0.00     0.273 C 
ATOM      5  O   UNL A   1      29.423  27.295  23.562  1.00  0.00    -0.267 OA
ATOM      6  H   UNL A   1      30.138  29.350  24.293  1.00  0.00     0.163 HD
BRANCH   4   7
ATOM      7  C   UNL A   1      31.508  26.288  24.086  1.00  0.00     0.169 A 
ATOM      8  N   UNL A   1      32.098  24.226  24.376  1.00  0.00    -0.231 N 
ATOM      9  N   UNL A   1      31.018  25.029  24.228  1.00  0.00    -0.160 NA
ATOM     10  C   UNL A   1      33.273  24.946  24.409  1.00  0.00     0.094 A 
ATOM     11  C   UNL A   1      32.911  26.199  23.953  1.00  0.00     0.100 A 
ATOM     12  Cl  UNL A   1      34.035  27.280  23.282  1.00  0.00    -0.079 Cl
BRANCH   8  13
ATOM     13  C   UNL A   1      31.997  22.813  24.299  1.00  0.00     0.065 A 
ATOM     14  C   UNL A   1      32.289  20.052  24.107  1.00  0.00     0.082 A 
ATOM     15  C   UNL A   1      32.153  20.817  22.941  1.00  0.00     0.024 A 
ATOM     16  C   UNL A   1      32.233  20.655  25.366  1.00  0.00     0.024 A 
ATOM     17  C   UNL A   1      31.973  22.202  23.037  1.00  0.00     0.030 A 
ATOM     18  C   UNL A   1      32.108  22.043  25.462  1.00  0.00     0.030 A 
BRANCH  14  19
ATOM     19  S   UNL A   1      32.645  18.324  23.974  1.00  0.00     0.238 S 
ATOM     20  O   UNL A   1      31.780  17.597  24.868  1.00  0.00    -0.207 OA
ATOM     21  O   UNL A   1      34.081  18.151  23.949  1.00  0.00    -0.207 OA
BRANCH  19  22
ATOM     22  N   UNL A   1      32.102  17.927  22.429  1.00  0.00    -0.225 NA
ATOM     23  H   UNL A   1      32.824  18.156  21.746  1.00  0.00     0.137 HD
ATOM     24  H   UNL A   1      31.255  18.456  22.220  1.00  0.00     0.137 HD
ENDBRANCH  19  22
ENDBRANCH  14  19
ENDBRANCH   8  13
BRANCH  10  25
ATOM     25  C   UNL A   1      34.642  24.458  24.511  1.00  0.00     0.002 A 
ATOM     26  C   UNL A   1      35.166  23.724  23.437  1.00  0.00     0.012 A 
ATOM     27  C   UNL A   1      35.292  24.443  25.751  1.00  0.00     0.012 A 
ATOM     28  C   UNL A   1      36.294  22.925  23.621  1.00  0.00     0.021 A 
ATOM     29  C   UNL A   1      36.420  23.641  25.932  1.00  0.00     0.021 A 
ATOM     30  C   UNL A   1      36.900  22.869  24.874  1.00  0.00     0.041 A 
ATOM     31  Cl  UNL A   1      38.215  21.793  25.135  1.00  0.00    -0.084 Cl
ENDBRANCH  10  25
ENDBRANCH   4   7
ENDBRANCH   2   3
ENDBRANCH   1   2
BRANCH   1  32
ATOM     32  C   UNL A   1      33.450  28.512  27.160  1.00  0.00     0.023 C 
BRANCH  32  33
ATOM     33  C   UNL A   1      34.585  29.467  26.822  1.00  0.00     0.116 C 
BRANCH  33  34
ATOM     34  N   UNL A   1      34.379  30.827  27.327  1.00  0.00    -0.352 N 
ATOM     35  C   UNL A   1      34.925  31.387  28.467  1.00  0.00     0.251 C 
ATOM     36  H   UNL A   1      33.787  31.405  26.794  1.00  0.00     0.163 HD
ATOM     37  O   UNL A   1      34.412  32.353  29.018  1.00  0.00    -0.269 OA
BRANCH  35  38
ATOM     38  C   UNL A   1      36.163  30.796  29.002  1.00  0.00     0.039 A 
ATOM     39  C   UNL A   1      36.177  29.525  29.579  1.00  0.00     0.014 A 
ATOM     40  C   UNL A   1      37.337  31.529  28.844  1.00  0.00     0.014 A 
ATOM     41  C   UNL A   1      37.407  28.956  29.907  1.00  0.00     0.010 A 
ATOM     42  C   UNL A   1      38.549  30.913  29.028  1.00  0.00     0.010 A 
ATOM     43  C   UNL A   1      38.592  29.645  29.598  1.00  0.00    -0.014 A 
BRANCH  43  44
ATOM     44  C   UNL A   1      39.891  28.984  29.713  1.00  0.00     0.031 A 
ATOM     45  C   UNL A   1      40.412  28.926  31.108  1.00  0.00     0.074 A 
ATOM     46  C   UNL A   1      40.458  28.285  28.703  1.00  0.00     0.049 A 
ATOM     47  N   UNL A   1      41.445  29.535  31.586  1.00  0.00    -0.248 NA
ATOM     48  C   UNL A   1      39.606  28.238  32.133  1.00  0.00     0.031 C 
ATOM     49  C   UNL A   1      39.898  28.004  27.375  1.00  0.00     0.029 A 
ATOM     50  N   UNL A   1      41.627  27.585  28.681  1.00  0.00    -0.354 N 
ATOM     51  C   UNL A   1      41.556  29.117  32.910  1.00  0.00     0.074 A 
ATOM     52  C   UNL A   1      40.301  28.496  33.241  1.00  0.00     0.031 C 
ATOM     53  C   UNL A   1      40.603  27.017  26.779  1.00  0.00     0.029 A 
ATOM     54  C   UNL A   1      41.764  26.721  27.596  1.00  0.00     0.049 A 
ATOM     55  H   UNL A   1      42.319  27.683  29.374  1.00  0.00     0.167 HD
ATOM     56  C   UNL A   1      42.773  29.062  33.519  1.00  0.00     0.037 A 
ATOM     57  C   UNL A   1      42.757  25.820  27.384  1.00  0.00     0.037 A 
ATOM     58  C   UNL A   1      43.745  29.838  32.786  1.00  0.00     0.049 A 
ATOM     59  C   UNL A   1      43.899  26.226  28.234  1.00  0.00     0.074 A 
ATOM     60  C   UNL A   1      43.869  31.163  32.417  1.00  0.00     0.029 A 
ATOM     61  N   UNL A   1      44.606  29.138  31.980  1.00  0.00    -0.354 N 
ATOM     62  N   UNL A   1      44.600  27.306  28.040  1.00  0.00    -0.248 NA
ATOM     63  C   UNL A   1      43.989  25.650  29.564  1.00  0.00     0.031 C 
ATOM     64  C   UNL A   1      44.450  31.132  31.114  1.00  0.00     0.029 A 
ATOM     65  C   UNL A   1      44.721  29.801  30.789  1.00  0.00     0.049 A 
ATOM     66  H   UNL A   1      45.064  28.300  32.217  1.00  0.00     0.167 HD
ATOM     67  C   UNL A   1      44.839  27.796  29.313  1.00  0.00     0.074 A 
ATOM     68  C   UNL A   1      44.544  26.679  30.209  1.00  0.00     0.031 C 
ATOM     69  C   UNL A   1      44.964  29.139  29.527  1.00  0.00     0.037 A 
BRANCH  56  70
ATOM     70  C   UNL A   1      43.197  27.972  34.483  1.00  0.00     0.057 A 
ATOM     71  C   UNL A   1      43.205  26.635  34.037  1.00  0.00     0.134 A 
ATOM     72  C   UNL A   1      43.283  28.129  35.882  1.00  0.00     0.134 A 
ATOM     73  F   UNL A   1      43.116  26.345  32.731  1.00  0.00    -0.206 F 
ATOM     74  C   UNL A   1      43.206  25.547  34.919  1.00  0.00     0.040 A 
ATOM     75  C   UNL A   1      43.336  27.048  36.768  1.00  0.00     0.040 A 
ATOM     76  F   UNL A   1      43.218  29.322  36.482  1.00  0.00    -0.206 F 
ATOM     77  C   UNL A   1      43.261  25.751  36.291  1.00  0.00     0.006 A 
ENDBRANCH  56  70
BRANCH  57  78
ATOM     78  C   UNL A   1      42.719  24.496  26.720  1.00  0.00     0.057 A 
ATOM     79  C   UNL A   1      43.369  24.279  25.496  1.00  0.00     0.134 A 
ATOM     80  C   UNL A   1      42.313  23.343  27.413  1.00  0.00     0.134 A 
ATOM     81  F   UNL A   1      43.827  25.314  24.776  1.00  0.00    -0.206 F 
ATOM     82  C   UNL A   1      43.637  22.993  25.007  1.00  0.00     0.040 A 
ATOM     83  C   UNL A   1      42.570  22.052  26.935  1.00  0.00     0.040 A 
ATOM     84  F   UNL A   1      41.739  23.429  28.622  1.00  0.00    -0.206 F 
ATOM     85  C   UNL A   1      43.251  21.873  25.736  1.00  0.00     0.006 A 
ENDBRANCH  57  78
BRANCH  69  86
ATOM     86  C   UNL A   1      45.163  30.022  28.323  1.00  0.00     0.057 A 
ATOM     87  C   UNL A   1      44.130  30.636  27.598  1.00  0.00     0.134 A 
ATOM     88  C   UNL A   1      46.472  30.363  27.965  1.00  0.00     0.134 A 
ATOM     89  F   UNL A   1      42.844  30.445  27.918  1.00  0.00    -0.206 F 
ATOM     90  C   UNL A   1      44.391  31.516  26.541  1.00  0.00     0.040 A 
ATOM     91  C   UNL A   1      46.747  31.267  26.937  1.00  0.00     0.040 A 
ATOM     92  F   UNL A   1      47.511  29.853  28.644  1.00  0.00    -0.206 F 
ATOM     93  C   UNL A   1      45.704  31.839  26.213  1.00  0.00     0.006 A 
ENDBRANCH  69  86
ENDBRANCH  43  44
ENDBRANCH  35  38
ENDBRANCH  33  34
ENDBRANCH  32  33
ENDBRANCH   1  32
TORSDOF 15
ENDMDL
