MODEL 1
REMARK VINA RESULT:     -10.8      0.000      0.000
REMARK SMILES C[NH2+]C[C@H](C)C(=O)N[C@H](Cc1ccccc1)C(=O)NCCCCNC(=O)c1ccc(-c2c3nc(c(-c4c(F)cccc4F)c4ccc([nH]4)c(-c4c(F)cccc4F)c4nc(c(-c5c(F)cccc5F)c5ccc2[nH]5)C=C4)C=C3)cc1
REMARK SMILES IDX 20 1 19 2 17 3 18 4 9 6 8 7 6 8 7 9 4 11 5 12 3 13 2 14 1 15
REMARK SMILES IDX 10 18 11 19 12 20 16 21 13 22 15 23 14 24 21 25 22 26 23 27
REMARK SMILES IDX 24 28 25 29 26 31 27 32 28 33 80 34 29 35 79 36 30 37 31 38
REMARK SMILES IDX 32 39 73 40 33 41 78 42 72 43 74 44 34 45 77 46 71 47 70 48
REMARK SMILES IDX 35 50 61 51 44 52 60 53 45 54 48 55 59 56 75 57 46 58 47 59
REMARK SMILES IDX 58 61 76 62 49 63 36 64 37 65 42 66 38 67 39 68 41 69 43 70
REMARK SMILES IDX 40 71 62 72 63 73 68 74 64 75 65 76 67 77 69 78 66 79 50 80
REMARK SMILES IDX 51 81 56 82 52 83 53 84 55 85 57 86 54 87
REMARK H PARENT 19 5 8 10 2 16 2 17 24 30 74 49 48 60
REMARK Flexibility Score: inf
ROOT
ATOM      1  C   UNL A   1      35.282  21.979  24.251  1.00  0.00     0.116 C 
ENDROOT
BRANCH   1   2
ATOM      2  N   UNL A   1      33.872  21.950  24.573  1.00  0.00    -0.354 N 
ATOM      3  C   UNL A   1      32.928  22.935  24.535  1.00  0.00     0.242 C 
ATOM      4  O   UNL A   1      31.752  22.552  24.594  1.00  0.00    -0.273 OA
ATOM      5  H   UNL A   1      33.538  21.073  24.869  1.00  0.00     0.163 HD
BRANCH   3   6
ATOM      6  C   UNL A   1      33.234  24.450  24.401  1.00  0.00     0.175 C 
BRANCH   6   7
ATOM      7  N   UNL A   1      33.544  24.980  23.047  1.00  0.00    -0.344 N 
ATOM      8  C   UNL A   1      33.338  26.096  22.318  1.00  0.00     0.229 C 
ATOM      9  O   UNL A   1      33.430  25.950  21.090  1.00  0.00    -0.275 OA
ATOM     10  H   UNL A   1      34.054  24.317  22.526  1.00  0.00     0.164 HD
BRANCH   8  11
ATOM     11  C   UNL A   1      33.060  27.489  22.856  1.00  0.00     0.130 C 
ATOM     12  C   UNL A   1      34.085  28.494  22.350  1.00  0.00     0.024 C 
BRANCH  11  13
ATOM     13  C   UNL A   1      31.598  27.937  22.719  1.00  0.00     0.273 C 
BRANCH  13  14
ATOM     14  N   UNL A   1      31.367  29.355  22.997  1.00  0.00    -0.348 N 
ATOM     15  C   UNL A   1      30.023  29.639  23.463  1.00  0.00     0.330 C 
ATOM     16  H   UNL A   1      32.029  29.656  23.713  1.00  0.00     0.346 HD
ATOM     17  H   UNL A   1      31.494  29.859  22.119  1.00  0.00     0.346 HD
ENDBRANCH  13  14
ENDBRANCH  11  13
ENDBRANCH   8  11
ENDBRANCH   6   7
BRANCH   6  18
ATOM     18  C   UNL A   1      33.968  25.225  25.510  1.00  0.00     0.070 C 
BRANCH  18  19
ATOM     19  C   UNL A   1      33.292  26.449  26.112  1.00  0.00    -0.045 A 
ATOM     20  C   UNL A   1      33.957  27.642  26.428  1.00  0.00     0.004 A 
ATOM     21  C   UNL A   1      31.900  26.412  26.310  1.00  0.00     0.004 A 
ATOM     22  C   UNL A   1      33.268  28.751  26.928  1.00  0.00     0.000 A 
ATOM     23  C   UNL A   1      31.211  27.518  26.817  1.00  0.00     0.000 A 
ATOM     24  C   UNL A   1      31.894  28.689  27.124  1.00  0.00     0.000 A 
ENDBRANCH  18  19
ENDBRANCH   6  18
ENDBRANCH   3   6
ENDBRANCH   1   2
BRANCH   1  25
ATOM     25  C   UNL A   1      36.215  21.530  25.366  1.00  0.00     0.023 C 
BRANCH  25  26
ATOM     26  C   UNL A   1      37.436  20.714  24.948  1.00  0.00     0.023 C 
BRANCH  26  27
ATOM     27  C   UNL A   1      38.718  20.929  25.748  1.00  0.00     0.116 C 
BRANCH  27  28
ATOM     28  N   UNL A   1      39.679  19.838  25.651  1.00  0.00    -0.352 N 
ATOM     29  C   UNL A   1      41.010  19.787  25.997  1.00  0.00     0.251 C 
ATOM     30  H   UNL A   1      39.317  19.001  25.278  1.00  0.00     0.163 HD
ATOM     31  O   UNL A   1      41.658  18.767  25.781  1.00  0.00    -0.269 OA
BRANCH  29  32
ATOM     32  C   UNL A   1      41.681  20.978  26.561  1.00  0.00     0.039 A 
ATOM     33  C   UNL A   1      42.268  21.893  25.683  1.00  0.00     0.014 A 
ATOM     34  C   UNL A   1      41.687  21.225  27.934  1.00  0.00     0.014 A 
ATOM     35  C   UNL A   1      42.739  23.114  26.171  1.00  0.00     0.010 A 
ATOM     36  C   UNL A   1      42.070  22.478  28.405  1.00  0.00     0.010 A 
ATOM     37  C   UNL A   1      42.575  23.448  27.525  1.00  0.00    -0.014 A 
BRANCH  37  38
ATOM     38  C   UNL A   1      42.866  24.818  28.025  1.00  0.00     0.031 A 
ATOM     39  C   UNL A   1      44.261  25.205  28.432  1.00  0.00     0.074 A 
ATOM     40  C   UNL A   1      41.851  25.690  28.199  1.00  0.00     0.049 A 
ATOM     41  N   UNL A   1      44.684  26.320  28.973  1.00  0.00    -0.248 NA
ATOM     42  C   UNL A   1      45.314  24.198  28.234  1.00  0.00     0.031 C 
ATOM     43  C   UNL A   1      40.442  25.422  27.904  1.00  0.00     0.029 A 
ATOM     44  N   UNL A   1      41.846  26.976  28.681  1.00  0.00    -0.354 N 
ATOM     45  C   UNL A   1      46.043  26.142  29.194  1.00  0.00     0.074 A 
ATOM     46  C   UNL A   1      46.365  24.794  28.775  1.00  0.00     0.031 C 
ATOM     47  C   UNL A   1      39.715  26.516  28.184  1.00  0.00     0.029 A 
ATOM     48  C   UNL A   1      40.596  27.547  28.720  1.00  0.00     0.049 A 
ATOM     49  H   UNL A   1      42.662  27.445  28.972  1.00  0.00     0.167 HD
ATOM     50  C   UNL A   1      46.947  27.027  29.679  1.00  0.00     0.037 A 
ATOM     51  C   UNL A   1      40.200  28.762  29.146  1.00  0.00     0.037 A 
ATOM     52  C   UNL A   1      46.633  28.377  30.069  1.00  0.00     0.049 A 
ATOM     53  C   UNL A   1      41.225  29.726  29.678  1.00  0.00     0.074 A 
ATOM     54  C   UNL A   1      47.494  29.368  30.508  1.00  0.00     0.029 A 
ATOM     55  N   UNL A   1      45.360  28.926  30.067  1.00  0.00    -0.354 N 
ATOM     56  N   UNL A   1      42.519  29.567  29.810  1.00  0.00    -0.248 NA
ATOM     57  C   UNL A   1      40.733  31.040  30.116  1.00  0.00     0.031 C 
ATOM     58  C   UNL A   1      46.736  30.504  30.812  1.00  0.00     0.029 A 
ATOM     59  C   UNL A   1      45.410  30.235  30.517  1.00  0.00     0.049 A 
ATOM     60  H   UNL A   1      44.542  28.454  29.788  1.00  0.00     0.167 HD
ATOM     61  C   UNL A   1      42.999  30.767  30.317  1.00  0.00     0.074 A 
ATOM     62  C   UNL A   1      41.859  31.650  30.455  1.00  0.00     0.031 C 
ATOM     63  C   UNL A   1      44.270  31.107  30.639  1.00  0.00     0.037 A 
BRANCH  50  64
ATOM     64  C   UNL A   1      48.368  26.566  29.808  1.00  0.00     0.057 A 
ATOM     65  C   UNL A   1      49.313  26.798  28.799  1.00  0.00     0.134 A 
ATOM     66  C   UNL A   1      48.811  25.923  30.971  1.00  0.00     0.134 A 
ATOM     67  F   UNL A   1      48.951  27.400  27.656  1.00  0.00    -0.206 F 
ATOM     68  C   UNL A   1      50.640  26.388  28.932  1.00  0.00     0.040 A 
ATOM     69  C   UNL A   1      50.142  25.531  31.126  1.00  0.00     0.040 A 
ATOM     70  F   UNL A   1      47.960  25.675  31.979  1.00  0.00    -0.206 F 
ATOM     71  C   UNL A   1      51.059  25.758  30.102  1.00  0.00     0.006 A 
ENDBRANCH  50  64
BRANCH  51  72
ATOM     72  C   UNL A   1      38.769  29.151  29.071  1.00  0.00     0.057 A 
ATOM     73  C   UNL A   1      37.942  29.076  30.198  1.00  0.00     0.134 A 
ATOM     74  C   UNL A   1      38.188  29.585  27.873  1.00  0.00     0.134 A 
ATOM     75  F   UNL A   1      38.436  28.649  31.370  1.00  0.00    -0.206 F 
ATOM     76  C   UNL A   1      36.584  29.393  30.133  1.00  0.00     0.040 A 
ATOM     77  C   UNL A   1      36.838  29.931  27.799  1.00  0.00     0.040 A 
ATOM     78  F   UNL A   1      38.928  29.687  26.759  1.00  0.00    -0.206 F 
ATOM     79  C   UNL A   1      36.030  29.827  28.931  1.00  0.00     0.006 A 
ENDBRANCH  51  72
BRANCH  63  80
ATOM     80  C   UNL A   1      44.504  32.504  31.134  1.00  0.00     0.057 A 
ATOM     81  C   UNL A   1      44.760  33.567  30.257  1.00  0.00     0.134 A 
ATOM     82  C   UNL A   1      44.437  32.795  32.502  1.00  0.00     0.134 A 
ATOM     83  F   UNL A   1      44.851  33.351  28.936  1.00  0.00    -0.206 F 
ATOM     84  C   UNL A   1      44.960  34.865  30.727  1.00  0.00     0.040 A 
ATOM     85  C   UNL A   1      44.609  34.094  32.981  1.00  0.00     0.040 A 
ATOM     86  F   UNL A   1      44.187  31.824  33.394  1.00  0.00    -0.206 F 
ATOM     87  C   UNL A   1      44.878  35.133  32.092  1.00  0.00     0.006 A 
ENDBRANCH  63  80
ENDBRANCH  37  38
ENDBRANCH  29  32
ENDBRANCH  27  28
ENDBRANCH  26  27
ENDBRANCH  25  26
ENDBRANCH   1  25
TORSDOF 17
ENDMDL
MODEL 2
REMARK VINA RESULT:     -10.8      1.626      3.722
REMARK SMILES C[NH2+]C[C@H](C)C(=O)N[C@H](Cc1ccccc1)C(=O)NCCCCNC(=O)c1ccc(-c2c3nc(c(-c4c(F)cccc4F)c4ccc([nH]4)c(-c4c(F)cccc4F)c4nc(c(-c5c(F)cccc5F)c5ccc2[nH]5)C=C4)C=C3)cc1
REMARK SMILES IDX 20 1 19 2 17 3 18 4 9 6 8 7 6 8 7 9 4 11 5 12 3 13 2 14 1 15
REMARK SMILES IDX 10 18 11 19 12 20 16 21 13 22 15 23 14 24 21 25 22 26 23 27
REMARK SMILES IDX 24 28 25 29 26 31 27 32 28 33 80 34 29 35 79 36 30 37 31 38
REMARK SMILES IDX 32 39 73 40 33 41 78 42 72 43 74 44 34 45 77 46 71 47 70 48
REMARK SMILES IDX 35 50 61 51 44 52 60 53 45 54 48 55 59 56 75 57 46 58 47 59
REMARK SMILES IDX 58 61 76 62 49 63 36 64 37 65 42 66 38 67 39 68 41 69 43 70
REMARK SMILES IDX 40 71 62 72 63 73 68 74 64 75 65 76 67 77 69 78 66 79 50 80
REMARK SMILES IDX 51 81 56 82 52 83 53 84 55 85 57 86 54 87
REMARK H PARENT 19 5 8 10 2 16 2 17 24 30 74 49 48 60
REMARK Flexibility Score: inf
ROOT
ATOM      1  C   UNL A   1      36.694  23.001  25.464  1.00  0.00     0.116 C 
ENDROOT
BRANCH   1   2
ATOM      2  N   UNL A   1      35.792  22.569  26.509  1.00  0.00    -0.354 N 
ATOM      3  C   UNL A   1      34.578  21.948  26.439  1.00  0.00     0.242 C 
ATOM      4  O   UNL A   1      34.171  21.449  27.497  1.00  0.00    -0.273 OA
ATOM      5  H   UNL A   1      36.106  22.753  27.423  1.00  0.00     0.163 HD
BRANCH   3   6
ATOM      6  C   UNL A   1      33.725  21.816  25.151  1.00  0.00     0.175 C 
BRANCH   6   7
ATOM      7  N   UNL A   1      33.339  23.064  24.440  1.00  0.00    -0.344 N 
ATOM      8  C   UNL A   1      32.620  24.183  24.665  1.00  0.00     0.229 C 
ATOM      9  O   UNL A   1      32.236  24.777  23.647  1.00  0.00    -0.275 OA
ATOM     10  H   UNL A   1      33.723  23.077  23.534  1.00  0.00     0.164 HD
BRANCH   8  11
ATOM     11  C   UNL A   1      32.291  24.791  26.018  1.00  0.00     0.130 C 
ATOM     12  C   UNL A   1      31.787  26.220  25.876  1.00  0.00     0.024 C 
BRANCH  11  13
ATOM     13  C   UNL A   1      31.433  23.892  26.920  1.00  0.00     0.273 C 
BRANCH  13  14
ATOM     14  N   UNL A   1      30.169  23.460  26.322  1.00  0.00    -0.348 N 
ATOM     15  C   UNL A   1      29.343  22.679  27.223  1.00  0.00     0.330 C 
ATOM     16  H   UNL A   1      29.645  24.289  26.038  1.00  0.00     0.346 HD
ATOM     17  H   UNL A   1      30.400  22.860  25.529  1.00  0.00     0.346 HD
ENDBRANCH  13  14
ENDBRANCH  11  13
ENDBRANCH   8  11
ENDBRANCH   6   7
BRANCH   6  18
ATOM     18  C   UNL A   1      32.666  20.708  24.996  1.00  0.00     0.070 C 
BRANCH  18  19
ATOM     19  C   UNL A   1      33.074  19.401  24.331  1.00  0.00    -0.045 A 
ATOM     20  C   UNL A   1      32.369  18.798  23.279  1.00  0.00     0.004 A 
ATOM     21  C   UNL A   1      34.265  18.783  24.750  1.00  0.00     0.004 A 
ATOM     22  C   UNL A   1      32.827  17.623  22.674  1.00  0.00     0.000 A 
ATOM     23  C   UNL A   1      34.720  17.605  24.151  1.00  0.00     0.000 A 
ATOM     24  C   UNL A   1      34.002  17.025  23.110  1.00  0.00     0.000 A 
ENDBRANCH  18  19
ENDBRANCH   6  18
ENDBRANCH   3   6
ENDBRANCH   1   2
BRANCH   1  25
ATOM     25  C   UNL A   1      36.979  21.968  24.382  1.00  0.00     0.023 C 
BRANCH  25  26
ATOM     26  C   UNL A   1      37.671  20.683  24.830  1.00  0.00     0.023 C 
BRANCH  26  27
ATOM     27  C   UNL A   1      38.851  20.829  25.786  1.00  0.00     0.116 C 
BRANCH  27  28
ATOM     28  N   UNL A   1      39.828  19.752  25.707  1.00  0.00    -0.352 N 
ATOM     29  C   UNL A   1      41.160  19.728  26.051  1.00  0.00     0.251 C 
ATOM     30  H   UNL A   1      39.478  18.903  25.350  1.00  0.00     0.163 HD
ATOM     31  O   UNL A   1      41.824  18.714  25.854  1.00  0.00    -0.269 OA
BRANCH  29  32
ATOM     32  C   UNL A   1      41.814  20.939  26.592  1.00  0.00     0.039 A 
ATOM     33  C   UNL A   1      42.330  21.878  25.695  1.00  0.00     0.014 A 
ATOM     34  C   UNL A   1      41.873  21.180  27.965  1.00  0.00     0.014 A 
ATOM     35  C   UNL A   1      42.780  23.112  26.168  1.00  0.00     0.010 A 
ATOM     36  C   UNL A   1      42.232  22.445  28.426  1.00  0.00     0.010 A 
ATOM     37  C   UNL A   1      42.664  23.434  27.530  1.00  0.00    -0.014 A 
BRANCH  37  38
ATOM     38  C   UNL A   1      42.929  24.812  28.024  1.00  0.00     0.031 A 
ATOM     39  C   UNL A   1      44.315  25.224  28.437  1.00  0.00     0.074 A 
ATOM     40  C   UNL A   1      41.899  25.667  28.189  1.00  0.00     0.049 A 
ATOM     41  N   UNL A   1      44.716  26.350  28.974  1.00  0.00    -0.248 NA
ATOM     42  C   UNL A   1      45.386  24.234  28.249  1.00  0.00     0.031 C 
ATOM     43  C   UNL A   1      40.496  25.375  27.887  1.00  0.00     0.029 A 
ATOM     44  N   UNL A   1      41.870  26.956  28.663  1.00  0.00    -0.354 N 
ATOM     45  C   UNL A   1      46.077  26.195  29.203  1.00  0.00     0.074 A 
ATOM     46  C   UNL A   1      46.424  24.851  28.793  1.00  0.00     0.031 C 
ATOM     47  C   UNL A   1      39.750  26.457  28.158  1.00  0.00     0.029 A 
ATOM     48  C   UNL A   1      40.610  27.506  28.692  1.00  0.00     0.049 A 
ATOM     49  H   UNL A   1      42.675  27.440  28.956  1.00  0.00     0.167 HD
ATOM     50  C   UNL A   1      46.963  27.098  29.689  1.00  0.00     0.037 A 
ATOM     51  C   UNL A   1      40.191  28.716  29.111  1.00  0.00     0.037 A 
ATOM     52  C   UNL A   1      46.625  28.444  30.070  1.00  0.00     0.049 A 
ATOM     53  C   UNL A   1      41.196  29.700  29.642  1.00  0.00     0.074 A 
ATOM     54  C   UNL A   1      47.466  29.452  30.508  1.00  0.00     0.029 A 
ATOM     55  N   UNL A   1      45.342  28.972  30.057  1.00  0.00    -0.354 N 
ATOM     56  N   UNL A   1      42.492  29.563  29.782  1.00  0.00    -0.248 NA
ATOM     57  C   UNL A   1      40.680  31.008  30.072  1.00  0.00     0.031 C 
ATOM     58  C   UNL A   1      46.687  30.577  30.802  1.00  0.00     0.029 A 
ATOM     59  C   UNL A   1      45.368  30.284  30.501  1.00  0.00     0.049 A 
ATOM     60  H   UNL A   1      44.534  28.485  29.777  1.00  0.00     0.167 HD
ATOM     61  C   UNL A   1      42.950  30.774  30.285  1.00  0.00     0.074 A 
ATOM     62  C   UNL A   1      41.794  31.638  30.413  1.00  0.00     0.031 C 
ATOM     63  C   UNL A   1      44.213  31.137  30.613  1.00  0.00     0.037 A 
BRANCH  50  64
ATOM     64  C   UNL A   1      48.392  26.662  29.827  1.00  0.00     0.057 A 
ATOM     65  C   UNL A   1      48.850  25.990  30.969  1.00  0.00     0.134 A 
ATOM     66  C   UNL A   1      49.310  26.874  28.790  1.00  0.00     0.134 A 
ATOM     67  F   UNL A   1      48.024  25.765  32.001  1.00  0.00    -0.206 F 
ATOM     68  C   UNL A   1      50.175  25.566  31.084  1.00  0.00     0.040 A 
ATOM     69  C   UNL A   1      50.630  26.431  28.884  1.00  0.00     0.040 A 
ATOM     70  F   UNL A   1      48.935  27.504  27.667  1.00  0.00    -0.206 F 
ATOM     71  C   UNL A   1      51.067  25.780  30.035  1.00  0.00     0.006 A 
ENDBRANCH  50  64
BRANCH  51  72
ATOM     72  C   UNL A   1      38.754  29.081  29.026  1.00  0.00     0.057 A 
ATOM     73  C   UNL A   1      38.197  29.541  27.828  1.00  0.00     0.134 A 
ATOM     74  C   UNL A   1      37.909  28.999  30.140  1.00  0.00     0.134 A 
ATOM     75  F   UNL A   1      38.960  29.659  26.730  1.00  0.00    -0.206 F 
ATOM     76  C   UNL A   1      36.859  29.931  27.743  1.00  0.00     0.040 A 
ATOM     77  C   UNL A   1      36.563  29.361  30.064  1.00  0.00     0.040 A 
ATOM     78  F   UNL A   1      38.379  28.558  31.316  1.00  0.00    -0.206 F 
ATOM     79  C   UNL A   1      36.038  29.836  28.864  1.00  0.00     0.006 A 
ENDBRANCH  51  72
BRANCH  63  80
ATOM     80  C   UNL A   1      44.421  32.540  31.102  1.00  0.00     0.057 A 
ATOM     81  C   UNL A   1      44.395  32.860  32.465  1.00  0.00     0.134 A 
ATOM     82  C   UNL A   1      44.687  33.577  30.199  1.00  0.00     0.134 A 
ATOM     83  F   UNL A   1      44.131  31.916  33.381  1.00  0.00    -0.206 F 
ATOM     84  C   UNL A   1      44.606  34.166  32.911  1.00  0.00     0.040 A 
ATOM     85  C   UNL A   1      44.925  34.881  30.634  1.00  0.00     0.040 A 
ATOM     86  F   UNL A   1      44.734  33.336  28.879  1.00  0.00    -0.206 F 
ATOM     87  C   UNL A   1      44.879  35.180  31.994  1.00  0.00     0.006 A 
ENDBRANCH  63  80
ENDBRANCH  37  38
ENDBRANCH  29  32
ENDBRANCH  27  28
ENDBRANCH  26  27
ENDBRANCH  25  26
ENDBRANCH   1  25
TORSDOF 17
ENDMDL
MODEL 3
REMARK VINA RESULT:     -10.7      4.035      7.417
REMARK SMILES C[NH2+]C[C@H](C)C(=O)N[C@H](Cc1ccccc1)C(=O)NCCCCNC(=O)c1ccc(-c2c3nc(c(-c4c(F)cccc4F)c4ccc([nH]4)c(-c4c(F)cccc4F)c4nc(c(-c5c(F)cccc5F)c5ccc2[nH]5)C=C4)C=C3)cc1
REMARK SMILES IDX 20 1 19 2 17 3 18 4 9 6 8 7 6 8 7 9 4 11 5 12 3 13 2 14 1 15
REMARK SMILES IDX 10 18 11 19 12 20 16 21 13 22 15 23 14 24 21 25 22 26 23 27
REMARK SMILES IDX 24 28 25 29 26 31 27 32 28 33 80 34 29 35 79 36 30 37 31 38
REMARK SMILES IDX 32 39 73 40 33 41 78 42 72 43 74 44 34 45 77 46 71 47 70 48
REMARK SMILES IDX 35 50 61 51 44 52 60 53 45 54 48 55 59 56 75 57 46 58 47 59
REMARK SMILES IDX 58 61 76 62 49 63 36 64 37 65 42 66 38 67 39 68 41 69 43 70
REMARK SMILES IDX 40 71 62 72 63 73 68 74 64 75 65 76 67 77 69 78 66 79 50 80
REMARK SMILES IDX 51 81 56 82 52 83 53 84 55 85 57 86 54 87
REMARK H PARENT 19 5 8 10 2 16 2 17 24 30 74 49 48 60
REMARK Flexibility Score: inf
ROOT
ATOM      1  C   UNL A   1      45.650  23.125  25.506  1.00  0.00     0.116 C 
ENDROOT
BRANCH   1   2
ATOM      2  N   UNL A   1      46.848  23.735  26.040  1.00  0.00    -0.354 N 
ATOM      3  C   UNL A   1      47.155  25.045  26.272  1.00  0.00     0.242 C 
ATOM      4  O   UNL A   1      48.140  25.244  26.995  1.00  0.00    -0.273 OA
ATOM      5  H   UNL A   1      47.560  23.099  26.278  1.00  0.00     0.163 HD
BRANCH   3   6
ATOM      6  C   UNL A   1      46.353  26.252  25.720  1.00  0.00     0.175 C 
BRANCH   6   7
ATOM      7  N   UNL A   1      46.755  26.812  24.402  1.00  0.00    -0.344 N 
ATOM      8  C   UNL A   1      47.845  27.345  23.812  1.00  0.00     0.229 C 
ATOM      9  O   UNL A   1      47.615  28.045  22.815  1.00  0.00    -0.275 OA
ATOM     10  H   UNL A   1      45.999  26.784  23.772  1.00  0.00     0.164 HD
BRANCH   8  11
ATOM     11  C   UNL A   1      49.292  27.128  24.220  1.00  0.00     0.130 C 
ATOM     12  C   UNL A   1      50.224  27.202  23.018  1.00  0.00     0.024 C 
BRANCH  11  13
ATOM     13  C   UNL A   1      49.737  27.961  25.430  1.00  0.00     0.273 C 
BRANCH  13  14
ATOM     14  N   UNL A   1      50.338  27.185  26.515  1.00  0.00    -0.348 N 
ATOM     15  C   UNL A   1      51.782  27.078  26.416  1.00  0.00     0.330 C 
ATOM     16  H   UNL A   1      50.108  27.635  27.402  1.00  0.00     0.346 HD
ATOM     17  H   UNL A   1      49.961  26.239  26.454  1.00  0.00     0.346 HD
ENDBRANCH  13  14
ENDBRANCH  11  13
ENDBRANCH   8  11
ENDBRANCH   6   7
BRANCH   6  18
ATOM     18  C   UNL A   1      45.773  27.329  26.655  1.00  0.00     0.070 C 
BRANCH  18  19
ATOM     19  C   UNL A   1      44.350  27.813  26.413  1.00  0.00    -0.045 A 
ATOM     20  C   UNL A   1      43.820  28.998  26.942  1.00  0.00     0.004 A 
ATOM     21  C   UNL A   1      43.528  27.063  25.555  1.00  0.00     0.004 A 
ATOM     22  C   UNL A   1      42.521  29.416  26.637  1.00  0.00     0.000 A 
ATOM     23  C   UNL A   1      42.226  27.475  25.254  1.00  0.00     0.000 A 
ATOM     24  C   UNL A   1      41.722  28.654  25.793  1.00  0.00     0.000 A 
ENDBRANCH  18  19
ENDBRANCH   6  18
ENDBRANCH   3   6
ENDBRANCH   1   2
BRANCH   1  25
ATOM     25  C   UNL A   1      45.844  22.317  24.230  1.00  0.00     0.023 C 
BRANCH  25  26
ATOM     26  C   UNL A   1      44.947  21.095  24.053  1.00  0.00     0.023 C 
BRANCH  26  27
ATOM     27  C   UNL A   1      44.770  20.185  25.265  1.00  0.00     0.116 C 
BRANCH  27  28
ATOM     28  N   UNL A   1      43.510  19.455  25.293  1.00  0.00    -0.352 N 
ATOM     29  C   UNL A   1      42.278  19.820  25.787  1.00  0.00     0.251 C 
ATOM     30  H   UNL A   1      43.545  18.555  24.894  1.00  0.00     0.163 HD
ATOM     31  O   UNL A   1      41.346  19.022  25.754  1.00  0.00    -0.269 OA
BRANCH  29  32
ATOM     32  C   UNL A   1      42.089  21.143  26.420  1.00  0.00     0.039 A 
ATOM     33  C   UNL A   1      42.011  21.211  27.814  1.00  0.00     0.014 A 
ATOM     34  C   UNL A   1      42.044  22.312  25.660  1.00  0.00     0.014 A 
ATOM     35  C   UNL A   1      42.024  22.457  28.446  1.00  0.00     0.010 A 
ATOM     36  C   UNL A   1      42.152  23.548  26.293  1.00  0.00     0.010 A 
ATOM     37  C   UNL A   1      42.171  23.633  27.693  1.00  0.00    -0.014 A 
BRANCH  37  38
ATOM     38  C   UNL A   1      42.406  24.947  28.350  1.00  0.00     0.031 A 
ATOM     39  C   UNL A   1      43.726  25.251  29.005  1.00  0.00     0.074 A 
ATOM     40  C   UNL A   1      41.394  25.834  28.438  1.00  0.00     0.049 A 
ATOM     41  N   UNL A   1      44.079  26.303  29.701  1.00  0.00    -0.248 NA
ATOM     42  C   UNL A   1      44.776  24.229  28.887  1.00  0.00     0.031 C 
ATOM     43  C   UNL A   1      40.045  25.640  27.901  1.00  0.00     0.029 A 
ATOM     44  N   UNL A   1      41.338  27.076  29.023  1.00  0.00    -0.354 N 
ATOM     45  C   UNL A   1      45.381  26.061  30.117  1.00  0.00     0.074 A 
ATOM     46  C   UNL A   1      45.739  24.743  29.638  1.00  0.00     0.031 C 
ATOM     47  C   UNL A   1      39.306  26.730  28.158  1.00  0.00     0.029 A 
ATOM     48  C   UNL A   1      40.110  27.684  28.913  1.00  0.00     0.049 A 
ATOM     49  H   UNL A   1      42.106  27.491  29.478  1.00  0.00     0.167 HD
ATOM     50  C   UNL A   1      46.213  26.872  30.814  1.00  0.00     0.037 A 
ATOM     51  C   UNL A   1      39.675  28.872  29.377  1.00  0.00     0.037 A 
ATOM     52  C   UNL A   1      45.868  28.194  31.266  1.00  0.00     0.049 A 
ATOM     53  C   UNL A   1      40.620  29.753  30.145  1.00  0.00     0.074 A 
ATOM     54  C   UNL A   1      46.667  29.116  31.920  1.00  0.00     0.029 A 
ATOM     55  N   UNL A   1      44.623  28.784  31.110  1.00  0.00    -0.354 N 
ATOM     56  N   UNL A   1      41.873  29.540  30.466  1.00  0.00    -0.248 NA
ATOM     57  C   UNL A   1      40.091  31.042  30.614  1.00  0.00     0.031 C 
ATOM     58  C   UNL A   1      45.893  30.248  32.198  1.00  0.00     0.029 A 
ATOM     59  C   UNL A   1      44.627  30.049  31.676  1.00  0.00     0.049 A 
ATOM     60  H   UNL A   1      43.851  28.365  30.666  1.00  0.00     0.167 HD
ATOM     61  C   UNL A   1      42.290  30.677  31.145  1.00  0.00     0.074 A 
ATOM     62  C   UNL A   1      41.160  31.583  31.178  1.00  0.00     0.031 C 
ATOM     63  C   UNL A   1      43.500  30.946  31.692  1.00  0.00     0.037 A 
BRANCH  50  64
ATOM     64  C   UNL A   1      47.586  26.354  31.124  1.00  0.00     0.057 A 
ATOM     65  C   UNL A   1      48.676  26.601  30.279  1.00  0.00     0.134 A 
ATOM     66  C   UNL A   1      47.833  25.639  32.304  1.00  0.00     0.134 A 
ATOM     67  F   UNL A   1      48.505  27.271  29.129  1.00  0.00    -0.206 F 
ATOM     68  C   UNL A   1      49.957  26.137  30.583  1.00  0.00     0.040 A 
ATOM     69  C   UNL A   1      49.115  25.192  32.631  1.00  0.00     0.040 A 
ATOM     70  F   UNL A   1      46.836  25.374  33.161  1.00  0.00    -0.206 F 
ATOM     71  C   UNL A   1      50.180  25.437  31.766  1.00  0.00     0.006 A 
ENDBRANCH  50  64
BRANCH  51  72
ATOM     72  C   UNL A   1      38.282  29.313  29.111  1.00  0.00     0.057 A 
ATOM     73  C   UNL A   1      37.311  29.278  30.118  1.00  0.00     0.134 A 
ATOM     74  C   UNL A   1      37.882  29.760  27.845  1.00  0.00     0.134 A 
ATOM     75  F   UNL A   1      37.628  28.841  31.346  1.00  0.00    -0.206 F 
ATOM     76  C   UNL A   1      35.987  29.645  29.872  1.00  0.00     0.040 A 
ATOM     77  C   UNL A   1      36.568  30.156  27.592  1.00  0.00     0.040 A 
ATOM     78  F   UNL A   1      38.767  29.826  26.840  1.00  0.00    -0.206 F 
ATOM     79  C   UNL A   1      35.614  30.091  28.606  1.00  0.00     0.006 A 
ENDBRANCH  51  72
BRANCH  63  80
ATOM     80  C   UNL A   1      43.680  32.288  32.338  1.00  0.00     0.057 A 
ATOM     81  C   UNL A   1      44.092  33.411  31.608  1.00  0.00     0.134 A 
ATOM     82  C   UNL A   1      43.401  32.467  33.698  1.00  0.00     0.134 A 
ATOM     83  F   UNL A   1      44.389  33.304  30.304  1.00  0.00    -0.206 F 
ATOM     84  C   UNL A   1      44.241  34.659  32.215  1.00  0.00     0.040 A 
ATOM     85  C   UNL A   1      43.521  33.715  34.310  1.00  0.00     0.040 A 
ATOM     86  F   UNL A   1      42.993  31.434  34.452  1.00  0.00    -0.206 F 
ATOM     87  C   UNL A   1      43.947  34.815  33.568  1.00  0.00     0.006 A 
ENDBRANCH  63  80
ENDBRANCH  37  38
ENDBRANCH  29  32
ENDBRANCH  27  28
ENDBRANCH  26  27
ENDBRANCH  25  26
ENDBRANCH   1  25
TORSDOF 17
ENDMDL
