MODEL 1
REMARK VINA RESULT:     -10.7      0.000      0.000
REMARK SMILES CNC(=O)CCCn1cc(C(=O)NCCCCNC(=O)c2ccc(-c3c4nc(c(-c5c(F)cccc5F)c5ccc([nH]5)c(-c5c(F)cccc5F)c5nc(c(-c6c(F)cccc6F)c6ccc3[nH]6)C=C5)C=C4)cc2)cc1Br
REMARK SMILES IDX 14 1 13 2 11 3 12 4 10 6 8 7 9 8 76 9 75 10 77 11 7 12 6 13
REMARK SMILES IDX 5 14 3 15 1 16 2 17 4 19 15 20 16 21 17 22 18 23 19 24 20 26
REMARK SMILES IDX 21 27 22 28 74 29 23 30 73 31 24 32 25 33 26 34 67 35 27 36
REMARK SMILES IDX 72 37 66 38 68 39 28 40 71 41 65 42 64 43 29 45 55 46 38 47
REMARK SMILES IDX 54 48 39 49 42 50 53 51 69 52 40 53 41 54 52 56 70 57 43 58
REMARK SMILES IDX 30 59 31 60 36 61 32 62 33 63 35 64 37 65 34 66 56 67 57 68
REMARK SMILES IDX 62 69 58 70 59 71 61 72 63 73 60 74 44 75 45 76 50 77 46 78
REMARK SMILES IDX 47 79 49 80 51 81 48 82
REMARK H PARENT 13 5 2 18 18 25 68 44 42 55
REMARK Flexibility Score: inf
ROOT
ATOM      1  C   UNL A   1      33.693  28.339  24.621  1.00  0.00     0.116 C 
ENDROOT
BRANCH   1   2
ATOM      2  N   UNL A   1      32.303  28.609  24.320  1.00  0.00    -0.352 N 
ATOM      3  C   UNL A   1      31.205  27.789  24.235  1.00  0.00     0.252 C 
ATOM      4  O   UNL A   1      30.123  28.336  24.017  1.00  0.00    -0.269 OA
ATOM      5  H   UNL A   1      32.109  29.558  24.144  1.00  0.00     0.163 HD
BRANCH   3   6
ATOM      6  C   UNL A   1      31.284  26.339  24.427  1.00  0.00     0.058 A 
ATOM      7  N   UNL A   1      31.792  24.150  24.289  1.00  0.00    -0.342 N 
ATOM      8  C   UNL A   1      31.763  25.340  23.597  1.00  0.00     0.100 A 
ATOM      9  C   UNL A   1      31.058  24.307  25.432  1.00  0.00     0.085 A 
ATOM     10  C   UNL A   1      30.796  25.648  25.586  1.00  0.00     0.049 A 
ATOM     11  Br  UNL A   1      30.502  22.982  26.625  1.00  0.00    -0.031 Br
BRANCH   7  12
ATOM     12  C   UNL A   1      32.507  22.955  23.866  1.00  0.00     0.123 C 
BRANCH  12  13
ATOM     13  C   UNL A   1      33.898  23.185  23.247  1.00  0.00     0.032 C 
BRANCH  13  14
ATOM     14  C   UNL A   1      34.985  23.717  24.189  1.00  0.00     0.102 C 
BRANCH  14  15
ATOM     15  C   UNL A   1      36.383  23.329  23.761  1.00  0.00     0.219 C 
ATOM     16  C   UNL A   1      37.411  23.738  26.043  1.00  0.00     0.142 C 
ATOM     17  N   UNL A   1      37.410  23.370  24.649  1.00  0.00    -0.359 N 
ATOM     18  H   UNL A   1      38.287  23.111  24.285  1.00  0.00     0.163 HD
ATOM     19  O   UNL A   1      36.611  22.956  22.610  1.00  0.00    -0.275 OA
ENDBRANCH  14  15
ENDBRANCH  13  14
ENDBRANCH  12  13
ENDBRANCH   7  12
ENDBRANCH   3   6
ENDBRANCH   1   2
BRANCH   1  20
ATOM     20  C   UNL A   1      33.923  28.040  26.108  1.00  0.00     0.023 C 
BRANCH  20  21
ATOM     21  C   UNL A   1      34.117  29.267  27.014  1.00  0.00     0.023 C 
BRANCH  21  22
ATOM     22  C   UNL A   1      35.525  29.441  27.566  1.00  0.00     0.116 C 
BRANCH  22  23
ATOM     23  N   UNL A   1      35.565  29.769  29.002  1.00  0.00    -0.352 N 
ATOM     24  C   UNL A   1      36.518  29.403  29.941  1.00  0.00     0.251 C 
ATOM     25  H   UNL A   1      34.819  30.317  29.337  1.00  0.00     0.163 HD
ATOM     26  O   UNL A   1      36.269  29.409  31.149  1.00  0.00    -0.269 OA
BRANCH  24  27
ATOM     27  C   UNL A   1      37.860  29.050  29.463  1.00  0.00     0.039 A 
ATOM     28  C   UNL A   1      38.529  29.685  28.410  1.00  0.00     0.014 A 
ATOM     29  C   UNL A   1      38.481  28.056  30.198  1.00  0.00     0.014 A 
ATOM     30  C   UNL A   1      39.850  29.313  28.149  1.00  0.00     0.010 A 
ATOM     31  C   UNL A   1      39.833  27.981  30.178  1.00  0.00     0.010 A 
ATOM     32  C   UNL A   1      40.482  28.446  29.048  1.00  0.00    -0.014 A 
BRANCH  32  33
ATOM     33  C   UNL A   1      41.828  27.925  28.904  1.00  0.00     0.031 A 
ATOM     34  C   UNL A   1      41.944  26.693  28.090  1.00  0.00     0.074 A 
ATOM     35  C   UNL A   1      42.879  28.733  29.190  1.00  0.00     0.049 A 
ATOM     36  N   UNL A   1      42.361  25.535  28.474  1.00  0.00    -0.248 NA
ATOM     37  C   UNL A   1      41.404  26.704  26.719  1.00  0.00     0.031 C 
ATOM     38  C   UNL A   1      42.874  30.125  29.679  1.00  0.00     0.029 A 
ATOM     39  N   UNL A   1      44.200  28.513  28.967  1.00  0.00    -0.354 N 
ATOM     40  C   UNL A   1      42.319  24.715  27.349  1.00  0.00     0.074 A 
ATOM     41  C   UNL A   1      41.545  25.425  26.366  1.00  0.00     0.031 C 
ATOM     42  C   UNL A   1      44.092  30.682  29.497  1.00  0.00     0.029 A 
ATOM     43  C   UNL A   1      45.001  29.651  29.040  1.00  0.00     0.049 A 
ATOM     44  H   UNL A   1      44.563  27.620  28.770  1.00  0.00     0.167 HD
ATOM     45  C   UNL A   1      43.110  23.611  27.247  1.00  0.00     0.037 A 
ATOM     46  C   UNL A   1      46.314  29.717  28.704  1.00  0.00     0.037 A 
ATOM     47  C   UNL A   1      43.729  23.308  28.513  1.00  0.00     0.049 A 
ATOM     48  C   UNL A   1      46.822  28.317  28.706  1.00  0.00     0.074 A 
ATOM     49  C   UNL A   1      43.250  22.943  29.756  1.00  0.00     0.029 A 
ATOM     50  N   UNL A   1      45.005  23.778  28.720  1.00  0.00    -0.354 N 
ATOM     51  N   UNL A   1      46.906  27.590  29.788  1.00  0.00    -0.248 NA
ATOM     52  C   UNL A   1      46.726  27.569  27.460  1.00  0.00     0.031 C 
ATOM     53  C   UNL A   1      44.055  23.669  30.681  1.00  0.00     0.029 A 
ATOM     54  C   UNL A   1      45.032  24.360  29.962  1.00  0.00     0.049 A 
ATOM     55  H   UNL A   1      45.761  23.708  28.091  1.00  0.00     0.167 HD
ATOM     56  C   UNL A   1      46.461  26.329  29.411  1.00  0.00     0.074 A 
ATOM     57  C   UNL A   1      46.422  26.362  27.948  1.00  0.00     0.031 C 
ATOM     58  C   UNL A   1      45.870  25.486  30.309  1.00  0.00     0.037 A 
BRANCH  45  59
ATOM     59  C   UNL A   1      43.605  22.997  25.964  1.00  0.00     0.057 A 
ATOM     60  C   UNL A   1      43.495  21.605  25.787  1.00  0.00     0.134 A 
ATOM     61  C   UNL A   1      44.423  23.656  25.026  1.00  0.00     0.134 A 
ATOM     62  F   UNL A   1      42.745  20.862  26.614  1.00  0.00    -0.206 F 
ATOM     63  C   UNL A   1      44.210  20.913  24.802  1.00  0.00     0.040 A 
ATOM     64  C   UNL A   1      45.100  22.982  24.006  1.00  0.00     0.040 A 
ATOM     65  F   UNL A   1      44.693  24.965  25.103  1.00  0.00    -0.206 F 
ATOM     66  C   UNL A   1      45.023  21.602  23.912  1.00  0.00     0.006 A 
ENDBRANCH  45  59
BRANCH  46  67
ATOM     67  C   UNL A   1      47.051  30.850  28.096  1.00  0.00     0.057 A 
ATOM     68  C   UNL A   1      46.588  31.498  26.943  1.00  0.00     0.134 A 
ATOM     69  C   UNL A   1      48.098  31.493  28.784  1.00  0.00     0.134 A 
ATOM     70  F   UNL A   1      45.567  30.989  26.240  1.00  0.00    -0.206 F 
ATOM     71  C   UNL A   1      47.127  32.719  26.505  1.00  0.00     0.040 A 
ATOM     72  C   UNL A   1      48.644  32.709  28.358  1.00  0.00     0.040 A 
ATOM     73  F   UNL A   1      48.569  31.002  29.939  1.00  0.00    -0.206 F 
ATOM     74  C   UNL A   1      48.150  33.334  27.220  1.00  0.00     0.006 A 
ENDBRANCH  46  67
BRANCH  58  75
ATOM     75  C   UNL A   1      45.872  25.877  31.765  1.00  0.00     0.057 A 
ATOM     76  C   UNL A   1      46.995  25.775  32.603  1.00  0.00     0.134 A 
ATOM     77  C   UNL A   1      44.778  26.583  32.271  1.00  0.00     0.134 A 
ATOM     78  F   UNL A   1      48.127  25.208  32.176  1.00  0.00    -0.206 F 
ATOM     79  C   UNL A   1      47.019  26.326  33.888  1.00  0.00     0.040 A 
ATOM     80  C   UNL A   1      44.798  27.164  33.542  1.00  0.00     0.040 A 
ATOM     81  F   UNL A   1      43.692  26.778  31.508  1.00  0.00    -0.206 F 
ATOM     82  C   UNL A   1      45.920  27.035  34.357  1.00  0.00     0.006 A 
ENDBRANCH  58  75
ENDBRANCH  32  33
ENDBRANCH  24  27
ENDBRANCH  22  23
ENDBRANCH  21  22
ENDBRANCH  20  21
ENDBRANCH   1  20
TORSDOF 15
ENDMDL
MODEL 2
REMARK VINA RESULT:     -10.7      2.170      6.562
REMARK SMILES CNC(=O)CCCn1cc(C(=O)NCCCCNC(=O)c2ccc(-c3c4nc(c(-c5c(F)cccc5F)c5ccc([nH]5)c(-c5c(F)cccc5F)c5nc(c(-c6c(F)cccc6F)c6ccc3[nH]6)C=C5)C=C4)cc2)cc1Br
REMARK SMILES IDX 14 1 13 2 11 3 12 4 10 6 8 7 9 8 76 9 75 10 77 11 7 12 6 13
REMARK SMILES IDX 5 14 3 15 1 16 2 17 4 19 15 20 16 21 17 22 18 23 19 24 20 26
REMARK SMILES IDX 21 27 22 28 74 29 23 30 73 31 24 32 25 33 26 34 67 35 27 36
REMARK SMILES IDX 72 37 66 38 68 39 28 40 71 41 65 42 64 43 29 45 55 46 38 47
REMARK SMILES IDX 54 48 39 49 42 50 53 51 69 52 40 53 41 54 52 56 70 57 43 58
REMARK SMILES IDX 30 59 31 60 36 61 32 62 33 63 35 64 37 65 34 66 56 67 57 68
REMARK SMILES IDX 62 69 58 70 59 71 61 72 63 73 60 74 44 75 45 76 50 77 46 78
REMARK SMILES IDX 47 79 49 80 51 81 48 82
REMARK H PARENT 13 5 2 18 18 25 68 44 42 55
REMARK Flexibility Score: inf
ROOT
ATOM      1  C   UNL A   1      31.640  29.730  25.264  1.00  0.00     0.116 C 
ENDROOT
BRANCH   1   2
ATOM      2  N   UNL A   1      32.674  29.684  24.251  1.00  0.00    -0.352 N 
ATOM      3  C   UNL A   1      33.321  28.635  23.646  1.00  0.00     0.252 C 
ATOM      4  O   UNL A   1      34.126  28.922  22.757  1.00  0.00    -0.269 OA
ATOM      5  H   UNL A   1      32.967  30.570  23.939  1.00  0.00     0.163 HD
BRANCH   3   6
ATOM      6  C   UNL A   1      33.058  27.237  23.992  1.00  0.00     0.058 A 
ATOM      7  N   UNL A   1      32.981  25.219  24.988  1.00  0.00    -0.342 N 
ATOM      8  C   UNL A   1      33.706  26.383  24.870  1.00  0.00     0.100 A 
ATOM      9  C   UNL A   1      32.060  25.189  23.979  1.00  0.00     0.085 A 
ATOM     10  C   UNL A   1      32.027  26.435  23.398  1.00  0.00     0.049 A 
ATOM     11  Br  UNL A   1      30.987  23.753  23.452  1.00  0.00    -0.031 Br
BRANCH   7  12
ATOM     12  C   UNL A   1      33.170  24.222  26.032  1.00  0.00     0.123 C 
BRANCH  12  13
ATOM     13  C   UNL A   1      34.628  23.837  26.342  1.00  0.00     0.032 C 
BRANCH  13  14
ATOM     14  C   UNL A   1      35.427  23.210  25.195  1.00  0.00     0.102 C 
BRANCH  14  15
ATOM     15  C   UNL A   1      36.303  22.059  25.640  1.00  0.00     0.219 C 
ATOM     16  C   UNL A   1      38.272  23.533  26.257  1.00  0.00     0.142 C 
ATOM     17  N   UNL A   1      37.561  22.289  26.097  1.00  0.00    -0.359 N 
ATOM     18  H   UNL A   1      38.064  21.484  26.358  1.00  0.00     0.163 HD
ATOM     19  O   UNL A   1      35.886  20.900  25.612  1.00  0.00    -0.275 OA
ENDBRANCH  14  15
ENDBRANCH  13  14
ENDBRANCH  12  13
ENDBRANCH   7  12
ENDBRANCH   3   6
ENDBRANCH   1   2
BRANCH   1  20
ATOM     20  C   UNL A   1      32.130  30.363  26.573  1.00  0.00     0.023 C 
BRANCH  20  21
ATOM     21  C   UNL A   1      33.308  29.652  27.259  1.00  0.00     0.023 C 
BRANCH  21  22
ATOM     22  C   UNL A   1      34.595  30.462  27.324  1.00  0.00     0.116 C 
BRANCH  22  23
ATOM     23  N   UNL A   1      34.527  31.617  28.237  1.00  0.00    -0.352 N 
ATOM     24  C   UNL A   1      35.143  31.776  29.470  1.00  0.00     0.251 C 
ATOM     25  H   UNL A   1      33.972  32.371  27.933  1.00  0.00     0.163 HD
ATOM     26  O   UNL A   1      34.731  32.593  30.296  1.00  0.00    -0.269 OA
BRANCH  24  27
ATOM     27  C   UNL A   1      36.340  30.974  29.753  1.00  0.00     0.039 A 
ATOM     28  C   UNL A   1      36.332  29.688  30.304  1.00  0.00     0.014 A 
ATOM     29  C   UNL A   1      37.526  31.565  29.354  1.00  0.00     0.014 A 
ATOM     30  C   UNL A   1      37.547  29.007  30.404  1.00  0.00     0.010 A 
ATOM     31  C   UNL A   1      38.598  30.774  29.116  1.00  0.00     0.010 A 
ATOM     32  C   UNL A   1      38.676  29.578  29.807  1.00  0.00    -0.014 A 
BRANCH  32  33
ATOM     33  C   UNL A   1      40.018  29.030  29.855  1.00  0.00     0.031 A 
ATOM     34  C   UNL A   1      40.596  28.897  31.213  1.00  0.00     0.074 A 
ATOM     35  C   UNL A   1      40.499  28.372  28.771  1.00  0.00     0.049 A 
ATOM     36  N   UNL A   1      41.646  29.483  31.680  1.00  0.00    -0.248 NA
ATOM     37  C   UNL A   1      39.848  28.129  32.223  1.00  0.00     0.031 C 
ATOM     38  C   UNL A   1      39.852  28.136  27.467  1.00  0.00     0.029 A 
ATOM     39  N   UNL A   1      41.640  27.645  28.660  1.00  0.00    -0.354 N 
ATOM     40  C   UNL A   1      41.804  29.016  32.982  1.00  0.00     0.074 A 
ATOM     41  C   UNL A   1      40.575  28.351  33.320  1.00  0.00     0.031 C 
ATOM     42  C   UNL A   1      40.499  27.153  26.803  1.00  0.00     0.029 A 
ATOM     43  C   UNL A   1      41.692  26.808  27.547  1.00  0.00     0.049 A 
ATOM     44  H   UNL A   1      42.374  27.706  29.314  1.00  0.00     0.167 HD
ATOM     45  C   UNL A   1      43.020  29.027  33.596  1.00  0.00     0.037 A 
ATOM     46  C   UNL A   1      42.648  25.877  27.303  1.00  0.00     0.037 A 
ATOM     47  C   UNL A   1      43.968  29.804  32.836  1.00  0.00     0.049 A 
ATOM     48  C   UNL A   1      43.816  26.236  28.153  1.00  0.00     0.074 A 
ATOM     49  C   UNL A   1      44.053  31.134  32.476  1.00  0.00     0.029 A 
ATOM     50  N   UNL A   1      44.796  29.122  31.975  1.00  0.00    -0.354 N 
ATOM     51  N   UNL A   1      44.517  27.324  27.979  1.00  0.00    -0.248 NA
ATOM     52  C   UNL A   1      43.865  25.672  29.495  1.00  0.00     0.031 C 
ATOM     53  C   UNL A   1      44.519  31.115  31.130  1.00  0.00     0.029 A 
ATOM     54  C   UNL A   1      44.779  29.789  30.777  1.00  0.00     0.049 A 
ATOM     55  H   UNL A   1      45.307  28.306  32.183  1.00  0.00     0.167 HD
ATOM     56  C   UNL A   1      44.754  27.810  29.258  1.00  0.00     0.074 A 
ATOM     57  C   UNL A   1      44.379  26.715  30.155  1.00  0.00     0.031 C 
ATOM     58  C   UNL A   1      44.929  29.145  29.491  1.00  0.00     0.037 A 
BRANCH  45  59
ATOM     59  C   UNL A   1      43.469  28.085  34.682  1.00  0.00     0.057 A 
ATOM     60  C   UNL A   1      43.882  28.616  35.918  1.00  0.00     0.134 A 
ATOM     61  C   UNL A   1      43.772  26.725  34.484  1.00  0.00     0.134 A 
ATOM     62  F   UNL A   1      43.651  29.901  36.228  1.00  0.00    -0.206 F 
ATOM     63  C   UNL A   1      44.614  27.871  36.849  1.00  0.00     0.040 A 
ATOM     64  C   UNL A   1      44.456  25.956  35.430  1.00  0.00     0.040 A 
ATOM     65  F   UNL A   1      43.516  26.091  33.333  1.00  0.00    -0.206 F 
ATOM     66  C   UNL A   1      44.911  26.537  36.603  1.00  0.00     0.006 A 
ENDBRANCH  45  59
BRANCH  46  67
ATOM     67  C   UNL A   1      42.499  24.561  26.637  1.00  0.00     0.057 A 
ATOM     68  C   UNL A   1      43.171  24.255  25.445  1.00  0.00     0.134 A 
ATOM     69  C   UNL A   1      41.890  23.475  27.295  1.00  0.00     0.134 A 
ATOM     70  F   UNL A   1      43.818  25.212  24.765  1.00  0.00    -0.206 F 
ATOM     71  C   UNL A   1      43.243  22.945  24.943  1.00  0.00     0.040 A 
ATOM     72  C   UNL A   1      41.954  22.165  26.806  1.00  0.00     0.040 A 
ATOM     73  F   UNL A   1      41.284  23.637  28.480  1.00  0.00    -0.206 F 
ATOM     74  C   UNL A   1      42.644  21.894  25.630  1.00  0.00     0.006 A 
ENDBRANCH  46  67
BRANCH  58  75
ATOM     75  C   UNL A   1      45.043  30.067  28.304  1.00  0.00     0.057 A 
ATOM     76  C   UNL A   1      43.964  30.783  27.760  1.00  0.00     0.134 A 
ATOM     77  C   UNL A   1      46.316  30.411  27.842  1.00  0.00     0.134 A 
ATOM     78  F   UNL A   1      42.718  30.599  28.207  1.00  0.00    -0.206 F 
ATOM     79  C   UNL A   1      44.139  31.773  26.789  1.00  0.00     0.040 A 
ATOM     80  C   UNL A   1      46.510  31.419  26.894  1.00  0.00     0.040 A 
ATOM     81  F   UNL A   1      47.402  29.817  28.358  1.00  0.00    -0.206 F 
ATOM     82  C   UNL A   1      45.419  32.103  26.361  1.00  0.00     0.006 A 
ENDBRANCH  58  75
ENDBRANCH  32  33
ENDBRANCH  24  27
ENDBRANCH  22  23
ENDBRANCH  21  22
ENDBRANCH  20  21
ENDBRANCH   1  20
TORSDOF 15
ENDMDL
MODEL 3
REMARK VINA RESULT:     -10.6      3.309      7.983
REMARK SMILES CNC(=O)CCCn1cc(C(=O)NCCCCNC(=O)c2ccc(-c3c4nc(c(-c5c(F)cccc5F)c5ccc([nH]5)c(-c5c(F)cccc5F)c5nc(c(-c6c(F)cccc6F)c6ccc3[nH]6)C=C5)C=C4)cc2)cc1Br
REMARK SMILES IDX 14 1 13 2 11 3 12 4 10 6 8 7 9 8 76 9 75 10 77 11 7 12 6 13
REMARK SMILES IDX 5 14 3 15 1 16 2 17 4 19 15 20 16 21 17 22 18 23 19 24 20 26
REMARK SMILES IDX 21 27 22 28 74 29 23 30 73 31 24 32 25 33 26 34 67 35 27 36
REMARK SMILES IDX 72 37 66 38 68 39 28 40 71 41 65 42 64 43 29 45 55 46 38 47
REMARK SMILES IDX 54 48 39 49 42 50 53 51 69 52 40 53 41 54 52 56 70 57 43 58
REMARK SMILES IDX 30 59 31 60 36 61 32 62 33 63 35 64 37 65 34 66 56 67 57 68
REMARK SMILES IDX 62 69 58 70 59 71 61 72 63 73 60 74 44 75 45 76 50 77 46 78
REMARK SMILES IDX 47 79 49 80 51 81 48 82
REMARK H PARENT 13 5 2 18 18 25 68 44 42 55
REMARK Flexibility Score: inf
ROOT
ATOM      1  C   UNL A   1      37.108  22.682  24.653  1.00  0.00     0.116 C 
ENDROOT
BRANCH   1   2
ATOM      2  N   UNL A   1      35.894  21.900  24.549  1.00  0.00    -0.352 N 
ATOM      3  C   UNL A   1      34.578  22.261  24.404  1.00  0.00     0.252 C 
ATOM      4  O   UNL A   1      33.764  21.344  24.279  1.00  0.00    -0.269 OA
ATOM      5  H   UNL A   1      36.040  20.927  24.590  1.00  0.00     0.163 HD
BRANCH   3   6
ATOM      6  C   UNL A   1      34.142  23.659  24.358  1.00  0.00     0.058 A 
ATOM      7  N   UNL A   1      33.209  25.629  23.797  1.00  0.00    -0.342 N 
ATOM      8  C   UNL A   1      33.651  24.421  23.310  1.00  0.00     0.100 A 
ATOM      9  C   UNL A   1      33.686  25.774  25.069  1.00  0.00     0.085 A 
ATOM     10  C   UNL A   1      34.195  24.562  25.471  1.00  0.00     0.049 A 
ATOM     11  Br  UNL A   1      33.658  27.309  26.134  1.00  0.00    -0.031 Br
BRANCH   7  12
ATOM     12  C   UNL A   1      32.360  26.562  23.069  1.00  0.00     0.123 C 
BRANCH  12  13
ATOM     13  C   UNL A   1      30.845  26.311  23.163  1.00  0.00     0.032 C 
BRANCH  13  14
ATOM     14  C   UNL A   1      29.995  27.460  23.718  1.00  0.00     0.102 C 
BRANCH  14  15
ATOM     15  C   UNL A   1      30.220  28.769  22.993  1.00  0.00     0.219 C 
ATOM     16  C   UNL A   1      31.230  29.939  25.002  1.00  0.00     0.142 C 
ATOM     17  N   UNL A   1      30.773  29.827  23.640  1.00  0.00    -0.359 N 
ATOM     18  H   UNL A   1      30.876  30.642  23.096  1.00  0.00     0.163 HD
ATOM     19  O   UNL A   1      29.923  28.892  21.804  1.00  0.00    -0.275 OA
ENDBRANCH  14  15
ENDBRANCH  13  14
ENDBRANCH  12  13
ENDBRANCH   7  12
ENDBRANCH   3   6
ENDBRANCH   1   2
BRANCH   1  20
ATOM     20  C   UNL A   1      38.145  22.034  25.580  1.00  0.00     0.023 C 
BRANCH  20  21
ATOM     21  C   UNL A   1      38.974  23.005  26.436  1.00  0.00     0.023 C 
BRANCH  21  22
ATOM     22  C   UNL A   1      40.117  22.363  27.209  1.00  0.00     0.116 C 
BRANCH  22  23
ATOM     23  N   UNL A   1      41.371  22.261  26.441  1.00  0.00    -0.352 N 
ATOM     24  C   UNL A   1      42.115  23.282  25.870  1.00  0.00     0.251 C 
ATOM     25  H   UNL A   1      41.725  21.350  26.319  1.00  0.00     0.163 HD
ATOM     26  O   UNL A   1      42.916  23.065  24.958  1.00  0.00    -0.269 OA
BRANCH  24  27
ATOM     27  C   UNL A   1      41.961  24.637  26.414  1.00  0.00     0.039 A 
ATOM     28  C   UNL A   1      41.167  25.643  25.850  1.00  0.00     0.014 A 
ATOM     29  C   UNL A   1      42.620  24.846  27.612  1.00  0.00     0.014 A 
ATOM     30  C   UNL A   1      41.030  26.843  26.549  1.00  0.00     0.010 A 
ATOM     31  C   UNL A   1      42.186  25.834  28.429  1.00  0.00     0.010 A 
ATOM     32  C   UNL A   1      41.560  26.919  27.842  1.00  0.00    -0.014 A 
BRANCH  32  33
ATOM     33  C   UNL A   1      41.546  28.099  28.686  1.00  0.00     0.031 A 
ATOM     34  C   UNL A   1      42.621  29.082  28.413  1.00  0.00     0.074 A 
ATOM     35  C   UNL A   1      40.420  28.397  29.381  1.00  0.00     0.049 A 
ATOM     36  N   UNL A   1      43.559  29.461  29.212  1.00  0.00    -0.248 NA
ATOM     37  C   UNL A   1      42.759  29.609  27.044  1.00  0.00     0.031 C 
ATOM     38  C   UNL A   1      39.145  27.658  29.444  1.00  0.00     0.029 A 
ATOM     39  N   UNL A   1      40.134  29.523  30.084  1.00  0.00    -0.354 N 
ATOM     40  C   UNL A   1      44.296  30.417  28.519  1.00  0.00     0.074 A 
ATOM     41  C   UNL A   1      43.884  30.320  27.144  1.00  0.00     0.031 C 
ATOM     42  C   UNL A   1      38.175  28.454  29.945  1.00  0.00     0.029 A 
ATOM     43  C   UNL A   1      38.784  29.689  30.392  1.00  0.00     0.049 A 
ATOM     44  H   UNL A   1      40.824  30.169  30.356  1.00  0.00     0.167 HD
ATOM     45  C   UNL A   1      45.030  31.360  29.174  1.00  0.00     0.037 A 
ATOM     46  C   UNL A   1      38.231  30.798  30.944  1.00  0.00     0.037 A 
ATOM     47  C   UNL A   1      45.129  31.043  30.577  1.00  0.00     0.049 A 
ATOM     48  C   UNL A   1      39.347  31.564  31.564  1.00  0.00     0.074 A 
ATOM     49  C   UNL A   1      45.689  30.003  31.291  1.00  0.00     0.029 A 
ATOM     50  N   UNL A   1      44.233  31.650  31.426  1.00  0.00    -0.354 N 
ATOM     51  N   UNL A   1      40.030  31.126  32.587  1.00  0.00    -0.248 NA
ATOM     52  C   UNL A   1      40.033  32.542  30.730  1.00  0.00     0.031 C 
ATOM     53  C   UNL A   1      44.752  29.733  32.331  1.00  0.00     0.029 A 
ATOM     54  C   UNL A   1      43.726  30.677  32.250  1.00  0.00     0.049 A 
ATOM     55  H   UNL A   1      43.999  32.607  31.439  1.00  0.00     0.167 HD
ATOM     56  C   UNL A   1      41.352  31.441  32.300  1.00  0.00     0.074 A 
ATOM     57  C   UNL A   1      41.284  32.369  31.169  1.00  0.00     0.031 C 
ATOM     58  C   UNL A   1      42.385  30.692  32.789  1.00  0.00     0.037 A 
BRANCH  45  59
ATOM     59  C   UNL A   1      45.374  32.730  28.652  1.00  0.00     0.057 A 
ATOM     60  C   UNL A   1      44.333  33.629  28.357  1.00  0.00     0.134 A 
ATOM     61  C   UNL A   1      46.643  33.105  28.171  1.00  0.00     0.134 A 
ATOM     62  F   UNL A   1      43.076  33.386  28.760  1.00  0.00    -0.206 F 
ATOM     63  C   UNL A   1      44.526  34.772  27.572  1.00  0.00     0.040 A 
ATOM     64  C   UNL A   1      46.857  34.272  27.431  1.00  0.00     0.040 A 
ATOM     65  F   UNL A   1      47.721  32.323  28.300  1.00  0.00    -0.206 F 
ATOM     66  C   UNL A   1      45.791  35.092  27.099  1.00  0.00     0.006 A 
ENDBRANCH  45  59
BRANCH  46  67
ATOM     67  C   UNL A   1      36.885  31.371  30.700  1.00  0.00     0.057 A 
ATOM     68  C   UNL A   1      35.995  31.638  31.749  1.00  0.00     0.134 A 
ATOM     69  C   UNL A   1      36.539  31.913  29.448  1.00  0.00     0.134 A 
ATOM     70  F   UNL A   1      36.255  31.201  32.989  1.00  0.00    -0.206 F 
ATOM     71  C   UNL A   1      34.834  32.407  31.566  1.00  0.00     0.040 A 
ATOM     72  C   UNL A   1      35.386  32.681  29.252  1.00  0.00     0.040 A 
ATOM     73  F   UNL A   1      37.354  31.786  28.391  1.00  0.00    -0.206 F 
ATOM     74  C   UNL A   1      34.533  32.941  30.317  1.00  0.00     0.006 A 
ENDBRANCH  46  67
BRANCH  58  75
ATOM     75  C   UNL A   1      42.072  29.618  33.799  1.00  0.00     0.057 A 
ATOM     76  C   UNL A   1      41.870  28.268  33.471  1.00  0.00     0.134 A 
ATOM     77  C   UNL A   1      42.198  29.918  35.158  1.00  0.00     0.134 A 
ATOM     78  F   UNL A   1      41.835  27.863  32.198  1.00  0.00    -0.206 F 
ATOM     79  C   UNL A   1      41.775  27.269  34.446  1.00  0.00     0.040 A 
ATOM     80  C   UNL A   1      42.137  28.928  36.142  1.00  0.00     0.040 A 
ATOM     81  F   UNL A   1      42.456  31.176  35.548  1.00  0.00    -0.206 F 
ATOM     82  C   UNL A   1      41.921  27.598  35.788  1.00  0.00     0.006 A 
ENDBRANCH  58  75
ENDBRANCH  32  33
ENDBRANCH  24  27
ENDBRANCH  22  23
ENDBRANCH  21  22
ENDBRANCH  20  21
ENDBRANCH   1  20
TORSDOF 15
ENDMDL
