MODEL 1
REMARK VINA RESULT:     -10.3      0.000      0.000
REMARK SMILES O=C(C[NH+]1CC2(CCCC2)C1)NCCCCNC(=O)c1ccc(-c2c3nc(c(-c4c(F)cccc4F)c4ccc([nH]4)c(-c4c(F)cccc4F)c4nc(c(-c5c(F)cccc5F)c5ccc2[nH]5)C=C4)C=C3)cc1
REMARK SMILES IDX 15 1 14 2 13 3 12 4 1 5 2 6 3 8 4 9 5 10 11 11 6 13 7 14
REMARK SMILES IDX 10 15 8 16 9 17 16 18 17 19 18 20 19 22 20 23 21 24 73 25
REMARK SMILES IDX 22 26 72 27 23 28 24 29 25 30 66 31 26 32 71 33 65 34 67 35
REMARK SMILES IDX 27 36 70 37 64 38 63 39 28 41 54 42 37 43 53 44 38 45 41 46
REMARK SMILES IDX 52 47 68 48 39 49 40 50 51 52 69 53 42 54 29 55 30 56 35 57
REMARK SMILES IDX 31 58 32 59 34 60 36 61 33 62 55 63 56 64 61 65 57 66 58 67
REMARK SMILES IDX 60 68 62 69 59 70 43 71 44 72 49 73 45 74 46 75 48 76 50 77
REMARK SMILES IDX 47 78
REMARK H PARENT 12 7 4 12 17 21 67 40 41 51
REMARK Flexibility Score: inf
ROOT
ATOM      1  C   UNL A   1      34.338  33.750  28.100  1.00  0.00     0.023 C 
ENDROOT
BRANCH   1   2
ATOM      2  C   UNL A   1      33.071  34.452  28.595  1.00  0.00     0.023 C 
BRANCH   2   3
ATOM      3  C   UNL A   1      33.306  35.831  29.209  1.00  0.00     0.116 C 
BRANCH   3   4
ATOM      4  N   UNL A   1      34.015  35.753  30.465  1.00  0.00    -0.351 N 
ATOM      5  O   UNL A   1      32.148  35.484  31.777  1.00  0.00    -0.269 OA
ATOM      6  C   UNL A   1      33.368  35.577  31.668  1.00  0.00     0.275 C 
ATOM      7  H   UNL A   1      34.996  35.829  30.462  1.00  0.00     0.163 HD
BRANCH   6   8
ATOM      8  C   UNL A   1      34.303  35.524  32.878  1.00  0.00     0.363 C 
BRANCH   8   9
ATOM      9  N   UNL A   1      34.228  34.206  33.548  1.00  0.00    -0.326 N 
ATOM     10  C   UNL A   1      35.524  33.839  34.159  1.00  0.00     0.275 C 
ATOM     11  C   UNL A   1      34.393  33.100  32.569  1.00  0.00     0.275 C 
ATOM     12  H   UNL A   1      33.384  34.289  34.115  1.00  0.00     0.348 HD
ATOM     13  C   UNL A   1      35.918  33.043  32.886  1.00  0.00     0.068 C 
ATOM     14  C   UNL A   1      36.562  31.680  33.190  1.00  0.00     0.019 C 
ATOM     15  C   UNL A   1      36.811  33.723  31.834  1.00  0.00     0.019 C 
ATOM     16  C   UNL A   1      37.903  31.715  32.456  1.00  0.00     0.001 C 
ATOM     17  C   UNL A   1      37.617  32.576  31.242  1.00  0.00     0.001 C 
ENDBRANCH   8   9
ENDBRANCH   6   8
ENDBRANCH   3   4
ENDBRANCH   2   3
ENDBRANCH   1   2
BRANCH   1  18
ATOM     18  C   UNL A   1      34.756  32.522  28.899  1.00  0.00     0.116 C 
BRANCH  18  19
ATOM     19  N   UNL A   1      34.119  31.301  28.435  1.00  0.00    -0.352 N 
ATOM     20  C   UNL A   1      34.683  30.086  28.120  1.00  0.00     0.251 C 
ATOM     21  H   UNL A   1      33.141  31.350  28.329  1.00  0.00     0.163 HD
ATOM     22  O   UNL A   1      34.004  29.210  27.600  1.00  0.00    -0.269 OA
BRANCH  20  23
ATOM     23  C   UNL A   1      36.120  29.848  28.380  1.00  0.00     0.039 A 
ATOM     24  C   UNL A   1      36.504  29.355  29.630  1.00  0.00     0.014 A 
ATOM     25  C   UNL A   1      37.085  30.105  27.403  1.00  0.00     0.014 A 
ATOM     26  C   UNL A   1      37.846  29.052  29.874  1.00  0.00     0.010 A 
ATOM     27  C   UNL A   1      38.409  29.731  27.620  1.00  0.00     0.010 A 
ATOM     28  C   UNL A   1      38.804  29.200  28.857  1.00  0.00    -0.014 A 
BRANCH  28  29
ATOM     29  C   UNL A   1      40.219  28.793  29.069  1.00  0.00     0.031 A 
ATOM     30  C   UNL A   1      41.200  29.747  29.692  1.00  0.00     0.074 A 
ATOM     31  C   UNL A   1      40.636  27.584  28.641  1.00  0.00     0.049 A 
ATOM     32  N   UNL A   1      42.483  29.594  29.904  1.00  0.00    -0.248 NA
ATOM     33  C   UNL A   1      40.676  31.056  30.113  1.00  0.00     0.031 C 
ATOM     34  C   UNL A   1      39.795  26.583  27.982  1.00  0.00     0.029 A 
ATOM     35  N   UNL A   1      41.875  26.995  28.690  1.00  0.00    -0.354 N 
ATOM     36  C   UNL A   1      42.920  30.786  30.466  1.00  0.00     0.074 A 
ATOM     37  C   UNL A   1      41.777  31.672  30.514  1.00  0.00     0.031 C 
ATOM     38  C   UNL A   1      40.535  25.496  27.715  1.00  0.00     0.029 A 
ATOM     39  C   UNL A   1      41.910  25.737  28.140  1.00  0.00     0.049 A 
ATOM     40  H   UNL A   1      42.664  27.434  29.082  1.00  0.00     0.167 HD
ATOM     41  C   UNL A   1      44.155  31.107  30.921  1.00  0.00     0.037 A 
ATOM     42  C   UNL A   1      42.935  24.877  27.986  1.00  0.00     0.037 A 
ATOM     43  C   UNL A   1      45.286  30.216  30.889  1.00  0.00     0.049 A 
ATOM     44  C   UNL A   1      44.302  25.267  28.479  1.00  0.00     0.074 A 
ATOM     45  C   UNL A   1      46.563  30.426  31.382  1.00  0.00     0.029 A 
ATOM     46  N   UNL A   1      45.280  28.949  30.325  1.00  0.00    -0.354 N 
ATOM     47  N   UNL A   1      44.684  26.370  29.075  1.00  0.00    -0.248 NA
ATOM     48  C   UNL A   1      45.381  24.289  28.278  1.00  0.00     0.031 C 
ATOM     49  C   UNL A   1      47.344  29.311  31.065  1.00  0.00     0.029 A 
ATOM     50  C   UNL A   1      46.539  28.378  30.430  1.00  0.00     0.049 A 
ATOM     51  H   UNL A   1      44.498  28.518  29.911  1.00  0.00     0.167 HD
ATOM     52  C   UNL A   1      46.035  26.205  29.351  1.00  0.00     0.074 A 
ATOM     53  C   UNL A   1      46.403  24.891  28.870  1.00  0.00     0.031 C 
ATOM     54  C   UNL A   1      46.893  27.066  29.953  1.00  0.00     0.037 A 
BRANCH  41  55
ATOM     55  C   UNL A   1      44.351  32.484  31.489  1.00  0.00     0.057 A 
ATOM     56  C   UNL A   1      44.741  33.568  30.692  1.00  0.00     0.134 A 
ATOM     57  C   UNL A   1      44.107  32.737  32.845  1.00  0.00     0.134 A 
ATOM     58  F   UNL A   1      45.000  33.394  29.387  1.00  0.00    -0.206 F 
ATOM     59  C   UNL A   1      44.911  34.846  31.227  1.00  0.00     0.040 A 
ATOM     60  C   UNL A   1      44.243  34.017  33.386  1.00  0.00     0.040 A 
ATOM     61  F   UNL A   1      43.722  31.748  33.666  1.00  0.00    -0.206 F 
ATOM     62  C   UNL A   1      44.653  35.075  32.577  1.00  0.00     0.006 A 
ENDBRANCH  41  55
BRANCH  42  63
ATOM     63  C   UNL A   1      42.709  23.551  27.355  1.00  0.00     0.057 A 
ATOM     64  C   UNL A   1      42.368  22.433  28.127  1.00  0.00     0.134 A 
ATOM     65  C   UNL A   1      42.845  23.362  25.975  1.00  0.00     0.134 A 
ATOM     66  F   UNL A   1      42.242  22.545  29.458  1.00  0.00    -0.206 F 
ATOM     67  C   UNL A   1      42.193  21.173  27.552  1.00  0.00     0.040 A 
ATOM     68  C   UNL A   1      42.646  22.113  25.384  1.00  0.00     0.040 A 
ATOM     69  F   UNL A   1      43.164  24.393  25.178  1.00  0.00    -0.206 F 
ATOM     70  C   UNL A   1      42.328  21.013  26.175  1.00  0.00     0.006 A 
ENDBRANCH  42  63
BRANCH  54  71
ATOM     71  C   UNL A   1      48.305  26.598  30.164  1.00  0.00     0.057 A 
ATOM     72  C   UNL A   1      48.688  25.873  31.299  1.00  0.00     0.134 A 
ATOM     73  C   UNL A   1      49.287  26.846  29.195  1.00  0.00     0.134 A 
ATOM     74  F   UNL A   1      47.800  25.613  32.271  1.00  0.00    -0.206 F 
ATOM     75  C   UNL A   1      50.001  25.434  31.477  1.00  0.00     0.040 A 
ATOM     76  C   UNL A   1      50.595  26.386  29.346  1.00  0.00     0.040 A 
ATOM     77  F   UNL A   1      48.987  27.526  28.079  1.00  0.00    -0.206 F 
ATOM     78  C   UNL A   1      50.957  25.683  30.493  1.00  0.00     0.006 A 
ENDBRANCH  54  71
ENDBRANCH  28  29
ENDBRANCH  20  23
ENDBRANCH  18  19
ENDBRANCH   1  18
TORSDOF 12
ENDMDL
MODEL 2
REMARK VINA RESULT:      -9.9      0.384      6.502
REMARK SMILES O=C(C[NH+]1CC2(CCCC2)C1)NCCCCNC(=O)c1ccc(-c2c3nc(c(-c4c(F)cccc4F)c4ccc([nH]4)c(-c4c(F)cccc4F)c4nc(c(-c5c(F)cccc5F)c5ccc2[nH]5)C=C4)C=C3)cc1
REMARK SMILES IDX 15 1 14 2 13 3 12 4 1 5 2 6 3 8 4 9 5 10 11 11 6 13 7 14
REMARK SMILES IDX 10 15 8 16 9 17 16 18 17 19 18 20 19 22 20 23 21 24 73 25
REMARK SMILES IDX 22 26 72 27 23 28 24 29 25 30 66 31 26 32 71 33 65 34 67 35
REMARK SMILES IDX 27 36 70 37 64 38 63 39 28 41 54 42 37 43 53 44 38 45 41 46
REMARK SMILES IDX 52 47 68 48 39 49 40 50 51 52 69 53 42 54 29 55 30 56 35 57
REMARK SMILES IDX 31 58 32 59 34 60 36 61 33 62 55 63 56 64 61 65 57 66 58 67
REMARK SMILES IDX 60 68 62 69 59 70 43 71 44 72 49 73 45 74 46 75 48 76 50 77
REMARK SMILES IDX 47 78
REMARK H PARENT 12 7 4 12 17 21 67 40 41 51
REMARK Flexibility Score: inf
ROOT
ATOM      1  C   UNL A   1      34.081  33.425  29.159  1.00  0.00     0.023 C 
ENDROOT
BRANCH   1   2
ATOM      2  C   UNL A   1      33.757  34.820  28.618  1.00  0.00     0.023 C 
BRANCH   2   3
ATOM      3  C   UNL A   1      33.197  35.791  29.656  1.00  0.00     0.116 C 
BRANCH   3   4
ATOM      4  N   UNL A   1      33.949  35.761  30.890  1.00  0.00    -0.351 N 
ATOM      5  O   UNL A   1      32.153  35.324  32.253  1.00  0.00    -0.269 OA
ATOM      6  C   UNL A   1      33.357  35.520  32.108  1.00  0.00     0.275 C 
ATOM      7  H   UNL A   1      34.920  35.919  30.857  1.00  0.00     0.163 HD
BRANCH   6   8
ATOM      8  C   UNL A   1      34.330  35.535  33.290  1.00  0.00     0.363 C 
BRANCH   8   9
ATOM      9  N   UNL A   1      34.364  34.217  33.963  1.00  0.00    -0.326 N 
ATOM     10  C   UNL A   1      35.737  33.868  34.390  1.00  0.00     0.275 C 
ATOM     11  C   UNL A   1      34.407  33.111  32.972  1.00  0.00     0.275 C 
ATOM     12  H   UNL A   1      33.606  34.291  34.641  1.00  0.00     0.348 HD
ATOM     13  C   UNL A   1      35.962  33.074  33.075  1.00  0.00     0.068 C 
ATOM     14  C   UNL A   1      36.659  31.720  33.288  1.00  0.00     0.019 C 
ATOM     15  C   UNL A   1      36.693  33.762  31.910  1.00  0.00     0.019 C 
ATOM     16  C   UNL A   1      37.886  31.770  32.377  1.00  0.00     0.001 C 
ATOM     17  C   UNL A   1      37.425  32.625  31.213  1.00  0.00     0.001 C 
ENDBRANCH   8   9
ENDBRANCH   6   8
ENDBRANCH   3   4
ENDBRANCH   2   3
ENDBRANCH   1   2
BRANCH   1  18
ATOM     18  C   UNL A   1      34.795  32.498  28.183  1.00  0.00     0.116 C 
BRANCH  18  19
ATOM     19  N   UNL A   1      34.158  31.196  28.070  1.00  0.00    -0.352 N 
ATOM     20  C   UNL A   1      34.727  29.944  28.056  1.00  0.00     0.251 C 
ATOM     21  H   UNL A   1      33.176  31.213  27.992  1.00  0.00     0.163 HD
ATOM     22  O   UNL A   1      34.042  28.961  27.802  1.00  0.00    -0.269 OA
BRANCH  20  23
ATOM     23  C   UNL A   1      36.175  29.786  28.315  1.00  0.00     0.039 A 
ATOM     24  C   UNL A   1      36.589  29.355  29.578  1.00  0.00     0.014 A 
ATOM     25  C   UNL A   1      37.122  30.055  27.323  1.00  0.00     0.014 A 
ATOM     26  C   UNL A   1      37.945  29.128  29.824  1.00  0.00     0.010 A 
ATOM     27  C   UNL A   1      38.464  29.754  27.545  1.00  0.00     0.010 A 
ATOM     28  C   UNL A   1      38.890  29.287  28.797  1.00  0.00    -0.014 A 
BRANCH  28  29
ATOM     29  C   UNL A   1      40.324  28.958  29.013  1.00  0.00     0.031 A 
ATOM     30  C   UNL A   1      40.873  27.627  28.578  1.00  0.00     0.074 A 
ATOM     31  C   UNL A   1      41.120  29.833  29.659  1.00  0.00     0.049 A 
ATOM     32  N   UNL A   1      42.078  27.138  28.733  1.00  0.00    -0.248 NA
ATOM     33  C   UNL A   1      39.940  26.715  27.900  1.00  0.00     0.031 C 
ATOM     34  C   UNL A   1      40.701  31.139  30.171  1.00  0.00     0.029 A 
ATOM     35  N   UNL A   1      42.446  29.754  30.004  1.00  0.00    -0.354 N 
ATOM     36  C   UNL A   1      42.042  25.861  28.187  1.00  0.00     0.074 A 
ATOM     37  C   UNL A   1      40.684  25.631  27.745  1.00  0.00     0.031 C 
ATOM     38  C   UNL A   1      41.754  31.749  30.737  1.00  0.00     0.029 A 
ATOM     39  C   UNL A   1      42.911  30.861  30.671  1.00  0.00     0.049 A 
ATOM     40  H   UNL A   1      43.011  28.976  29.793  1.00  0.00     0.167 HD
ATOM     41  C   UNL A   1      43.053  24.970  28.047  1.00  0.00     0.037 A 
ATOM     42  C   UNL A   1      44.128  31.130  31.180  1.00  0.00     0.037 A 
ATOM     43  C   UNL A   1      44.408  25.210  28.471  1.00  0.00     0.049 A 
ATOM     44  C   UNL A   1      45.228  30.113  31.032  1.00  0.00     0.074 A 
ATOM     45  C   UNL A   1      45.516  24.394  28.317  1.00  0.00     0.029 A 
ATOM     46  N   UNL A   1      44.838  26.345  29.141  1.00  0.00    -0.354 N 
ATOM     47  N   UNL A   1      45.198  28.940  30.448  1.00  0.00    -0.248 NA
ATOM     48  C   UNL A   1      46.532  30.460  31.613  1.00  0.00     0.031 C 
ATOM     49  C   UNL A   1      46.604  25.009  28.944  1.00  0.00     0.029 A 
ATOM     50  C   UNL A   1      46.189  26.238  29.435  1.00  0.00     0.049 A 
ATOM     51  H   UNL A   1      44.270  27.114  29.374  1.00  0.00     0.167 HD
ATOM     52  C   UNL A   1      46.483  28.426  30.560  1.00  0.00     0.074 A 
ATOM     53  C   UNL A   1      47.272  29.420  31.256  1.00  0.00     0.031 C 
ATOM     54  C   UNL A   1      46.966  27.237  30.123  1.00  0.00     0.037 A 
BRANCH  41  55
ATOM     55  C   UNL A   1      42.731  23.647  27.411  1.00  0.00     0.057 A 
ATOM     56  C   UNL A   1      42.823  23.446  26.027  1.00  0.00     0.134 A 
ATOM     57  C   UNL A   1      42.363  22.549  28.198  1.00  0.00     0.134 A 
ATOM     58  F   UNL A   1      43.161  24.459  25.214  1.00  0.00    -0.206 F 
ATOM     59  C   UNL A   1      42.532  22.211  25.447  1.00  0.00     0.040 A 
ATOM     60  C   UNL A   1      42.099  21.299  27.633  1.00  0.00     0.040 A 
ATOM     61  F   UNL A   1      42.263  22.666  29.531  1.00  0.00    -0.206 F 
ATOM     62  C   UNL A   1      42.176  21.130  26.252  1.00  0.00     0.006 A 
ENDBRANCH  41  55
BRANCH  42  63
ATOM     63  C   UNL A   1      44.384  32.425  31.862  1.00  0.00     0.057 A 
ATOM     64  C   UNL A   1      44.201  32.561  33.243  1.00  0.00     0.134 A 
ATOM     65  C   UNL A   1      44.798  33.558  31.153  1.00  0.00     0.134 A 
ATOM     66  F   UNL A   1      43.787  31.517  33.976  1.00  0.00    -0.206 F 
ATOM     67  C   UNL A   1      44.398  33.782  33.891  1.00  0.00     0.040 A 
ATOM     68  C   UNL A   1      45.026  34.778  31.792  1.00  0.00     0.040 A 
ATOM     69  F   UNL A   1      44.998  33.494  29.828  1.00  0.00    -0.206 F 
ATOM     70  C   UNL A   1      44.817  34.894  33.164  1.00  0.00     0.006 A 
ENDBRANCH  42  63
BRANCH  54  71
ATOM     71  C   UNL A   1      48.427  26.962  30.346  1.00  0.00     0.057 A 
ATOM     72  C   UNL A   1      49.413  27.417  29.463  1.00  0.00     0.134 A 
ATOM     73  C   UNL A   1      48.851  26.261  31.483  1.00  0.00     0.134 A 
ATOM     74  F   UNL A   1      49.074  28.084  28.348  1.00  0.00    -0.206 F 
ATOM     75  C   UNL A   1      50.768  27.165  29.688  1.00  0.00     0.040 A 
ATOM     76  C   UNL A   1      50.204  26.029  31.735  1.00  0.00     0.040 A 
ATOM     77  F   UNL A   1      47.960  25.804  32.374  1.00  0.00    -0.206 F 
ATOM     78  C   UNL A   1      51.166  26.476  30.832  1.00  0.00     0.006 A 
ENDBRANCH  54  71
ENDBRANCH  28  29
ENDBRANCH  20  23
ENDBRANCH  18  19
ENDBRANCH   1  18
TORSDOF 12
ENDMDL
MODEL 3
REMARK VINA RESULT:      -9.9      3.430     10.972
REMARK SMILES O=C(C[NH+]1CC2(CCCC2)C1)NCCCCNC(=O)c1ccc(-c2c3nc(c(-c4c(F)cccc4F)c4ccc([nH]4)c(-c4c(F)cccc4F)c4nc(c(-c5c(F)cccc5F)c5ccc2[nH]5)C=C4)C=C3)cc1
REMARK SMILES IDX 15 1 14 2 13 3 12 4 1 5 2 6 3 8 4 9 5 10 11 11 6 13 7 14
REMARK SMILES IDX 10 15 8 16 9 17 16 18 17 19 18 20 19 22 20 23 21 24 73 25
REMARK SMILES IDX 22 26 72 27 23 28 24 29 25 30 66 31 26 32 71 33 65 34 67 35
REMARK SMILES IDX 27 36 70 37 64 38 63 39 28 41 54 42 37 43 53 44 38 45 41 46
REMARK SMILES IDX 52 47 68 48 39 49 40 50 51 52 69 53 42 54 29 55 30 56 35 57
REMARK SMILES IDX 31 58 32 59 34 60 36 61 33 62 55 63 56 64 61 65 57 66 58 67
REMARK SMILES IDX 60 68 62 69 59 70 43 71 44 72 49 73 45 74 46 75 48 76 50 77
REMARK SMILES IDX 47 78
REMARK H PARENT 12 7 4 12 17 21 67 40 41 51
REMARK Flexibility Score: inf
ROOT
ATOM      1  C   UNL A   1      40.686  20.222  26.749  1.00  0.00     0.023 C 
ENDROOT
BRANCH   1   2
ATOM      2  C   UNL A   1      42.069  19.643  27.059  1.00  0.00     0.023 C 
BRANCH   2   3
ATOM      3  C   UNL A   1      42.901  19.290  25.827  1.00  0.00     0.116 C 
BRANCH   3   4
ATOM      4  N   UNL A   1      44.092  20.101  25.724  1.00  0.00    -0.351 N 
ATOM      5  O   UNL A   1      44.492  19.658  23.506  1.00  0.00    -0.269 OA
ATOM      6  C   UNL A   1      44.800  20.226  24.550  1.00  0.00     0.275 C 
ATOM      7  H   UNL A   1      44.410  20.581  26.522  1.00  0.00     0.163 HD
BRANCH   6   8
ATOM      8  C   UNL A   1      46.031  21.130  24.656  1.00  0.00     0.363 C 
BRANCH   8   9
ATOM      9  N   UNL A   1      45.854  22.362  23.855  1.00  0.00    -0.326 N 
ATOM     10  C   UNL A   1      46.363  23.549  24.576  1.00  0.00     0.275 C 
ATOM     11  C   UNL A   1      44.472  22.892  23.989  1.00  0.00     0.275 C 
ATOM     12  H   UNL A   1      46.233  22.097  22.947  1.00  0.00     0.348 HD
ATOM     13  C   UNL A   1      44.944  23.842  25.132  1.00  0.00     0.068 C 
ATOM     14  C   UNL A   1      44.555  25.328  25.069  1.00  0.00     0.019 C 
ATOM     15  C   UNL A   1      44.588  23.358  26.548  1.00  0.00     0.019 C 
ATOM     16  C   UNL A   1      44.182  25.691  26.506  1.00  0.00     0.001 C 
ATOM     17  C   UNL A   1      43.604  24.403  27.055  1.00  0.00     0.001 C 
ENDBRANCH   8   9
ENDBRANCH   6   8
ENDBRANCH   3   4
ENDBRANCH   2   3
ENDBRANCH   1   2
BRANCH   1  18
ATOM     18  C   UNL A   1      40.641  21.732  26.555  1.00  0.00     0.116 C 
BRANCH  18  19
ATOM     19  N   UNL A   1      39.475  22.172  25.806  1.00  0.00    -0.352 N 
ATOM     20  C   UNL A   1      38.779  23.356  25.888  1.00  0.00     0.251 C 
ATOM     21  H   UNL A   1      39.132  21.528  25.144  1.00  0.00     0.163 HD
ATOM     22  O   UNL A   1      37.726  23.493  25.280  1.00  0.00    -0.269 OA
BRANCH  20  23
ATOM     23  C   UNL A   1      39.288  24.455  26.738  1.00  0.00     0.039 A 
ATOM     24  C   UNL A   1      40.085  25.443  26.155  1.00  0.00     0.014 A 
ATOM     25  C   UNL A   1      38.981  24.518  28.101  1.00  0.00     0.014 A 
ATOM     26  C   UNL A   1      40.515  26.530  26.920  1.00  0.00     0.010 A 
ATOM     27  C   UNL A   1      39.345  25.640  28.842  1.00  0.00     0.010 A 
ATOM     28  C   UNL A   1      40.115  26.658  28.260  1.00  0.00    -0.014 A 
BRANCH  28  29
ATOM     29  C   UNL A   1      40.484  27.855  29.061  1.00  0.00     0.031 A 
ATOM     30  C   UNL A   1      41.812  27.921  29.763  1.00  0.00     0.074 A 
ATOM     31  C   UNL A   1      39.596  28.859  29.209  1.00  0.00     0.049 A 
ATOM     32  N   UNL A   1      42.286  28.853  30.552  1.00  0.00    -0.248 NA
ATOM     33  C   UNL A   1      42.720  26.779  29.574  1.00  0.00     0.031 C 
ATOM     34  C   UNL A   1      38.257  28.898  28.617  1.00  0.00     0.029 A 
ATOM     35  N   UNL A   1      39.681  30.036  29.910  1.00  0.00    -0.354 N 
ATOM     36  C   UNL A   1      43.535  28.405  30.962  1.00  0.00     0.074 A 
ATOM     37  C   UNL A   1      43.723  27.094  30.378  1.00  0.00     0.031 C 
ATOM     38  C   UNL A   1      37.661  30.052  28.955  1.00  0.00     0.029 A 
ATOM     39  C   UNL A   1      38.552  30.813  29.824  1.00  0.00     0.049 A 
ATOM     40  H   UNL A   1      40.478  30.298  30.425  1.00  0.00     0.167 HD
ATOM     41  C   UNL A   1      44.450  29.035  31.736  1.00  0.00     0.037 A 
ATOM     42  C   UNL A   1      38.262  32.001  30.388  1.00  0.00     0.037 A 
ATOM     43  C   UNL A   1      44.268  30.347  32.300  1.00  0.00     0.049 A 
ATOM     44  C   UNL A   1      39.287  32.669  31.264  1.00  0.00     0.074 A 
ATOM     45  C   UNL A   1      45.162  31.096  33.047  1.00  0.00     0.029 A 
ATOM     46  N   UNL A   1      43.109  31.102  32.189  1.00  0.00    -0.354 N 
ATOM     47  N   UNL A   1      40.493  32.266  31.583  1.00  0.00    -0.248 NA
ATOM     48  C   UNL A   1      38.910  33.960  31.855  1.00  0.00     0.031 C 
ATOM     49  C   UNL A   1      44.525  32.278  33.435  1.00  0.00     0.029 A 
ATOM     50  C   UNL A   1      43.255  32.296  32.879  1.00  0.00     0.049 A 
ATOM     51  H   UNL A   1      42.304  30.831  31.693  1.00  0.00     0.167 HD
ATOM     52  C   UNL A   1      41.030  33.267  32.381  1.00  0.00     0.074 A 
ATOM     53  C   UNL A   1      40.025  34.302  32.487  1.00  0.00     0.031 C 
ATOM     54  C   UNL A   1      42.249  33.323  32.972  1.00  0.00     0.037 A 
BRANCH  41  55
ATOM     55  C   UNL A   1      45.734  28.310  32.025  1.00  0.00     0.057 A 
ATOM     56  C   UNL A   1      45.877  27.464  33.133  1.00  0.00     0.134 A 
ATOM     57  C   UNL A   1      46.830  28.429  31.160  1.00  0.00     0.134 A 
ATOM     58  F   UNL A   1      44.870  27.312  34.006  1.00  0.00    -0.206 F 
ATOM     59  C   UNL A   1      47.071  26.787  33.387  1.00  0.00     0.040 A 
ATOM     60  C   UNL A   1      48.019  27.732  31.386  1.00  0.00     0.040 A 
ATOM     61  F   UNL A   1      46.761  29.215  30.075  1.00  0.00    -0.206 F 
ATOM     62  C   UNL A   1      48.144  26.913  32.507  1.00  0.00     0.006 A 
ENDBRANCH  41  55
BRANCH  42  63
ATOM     63  C   UNL A   1      36.950  32.650  30.130  1.00  0.00     0.057 A 
ATOM     64  C   UNL A   1      35.830  32.350  30.914  1.00  0.00     0.134 A 
ATOM     65  C   UNL A   1      36.779  33.569  29.088  1.00  0.00     0.134 A 
ATOM     66  F   UNL A   1      35.925  31.463  31.916  1.00  0.00    -0.206 F 
ATOM     67  C   UNL A   1      34.583  32.922  30.658  1.00  0.00     0.040 A 
ATOM     68  C   UNL A   1      35.544  34.170  28.838  1.00  0.00     0.040 A 
ATOM     69  F   UNL A   1      37.814  33.905  28.303  1.00  0.00    -0.206 F 
ATOM     70  C   UNL A   1      34.439  33.839  29.619  1.00  0.00     0.006 A 
ENDBRANCH  42  63
BRANCH  54  71
ATOM     71  C   UNL A   1      42.582  34.564  33.751  1.00  0.00     0.057 A 
ATOM     72  C   UNL A   1      43.089  35.716  33.137  1.00  0.00     0.134 A 
ATOM     73  C   UNL A   1      42.354  34.616  35.133  1.00  0.00     0.134 A 
ATOM     74  F   UNL A   1      43.342  35.728  31.819  1.00  0.00    -0.206 F 
ATOM     75  C   UNL A   1      43.382  36.866  33.871  1.00  0.00     0.040 A 
ATOM     76  C   UNL A   1      42.614  35.770  35.873  1.00  0.00     0.040 A 
ATOM     77  F   UNL A   1      41.861  33.553  35.784  1.00  0.00    -0.206 F 
ATOM     78  C   UNL A   1      43.136  36.898  35.243  1.00  0.00     0.006 A 
ENDBRANCH  54  71
ENDBRANCH  28  29
ENDBRANCH  20  23
ENDBRANCH  18  19
ENDBRANCH   1  18
TORSDOF 12
ENDMDL
