MODEL 1
REMARK VINA RESULT:     -11.5      0.000      0.000
REMARK SMILES O=C(C[C@H]1COCC[NH2+]1)Nc1cncc(C(=O)NCCCCNC(=O)c2ccc(-c3c4nc(c(-c5c(F)cccc5F)c5ccc([nH]5)c(-c5c(F)cccc5F)c5nc(c(-c6c(F)cccc6F)c6ccc3[nH]6)C=C5)C=C4)cc2)c1
REMARK SMILES IDX 20 1 19 2 18 3 16 4 17 5 15 7 11 8 12 9 80 10 13 11 14 12
REMARK SMILES IDX 10 13 1 14 2 15 3 17 4 18 5 19 9 20 6 21 8 22 7 25 21 26
REMARK SMILES IDX 22 27 23 28 24 29 25 31 26 32 27 33 79 34 28 35 78 36 29 37
REMARK SMILES IDX 30 38 31 39 72 40 32 41 77 42 71 43 73 44 33 45 76 46 70 47
REMARK SMILES IDX 69 48 34 50 60 51 43 52 59 53 44 54 47 55 58 56 74 57 45 58
REMARK SMILES IDX 46 59 57 61 75 62 48 63 35 64 36 65 41 66 37 67 38 68 40 69
REMARK SMILES IDX 42 70 39 71 61 72 62 73 67 74 63 75 64 76 66 77 68 78 65 79
REMARK SMILES IDX 49 80 50 81 55 82 51 83 52 84 54 85 56 86 53 87
REMARK H PARENT 18 6 10 16 9 23 9 24 23 30 73 49 47 60
REMARK Flexibility Score: inf
ROOT
ATOM      1  C   UNL A   1      31.599  30.760  26.090  1.00  0.00     0.023 C 
ENDROOT
BRANCH   1   2
ATOM      2  C   UNL A   1      31.776  29.628  27.106  1.00  0.00     0.116 C 
BRANCH   2   3
ATOM      3  N   UNL A   1      33.178  29.443  27.435  1.00  0.00    -0.352 N 
ATOM      4  C   UNL A   1      34.172  28.675  26.879  1.00  0.00     0.252 C 
ATOM      5  O   UNL A   1      35.290  28.750  27.390  1.00  0.00    -0.269 OA
ATOM      6  H   UNL A   1      33.475  29.972  28.210  1.00  0.00     0.163 HD
BRANCH   4   7
ATOM      7  C   UNL A   1      33.992  27.805  25.687  1.00  0.00     0.060 A 
ATOM      8  C   UNL A   1      33.701  25.692  24.527  1.00  0.00     0.060 A 
ATOM      9  C   UNL A   1      33.536  26.420  23.354  1.00  0.00     0.137 A 
ATOM     10  C   UNL A   1      34.009  26.412  25.682  1.00  0.00     0.043 A 
ATOM     11  N   UNL A   1      33.589  27.770  23.287  1.00  0.00    -0.262 NA
ATOM     12  C   UNL A   1      33.792  28.428  24.458  1.00  0.00     0.125 A 
BRANCH   8  13
ATOM     13  N   UNL A   1      33.532  24.286  24.514  1.00  0.00    -0.325 N 
ATOM     14  O   UNL A   1      35.695  23.632  23.988  1.00  0.00    -0.274 OA
ATOM     15  C   UNL A   1      34.521  23.357  24.239  1.00  0.00     0.230 C 
ATOM     16  H   UNL A   1      32.632  23.940  24.718  1.00  0.00     0.169 HD
BRANCH  15  17
ATOM     17  C   UNL A   1      34.066  21.909  24.149  1.00  0.00     0.167 C 
BRANCH  17  18
ATOM     18  C   UNL A   1      34.207  21.032  25.404  1.00  0.00     0.218 C 
ATOM     19  C   UNL A   1      32.812  20.748  26.012  1.00  0.00     0.225 C 
ATOM     20  N   UNL A   1      34.950  19.774  25.162  1.00  0.00    -0.340 N 
ATOM     21  O   UNL A   1      32.043  19.873  25.180  1.00  0.00    -0.369 OA
ATOM     22  C   UNL A   1      34.115  18.836  24.377  1.00  0.00     0.289 C 
ATOM     23  H   UNL A   1      35.191  19.346  26.056  1.00  0.00     0.346 HD
ATOM     24  H   UNL A   1      35.801  19.983  24.640  1.00  0.00     0.346 HD
ATOM     25  C   UNL A   1      32.722  18.626  24.992  1.00  0.00     0.221 C 
ENDBRANCH  17  18
ENDBRANCH  15  17
ENDBRANCH   8  13
ENDBRANCH   4   7
ENDBRANCH   2   3
ENDBRANCH   1   2
BRANCH   1  26
ATOM     26  C   UNL A   1      31.306  32.125  26.721  1.00  0.00     0.023 C 
BRANCH  26  27
ATOM     27  C   UNL A   1      32.533  32.865  27.242  1.00  0.00     0.116 C 
BRANCH  27  28
ATOM     28  N   UNL A   1      32.264  34.246  27.612  1.00  0.00    -0.352 N 
ATOM     29  C   UNL A   1      32.928  35.029  28.527  1.00  0.00     0.251 C 
ATOM     30  H   UNL A   1      31.510  34.675  27.147  1.00  0.00     0.163 HD
ATOM     31  O   UNL A   1      32.518  36.148  28.807  1.00  0.00    -0.269 OA
BRANCH  29  32
ATOM     32  C   UNL A   1      34.121  34.486  29.208  1.00  0.00     0.039 A 
ATOM     33  C   UNL A   1      33.947  33.770  30.395  1.00  0.00     0.014 A 
ATOM     34  C   UNL A   1      35.397  34.656  28.665  1.00  0.00     0.014 A 
ATOM     35  C   UNL A   1      35.049  33.162  31.000  1.00  0.00     0.010 A 
ATOM     36  C   UNL A   1      36.482  33.997  29.234  1.00  0.00     0.010 A 
ATOM     37  C   UNL A   1      36.317  33.241  30.403  1.00  0.00    -0.014 A 
BRANCH  37  38
ATOM     38  C   UNL A   1      37.482  32.527  30.982  1.00  0.00     0.031 A 
ATOM     39  C   UNL A   1      38.101  33.006  32.265  1.00  0.00     0.074 A 
ATOM     40  C   UNL A   1      38.027  31.493  30.313  1.00  0.00     0.049 A 
ATOM     41  N   UNL A   1      39.163  32.562  32.886  1.00  0.00    -0.248 NA
ATOM     42  C   UNL A   1      37.456  34.154  32.921  1.00  0.00     0.031 C 
ATOM     43  C   UNL A   1      37.551  30.967  29.031  1.00  0.00     0.029 A 
ATOM     44  N   UNL A   1      39.110  30.705  30.612  1.00  0.00    -0.354 N 
ATOM     45  C   UNL A   1      39.323  33.384  33.994  1.00  0.00     0.074 A 
ATOM     46  C   UNL A   1      38.277  34.382  33.935  1.00  0.00     0.031 C 
ATOM     47  C   UNL A   1      38.325  29.933  28.666  1.00  0.00     0.029 A 
ATOM     48  C   UNL A   1      39.370  29.743  29.667  1.00  0.00     0.049 A 
ATOM     49  H   UNL A   1      39.649  30.819  31.429  1.00  0.00     0.167 HD
ATOM     50  C   UNL A   1      40.243  33.299  34.983  1.00  0.00     0.037 A 
ATOM     51  C   UNL A   1      40.345  28.817  29.611  1.00  0.00     0.037 A 
ATOM     52  C   UNL A   1      41.264  32.287  35.056  1.00  0.00     0.049 A 
ATOM     53  C   UNL A   1      41.349  28.739  30.727  1.00  0.00     0.074 A 
ATOM     54  C   UNL A   1      42.203  32.079  36.050  1.00  0.00     0.029 A 
ATOM     55  N   UNL A   1      41.478  31.313  34.093  1.00  0.00    -0.354 N 
ATOM     56  N   UNL A   1      41.446  29.479  31.804  1.00  0.00    -0.248 NA
ATOM     57  C   UNL A   1      42.376  27.693  30.621  1.00  0.00     0.031 C 
ATOM     58  C   UNL A   1      43.008  31.000  35.673  1.00  0.00     0.029 A 
ATOM     59  C   UNL A   1      42.545  30.511  34.462  1.00  0.00     0.049 A 
ATOM     60  H   UNL A   1      40.949  31.207  33.269  1.00  0.00     0.167 HD
ATOM     61  C   UNL A   1      42.524  28.972  32.518  1.00  0.00     0.074 A 
ATOM     62  C   UNL A   1      43.042  27.855  31.756  1.00  0.00     0.031 C 
ATOM     63  C   UNL A   1      43.041  29.396  33.697  1.00  0.00     0.037 A 
BRANCH  50  64
ATOM     64  C   UNL A   1      40.182  34.328  36.073  1.00  0.00     0.057 A 
ATOM     65  C   UNL A   1      40.924  35.515  36.008  1.00  0.00     0.134 A 
ATOM     66  C   UNL A   1      39.349  34.147  37.184  1.00  0.00     0.134 A 
ATOM     67  F   UNL A   1      41.751  35.744  34.977  1.00  0.00    -0.206 F 
ATOM     68  C   UNL A   1      40.858  36.474  37.021  1.00  0.00     0.040 A 
ATOM     69  C   UNL A   1      39.254  35.109  38.190  1.00  0.00     0.040 A 
ATOM     70  F   UNL A   1      38.607  33.035  37.306  1.00  0.00    -0.206 F 
ATOM     71  C   UNL A   1      40.015  36.274  38.113  1.00  0.00     0.006 A 
ENDBRANCH  50  64
BRANCH  51  72
ATOM     72  C   UNL A   1      40.406  27.869  28.471  1.00  0.00     0.057 A 
ATOM     73  C   UNL A   1      39.766  26.626  28.534  1.00  0.00     0.134 A 
ATOM     74  C   UNL A   1      41.107  28.176  27.300  1.00  0.00     0.134 A 
ATOM     75  F   UNL A   1      39.094  26.269  29.638  1.00  0.00    -0.206 F 
ATOM     76  C   UNL A   1      39.838  25.712  27.481  1.00  0.00     0.040 A 
ATOM     77  C   UNL A   1      41.168  27.282  26.229  1.00  0.00     0.040 A 
ATOM     78  F   UNL A   1      41.734  29.355  27.175  1.00  0.00    -0.206 F 
ATOM     79  C   UNL A   1      40.538  26.042  26.323  1.00  0.00     0.006 A 
ENDBRANCH  51  72
BRANCH  63  80
ATOM     80  C   UNL A   1      44.201  28.626  34.253  1.00  0.00     0.057 A 
ATOM     81  C   UNL A   1      45.525  28.992  33.986  1.00  0.00     0.134 A 
ATOM     82  C   UNL A   1      43.988  27.528  35.096  1.00  0.00     0.134 A 
ATOM     83  F   UNL A   1      45.795  30.026  33.174  1.00  0.00    -0.206 F 
ATOM     84  C   UNL A   1      46.599  28.281  34.524  1.00  0.00     0.040 A 
ATOM     85  C   UNL A   1      45.053  26.825  35.660  1.00  0.00     0.040 A 
ATOM     86  F   UNL A   1      42.743  27.131  35.397  1.00  0.00    -0.206 F 
ATOM     87  C   UNL A   1      46.364  27.198  35.369  1.00  0.00     0.006 A 
ENDBRANCH  63  80
ENDBRANCH  37  38
ENDBRANCH  29  32
ENDBRANCH  27  28
ENDBRANCH  26  27
ENDBRANCH   1  26
TORSDOF 14
ENDMDL
MODEL 2
REMARK VINA RESULT:     -11.3      2.339      8.209
REMARK SMILES O=C(C[C@H]1COCC[NH2+]1)Nc1cncc(C(=O)NCCCCNC(=O)c2ccc(-c3c4nc(c(-c5c(F)cccc5F)c5ccc([nH]5)c(-c5c(F)cccc5F)c5nc(c(-c6c(F)cccc6F)c6ccc3[nH]6)C=C5)C=C4)cc2)c1
REMARK SMILES IDX 20 1 19 2 18 3 16 4 17 5 15 7 11 8 12 9 80 10 13 11 14 12
REMARK SMILES IDX 10 13 1 14 2 15 3 17 4 18 5 19 9 20 6 21 8 22 7 25 21 26
REMARK SMILES IDX 22 27 23 28 24 29 25 31 26 32 27 33 79 34 28 35 78 36 29 37
REMARK SMILES IDX 30 38 31 39 72 40 32 41 77 42 71 43 73 44 33 45 76 46 70 47
REMARK SMILES IDX 69 48 34 50 60 51 43 52 59 53 44 54 47 55 58 56 74 57 45 58
REMARK SMILES IDX 46 59 57 61 75 62 48 63 35 64 36 65 41 66 37 67 38 68 40 69
REMARK SMILES IDX 42 70 39 71 61 72 62 73 67 74 63 75 64 76 66 77 68 78 65 79
REMARK SMILES IDX 49 80 50 81 55 82 51 83 52 84 54 85 56 86 53 87
REMARK H PARENT 18 6 10 16 9 23 9 24 23 30 73 49 47 60
REMARK Flexibility Score: inf
ROOT
ATOM      1  C   UNL A   1      35.690  21.617  26.106  1.00  0.00     0.023 C 
ENDROOT
BRANCH   1   2
ATOM      2  C   UNL A   1      34.433  21.453  26.965  1.00  0.00     0.116 C 
BRANCH   2   3
ATOM      3  N   UNL A   1      33.504  20.523  26.347  1.00  0.00    -0.352 N 
ATOM      4  C   UNL A   1      32.619  20.645  25.304  1.00  0.00     0.252 C 
ATOM      5  O   UNL A   1      31.966  19.646  25.002  1.00  0.00    -0.269 OA
ATOM      6  H   UNL A   1      33.508  19.629  26.758  1.00  0.00     0.163 HD
BRANCH   4   7
ATOM      7  C   UNL A   1      32.437  21.883  24.499  1.00  0.00     0.060 A 
ATOM      8  C   UNL A   1      32.041  24.255  24.168  1.00  0.00     0.060 A 
ATOM      9  C   UNL A   1      32.261  24.047  22.812  1.00  0.00     0.137 A 
ATOM     10  C   UNL A   1      32.058  23.130  24.993  1.00  0.00     0.043 A 
ATOM     11  N   UNL A   1      32.553  22.844  22.267  1.00  0.00    -0.262 NA
ATOM     12  C   UNL A   1      32.656  21.798  23.128  1.00  0.00     0.125 A 
BRANCH   8  13
ATOM     13  N   UNL A   1      31.837  25.569  24.656  1.00  0.00    -0.325 N 
ATOM     14  O   UNL A   1      33.860  25.905  25.741  1.00  0.00    -0.274 OA
ATOM     15  C   UNL A   1      32.741  26.299  25.410  1.00  0.00     0.230 C 
ATOM     16  H   UNL A   1      30.978  26.000  24.440  1.00  0.00     0.169 HD
BRANCH  15  17
ATOM     17  C   UNL A   1      32.242  27.635  25.935  1.00  0.00     0.167 C 
BRANCH  17  18
ATOM     18  C   UNL A   1      32.761  28.913  25.255  1.00  0.00     0.218 C 
ATOM     19  C   UNL A   1      31.772  30.080  25.494  1.00  0.00     0.225 C 
ATOM     20  N   UNL A   1      34.134  29.283  25.669  1.00  0.00    -0.340 N 
ATOM     21  O   UNL A   1      31.777  30.503  26.861  1.00  0.00    -0.369 OA
ATOM     22  C   UNL A   1      34.121  29.807  27.055  1.00  0.00     0.289 C 
ATOM     23  H   UNL A   1      34.494  30.001  25.039  1.00  0.00     0.346 HD
ATOM     24  H   UNL A   1      34.730  28.458  25.628  1.00  0.00     0.346 HD
ATOM     25  C   UNL A   1      33.087  30.928  27.254  1.00  0.00     0.221 C 
ENDBRANCH  17  18
ENDBRANCH  15  17
ENDBRANCH   8  13
ENDBRANCH   4   7
ENDBRANCH   2   3
ENDBRANCH   1   2
BRANCH   1  26
ATOM     26  C   UNL A   1      35.717  22.905  25.278  1.00  0.00     0.023 C 
BRANCH  26  27
ATOM     27  C   UNL A   1      37.065  23.617  25.246  1.00  0.00     0.116 C 
BRANCH  27  28
ATOM     28  N   UNL A   1      38.196  22.724  25.450  1.00  0.00    -0.352 N 
ATOM     29  C   UNL A   1      39.369  22.972  26.126  1.00  0.00     0.251 C 
ATOM     30  H   UNL A   1      38.111  21.827  25.054  1.00  0.00     0.163 HD
ATOM     31  O   UNL A   1      40.277  22.153  26.125  1.00  0.00    -0.269 OA
BRANCH  29  32
ATOM     32  C   UNL A   1      39.540  24.267  26.817  1.00  0.00     0.039 A 
ATOM     33  C   UNL A   1      39.001  24.420  28.096  1.00  0.00     0.014 A 
ATOM     34  C   UNL A   1      40.253  25.310  26.220  1.00  0.00     0.014 A 
ATOM     35  C   UNL A   1      39.238  25.597  28.808  1.00  0.00     0.010 A 
ATOM     36  C   UNL A   1      40.543  26.455  26.955  1.00  0.00     0.010 A 
ATOM     37  C   UNL A   1      40.042  26.608  28.256  1.00  0.00    -0.014 A 
BRANCH  37  38
ATOM     38  C   UNL A   1      40.381  27.827  29.030  1.00  0.00     0.031 A 
ATOM     39  C   UNL A   1      41.689  27.916  29.766  1.00  0.00     0.074 A 
ATOM     40  C   UNL A   1      39.480  28.822  29.131  1.00  0.00     0.049 A 
ATOM     41  N   UNL A   1      42.131  28.864  30.552  1.00  0.00    -0.248 NA
ATOM     42  C   UNL A   1      42.608  26.777  29.619  1.00  0.00     0.031 C 
ATOM     43  C   UNL A   1      38.154  28.831  28.508  1.00  0.00     0.029 A 
ATOM     44  N   UNL A   1      39.536  30.016  29.806  1.00  0.00    -0.354 N 
ATOM     45  C   UNL A   1      43.369  28.428  31.006  1.00  0.00     0.074 A 
ATOM     46  C   UNL A   1      43.588  27.113  30.445  1.00  0.00     0.031 C 
ATOM     47  C   UNL A   1      37.532  29.981  28.812  1.00  0.00     0.029 A 
ATOM     48  C   UNL A   1      38.399  30.776  29.678  1.00  0.00     0.049 A 
ATOM     49  H   UNL A   1      40.319  30.301  30.331  1.00  0.00     0.167 HD
ATOM     50  C   UNL A   1      44.255  29.077  31.799  1.00  0.00     0.037 A 
ATOM     51  C   UNL A   1      38.088  31.975  30.205  1.00  0.00     0.037 A 
ATOM     52  C   UNL A   1      44.048  30.398  32.331  1.00  0.00     0.049 A 
ATOM     53  C   UNL A   1      39.092  32.678  31.075  1.00  0.00     0.074 A 
ATOM     54  C   UNL A   1      44.912  31.166  33.092  1.00  0.00     0.029 A 
ATOM     55  N   UNL A   1      42.894  31.147  32.157  1.00  0.00    -0.354 N 
ATOM     56  N   UNL A   1      40.288  32.284  31.439  1.00  0.00    -0.248 NA
ATOM     57  C   UNL A   1      38.705  33.993  31.603  1.00  0.00     0.031 C 
ATOM     58  C   UNL A   1      44.268  32.366  33.408  1.00  0.00     0.029 A 
ATOM     59  C   UNL A   1      43.017  32.363  32.811  1.00  0.00     0.049 A 
ATOM     60  H   UNL A   1      42.105  30.858  31.645  1.00  0.00     0.167 HD
ATOM     61  C   UNL A   1      40.807  33.314  32.214  1.00  0.00     0.074 A 
ATOM     62  C   UNL A   1      39.800  34.353  32.258  1.00  0.00     0.031 C 
ATOM     63  C   UNL A   1      42.009  33.390  32.835  1.00  0.00     0.037 A 
BRANCH  50  64
ATOM     64  C   UNL A   1      45.533  28.367  32.132  1.00  0.00     0.057 A 
ATOM     65  C   UNL A   1      45.641  27.531  33.252  1.00  0.00     0.134 A 
ATOM     66  C   UNL A   1      46.659  28.492  31.309  1.00  0.00     0.134 A 
ATOM     67  F   UNL A   1      44.603  27.378  34.088  1.00  0.00    -0.206 F 
ATOM     68  C   UNL A   1      46.830  26.865  33.554  1.00  0.00     0.040 A 
ATOM     69  C   UNL A   1      47.845  27.811  31.587  1.00  0.00     0.040 A 
ATOM     70  F   UNL A   1      46.622  29.271  30.217  1.00  0.00    -0.206 F 
ATOM     71  C   UNL A   1      47.934  26.999  32.716  1.00  0.00     0.006 A 
ENDBRANCH  50  64
BRANCH  51  72
ATOM     72  C   UNL A   1      36.778  32.601  29.904  1.00  0.00     0.057 A 
ATOM     73  C   UNL A   1      35.649  32.321  30.684  1.00  0.00     0.134 A 
ATOM     74  C   UNL A   1      36.617  33.485  28.831  1.00  0.00     0.134 A 
ATOM     75  F   UNL A   1      35.738  31.466  31.714  1.00  0.00    -0.206 F 
ATOM     76  C   UNL A   1      34.404  32.880  30.397  1.00  0.00     0.040 A 
ATOM     77  C   UNL A   1      35.382  34.071  28.546  1.00  0.00     0.040 A 
ATOM     78  F   UNL A   1      37.660  33.801  28.051  1.00  0.00    -0.206 F 
ATOM     79  C   UNL A   1      34.268  33.762  29.326  1.00  0.00     0.006 A 
ENDBRANCH  51  72
BRANCH  63  80
ATOM     80  C   UNL A   1      42.314  34.653  33.583  1.00  0.00     0.057 A 
ATOM     81  C   UNL A   1      42.890  35.763  32.955  1.00  0.00     0.134 A 
ATOM     82  C   UNL A   1      41.991  34.771  34.941  1.00  0.00     0.134 A 
ATOM     83  F   UNL A   1      43.236  35.708  31.659  1.00  0.00    -0.206 F 
ATOM     84  C   UNL A   1      43.152  36.942  33.655  1.00  0.00     0.040 A 
ATOM     85  C   UNL A   1      42.226  35.952  35.646  1.00  0.00     0.040 A 
ATOM     86  F   UNL A   1      41.431  33.746  35.600  1.00  0.00    -0.206 F 
ATOM     87  C   UNL A   1      42.814  37.040  35.004  1.00  0.00     0.006 A 
ENDBRANCH  63  80
ENDBRANCH  37  38
ENDBRANCH  29  32
ENDBRANCH  27  28
ENDBRANCH  26  27
ENDBRANCH   1  26
TORSDOF 14
ENDMDL
MODEL 3
REMARK VINA RESULT:     -11.3      4.127      9.707
REMARK SMILES O=C(C[C@H]1COCC[NH2+]1)Nc1cncc(C(=O)NCCCCNC(=O)c2ccc(-c3c4nc(c(-c5c(F)cccc5F)c5ccc([nH]5)c(-c5c(F)cccc5F)c5nc(c(-c6c(F)cccc6F)c6ccc3[nH]6)C=C5)C=C4)cc2)c1
REMARK SMILES IDX 20 1 19 2 18 3 16 4 17 5 15 7 11 8 12 9 80 10 13 11 14 12
REMARK SMILES IDX 10 13 1 14 2 15 3 17 4 18 5 19 9 20 6 21 8 22 7 25 21 26
REMARK SMILES IDX 22 27 23 28 24 29 25 31 26 32 27 33 79 34 28 35 78 36 29 37
REMARK SMILES IDX 30 38 31 39 72 40 32 41 77 42 71 43 73 44 33 45 76 46 70 47
REMARK SMILES IDX 69 48 34 50 60 51 43 52 59 53 44 54 47 55 58 56 74 57 45 58
REMARK SMILES IDX 46 59 57 61 75 62 48 63 35 64 36 65 41 66 37 67 38 68 40 69
REMARK SMILES IDX 42 70 39 71 61 72 62 73 67 74 63 75 64 76 66 77 68 78 65 79
REMARK SMILES IDX 49 80 50 81 55 82 51 83 52 84 54 85 56 86 53 87
REMARK H PARENT 18 6 10 16 9 23 9 24 23 30 73 49 47 60
REMARK Flexibility Score: inf
ROOT
ATOM      1  C   UNL A   1      36.264  20.897  25.133  1.00  0.00     0.023 C 
ENDROOT
BRANCH   1   2
ATOM      2  C   UNL A   1      36.204  22.400  24.838  1.00  0.00     0.116 C 
BRANCH   2   3
ATOM      3  N   UNL A   1      35.549  22.650  23.566  1.00  0.00    -0.352 N 
ATOM      4  C   UNL A   1      34.466  23.417  23.212  1.00  0.00     0.252 C 
ATOM      5  O   UNL A   1      34.158  23.435  22.020  1.00  0.00    -0.269 OA
ATOM      6  H   UNL A   1      35.962  22.177  22.809  1.00  0.00     0.163 HD
BRANCH   4   7
ATOM      7  C   UNL A   1      33.681  24.250  24.162  1.00  0.00     0.060 A 
ATOM      8  C   UNL A   1      32.408  26.200  24.847  1.00  0.00     0.060 A 
ATOM      9  C   UNL A   1      32.153  25.545  26.047  1.00  0.00     0.137 A 
ATOM     10  C   UNL A   1      33.249  25.556  23.940  1.00  0.00     0.043 A 
ATOM     11  N   UNL A   1      32.613  24.310  26.348  1.00  0.00    -0.262 NA
ATOM     12  C   UNL A   1      33.346  23.685  25.389  1.00  0.00     0.125 A 
BRANCH   8  13
ATOM     13  N   UNL A   1      31.801  27.453  24.585  1.00  0.00    -0.325 N 
ATOM     14  O   UNL A   1      29.799  26.735  23.658  1.00  0.00    -0.274 OA
ATOM     15  C   UNL A   1      30.557  27.641  24.006  1.00  0.00     0.230 C 
ATOM     16  H   UNL A   1      32.308  28.259  24.837  1.00  0.00     0.169 HD
BRANCH  15  17
ATOM     17  C   UNL A   1      30.178  29.081  23.699  1.00  0.00     0.167 C 
BRANCH  17  18
ATOM     18  C   UNL A   1      29.407  29.359  22.398  1.00  0.00     0.218 C 
ATOM     19  C   UNL A   1      27.884  29.241  22.649  1.00  0.00     0.225 C 
ATOM     20  N   UNL A   1      29.747  30.661  21.780  1.00  0.00    -0.340 N 
ATOM     21  O   UNL A   1      27.399  30.314  23.462  1.00  0.00    -0.369 OA
ATOM     22  C   UNL A   1      29.165  31.766  22.577  1.00  0.00     0.289 C 
ATOM     23  H   UNL A   1      29.372  30.693  20.832  1.00  0.00     0.346 HD
ATOM     24  H   UNL A   1      30.761  30.765  21.754  1.00  0.00     0.346 HD
ATOM     25  C   UNL A   1      27.663  31.578  22.843  1.00  0.00     0.221 C 
ENDBRANCH  17  18
ENDBRANCH  15  17
ENDBRANCH   8  13
ENDBRANCH   4   7
ENDBRANCH   2   3
ENDBRANCH   1   2
BRANCH   1  26
ATOM     26  C   UNL A   1      37.599  20.242  24.765  1.00  0.00     0.023 C 
BRANCH  26  27
ATOM     27  C   UNL A   1      38.735  20.513  25.745  1.00  0.00     0.116 C 
BRANCH  27  28
ATOM     28  N   UNL A   1      39.770  19.491  25.729  1.00  0.00    -0.352 N 
ATOM     29  C   UNL A   1      41.095  19.612  26.082  1.00  0.00     0.251 C 
ATOM     30  H   UNL A   1      39.486  18.598  25.429  1.00  0.00     0.163 HD
ATOM     31  O   UNL A   1      41.874  18.683  25.917  1.00  0.00    -0.269 OA
BRANCH  29  32
ATOM     32  C   UNL A   1      41.581  20.899  26.620  1.00  0.00     0.039 A 
ATOM     33  C   UNL A   1      42.086  21.851  25.730  1.00  0.00     0.014 A 
ATOM     34  C   UNL A   1      41.514  21.177  27.988  1.00  0.00     0.014 A 
ATOM     35  C   UNL A   1      42.456  23.110  26.204  1.00  0.00     0.010 A 
ATOM     36  C   UNL A   1      41.822  22.452  28.449  1.00  0.00     0.010 A 
ATOM     37  C   UNL A   1      42.291  23.432  27.562  1.00  0.00    -0.014 A 
BRANCH  37  38
ATOM     38  C   UNL A   1      42.594  24.792  28.069  1.00  0.00     0.031 A 
ATOM     39  C   UNL A   1      43.992  25.148  28.490  1.00  0.00     0.074 A 
ATOM     40  C   UNL A   1      41.595  25.683  28.219  1.00  0.00     0.049 A 
ATOM     41  N   UNL A   1      44.437  26.257  29.025  1.00  0.00    -0.248 NA
ATOM     42  C   UNL A   1      45.020  24.111  28.311  1.00  0.00     0.031 C 
ATOM     43  C   UNL A   1      40.187  25.439  27.897  1.00  0.00     0.029 A 
ATOM     44  N   UNL A   1      41.608  26.970  28.694  1.00  0.00    -0.354 N 
ATOM     45  C   UNL A   1      45.788  26.044  29.262  1.00  0.00     0.074 A 
ATOM     46  C   UNL A   1      46.082  24.687  28.856  1.00  0.00     0.031 C 
ATOM     47  C   UNL A   1      39.477  26.547  28.164  1.00  0.00     0.029 A 
ATOM     48  C   UNL A   1      40.370  27.566  28.706  1.00  0.00     0.049 A 
ATOM     49  H   UNL A   1      42.428  27.425  28.996  1.00  0.00     0.167 HD
ATOM     50  C   UNL A   1      46.707  26.911  29.750  1.00  0.00     0.037 A 
ATOM     51  C   UNL A   1      39.997  28.793  29.115  1.00  0.00     0.037 A 
ATOM     52  C   UNL A   1      46.419  28.270  30.126  1.00  0.00     0.049 A 
ATOM     53  C   UNL A   1      41.038  29.739  29.646  1.00  0.00     0.074 A 
ATOM     54  C   UNL A   1      47.294  29.245  30.571  1.00  0.00     0.029 A 
ATOM     55  N   UNL A   1      45.158  28.845  30.098  1.00  0.00    -0.354 N 
ATOM     56  N   UNL A   1      42.327  29.548  29.799  1.00  0.00    -0.248 NA
ATOM     57  C   UNL A   1      40.575  31.072  30.056  1.00  0.00     0.031 C 
ATOM     58  C   UNL A   1      46.556  30.401  30.847  1.00  0.00     0.029 A 
ATOM     59  C   UNL A   1      45.228  30.158  30.535  1.00  0.00     0.049 A 
ATOM     60  H   UNL A   1      44.335  28.389  29.810  1.00  0.00     0.167 HD
ATOM     61  C   UNL A   1      42.831  30.743  30.295  1.00  0.00     0.074 A 
ATOM     62  C   UNL A   1      41.712  31.655  30.407  1.00  0.00     0.031 C 
ATOM     63  C   UNL A   1      44.107  31.056  30.630  1.00  0.00     0.037 A 
BRANCH  50  64
ATOM     64  C   UNL A   1      48.114  26.413  29.900  1.00  0.00     0.057 A 
ATOM     65  C   UNL A   1      49.063  26.571  28.881  1.00  0.00     0.134 A 
ATOM     66  C   UNL A   1      48.536  25.800  31.086  1.00  0.00     0.134 A 
ATOM     67  F   UNL A   1      48.721  27.139  27.715  1.00  0.00    -0.206 F 
ATOM     68  C   UNL A   1      50.374  26.113  29.027  1.00  0.00     0.040 A 
ATOM     69  C   UNL A   1      49.850  25.362  31.254  1.00  0.00     0.040 A 
ATOM     70  F   UNL A   1      47.679  25.623  32.104  1.00  0.00    -0.206 F 
ATOM     71  C   UNL A   1      50.772  25.513  30.219  1.00  0.00     0.006 A 
ENDBRANCH  50  64
BRANCH  51  72
ATOM     72  C   UNL A   1      38.577  29.210  29.016  1.00  0.00     0.057 A 
ATOM     73  C   UNL A   1      37.732  29.157  30.130  1.00  0.00     0.134 A 
ATOM     74  C   UNL A   1      38.029  29.662  27.810  1.00  0.00     0.134 A 
ATOM     75  F   UNL A   1      38.196  28.715  31.307  1.00  0.00    -0.206 F 
ATOM     76  C   UNL A   1      36.387  29.519  30.045  1.00  0.00     0.040 A 
ATOM     77  C   UNL A   1      36.691  30.050  27.716  1.00  0.00     0.040 A 
ATOM     78  F   UNL A   1      38.789  29.744  26.709  1.00  0.00    -0.206 F 
ATOM     79  C   UNL A   1      35.864  29.971  28.835  1.00  0.00     0.006 A 
ENDBRANCH  51  72
BRANCH  63  80
ATOM     80  C   UNL A   1      44.365  32.451  31.113  1.00  0.00     0.057 A 
ATOM     81  C   UNL A   1      44.654  33.497  30.229  1.00  0.00     0.134 A 
ATOM     82  C   UNL A   1      44.285  32.758  32.477  1.00  0.00     0.134 A 
ATOM     83  F   UNL A   1      44.759  33.265  28.911  1.00  0.00    -0.206 F 
ATOM     84  C   UNL A   1      44.874  34.797  30.687  1.00  0.00     0.040 A 
ATOM     85  C   UNL A   1      44.478  34.058  32.945  1.00  0.00     0.040 A 
ATOM     86  F   UNL A   1      44.004  31.802  33.375  1.00  0.00    -0.206 F 
ATOM     87  C   UNL A   1      44.780  35.081  32.048  1.00  0.00     0.006 A 
ENDBRANCH  63  80
ENDBRANCH  37  38
ENDBRANCH  29  32
ENDBRANCH  27  28
ENDBRANCH  26  27
ENDBRANCH   1  26
TORSDOF 14
ENDMDL
