MODEL 1
REMARK VINA RESULT:     -12.3      0.000      0.000
REMARK SMILES O=C(NCCCCNC(=O)[C@H](CO)NC(=O)[C@H](Cc1c[nH]c2ccccc12)NC(=O)[C@H](Cc1ccc(O)cc1)NC(=O)c1ccc(F)cc1)c1ccc(-c2c3nc(c(-c4c(F)cccc4F)c4ccc([nH]4)c(-c4c(F)cccc4F)c4nc(c(-c5c(F)cccc5F)c5ccc2[nH]5)C=C4)C=C3)cc1
REMARK SMILES IDX 8 1 9 2 10 3 7 5 6 6 5 7 4 8 3 9 1 10 2 11 50 13 51 14
REMARK SMILES IDX 103 15 52 16 102 17 53 18 54 19 55 20 96 21 56 22 101 23
REMARK SMILES IDX 95 24 97 25 57 26 100 27 94 28 93 29 58 31 84 32 67 33 83 34
REMARK SMILES IDX 68 35 71 36 82 37 98 38 69 39 70 40 81 42 99 43 72 44 59 45
REMARK SMILES IDX 60 46 65 47 61 48 62 49 64 50 66 51 63 52 85 53 86 54 91 55
REMARK SMILES IDX 87 56 88 57 90 58 92 59 89 60 73 61 74 62 79 63 75 64 76 65
REMARK SMILES IDX 78 66 80 67 77 68 11 69 14 70 15 71 16 73 17 74 28 75 29 76
REMARK SMILES IDX 30 78 31 79 40 80 41 81 42 83 43 84 44 85 49 86 45 87 48 88
REMARK SMILES IDX 46 89 47 90 32 91 33 92 34 93 39 94 35 95 38 96 36 97 37 98
REMARK SMILES IDX 18 100 19 101 20 102 27 103 21 104 22 105 26 106 23 108
REMARK SMILES IDX 25 109 24 110 12 111 13 112
REMARK H PARENT 8 4 3 12 97 30 71 41 14 72 28 77 40 82 37 99 21 107 13 113
REMARK Flexibility Score: inf
ROOT
ATOM      1  N   UNL A   1      31.836  29.675  24.292  1.00  0.00    -0.354 N 
ATOM      2  C   UNL A   1      32.047  28.829  23.229  1.00  0.00     0.244 C 
ATOM      3  O   UNL A   1      33.201  28.649  22.830  1.00  0.00    -0.273 OA
ATOM      4  H   UNL A   1      32.639  30.012  24.750  1.00  0.00     0.163 HD
ENDROOT
BRANCH   1   5
ATOM      5  C   UNL A   1      30.561  30.126  24.815  1.00  0.00     0.116 C 
BRANCH   5   6
ATOM      6  C   UNL A   1      30.503  31.588  25.252  1.00  0.00     0.023 C 
BRANCH   6   7
ATOM      7  C   UNL A   1      31.040  31.915  26.637  1.00  0.00     0.023 C 
BRANCH   7   8
ATOM      8  C   UNL A   1      32.289  32.778  26.717  1.00  0.00     0.116 C 
BRANCH   8   9
ATOM      9  N   UNL A   1      32.156  34.045  27.424  1.00  0.00    -0.352 N 
ATOM     10  O   UNL A   1      32.833  35.646  28.908  1.00  0.00    -0.269 OA
ATOM     11  C   UNL A   1      33.032  34.572  28.362  1.00  0.00     0.251 C 
ATOM     12  H   UNL A   1      31.359  34.584  27.213  1.00  0.00     0.163 HD
BRANCH  11  13
ATOM     13  C   UNL A   1      34.218  33.765  28.746  1.00  0.00     0.039 A 
ATOM     14  C   UNL A   1      34.051  32.508  29.327  1.00  0.00     0.014 A 
ATOM     15  C   UNL A   1      35.495  34.324  28.630  1.00  0.00     0.014 A 
ATOM     16  C   UNL A   1      35.124  31.908  29.975  1.00  0.00     0.010 A 
ATOM     17  C   UNL A   1      36.596  33.661  29.187  1.00  0.00     0.010 A 
ATOM     18  C   UNL A   1      36.413  32.468  29.903  1.00  0.00    -0.014 A 
BRANCH  18  19
ATOM     19  C   UNL A   1      37.553  31.736  30.516  1.00  0.00     0.031 A 
ATOM     20  C   UNL A   1      38.368  30.734  29.742  1.00  0.00     0.074 A 
ATOM     21  C   UNL A   1      37.872  32.020  31.795  1.00  0.00     0.049 A 
ATOM     22  N   UNL A   1      39.380  30.011  30.153  1.00  0.00    -0.248 NA
ATOM     23  C   UNL A   1      38.007  30.507  28.334  1.00  0.00     0.031 C 
ATOM     24  C   UNL A   1      37.152  32.969  32.647  1.00  0.00     0.029 A 
ATOM     25  N   UNL A   1      38.887  31.561  32.596  1.00  0.00    -0.354 N 
ATOM     26  C   UNL A   1      39.761  29.228  29.070  1.00  0.00     0.074 A 
ATOM     27  C   UNL A   1      38.868  29.558  27.980  1.00  0.00     0.031 C 
ATOM     28  C   UNL A   1      37.774  33.063  33.828  1.00  0.00     0.029 A 
ATOM     29  C   UNL A   1      38.884  32.119  33.851  1.00  0.00     0.049 A 
ATOM     30  H   UNL A   1      39.550  30.898  32.300  1.00  0.00     0.167 HD
ATOM     31  C   UNL A   1      40.768  28.324  28.998  1.00  0.00     0.037 A 
ATOM     32  C   UNL A   1      39.662  31.878  34.922  1.00  0.00     0.037 A 
ATOM     33  C   UNL A   1      41.677  28.031  30.077  1.00  0.00     0.049 A 
ATOM     34  C   UNL A   1      40.746  30.850  34.818  1.00  0.00     0.074 A 
ATOM     35  C   UNL A   1      42.767  27.175  30.072  1.00  0.00     0.029 A 
ATOM     36  N   UNL A   1      41.605  28.579  31.348  1.00  0.00    -0.354 N 
ATOM     37  N   UNL A   1      41.103  30.135  33.780  1.00  0.00    -0.248 NA
ATOM     38  C   UNL A   1      41.520  30.576  36.036  1.00  0.00     0.031 C 
ATOM     39  C   UNL A   1      43.325  27.169  31.352  1.00  0.00     0.029 A 
ATOM     40  C   UNL A   1      42.610  28.052  32.144  1.00  0.00     0.049 A 
ATOM     41  H   UNL A   1      40.941  29.242  31.641  1.00  0.00     0.167 HD
ATOM     42  C   UNL A   1      42.137  29.322  34.218  1.00  0.00     0.074 A 
ATOM     43  C   UNL A   1      42.371  29.653  35.609  1.00  0.00     0.031 C 
ATOM     44  C   UNL A   1      42.821  28.379  33.530  1.00  0.00     0.037 A 
BRANCH  31  45
ATOM     45  C   UNL A   1      40.964  27.564  27.719  1.00  0.00     0.057 A 
ATOM     46  C   UNL A   1      40.422  26.280  27.569  1.00  0.00     0.134 A 
ATOM     47  C   UNL A   1      41.807  28.032  26.706  1.00  0.00     0.134 A 
ATOM     48  F   UNL A   1      39.618  25.766  28.513  1.00  0.00    -0.206 F 
ATOM     49  C   UNL A   1      40.732  25.479  26.468  1.00  0.00     0.040 A 
ATOM     50  C   UNL A   1      42.112  27.247  25.591  1.00  0.00     0.040 A 
ATOM     51  F   UNL A   1      42.359  29.252  26.789  1.00  0.00    -0.206 F 
ATOM     52  C   UNL A   1      41.584  25.961  25.477  1.00  0.00     0.006 A 
ENDBRANCH  31  45
BRANCH  32  53
ATOM     53  C   UNL A   1      39.400  32.602  36.189  1.00  0.00     0.057 A 
ATOM     54  C   UNL A   1      38.465  32.122  37.117  1.00  0.00     0.134 A 
ATOM     55  C   UNL A   1      40.037  33.811  36.481  1.00  0.00     0.134 A 
ATOM     56  F   UNL A   1      37.815  30.971  36.888  1.00  0.00    -0.206 F 
ATOM     57  C   UNL A   1      38.154  32.832  38.275  1.00  0.00     0.040 A 
ATOM     58  C   UNL A   1      39.756  34.519  37.651  1.00  0.00     0.040 A 
ATOM     59  F   UNL A   1      40.953  34.312  35.640  1.00  0.00    -0.206 F 
ATOM     60  C   UNL A   1      38.803  34.034  38.547  1.00  0.00     0.006 A 
ENDBRANCH  32  53
BRANCH  44  61
ATOM     61  C   UNL A   1      43.879  27.623  34.272  1.00  0.00     0.057 A 
ATOM     62  C   UNL A   1      43.583  26.416  34.914  1.00  0.00     0.134 A 
ATOM     63  C   UNL A   1      45.179  28.130  34.400  1.00  0.00     0.134 A 
ATOM     64  F   UNL A   1      42.355  25.883  34.833  1.00  0.00    -0.206 F 
ATOM     65  C   UNL A   1      44.542  25.743  35.671  1.00  0.00     0.040 A 
ATOM     66  C   UNL A   1      46.151  27.455  35.138  1.00  0.00     0.040 A 
ATOM     67  F   UNL A   1      45.524  29.276  33.795  1.00  0.00    -0.206 F 
ATOM     68  C   UNL A   1      45.831  26.262  35.784  1.00  0.00     0.006 A 
ENDBRANCH  44  61
ENDBRANCH  18  19
ENDBRANCH  11  13
ENDBRANCH   8   9
ENDBRANCH   7   8
ENDBRANCH   6   7
ENDBRANCH   5   6
ENDBRANCH   1   5
BRANCH   2  69
ATOM     69  C   UNL A   1      30.855  28.054  22.606  1.00  0.00     0.197 C 
BRANCH  69  70
ATOM     70  N   UNL A   1      29.905  27.616  23.646  1.00  0.00    -0.340 N 
ATOM     71  C   UNL A   1      29.719  26.419  24.279  1.00  0.00     0.243 C 
ATOM     72  H   UNL A   1      29.285  28.322  23.940  1.00  0.00     0.164 HD
ATOM     73  O   UNL A   1      28.639  26.254  24.851  1.00  0.00    -0.273 OA
BRANCH  71  74
ATOM     74  C   UNL A   1      30.778  25.285  24.208  1.00  0.00     0.175 C 
BRANCH  74  75
ATOM     75  N   UNL A   1      31.758  25.652  23.179  1.00  0.00    -0.342 N 
ATOM     76  C   UNL A   1      32.838  24.999  22.666  1.00  0.00     0.243 C 
ATOM     77  H   UNL A   1      31.607  26.540  22.783  1.00  0.00     0.164 HD
ATOM     78  O   UNL A   1      33.457  25.578  21.766  1.00  0.00    -0.273 OA
BRANCH  76  79
ATOM     79  C   UNL A   1      33.226  23.560  23.086  1.00  0.00     0.176 C 
BRANCH  79  80
ATOM     80  N   UNL A   1      32.319  22.680  22.328  1.00  0.00    -0.340 N 
ATOM     81  C   UNL A   1      32.104  21.331  22.251  1.00  0.00     0.251 C 
ATOM     82  H   UNL A   1      31.722  23.186  21.730  1.00  0.00     0.164 HD
ATOM     83  O   UNL A   1      31.497  20.923  21.258  1.00  0.00    -0.269 OA
BRANCH  81  84
ATOM     84  C   UNL A   1      32.446  20.346  23.325  1.00  0.00     0.040 A 
ATOM     85  C   UNL A   1      32.712  20.704  24.645  1.00  0.00     0.017 A 
ATOM     86  C   UNL A   1      32.319  18.977  23.042  1.00  0.00     0.017 A 
ATOM     87  C   UNL A   1      32.887  19.755  25.656  1.00  0.00     0.040 A 
ATOM     88  C   UNL A   1      32.469  18.014  24.050  1.00  0.00     0.040 A 
ATOM     89  C   UNL A   1      32.757  18.412  25.349  1.00  0.00     0.123 A 
ATOM     90  F   UNL A   1      32.865  17.501  26.323  1.00  0.00    -0.207 F 
ENDBRANCH  81  84
ENDBRANCH  79  80
BRANCH  79  91
ATOM     91  C   UNL A   1      34.715  23.326  22.714  1.00  0.00     0.070 C 
BRANCH  91  92
ATOM     92  C   UNL A   1      35.740  23.159  23.812  1.00  0.00    -0.045 A 
ATOM     93  C   UNL A   1      35.712  24.010  24.927  1.00  0.00     0.007 A 
ATOM     94  C   UNL A   1      36.688  22.127  23.776  1.00  0.00     0.007 A 
ATOM     95  C   UNL A   1      36.649  23.870  25.953  1.00  0.00     0.046 A 
ATOM     96  C   UNL A   1      37.646  22.008  24.780  1.00  0.00     0.046 A 
ATOM     97  C   UNL A   1      37.623  22.882  25.857  1.00  0.00     0.115 A 
BRANCH  97  98
ATOM     98  O   UNL A   1      38.576  22.732  26.820  1.00  0.00    -0.508 OA
ATOM     99  H   UNL A   1      38.439  22.134  27.526  1.00  0.00     0.293 HD
ENDBRANCH  97  98
ENDBRANCH  91  92
ENDBRANCH  79  91
ENDBRANCH  76  79
ENDBRANCH  74  75
BRANCH  74 100
ATOM    100  C   UNL A   1      31.401  25.051  25.605  1.00  0.00     0.072 C 
BRANCH 100 101
ATOM    101  C   UNL A   1      31.619  26.292  26.427  1.00  0.00    -0.020 A 
ATOM    102  C   UNL A   1      30.706  26.806  27.330  1.00  0.00     0.087 A 
ATOM    103  C   UNL A   1      32.765  27.157  26.464  1.00  0.00     0.003 A 
ATOM    104  N   UNL A   1      31.238  27.929  27.899  1.00  0.00    -0.361 N 
ATOM    105  C   UNL A   1      32.480  28.183  27.370  1.00  0.00     0.046 A 
ATOM    106  C   UNL A   1      34.006  27.194  25.793  1.00  0.00     0.010 A 
ATOM    107  H   UNL A   1      30.796  28.476  28.589  1.00  0.00     0.166 HD
ATOM    108  C   UNL A   1      33.343  29.263  27.602  1.00  0.00     0.026 A 
ATOM    109  C   UNL A   1      34.882  28.269  26.014  1.00  0.00     0.001 A 
ATOM    110  C   UNL A   1      34.546  29.294  26.895  1.00  0.00     0.002 A 
ENDBRANCH 100 101
ENDBRANCH  74 100
ENDBRANCH  71  74
ENDBRANCH  69  70
BRANCH  69 111
ATOM    111  C   UNL A   1      30.134  29.021  21.641  1.00  0.00     0.191 C 
BRANCH 111 112
ATOM    112  O   UNL A   1      30.789  30.276  21.502  1.00  0.00    -0.394 OA
ATOM    113  H   UNL A   1      31.710  30.133  21.232  1.00  0.00     0.210 HD
ENDBRANCH 111 112
ENDBRANCH  69 111
ENDBRANCH   2  69
TORSDOF 24
ENDMDL
MODEL 2
REMARK VINA RESULT:     -12.1      0.310      5.430
REMARK SMILES O=C(NCCCCNC(=O)[C@H](CO)NC(=O)[C@H](Cc1c[nH]c2ccccc12)NC(=O)[C@H](Cc1ccc(O)cc1)NC(=O)c1ccc(F)cc1)c1ccc(-c2c3nc(c(-c4c(F)cccc4F)c4ccc([nH]4)c(-c4c(F)cccc4F)c4nc(c(-c5c(F)cccc5F)c5ccc2[nH]5)C=C4)C=C3)cc1
REMARK SMILES IDX 8 1 9 2 10 3 7 5 6 6 5 7 4 8 3 9 1 10 2 11 50 13 51 14
REMARK SMILES IDX 103 15 52 16 102 17 53 18 54 19 55 20 96 21 56 22 101 23
REMARK SMILES IDX 95 24 97 25 57 26 100 27 94 28 93 29 58 31 84 32 67 33 83 34
REMARK SMILES IDX 68 35 71 36 82 37 98 38 69 39 70 40 81 42 99 43 72 44 59 45
REMARK SMILES IDX 60 46 65 47 61 48 62 49 64 50 66 51 63 52 85 53 86 54 91 55
REMARK SMILES IDX 87 56 88 57 90 58 92 59 89 60 73 61 74 62 79 63 75 64 76 65
REMARK SMILES IDX 78 66 80 67 77 68 11 69 14 70 15 71 16 73 17 74 28 75 29 76
REMARK SMILES IDX 30 78 31 79 40 80 41 81 42 83 43 84 44 85 49 86 45 87 48 88
REMARK SMILES IDX 46 89 47 90 32 91 33 92 34 93 39 94 35 95 38 96 36 97 37 98
REMARK SMILES IDX 18 100 19 101 20 102 27 103 21 104 22 105 26 106 23 108
REMARK SMILES IDX 25 109 24 110 12 111 13 112
REMARK H PARENT 8 4 3 12 97 30 71 41 14 72 28 77 40 82 37 99 21 107 13 113
REMARK Flexibility Score: inf
ROOT
ATOM      1  N   UNL A   1      31.898  29.642  24.332  1.00  0.00    -0.354 N 
ATOM      2  C   UNL A   1      32.068  28.755  23.295  1.00  0.00     0.244 C 
ATOM      3  O   UNL A   1      33.211  28.526  22.889  1.00  0.00    -0.273 OA
ATOM      4  H   UNL A   1      32.717  29.969  24.768  1.00  0.00     0.163 HD
ENDROOT
BRANCH   1   5
ATOM      5  C   UNL A   1      30.643  30.150  24.855  1.00  0.00     0.116 C 
BRANCH   5   6
ATOM      6  C   UNL A   1      30.646  31.617  25.278  1.00  0.00     0.023 C 
BRANCH   6   7
ATOM      7  C   UNL A   1      31.185  31.933  26.665  1.00  0.00     0.023 C 
BRANCH   7   8
ATOM      8  C   UNL A   1      32.400  32.842  26.754  1.00  0.00     0.116 C 
BRANCH   8   9
ATOM      9  N   UNL A   1      32.225  34.087  27.491  1.00  0.00    -0.352 N 
ATOM     10  O   UNL A   1      32.828  35.653  29.042  1.00  0.00    -0.269 OA
ATOM     11  C   UNL A   1      33.060  34.598  28.474  1.00  0.00     0.251 C 
ATOM     12  H   UNL A   1      31.430  34.622  27.266  1.00  0.00     0.163 HD
BRANCH  11  13
ATOM     13  C   UNL A   1      34.242  33.795  28.878  1.00  0.00     0.039 A 
ATOM     14  C   UNL A   1      34.071  32.605  29.586  1.00  0.00     0.014 A 
ATOM     15  C   UNL A   1      35.526  34.299  28.647  1.00  0.00     0.014 A 
ATOM     16  C   UNL A   1      35.159  32.038  30.238  1.00  0.00     0.010 A 
ATOM     17  C   UNL A   1      36.635  33.659  29.214  1.00  0.00     0.010 A 
ATOM     18  C   UNL A   1      36.457  32.547  30.051  1.00  0.00    -0.014 A 
BRANCH  18  19
ATOM     19  C   UNL A   1      37.606  31.843  30.678  1.00  0.00     0.031 A 
ATOM     20  C   UNL A   1      38.025  32.104  32.100  1.00  0.00     0.074 A 
ATOM     21  C   UNL A   1      38.258  30.918  29.944  1.00  0.00     0.049 A 
ATOM     22  N   UNL A   1      39.017  31.574  32.772  1.00  0.00    -0.248 NA
ATOM     23  C   UNL A   1      37.242  33.083  32.870  1.00  0.00     0.031 C 
ATOM     24  C   UNL A   1      37.946  30.582  28.552  1.00  0.00     0.029 A 
ATOM     25  N   UNL A   1      39.298  30.081  30.261  1.00  0.00    -0.354 N 
ATOM     26  C   UNL A   1      38.995  32.168  34.028  1.00  0.00     0.074 A 
ATOM     27  C   UNL A   1      37.893  33.107  34.028  1.00  0.00     0.031 C 
ATOM     28  C   UNL A   1      38.736  29.578  28.153  1.00  0.00     0.029 A 
ATOM     29  C   UNL A   1      39.668  29.257  29.226  1.00  0.00     0.049 A 
ATOM     30  H   UNL A   1      39.734  30.072  31.142  1.00  0.00     0.167 HD
ATOM     31  C   UNL A   1      39.818  31.941  35.080  1.00  0.00     0.037 A 
ATOM     32  C   UNL A   1      40.669  28.363  29.129  1.00  0.00     0.037 A 
ATOM     33  C   UNL A   1      40.888  30.976  35.084  1.00  0.00     0.049 A 
ATOM     34  C   UNL A   1      41.580  28.159  30.300  1.00  0.00     0.074 A 
ATOM     35  C   UNL A   1      41.732  30.634  36.128  1.00  0.00     0.029 A 
ATOM     36  N   UNL A   1      41.263  30.201  33.998  1.00  0.00    -0.354 N 
ATOM     37  N   UNL A   1      41.529  28.716  31.485  1.00  0.00    -0.248 NA
ATOM     38  C   UNL A   1      42.698  27.224  30.117  1.00  0.00     0.031 C 
ATOM     39  C   UNL A   1      42.647  29.688  35.661  1.00  0.00     0.029 A 
ATOM     40  C   UNL A   1      42.348  29.409  34.338  1.00  0.00     0.049 A 
ATOM     41  H   UNL A   1      40.824  30.212  33.117  1.00  0.00     0.167 HD
ATOM     42  C   UNL A   1      42.611  28.206  32.187  1.00  0.00     0.074 A 
ATOM     43  C   UNL A   1      43.282  27.271  31.306  1.00  0.00     0.031 C 
ATOM     44  C   UNL A   1      43.014  28.496  33.446  1.00  0.00     0.037 A 
BRANCH  31  45
ATOM     45  C   UNL A   1      39.621  32.741  36.334  1.00  0.00     0.057 A 
ATOM     46  C   UNL A   1      38.624  32.382  37.253  1.00  0.00     0.134 A 
ATOM     47  C   UNL A   1      40.303  33.942  36.558  1.00  0.00     0.134 A 
ATOM     48  F   UNL A   1      37.922  31.252  37.087  1.00  0.00    -0.206 F 
ATOM     49  C   UNL A   1      38.298  33.202  38.335  1.00  0.00     0.040 A 
ATOM     50  C   UNL A   1      39.998  34.762  37.646  1.00  0.00     0.040 A 
ATOM     51  F   UNL A   1      41.268  34.342  35.715  1.00  0.00    -0.206 F 
ATOM     52  C   UNL A   1      38.983  34.399  38.531  1.00  0.00     0.006 A 
ENDBRANCH  31  45
BRANCH  32  53
ATOM     53  C   UNL A   1      40.873  27.636  27.852  1.00  0.00     0.057 A 
ATOM     54  C   UNL A   1      40.245  26.406  27.612  1.00  0.00     0.134 A 
ATOM     55  C   UNL A   1      41.735  28.125  26.867  1.00  0.00     0.134 A 
ATOM     56  F   UNL A   1      39.414  25.881  28.524  1.00  0.00    -0.206 F 
ATOM     57  C   UNL A   1      40.489  25.676  26.450  1.00  0.00     0.040 A 
ATOM     58  C   UNL A   1      41.966  27.418  25.685  1.00  0.00     0.040 A 
ATOM     59  F   UNL A   1      42.351  29.304  27.033  1.00  0.00    -0.206 F 
ATOM     60  C   UNL A   1      41.350  26.185  25.480  1.00  0.00     0.006 A 
ENDBRANCH  32  53
BRANCH  44  61
ATOM     61  C   UNL A   1      44.248  27.810  33.944  1.00  0.00     0.057 A 
ATOM     62  C   UNL A   1      44.170  26.571  34.591  1.00  0.00     0.134 A 
ATOM     63  C   UNL A   1      45.508  28.412  33.836  1.00  0.00     0.134 A 
ATOM     64  F   UNL A   1      42.991  25.948  34.732  1.00  0.00    -0.206 F 
ATOM     65  C   UNL A   1      45.304  25.960  35.127  1.00  0.00     0.040 A 
ATOM     66  C   UNL A   1      46.651  27.800  34.349  1.00  0.00     0.040 A 
ATOM     67  F   UNL A   1      45.646  29.592  33.213  1.00  0.00    -0.206 F 
ATOM     68  C   UNL A   1      46.549  26.574  35.006  1.00  0.00     0.006 A 
ENDBRANCH  44  61
ENDBRANCH  18  19
ENDBRANCH  11  13
ENDBRANCH   8   9
ENDBRANCH   7   8
ENDBRANCH   6   7
ENDBRANCH   5   6
ENDBRANCH   1   5
BRANCH   2  69
ATOM     69  C   UNL A   1      30.846  27.998  22.712  1.00  0.00     0.197 C 
BRANCH  69  70
ATOM     70  N   UNL A   1      29.957  27.517  23.788  1.00  0.00    -0.340 N 
ATOM     71  C   UNL A   1      29.842  26.309  24.417  1.00  0.00     0.243 C 
ATOM     72  H   UNL A   1      29.326  28.197  24.115  1.00  0.00     0.164 HD
ATOM     73  O   UNL A   1      28.794  26.100  25.032  1.00  0.00    -0.273 OA
BRANCH  71  74
ATOM     74  C   UNL A   1      30.938  25.214  24.289  1.00  0.00     0.175 C 
BRANCH  74  75
ATOM     75  N   UNL A   1      31.803  25.577  23.160  1.00  0.00    -0.342 N 
ATOM     76  C   UNL A   1      32.819  24.920  22.535  1.00  0.00     0.243 C 
ATOM     77  H   UNL A   1      31.614  26.466  22.783  1.00  0.00     0.164 HD
ATOM     78  O   UNL A   1      33.341  25.497  21.574  1.00  0.00    -0.273 OA
BRANCH  76  79
ATOM     79  C   UNL A   1      33.244  23.479  22.912  1.00  0.00     0.176 C 
BRANCH  79  80
ATOM     80  N   UNL A   1      32.418  22.602  22.063  1.00  0.00    -0.340 N 
ATOM     81  C   UNL A   1      32.138  21.262  22.025  1.00  0.00     0.251 C 
ATOM     82  H   UNL A   1      31.957  23.099  21.350  1.00  0.00     0.164 HD
ATOM     83  O   UNL A   1      31.675  20.825  20.968  1.00  0.00    -0.269 OA
BRANCH  81  84
ATOM     84  C   UNL A   1      32.243  20.331  23.191  1.00  0.00     0.040 A 
ATOM     85  C   UNL A   1      32.279  18.943  23.071  1.00  0.00     0.017 A 
ATOM     86  C   UNL A   1      32.502  20.874  24.459  1.00  0.00     0.017 A 
ATOM     87  C   UNL A   1      32.522  18.104  24.162  1.00  0.00     0.040 A 
ATOM     88  C   UNL A   1      32.769  20.046  25.559  1.00  0.00     0.040 A 
ATOM     89  C   UNL A   1      32.772  18.667  25.401  1.00  0.00     0.123 A 
ATOM     90  F   UNL A   1      33.063  17.872  26.437  1.00  0.00    -0.207 F 
ENDBRANCH  81  84
ENDBRANCH  79  80
BRANCH  79  91
ATOM     91  C   UNL A   1      34.760  23.323  22.616  1.00  0.00     0.070 C 
BRANCH  91  92
ATOM     92  C   UNL A   1      35.735  23.205  23.765  1.00  0.00    -0.045 A 
ATOM     93  C   UNL A   1      35.631  24.076  24.860  1.00  0.00     0.007 A 
ATOM     94  C   UNL A   1      36.709  22.198  23.795  1.00  0.00     0.007 A 
ATOM     95  C   UNL A   1      36.520  23.980  25.932  1.00  0.00     0.046 A 
ATOM     96  C   UNL A   1      37.620  22.124  24.847  1.00  0.00     0.046 A 
ATOM     97  C   UNL A   1      37.522  23.016  25.904  1.00  0.00     0.115 A 
BRANCH  97  98
ATOM     98  O   UNL A   1      38.432  22.911  26.913  1.00  0.00    -0.508 OA
ATOM     99  H   UNL A   1      38.151  22.964  27.805  1.00  0.00     0.293 HD
ENDBRANCH  97  98
ENDBRANCH  91  92
ENDBRANCH  79  91
ENDBRANCH  76  79
ENDBRANCH  74  75
BRANCH  74 100
ATOM    100  C   UNL A   1      31.695  25.062  25.630  1.00  0.00     0.072 C 
BRANCH 100 101
ATOM    101  C   UNL A   1      31.798  26.315  26.456  1.00  0.00    -0.020 A 
ATOM    102  C   UNL A   1      30.810  26.780  27.304  1.00  0.00     0.087 A 
ATOM    103  C   UNL A   1      32.891  27.242  26.551  1.00  0.00     0.003 A 
ATOM    104  N   UNL A   1      31.246  27.932  27.896  1.00  0.00    -0.361 N 
ATOM    105  C   UNL A   1      32.500  28.253  27.435  1.00  0.00     0.046 A 
ATOM    106  C   UNL A   1      34.164  27.346  25.950  1.00  0.00     0.010 A 
ATOM    107  H   UNL A   1      30.737  28.455  28.556  1.00  0.00     0.166 HD
ATOM    108  C   UNL A   1      33.288  29.380  27.708  1.00  0.00     0.026 A 
ATOM    109  C   UNL A   1      34.965  28.468  26.213  1.00  0.00     0.001 A 
ATOM    110  C   UNL A   1      34.526  29.475  27.069  1.00  0.00     0.002 A 
ENDBRANCH 100 101
ENDBRANCH  74 100
ENDBRANCH  71  74
ENDBRANCH  69  70
BRANCH  69 111
ATOM    111  C   UNL A   1      30.067  28.997  21.827  1.00  0.00     0.191 C 
BRANCH 111 112
ATOM    112  O   UNL A   1      30.870  30.064  21.337  1.00  0.00    -0.394 OA
ATOM    113  H   UNL A   1      31.766  29.738  21.156  1.00  0.00     0.210 HD
ENDBRANCH 111 112
ENDBRANCH  69 111
ENDBRANCH   2  69
TORSDOF 24
ENDMDL
MODEL 3
REMARK VINA RESULT:     -11.3      6.367     10.394
REMARK SMILES O=C(NCCCCNC(=O)[C@H](CO)NC(=O)[C@H](Cc1c[nH]c2ccccc12)NC(=O)[C@H](Cc1ccc(O)cc1)NC(=O)c1ccc(F)cc1)c1ccc(-c2c3nc(c(-c4c(F)cccc4F)c4ccc([nH]4)c(-c4c(F)cccc4F)c4nc(c(-c5c(F)cccc5F)c5ccc2[nH]5)C=C4)C=C3)cc1
REMARK SMILES IDX 8 1 9 2 10 3 7 5 6 6 5 7 4 8 3 9 1 10 2 11 50 13 51 14
REMARK SMILES IDX 103 15 52 16 102 17 53 18 54 19 55 20 96 21 56 22 101 23
REMARK SMILES IDX 95 24 97 25 57 26 100 27 94 28 93 29 58 31 84 32 67 33 83 34
REMARK SMILES IDX 68 35 71 36 82 37 98 38 69 39 70 40 81 42 99 43 72 44 59 45
REMARK SMILES IDX 60 46 65 47 61 48 62 49 64 50 66 51 63 52 85 53 86 54 91 55
REMARK SMILES IDX 87 56 88 57 90 58 92 59 89 60 73 61 74 62 79 63 75 64 76 65
REMARK SMILES IDX 78 66 80 67 77 68 11 69 14 70 15 71 16 73 17 74 28 75 29 76
REMARK SMILES IDX 30 78 31 79 40 80 41 81 42 83 43 84 44 85 49 86 45 87 48 88
REMARK SMILES IDX 46 89 47 90 32 91 33 92 34 93 39 94 35 95 38 96 36 97 37 98
REMARK SMILES IDX 18 100 19 101 20 102 27 103 21 104 22 105 26 106 23 108
REMARK SMILES IDX 25 109 24 110 12 111 13 112
REMARK H PARENT 8 4 3 12 97 30 71 41 14 72 28 77 40 82 37 99 21 107 13 113
REMARK Flexibility Score: inf
ROOT
ATOM      1  N   UNL A   1      37.844  29.922  28.740  1.00  0.00    -0.354 N 
ATOM      2  C   UNL A   1      36.513  30.242  28.868  1.00  0.00     0.244 C 
ATOM      3  O   UNL A   1      36.097  30.637  29.961  1.00  0.00    -0.273 OA
ATOM      4  H   UNL A   1      38.420  30.128  29.510  1.00  0.00     0.163 HD
ENDROOT
BRANCH   1   5
ATOM      5  C   UNL A   1      38.494  29.313  27.595  1.00  0.00     0.116 C 
BRANCH   5   6
ATOM      6  C   UNL A   1      39.622  28.335  27.915  1.00  0.00     0.023 C 
BRANCH   6   7
ATOM      7  C   UNL A   1      39.281  26.853  27.877  1.00  0.00     0.023 C 
BRANCH   7   8
ATOM      8  C   UNL A   1      40.333  25.880  28.385  1.00  0.00     0.116 C 
BRANCH   8   9
ATOM      9  N   UNL A   1      40.420  24.601  27.692  1.00  0.00    -0.352 N 
ATOM     10  O   UNL A   1      41.473  23.034  26.405  1.00  0.00    -0.269 OA
ATOM     11  C   UNL A   1      41.495  24.122  26.956  1.00  0.00     0.251 C 
ATOM     12  H   UNL A   1      39.632  24.014  27.754  1.00  0.00     0.163 HD
BRANCH  11  13
ATOM     13  C   UNL A   1      42.681  25.000  26.796  1.00  0.00     0.039 A 
ATOM     14  C   UNL A   1      43.498  25.281  27.891  1.00  0.00     0.014 A 
ATOM     15  C   UNL A   1      42.904  25.636  25.569  1.00  0.00     0.014 A 
ATOM     16  C   UNL A   1      44.394  26.341  27.820  1.00  0.00     0.010 A 
ATOM     17  C   UNL A   1      43.888  26.628  25.471  1.00  0.00     0.010 A 
ATOM     18  C   UNL A   1      44.611  27.020  26.607  1.00  0.00    -0.014 A 
BRANCH  18  19
ATOM     19  C   UNL A   1      45.659  28.073  26.547  1.00  0.00     0.031 A 
ATOM     20  C   UNL A   1      45.328  29.537  26.671  1.00  0.00     0.074 A 
ATOM     21  C   UNL A   1      46.942  27.682  26.414  1.00  0.00     0.049 A 
ATOM     22  N   UNL A   1      46.138  30.566  26.622  1.00  0.00    -0.248 NA
ATOM     23  C   UNL A   1      43.916  29.901  26.871  1.00  0.00     0.031 C 
ATOM     24  C   UNL A   1      47.384  26.292  26.279  1.00  0.00     0.029 A 
ATOM     25  N   UNL A   1      48.109  28.404  26.388  1.00  0.00    -0.354 N 
ATOM     26  C   UNL A   1      45.338  31.694  26.759  1.00  0.00     0.074 A 
ATOM     27  C   UNL A   1      43.974  31.228  26.887  1.00  0.00     0.031 C 
ATOM     28  C   UNL A   1      48.721  26.256  26.240  1.00  0.00     0.029 A 
ATOM     29  C   UNL A   1      49.230  27.621  26.257  1.00  0.00     0.049 A 
ATOM     30  H   UNL A   1      48.139  29.384  26.457  1.00  0.00     0.167 HD
ATOM     31  C   UNL A   1      45.717  32.995  26.779  1.00  0.00     0.037 A 
ATOM     32  C   UNL A   1      50.526  27.957  26.127  1.00  0.00     0.037 A 
ATOM     33  C   UNL A   1      47.081  33.448  26.690  1.00  0.00     0.049 A 
ATOM     34  C   UNL A   1      50.907  29.405  26.123  1.00  0.00     0.074 A 
ATOM     35  C   UNL A   1      47.562  34.745  26.767  1.00  0.00     0.029 A 
ATOM     36  N   UNL A   1      48.181  32.625  26.504  1.00  0.00    -0.354 N 
ATOM     37  N   UNL A   1      50.138  30.456  26.273  1.00  0.00    -0.248 NA
ATOM     38  C   UNL A   1      52.325  29.719  25.908  1.00  0.00     0.031 C 
ATOM     39  C   UNL A   1      48.946  34.712  26.579  1.00  0.00     0.029 A 
ATOM     40  C   UNL A   1      49.333  33.392  26.428  1.00  0.00     0.049 A 
ATOM     41  H   UNL A   1      48.148  31.644  26.435  1.00  0.00     0.167 HD
ATOM     42  C   UNL A   1      50.976  31.555  26.165  1.00  0.00     0.074 A 
ATOM     43  C   UNL A   1      52.317  31.043  25.966  1.00  0.00     0.031 C 
ATOM     44  C   UNL A   1      50.658  32.869  26.215  1.00  0.00     0.037 A 
BRANCH  31  45
ATOM     45  C   UNL A   1      44.657  34.051  26.899  1.00  0.00     0.057 A 
ATOM     46  C   UNL A   1      44.268  34.523  28.160  1.00  0.00     0.134 A 
ATOM     47  C   UNL A   1      43.920  34.485  25.791  1.00  0.00     0.134 A 
ATOM     48  F   UNL A   1      44.923  34.133  29.264  1.00  0.00    -0.206 F 
ATOM     49  C   UNL A   1      43.169  35.370  28.317  1.00  0.00     0.040 A 
ATOM     50  C   UNL A   1      42.829  35.346  25.933  1.00  0.00     0.040 A 
ATOM     51  F   UNL A   1      44.241  34.069  24.557  1.00  0.00    -0.206 F 
ATOM     52  C   UNL A   1      42.443  35.780  27.201  1.00  0.00     0.006 A 
ENDBRANCH  31  45
BRANCH  32  53
ATOM     53  C   UNL A   1      51.540  26.889  25.948  1.00  0.00     0.057 A 
ATOM     54  C   UNL A   1      52.247  26.371  27.041  1.00  0.00     0.134 A 
ATOM     55  C   UNL A   1      51.860  26.397  24.680  1.00  0.00     0.134 A 
ATOM     56  F   UNL A   1      51.990  26.810  28.283  1.00  0.00    -0.206 F 
ATOM     57  C   UNL A   1      53.255  25.423  26.877  1.00  0.00     0.040 A 
ATOM     58  C   UNL A   1      52.848  25.426  24.504  1.00  0.00     0.040 A 
ATOM     59  F   UNL A   1      51.206  26.842  23.597  1.00  0.00    -0.206 F 
ATOM     60  C   UNL A   1      53.556  24.945  25.604  1.00  0.00     0.006 A 
ENDBRANCH  32  53
BRANCH  44  61
ATOM     61  C   UNL A   1      51.774  33.851  26.036  1.00  0.00     0.057 A 
ATOM     62  C   UNL A   1      52.399  34.438  27.143  1.00  0.00     0.134 A 
ATOM     63  C   UNL A   1      52.186  34.259  24.762  1.00  0.00     0.134 A 
ATOM     64  F   UNL A   1      52.043  34.094  28.389  1.00  0.00    -0.206 F 
ATOM     65  C   UNL A   1      53.387  35.411  26.987  1.00  0.00     0.040 A 
ATOM     66  C   UNL A   1      53.187  35.216  24.594  1.00  0.00     0.040 A 
ATOM     67  F   UNL A   1      51.633  33.721  23.664  1.00  0.00    -0.206 F 
ATOM     68  C   UNL A   1      53.784  35.801  25.709  1.00  0.00     0.006 A 
ENDBRANCH  44  61
ENDBRANCH  18  19
ENDBRANCH  11  13
ENDBRANCH   8   9
ENDBRANCH   7   8
ENDBRANCH   6   7
ENDBRANCH   5   6
ENDBRANCH   1   5
BRANCH   2  69
ATOM     69  C   UNL A   1      35.579  30.187  27.630  1.00  0.00     0.197 C 
BRANCH  69  70
ATOM     70  N   UNL A   1      34.666  29.030  27.704  1.00  0.00    -0.340 N 
ATOM     71  C   UNL A   1      33.465  28.764  27.108  1.00  0.00     0.243 C 
ATOM     72  H   UNL A   1      34.984  28.311  28.297  1.00  0.00     0.164 HD
ATOM     73  O   UNL A   1      32.777  27.875  27.616  1.00  0.00    -0.273 OA
BRANCH  71  74
ATOM     74  C   UNL A   1      32.949  29.598  25.903  1.00  0.00     0.175 C 
BRANCH  74  75
ATOM     75  N   UNL A   1      33.829  29.325  24.760  1.00  0.00    -0.342 N 
ATOM     76  C   UNL A   1      33.900  28.284  23.886  1.00  0.00     0.243 C 
ATOM     77  H   UNL A   1      34.496  30.029  24.595  1.00  0.00     0.164 HD
ATOM     78  O   UNL A   1      34.753  28.369  22.994  1.00  0.00    -0.273 OA
BRANCH  76  79
ATOM     79  C   UNL A   1      32.905  27.097  23.911  1.00  0.00     0.176 C 
BRANCH  79  80
ATOM     80  N   UNL A   1      32.822  26.637  22.513  1.00  0.00    -0.340 N 
ATOM     81  C   UNL A   1      33.193  25.509  21.833  1.00  0.00     0.251 C 
ATOM     82  H   UNL A   1      32.398  27.303  21.925  1.00  0.00     0.164 HD
ATOM     83  O   UNL A   1      33.278  25.606  20.606  1.00  0.00    -0.269 OA
BRANCH  81  84
ATOM     84  C   UNL A   1      33.386  24.160  22.451  1.00  0.00     0.040 A 
ATOM     85  C   UNL A   1      34.585  23.735  23.021  1.00  0.00     0.017 A 
ATOM     86  C   UNL A   1      32.260  23.341  22.634  1.00  0.00     0.017 A 
ATOM     87  C   UNL A   1      34.695  22.529  23.717  1.00  0.00     0.040 A 
ATOM     88  C   UNL A   1      32.351  22.138  23.349  1.00  0.00     0.040 A 
ATOM     89  C   UNL A   1      33.570  21.740  23.881  1.00  0.00     0.123 A 
ATOM     90  F   UNL A   1      33.656  20.613  24.596  1.00  0.00    -0.207 F 
ENDBRANCH  81  84
ENDBRANCH  79  80
BRANCH  79  91
ATOM     91  C   UNL A   1      33.472  26.003  24.855  1.00  0.00     0.070 C 
BRANCH  91  92
ATOM     92  C   UNL A   1      32.519  25.097  25.601  1.00  0.00    -0.045 A 
ATOM     93  C   UNL A   1      33.025  24.106  26.456  1.00  0.00     0.007 A 
ATOM     94  C   UNL A   1      31.131  25.263  25.510  1.00  0.00     0.007 A 
ATOM     95  C   UNL A   1      32.161  23.262  27.156  1.00  0.00     0.046 A 
ATOM     96  C   UNL A   1      30.267  24.399  26.178  1.00  0.00     0.046 A 
ATOM     97  C   UNL A   1      30.787  23.403  26.992  1.00  0.00     0.115 A 
BRANCH  97  98
ATOM     98  O   UNL A   1      29.909  22.578  27.630  1.00  0.00    -0.508 OA
ATOM     99  H   UNL A   1      29.618  21.792  27.213  1.00  0.00     0.293 HD
ENDBRANCH  97  98
ENDBRANCH  91  92
ENDBRANCH  79  91
ENDBRANCH  76  79
ENDBRANCH  74  75
BRANCH  74 100
ATOM    100  C   UNL A   1      31.460  29.276  25.633  1.00  0.00     0.072 C 
BRANCH 100 101
ATOM    101  C   UNL A   1      30.668  30.387  24.999  1.00  0.00    -0.020 A 
ATOM    102  C   UNL A   1      30.688  31.705  25.417  1.00  0.00     0.087 A 
ATOM    103  C   UNL A   1      29.777  30.327  23.872  1.00  0.00     0.003 A 
ATOM    104  N   UNL A   1      29.861  32.434  24.611  1.00  0.00    -0.361 N 
ATOM    105  C   UNL A   1      29.270  31.616  23.678  1.00  0.00     0.046 A 
ATOM    106  C   UNL A   1      29.323  29.303  23.016  1.00  0.00     0.010 A 
ATOM    107  H   UNL A   1      29.710  33.404  24.686  1.00  0.00     0.166 HD
ATOM    108  C   UNL A   1      28.301  31.920  22.712  1.00  0.00     0.026 A 
ATOM    109  C   UNL A   1      28.353  29.590  22.044  1.00  0.00     0.001 A 
ATOM    110  C   UNL A   1      27.841  30.878  21.905  1.00  0.00     0.002 A 
ENDBRANCH 100 101
ENDBRANCH  74 100
ENDBRANCH  71  74
ENDBRANCH  69  70
BRANCH  69 111
ATOM    111  C   UNL A   1      34.744  31.486  27.626  1.00  0.00     0.191 C 
BRANCH 111 112
ATOM    112  O   UNL A   1      35.527  32.663  27.787  1.00  0.00    -0.394 OA
ATOM    113  H   UNL A   1      35.377  33.257  27.035  1.00  0.00     0.210 HD
ENDBRANCH 111 112
ENDBRANCH  69 111
ENDBRANCH   2  69
TORSDOF 24
ENDMDL
