MODEL 1
REMARK VINA RESULT:     -11.1      0.000      0.000
REMARK SMILES O=C(NCCCCNC(=O)c1cn(C2CN(C(=O)c3c[nH]nn3)C2)nn1)c1ccc(-c2c3nc(c(-c4c(F)cccc4F)c4ccc([nH]4)c(-c4c(F)cccc4F)c4nc(c(-c5c(F)cccc5F)c5ccc2[nH]5)C=C4)C=C3)cc1
REMARK SMILES IDX 5 1 4 2 3 3 1 4 2 5 27 7 28 8 80 9 29 10 79 11 30 12 31 13
REMARK SMILES IDX 32 14 73 15 33 16 78 17 72 18 74 19 34 20 77 21 71 22 70 23
REMARK SMILES IDX 35 25 61 26 44 27 60 28 45 29 48 30 59 31 75 32 46 33 47 34
REMARK SMILES IDX 58 36 76 37 49 38 36 39 37 40 42 41 38 42 39 43 41 44 43 45
REMARK SMILES IDX 40 46 62 47 63 48 68 49 64 50 65 51 67 52 69 53 66 54 50 55
REMARK SMILES IDX 51 56 56 57 52 58 53 59 55 60 57 61 54 62 6 63 7 64 8 65
REMARK SMILES IDX 9 66 10 68 11 69 12 70 26 71 13 72 25 73 14 74 15 75 24 76
REMARK SMILES IDX 16 77 17 78 18 79 19 80 20 81 23 82 21 83 22 84
REMARK H PARENT 3 6 74 24 48 35 8 67 21 85
REMARK Flexibility Score: inf
ROOT
ATOM      1  C   UNL A   1      34.942  34.244  28.084  1.00  0.00     0.023 C 
ENDROOT
BRANCH   1   2
ATOM      2  C   UNL A   1      34.846  32.983  28.935  1.00  0.00     0.116 C 
BRANCH   2   3
ATOM      3  N   UNL A   1      33.985  31.959  28.364  1.00  0.00    -0.352 N 
ATOM      4  O   UNL A   1      33.449  29.973  27.435  1.00  0.00    -0.269 OA
ATOM      5  C   UNL A   1      34.289  30.668  27.998  1.00  0.00     0.251 C 
ATOM      6  H   UNL A   1      33.049  32.229  28.218  1.00  0.00     0.163 HD
BRANCH   5   7
ATOM      7  C   UNL A   1      35.646  30.133  28.241  1.00  0.00     0.039 A 
ATOM      8  C   UNL A   1      36.004  29.624  29.491  1.00  0.00     0.014 A 
ATOM      9  C   UNL A   1      36.585  30.174  27.205  1.00  0.00     0.014 A 
ATOM     10  C   UNL A   1      37.336  29.323  29.754  1.00  0.00     0.010 A 
ATOM     11  C   UNL A   1      37.908  29.792  27.450  1.00  0.00     0.010 A 
ATOM     12  C   UNL A   1      38.305  29.416  28.742  1.00  0.00    -0.014 A 
BRANCH  12  13
ATOM     13  C   UNL A   1      39.724  29.119  29.069  1.00  0.00     0.031 A 
ATOM     14  C   UNL A   1      40.363  27.826  28.640  1.00  0.00     0.074 A 
ATOM     15  C   UNL A   1      40.457  30.054  29.702  1.00  0.00     0.049 A 
ATOM     16  N   UNL A   1      41.607  27.438  28.775  1.00  0.00    -0.248 NA
ATOM     17  C   UNL A   1      39.497  26.835  27.983  1.00  0.00     0.031 C 
ATOM     18  C   UNL A   1      39.950  31.341  30.182  1.00  0.00     0.029 A 
ATOM     19  N   UNL A   1      41.790  30.081  30.023  1.00  0.00    -0.354 N 
ATOM     20  C   UNL A   1      41.666  26.155  28.249  1.00  0.00     0.074 A 
ATOM     21  C   UNL A   1      40.330  25.819  27.806  1.00  0.00     0.031 C 
ATOM     22  C   UNL A   1      40.970  32.057  30.678  1.00  0.00     0.029 A 
ATOM     23  C   UNL A   1      42.191  31.264  30.591  1.00  0.00     0.049 A 
ATOM     24  H   UNL A   1      42.400  29.325  29.860  1.00  0.00     0.167 HD
ATOM     25  C   UNL A   1      42.738  25.332  28.138  1.00  0.00     0.037 A 
ATOM     26  C   UNL A   1      43.409  31.671  30.992  1.00  0.00     0.037 A 
ATOM     27  C   UNL A   1      44.076  25.677  28.541  1.00  0.00     0.049 A 
ATOM     28  C   UNL A   1      44.584  30.753  30.827  1.00  0.00     0.074 A 
ATOM     29  C   UNL A   1      45.233  24.924  28.430  1.00  0.00     0.029 A 
ATOM     30  N   UNL A   1      44.438  26.880  29.127  1.00  0.00    -0.354 N 
ATOM     31  N   UNL A   1      44.626  29.553  30.303  1.00  0.00    -0.248 NA
ATOM     32  C   UNL A   1      45.880  31.247  31.314  1.00  0.00     0.031 C 
ATOM     33  C   UNL A   1      46.291  25.662  28.972  1.00  0.00     0.029 A 
ATOM     34  C   UNL A   1      45.797  26.886  29.393  1.00  0.00     0.049 A 
ATOM     35  H   UNL A   1      43.820  27.620  29.325  1.00  0.00     0.167 HD
ATOM     36  C   UNL A   1      45.952  29.153  30.384  1.00  0.00     0.074 A 
ATOM     37  C   UNL A   1      46.685  30.244  30.992  1.00  0.00     0.031 C 
ATOM     38  C   UNL A   1      46.511  27.981  29.994  1.00  0.00     0.037 A 
BRANCH  25  39
ATOM     39  C   UNL A   1      42.505  23.967  27.564  1.00  0.00     0.057 A 
ATOM     40  C   UNL A   1      42.477  23.740  26.183  1.00  0.00     0.134 A 
ATOM     41  C   UNL A   1      42.352  22.858  28.406  1.00  0.00     0.134 A 
ATOM     42  F   UNL A   1      42.604  24.762  25.323  1.00  0.00    -0.206 F 
ATOM     43  C   UNL A   1      42.288  22.459  25.658  1.00  0.00     0.040 A 
ATOM     44  C   UNL A   1      42.181  21.570  27.894  1.00  0.00     0.040 A 
ATOM     45  F   UNL A   1      42.375  23.007  29.739  1.00  0.00    -0.206 F 
ATOM     46  C   UNL A   1      42.145  21.370  26.516  1.00  0.00     0.006 A 
ENDBRANCH  25  39
BRANCH  26  47
ATOM     47  C   UNL A   1      43.579  33.029  31.561  1.00  0.00     0.057 A 
ATOM     48  C   UNL A   1      43.797  34.134  30.732  1.00  0.00     0.134 A 
ATOM     49  C   UNL A   1      43.506  33.255  32.940  1.00  0.00     0.134 A 
ATOM     50  F   UNL A   1      43.891  33.974  29.404  1.00  0.00    -0.206 F 
ATOM     51  C   UNL A   1      43.948  35.419  31.256  1.00  0.00     0.040 A 
ATOM     52  C   UNL A   1      43.633  34.537  33.476  1.00  0.00     0.040 A 
ATOM     53  F   UNL A   1      43.290  32.234  33.783  1.00  0.00    -0.206 F 
ATOM     54  C   UNL A   1      43.859  35.622  32.633  1.00  0.00     0.006 A 
ENDBRANCH  26  47
BRANCH  38  55
ATOM     55  C   UNL A   1      47.988  27.836  30.195  1.00  0.00     0.057 A 
ATOM     56  C   UNL A   1      48.517  27.291  31.371  1.00  0.00     0.134 A 
ATOM     57  C   UNL A   1      48.887  28.230  29.196  1.00  0.00     0.134 A 
ATOM     58  F   UNL A   1      47.707  26.910  32.370  1.00  0.00    -0.206 F 
ATOM     59  C   UNL A   1      49.895  27.163  31.556  1.00  0.00     0.040 A 
ATOM     60  C   UNL A   1      50.265  28.088  29.362  1.00  0.00     0.040 A 
ATOM     61  F   UNL A   1      48.440  28.754  28.046  1.00  0.00    -0.206 F 
ATOM     62  C   UNL A   1      50.772  27.557  30.547  1.00  0.00     0.006 A 
ENDBRANCH  38  55
ENDBRANCH  12  13
ENDBRANCH   5   7
ENDBRANCH   2   3
ENDBRANCH   1   2
BRANCH   1  63
ATOM     63  C   UNL A   1      34.282  35.489  28.672  1.00  0.00     0.023 C 
BRANCH  63  64
ATOM     64  C   UNL A   1      32.952  35.246  29.383  1.00  0.00     0.116 C 
BRANCH  64  65
ATOM     65  N   UNL A   1      32.623  36.298  30.331  1.00  0.00    -0.351 N 
ATOM     66  C   UNL A   1      32.864  36.348  31.686  1.00  0.00     0.273 C 
ATOM     67  H   UNL A   1      32.165  37.082  29.951  1.00  0.00     0.163 HD
ATOM     68  O   UNL A   1      32.375  37.264  32.345  1.00  0.00    -0.267 OA
BRANCH  66  69
ATOM     69  C   UNL A   1      33.690  35.312  32.273  1.00  0.00     0.170 A 
ATOM     70  C   UNL A   1      35.059  35.326  32.471  1.00  0.00     0.145 A 
ATOM     71  N   UNL A   1      33.196  34.104  32.695  1.00  0.00    -0.125 NA
ATOM     72  N   UNL A   1      35.345  34.052  32.866  1.00  0.00    -0.245 N 
ATOM     73  N   UNL A   1      34.222  33.338  33.047  1.00  0.00    -0.066 NA
BRANCH  72  74
ATOM     74  C   UNL A   1      36.634  33.441  32.981  1.00  0.00     0.148 C 
ATOM     75  C   UNL A   1      37.027  33.076  34.431  1.00  0.00     0.149 C 
ATOM     76  C   UNL A   1      36.627  31.924  32.697  1.00  0.00     0.149 C 
ATOM     77  N   UNL A   1      37.438  31.797  33.889  1.00  0.00    -0.333 N 
ATOM     78  C   UNL A   1      38.073  30.757  34.522  1.00  0.00     0.276 C 
ATOM     79  O   UNL A   1      38.381  30.831  35.709  1.00  0.00    -0.267 OA
BRANCH  78  80
ATOM     80  C   UNL A   1      38.360  29.582  33.711  1.00  0.00     0.170 A 
ATOM     81  C   UNL A   1      39.567  29.175  33.174  1.00  0.00     0.141 A 
ATOM     82  N   UNL A   1      37.414  28.629  33.417  1.00  0.00    -0.125 NA
ATOM     83  N   UNL A   1      39.281  27.993  32.563  1.00  0.00    -0.265 N 
ATOM     84  N   UNL A   1      37.986  27.678  32.692  1.00  0.00    -0.069 NA
ATOM     85  H   UNL A   1      39.942  27.439  32.087  1.00  0.00     0.191 HD
ENDBRANCH  78  80
ENDBRANCH  72  74
ENDBRANCH  66  69
ENDBRANCH  64  65
ENDBRANCH  63  64
ENDBRANCH   1  63
TORSDOF 13
ENDMDL
MODEL 2
REMARK VINA RESULT:     -11.0      2.314      6.516
REMARK SMILES O=C(NCCCCNC(=O)c1cn(C2CN(C(=O)c3c[nH]nn3)C2)nn1)c1ccc(-c2c3nc(c(-c4c(F)cccc4F)c4ccc([nH]4)c(-c4c(F)cccc4F)c4nc(c(-c5c(F)cccc5F)c5ccc2[nH]5)C=C4)C=C3)cc1
REMARK SMILES IDX 5 1 4 2 3 3 1 4 2 5 27 7 28 8 80 9 29 10 79 11 30 12 31 13
REMARK SMILES IDX 32 14 73 15 33 16 78 17 72 18 74 19 34 20 77 21 71 22 70 23
REMARK SMILES IDX 35 25 61 26 44 27 60 28 45 29 48 30 59 31 75 32 46 33 47 34
REMARK SMILES IDX 58 36 76 37 49 38 36 39 37 40 42 41 38 42 39 43 41 44 43 45
REMARK SMILES IDX 40 46 62 47 63 48 68 49 64 50 65 51 67 52 69 53 66 54 50 55
REMARK SMILES IDX 51 56 56 57 52 58 53 59 55 60 57 61 54 62 6 63 7 64 8 65
REMARK SMILES IDX 9 66 10 68 11 69 12 70 26 71 13 72 25 73 14 74 15 75 24 76
REMARK SMILES IDX 16 77 17 78 18 79 19 80 20 81 23 82 21 83 22 84
REMARK H PARENT 3 6 74 24 48 35 8 67 21 85
REMARK Flexibility Score: inf
ROOT
ATOM      1  C   UNL A   1      35.165  34.440  28.723  1.00  0.00     0.023 C 
ENDROOT
BRANCH   1   2
ATOM      2  C   UNL A   1      34.364  33.279  29.302  1.00  0.00     0.116 C 
BRANCH   2   3
ATOM      3  N   UNL A   1      33.981  32.286  28.311  1.00  0.00    -0.352 N 
ATOM      4  O   UNL A   1      34.216  30.480  26.976  1.00  0.00    -0.269 OA
ATOM      5  C   UNL A   1      34.652  31.154  27.905  1.00  0.00     0.251 C 
ATOM      6  H   UNL A   1      33.117  32.445  27.866  1.00  0.00     0.163 HD
BRANCH   5   7
ATOM      7  C   UNL A   1      35.924  30.777  28.558  1.00  0.00     0.039 A 
ATOM      8  C   UNL A   1      37.107  31.460  28.272  1.00  0.00     0.014 A 
ATOM      9  C   UNL A   1      35.932  29.699  29.449  1.00  0.00     0.014 A 
ATOM     10  C   UNL A   1      38.319  30.957  28.735  1.00  0.00     0.010 A 
ATOM     11  C   UNL A   1      37.145  29.245  29.979  1.00  0.00     0.010 A 
ATOM     12  C   UNL A   1      38.353  29.837  29.582  1.00  0.00    -0.014 A 
BRANCH  12  13
ATOM     13  C   UNL A   1      39.667  29.309  30.029  1.00  0.00     0.031 A 
ATOM     14  C   UNL A   1      40.312  29.804  31.296  1.00  0.00     0.074 A 
ATOM     15  C   UNL A   1      40.252  28.326  29.318  1.00  0.00     0.049 A 
ATOM     16  N   UNL A   1      41.416  29.399  31.871  1.00  0.00    -0.248 NA
ATOM     17  C   UNL A   1      39.637  30.902  32.005  1.00  0.00     0.031 C 
ATOM     18  C   UNL A   1      39.735  27.770  28.066  1.00  0.00     0.029 A 
ATOM     19  N   UNL A   1      41.389  27.599  29.561  1.00  0.00    -0.354 N 
ATOM     20  C   UNL A   1      41.584  30.206  32.988  1.00  0.00     0.074 A 
ATOM     21  C   UNL A   1      40.476  31.137  33.005  1.00  0.00     0.031 C 
ATOM     22  C   UNL A   1      40.517  26.749  27.685  1.00  0.00     0.029 A 
ATOM     23  C   UNL A   1      41.611  26.607  28.639  1.00  0.00     0.049 A 
ATOM     24  H   UNL A   1      41.988  27.772  30.324  1.00  0.00     0.167 HD
ATOM     25  C   UNL A   1      42.566  30.169  33.922  1.00  0.00     0.037 A 
ATOM     26  C   UNL A   1      42.583  25.680  28.572  1.00  0.00     0.037 A 
ATOM     27  C   UNL A   1      43.646  29.219  33.931  1.00  0.00     0.049 A 
ATOM     28  C   UNL A   1      43.640  25.641  29.635  1.00  0.00     0.074 A 
ATOM     29  C   UNL A   1      44.666  29.079  34.858  1.00  0.00     0.029 A 
ATOM     30  N   UNL A   1      43.845  28.239  32.971  1.00  0.00    -0.354 N 
ATOM     31  N   UNL A   1      43.767  26.395  30.699  1.00  0.00    -0.248 NA
ATOM     32  C   UNL A   1      44.690  24.624  29.485  1.00  0.00     0.031 C 
ATOM     33  C   UNL A   1      45.495  28.031  34.445  1.00  0.00     0.029 A 
ATOM     34  C   UNL A   1      44.975  27.499  33.276  1.00  0.00     0.049 A 
ATOM     35  H   UNL A   1      43.268  28.092  32.187  1.00  0.00     0.167 HD
ATOM     36  C   UNL A   1      44.902  25.936  31.353  1.00  0.00     0.074 A 
ATOM     37  C   UNL A   1      45.416  24.828  30.575  1.00  0.00     0.031 C 
ATOM     38  C   UNL A   1      45.469  26.397  32.494  1.00  0.00     0.037 A 
BRANCH  25  39
ATOM     39  C   UNL A   1      42.525  31.199  35.010  1.00  0.00     0.057 A 
ATOM     40  C   UNL A   1      43.062  32.481  34.836  1.00  0.00     0.134 A 
ATOM     41  C   UNL A   1      41.900  30.919  36.232  1.00  0.00     0.134 A 
ATOM     42  F   UNL A   1      43.685  32.807  33.693  1.00  0.00    -0.206 F 
ATOM     43  C   UNL A   1      42.993  33.444  35.846  1.00  0.00     0.040 A 
ATOM     44  C   UNL A   1      41.809  31.879  37.243  1.00  0.00     0.040 A 
ATOM     45  F   UNL A   1      41.362  29.713  36.460  1.00  0.00    -0.206 F 
ATOM     46  C   UNL A   1      42.360  33.144  37.051  1.00  0.00     0.006 A 
ENDBRANCH  25  39
BRANCH  26  47
ATOM     47  C   UNL A   1      42.579  24.692  27.467  1.00  0.00     0.057 A 
ATOM     48  C   UNL A   1      43.187  24.981  26.241  1.00  0.00     0.134 A 
ATOM     49  C   UNL A   1      41.988  23.433  27.618  1.00  0.00     0.134 A 
ATOM     50  F   UNL A   1      43.756  26.178  26.036  1.00  0.00    -0.206 F 
ATOM     51  C   UNL A   1      43.199  24.056  25.197  1.00  0.00     0.040 A 
ATOM     52  C   UNL A   1      42.011  22.489  26.590  1.00  0.00     0.040 A 
ATOM     53  F   UNL A   1      41.397  23.096  28.774  1.00  0.00    -0.206 F 
ATOM     54  C   UNL A   1      42.614  22.802  25.374  1.00  0.00     0.006 A 
ENDBRANCH  26  47
BRANCH  38  55
ATOM     55  C   UNL A   1      46.697  25.686  32.975  1.00  0.00     0.057 A 
ATOM     56  C   UNL A   1      46.623  24.644  33.907  1.00  0.00     0.134 A 
ATOM     57  C   UNL A   1      47.962  26.036  32.488  1.00  0.00     0.134 A 
ATOM     58  F   UNL A   1      45.440  24.273  34.421  1.00  0.00    -0.206 F 
ATOM     59  C   UNL A   1      47.770  23.987  34.356  1.00  0.00     0.040 A 
ATOM     60  C   UNL A   1      49.113  25.374  32.915  1.00  0.00     0.040 A 
ATOM     61  F   UNL A   1      48.097  27.024  31.590  1.00  0.00    -0.206 F 
ATOM     62  C   UNL A   1      49.020  24.350  33.855  1.00  0.00     0.006 A 
ENDBRANCH  38  55
ENDBRANCH  12  13
ENDBRANCH   5   7
ENDBRANCH   2   3
ENDBRANCH   1   2
BRANCH   1  63
ATOM     63  C   UNL A   1      34.342  35.641  28.257  1.00  0.00     0.023 C 
BRANCH  63  64
ATOM     64  C   UNL A   1      33.008  35.833  28.974  1.00  0.00     0.116 C 
BRANCH  64  65
ATOM     65  N   UNL A   1      32.985  37.025  29.805  1.00  0.00    -0.351 N 
ATOM     66  C   UNL A   1      33.134  37.133  31.170  1.00  0.00     0.273 C 
ATOM     67  H   UNL A   1      32.843  37.873  29.325  1.00  0.00     0.163 HD
ATOM     68  O   UNL A   1      32.935  38.220  31.708  1.00  0.00    -0.267 OA
BRANCH  66  69
ATOM     69  C   UNL A   1      33.522  35.949  31.911  1.00  0.00     0.170 A 
ATOM     70  C   UNL A   1      34.775  35.625  32.398  1.00  0.00     0.145 A 
ATOM     71  N   UNL A   1      32.657  34.927  32.206  1.00  0.00    -0.125 NA
ATOM     72  N   UNL A   1      34.633  34.339  32.834  1.00  0.00    -0.245 N 
ATOM     73  N   UNL A   1      33.352  33.943  32.762  1.00  0.00    -0.066 NA
BRANCH  72  74
ATOM     74  C   UNL A   1      35.668  33.427  33.217  1.00  0.00     0.148 C 
ATOM     75  C   UNL A   1      37.076  34.065  33.268  1.00  0.00     0.149 C 
ATOM     76  C   UNL A   1      35.795  33.243  34.744  1.00  0.00     0.149 C 
ATOM     77  N   UNL A   1      37.220  33.396  34.545  1.00  0.00    -0.333 N 
ATOM     78  C   UNL A   1      38.325  33.316  35.356  1.00  0.00     0.276 C 
ATOM     79  O   UNL A   1      39.385  33.849  35.037  1.00  0.00    -0.267 OA
BRANCH  78  80
ATOM     80  C   UNL A   1      38.168  32.567  36.596  1.00  0.00     0.170 A 
ATOM     81  C   UNL A   1      38.326  33.006  37.897  1.00  0.00     0.141 A 
ATOM     82  N   UNL A   1      37.747  31.260  36.628  1.00  0.00    -0.125 NA
ATOM     83  N   UNL A   1      38.005  31.923  38.656  1.00  0.00    -0.265 N 
ATOM     84  N   UNL A   1      37.679  30.872  37.894  1.00  0.00    -0.069 NA
ATOM     85  H   UNL A   1      38.011  31.913  39.641  1.00  0.00     0.191 HD
ENDBRANCH  78  80
ENDBRANCH  72  74
ENDBRANCH  66  69
ENDBRANCH  64  65
ENDBRANCH  63  64
ENDBRANCH   1  63
TORSDOF 13
ENDMDL
MODEL 3
REMARK VINA RESULT:     -10.9      4.856     10.092
REMARK SMILES O=C(NCCCCNC(=O)c1cn(C2CN(C(=O)c3c[nH]nn3)C2)nn1)c1ccc(-c2c3nc(c(-c4c(F)cccc4F)c4ccc([nH]4)c(-c4c(F)cccc4F)c4nc(c(-c5c(F)cccc5F)c5ccc2[nH]5)C=C4)C=C3)cc1
REMARK SMILES IDX 5 1 4 2 3 3 1 4 2 5 27 7 28 8 80 9 29 10 79 11 30 12 31 13
REMARK SMILES IDX 32 14 73 15 33 16 78 17 72 18 74 19 34 20 77 21 71 22 70 23
REMARK SMILES IDX 35 25 61 26 44 27 60 28 45 29 48 30 59 31 75 32 46 33 47 34
REMARK SMILES IDX 58 36 76 37 49 38 36 39 37 40 42 41 38 42 39 43 41 44 43 45
REMARK SMILES IDX 40 46 62 47 63 48 68 49 64 50 65 51 67 52 69 53 66 54 50 55
REMARK SMILES IDX 51 56 56 57 52 58 53 59 55 60 57 61 54 62 6 63 7 64 8 65
REMARK SMILES IDX 9 66 10 68 11 69 12 70 26 71 13 72 25 73 14 74 15 75 24 76
REMARK SMILES IDX 16 77 17 78 18 79 19 80 20 81 23 82 21 83 22 84
REMARK H PARENT 3 6 74 24 48 35 8 67 21 85
REMARK Flexibility Score: inf
ROOT
ATOM      1  C   UNL A   1      37.522  20.408  24.740  1.00  0.00     0.023 C 
ENDROOT
BRANCH   1   2
ATOM      2  C   UNL A   1      38.677  20.639  25.708  1.00  0.00     0.116 C 
BRANCH   2   3
ATOM      3  N   UNL A   1      39.694  19.601  25.660  1.00  0.00    -0.352 N 
ATOM      4  O   UNL A   1      41.761  18.705  25.810  1.00  0.00    -0.269 OA
ATOM      5  C   UNL A   1      41.023  19.664  26.015  1.00  0.00     0.251 C 
ATOM      6  H   UNL A   1      39.389  18.727  25.325  1.00  0.00     0.163 HD
BRANCH   5   7
ATOM      7  C   UNL A   1      41.571  20.907  26.599  1.00  0.00     0.039 A 
ATOM      8  C   UNL A   1      41.670  21.066  27.982  1.00  0.00     0.014 A 
ATOM      9  C   UNL A   1      41.964  21.940  25.743  1.00  0.00     0.014 A 
ATOM     10  C   UNL A   1      41.991  22.314  28.509  1.00  0.00     0.010 A 
ATOM     11  C   UNL A   1      42.365  23.170  26.276  1.00  0.00     0.010 A 
ATOM     12  C   UNL A   1      42.328  23.382  27.662  1.00  0.00    -0.014 A 
BRANCH  12  13
ATOM     13  C   UNL A   1      42.632  24.709  28.259  1.00  0.00     0.031 A 
ATOM     14  C   UNL A   1      44.046  25.108  28.582  1.00  0.00     0.074 A 
ATOM     15  C   UNL A   1      41.626  25.585  28.449  1.00  0.00     0.049 A 
ATOM     16  N   UNL A   1      44.497  26.251  29.034  1.00  0.00    -0.248 NA
ATOM     17  C   UNL A   1      45.091  24.092  28.382  1.00  0.00     0.031 C 
ATOM     18  C   UNL A   1      40.211  25.313  28.188  1.00  0.00     0.029 A 
ATOM     19  N   UNL A   1      41.643  26.888  28.874  1.00  0.00    -0.354 N 
ATOM     20  C   UNL A   1      45.865  26.085  29.199  1.00  0.00     0.074 A 
ATOM     21  C   UNL A   1      46.173  24.725  28.814  1.00  0.00     0.031 C 
ATOM     22  C   UNL A   1      39.505  26.433  28.399  1.00  0.00     0.029 A 
ATOM     23  C   UNL A   1      40.408  27.486  28.849  1.00  0.00     0.049 A 
ATOM     24  H   UNL A   1      42.462  27.350  29.168  1.00  0.00     0.167 HD
ATOM     25  C   UNL A   1      46.784  26.986  29.624  1.00  0.00     0.037 A 
ATOM     26  C   UNL A   1      40.042  28.746  29.149  1.00  0.00     0.037 A 
ATOM     27  C   UNL A   1      46.488  28.352  29.970  1.00  0.00     0.049 A 
ATOM     28  C   UNL A   1      41.084  29.732  29.586  1.00  0.00     0.074 A 
ATOM     29  C   UNL A   1      47.360  29.349  30.373  1.00  0.00     0.029 A 
ATOM     30  N   UNL A   1      45.222  28.915  29.947  1.00  0.00    -0.354 N 
ATOM     31  N   UNL A   1      42.377  29.565  29.711  1.00  0.00    -0.248 NA
ATOM     32  C   UNL A   1      40.613  31.081  29.928  1.00  0.00     0.031 C 
ATOM     33  C   UNL A   1      46.617  30.510  30.617  1.00  0.00     0.029 A 
ATOM     34  C   UNL A   1      45.286  30.242  30.338  1.00  0.00     0.049 A 
ATOM     35  H   UNL A   1      44.398  28.441  29.690  1.00  0.00     0.167 HD
ATOM     36  C   UNL A   1      42.878  30.788  30.132  1.00  0.00     0.074 A 
ATOM     37  C   UNL A   1      41.750  31.693  30.225  1.00  0.00     0.031 C 
ATOM     38  C   UNL A   1      44.157  31.129  30.420  1.00  0.00     0.037 A 
BRANCH  25  39
ATOM     39  C   UNL A   1      48.203  26.519  29.753  1.00  0.00     0.057 A 
ATOM     40  C   UNL A   1      48.670  25.883  30.909  1.00  0.00     0.134 A 
ATOM     41  C   UNL A   1      49.100  26.669  28.688  1.00  0.00     0.134 A 
ATOM     42  F   UNL A   1      47.863  25.721  31.969  1.00  0.00    -0.206 F 
ATOM     43  C   UNL A   1      49.987  25.426  31.009  1.00  0.00     0.040 A 
ATOM     44  C   UNL A   1      50.414  26.200  28.768  1.00  0.00     0.040 A 
ATOM     45  F   UNL A   1      48.714  27.266  27.551  1.00  0.00    -0.206 F 
ATOM     46  C   UNL A   1      50.860  25.580  29.933  1.00  0.00     0.006 A 
ENDBRANCH  25  39
BRANCH  26  47
ATOM     47  C   UNL A   1      38.622  29.149  29.013  1.00  0.00     0.057 A 
ATOM     48  C   UNL A   1      37.761  29.130  30.115  1.00  0.00     0.134 A 
ATOM     49  C   UNL A   1      38.102  29.580  27.788  1.00  0.00     0.134 A 
ATOM     50  F   UNL A   1      38.202  28.711  31.310  1.00  0.00    -0.206 F 
ATOM     51  C   UNL A   1      36.426  29.518  30.002  1.00  0.00     0.040 A 
ATOM     52  C   UNL A   1      36.774  29.991  27.665  1.00  0.00     0.040 A 
ATOM     53  F   UNL A   1      38.883  29.628  26.699  1.00  0.00    -0.206 F 
ATOM     54  C   UNL A   1      35.931  29.956  28.774  1.00  0.00     0.006 A 
ENDBRANCH  26  47
BRANCH  38  55
ATOM     55  C   UNL A   1      44.401  32.545  30.842  1.00  0.00     0.057 A 
ATOM     56  C   UNL A   1      44.668  33.553  29.908  1.00  0.00     0.134 A 
ATOM     57  C   UNL A   1      44.353  32.906  32.194  1.00  0.00     0.134 A 
ATOM     58  F   UNL A   1      44.742  33.265  28.599  1.00  0.00    -0.206 F 
ATOM     59  C   UNL A   1      44.901  34.870  30.306  1.00  0.00     0.040 A 
ATOM     60  C   UNL A   1      44.565  34.223  32.602  1.00  0.00     0.040 A 
ATOM     61  F   UNL A   1      44.098  31.986  33.136  1.00  0.00    -0.206 F 
ATOM     62  C   UNL A   1      44.844  35.209  31.657  1.00  0.00     0.006 A 
ENDBRANCH  38  55
ENDBRANCH  12  13
ENDBRANCH   5   7
ENDBRANCH   2   3
ENDBRANCH   1   2
BRANCH   1  63
ATOM     63  C   UNL A   1      36.446  21.491  24.727  1.00  0.00     0.023 C 
BRANCH  63  64
ATOM     64  C   UNL A   1      35.450  21.434  25.883  1.00  0.00     0.116 C 
BRANCH  64  65
ATOM     65  N   UNL A   1      34.552  20.294  25.793  1.00  0.00    -0.351 N 
ATOM     66  C   UNL A   1      33.259  20.245  25.322  1.00  0.00     0.273 C 
ATOM     67  H   UNL A   1      34.921  19.439  26.114  1.00  0.00     0.163 HD
ATOM     68  O   UNL A   1      32.610  19.210  25.467  1.00  0.00    -0.267 OA
BRANCH  66  69
ATOM     69  C   UNL A   1      32.722  21.425  24.673  1.00  0.00     0.170 A 
ATOM     70  C   UNL A   1      32.186  22.552  25.268  1.00  0.00     0.145 A 
ATOM     71  N   UNL A   1      32.639  21.563  23.311  1.00  0.00    -0.125 NA
ATOM     72  N   UNL A   1      31.662  23.255  24.222  1.00  0.00    -0.245 N 
ATOM     73  N   UNL A   1      31.978  22.684  23.049  1.00  0.00    -0.066 NA
BRANCH  72  74
ATOM     74  C   UNL A   1      30.784  24.384  24.281  1.00  0.00     0.148 C 
ATOM     75  C   UNL A   1      31.104  25.364  25.434  1.00  0.00     0.149 C 
ATOM     76  C   UNL A   1      31.181  25.526  23.322  1.00  0.00     0.149 C 
ATOM     77  N   UNL A   1      30.963  26.413  24.444  1.00  0.00    -0.333 N 
ATOM     78  C   UNL A   1      30.988  27.774  24.621  1.00  0.00     0.276 C 
ATOM     79  O   UNL A   1      31.139  28.265  25.738  1.00  0.00    -0.267 OA
BRANCH  78  80
ATOM     80  C   UNL A   1      30.821  28.588  23.425  1.00  0.00     0.170 A 
ATOM     81  C   UNL A   1      31.790  29.198  22.652  1.00  0.00     0.141 A 
ATOM     82  N   UNL A   1      29.598  28.807  22.838  1.00  0.00    -0.125 NA
ATOM     83  N   UNL A   1      31.092  29.775  21.635  1.00  0.00    -0.265 N 
ATOM     84  N   UNL A   1      29.778  29.557  21.760  1.00  0.00    -0.069 NA
ATOM     85  H   UNL A   1      31.502  30.287  20.900  1.00  0.00     0.191 HD
ENDBRANCH  78  80
ENDBRANCH  72  74
ENDBRANCH  66  69
ENDBRANCH  64  65
ENDBRANCH  63  64
ENDBRANCH   1  63
TORSDOF 13
ENDMDL
