MODEL 1
REMARK VINA RESULT:     -11.0      0.000      0.000
REMARK SMILES C[C@H](CO)CSc1cc(Cl)ccc1C(=O)NCCCCNC(=O)c1ccc(-c2c3nc(c(-c4c(F)cccc4F)c4ccc([nH]4)c(-c4c(F)cccc4F)c4nc(c(-c5c(F)cccc5F)c5ccc2[nH]5)C=C4)C=C3)cc1
REMARK SMILES IDX 17 1 16 2 14 3 15 4 13 6 7 7 8 8 9 9 12 10 10 11 11 12 6 13
REMARK SMILES IDX 5 14 2 15 1 16 3 17 4 18 18 20 19 21 20 22 21 23 22 24 23 26
REMARK SMILES IDX 24 27 25 28 77 29 26 30 76 31 27 32 28 33 29 34 70 35 30 36
REMARK SMILES IDX 75 37 69 38 71 39 31 40 74 41 68 42 67 43 32 45 58 46 41 47
REMARK SMILES IDX 57 48 42 49 45 50 56 51 72 52 43 53 44 54 55 56 73 57 46 58
REMARK SMILES IDX 33 59 34 60 39 61 35 62 36 63 38 64 40 65 37 66 59 67 60 68
REMARK SMILES IDX 65 69 61 70 62 71 64 72 66 73 63 74 47 75 48 76 53 77 49 78
REMARK SMILES IDX 50 79 52 80 54 81 51 82
REMARK H PARENT 16 5 4 19 21 25 71 44 45 55
REMARK Flexibility Score: inf
ROOT
ATOM      1  C   UNL A   1      36.848  22.733  25.200  1.00  0.00     0.116 C 
ENDROOT
BRANCH   1   2
ATOM      2  N   UNL A   1      36.031  23.066  24.060  1.00  0.00    -0.352 N 
ATOM      3  C   UNL A   1      34.696  23.033  23.782  1.00  0.00     0.252 C 
ATOM      4  O   UNL A   1      34.428  23.333  22.610  1.00  0.00    -0.269 OA
ATOM      5  H   UNL A   1      36.564  23.397  23.301  1.00  0.00     0.163 HD
BRANCH   3   6
ATOM      6  C   UNL A   1      33.532  22.750  24.696  1.00  0.00     0.053 A 
ATOM      7  C   UNL A   1      32.598  21.690  24.724  1.00  0.00     0.021 A 
ATOM      8  C   UNL A   1      31.425  21.827  25.507  1.00  0.00     0.036 A 
ATOM      9  C   UNL A   1      31.210  22.933  26.322  1.00  0.00     0.042 A 
ATOM     10  C   UNL A   1      33.290  23.846  25.569  1.00  0.00     0.016 A 
ATOM     11  Cl  UNL A   1      29.769  23.045  27.251  1.00  0.00    -0.084 Cl
ATOM     12  C   UNL A   1      32.154  23.938  26.377  1.00  0.00     0.021 A 
BRANCH   7  13
ATOM     13  S   UNL A   1      32.621  20.192  23.776  1.00  0.00    -0.125 SA
BRANCH  13  14
ATOM     14  C   UNL A   1      34.027  19.204  24.466  1.00  0.00     0.080 C 
BRANCH  14  15
ATOM     15  C   UNL A   1      33.940  17.663  24.550  1.00  0.00     0.022 C 
ATOM     16  C   UNL A   1      33.652  17.110  23.141  1.00  0.00     0.011 C 
BRANCH  15  17
ATOM     17  C   UNL A   1      32.865  17.127  25.503  1.00  0.00     0.160 C 
BRANCH  17  18
ATOM     18  O   UNL A   1      32.528  18.078  26.501  1.00  0.00    -0.396 OA
ATOM     19  H   UNL A   1      31.776  17.752  27.018  1.00  0.00     0.210 HD
ENDBRANCH  17  18
ENDBRANCH  15  17
ENDBRANCH  14  15
ENDBRANCH  13  14
ENDBRANCH   7  13
ENDBRANCH   3   6
ENDBRANCH   1   2
BRANCH   1  20
ATOM     20  C   UNL A   1      36.805  21.225  25.459  1.00  0.00     0.023 C 
BRANCH  20  21
ATOM     21  C   UNL A   1      38.036  20.456  24.995  1.00  0.00     0.023 C 
BRANCH  21  22
ATOM     22  C   UNL A   1      39.200  20.484  25.977  1.00  0.00     0.116 C 
BRANCH  22  23
ATOM     23  N   UNL A   1      40.044  19.295  25.931  1.00  0.00    -0.352 N 
ATOM     24  C   UNL A   1      41.402  19.208  26.126  1.00  0.00     0.251 C 
ATOM     25  H   UNL A   1      39.584  18.447  25.735  1.00  0.00     0.163 HD
ATOM     26  O   UNL A   1      41.995  18.143  26.003  1.00  0.00    -0.269 OA
BRANCH  24  27
ATOM     27  C   UNL A   1      42.141  20.446  26.433  1.00  0.00     0.039 A 
ATOM     28  C   UNL A   1      42.639  21.209  25.376  1.00  0.00     0.014 A 
ATOM     29  C   UNL A   1      42.220  20.903  27.750  1.00  0.00     0.014 A 
ATOM     30  C   UNL A   1      43.126  22.489  25.631  1.00  0.00     0.010 A 
ATOM     31  C   UNL A   1      42.640  22.203  27.994  1.00  0.00     0.010 A 
ATOM     32  C   UNL A   1      43.075  23.014  26.933  1.00  0.00    -0.014 A 
BRANCH  32  33
ATOM     33  C   UNL A   1      43.420  24.428  27.207  1.00  0.00     0.031 A 
ATOM     34  C   UNL A   1      44.848  24.877  27.144  1.00  0.00     0.074 A 
ATOM     35  C   UNL A   1      42.455  25.275  27.615  1.00  0.00     0.049 A 
ATOM     36  N   UNL A   1      45.363  26.037  27.460  1.00  0.00    -0.248 NA
ATOM     37  C   UNL A   1      45.833  23.881  26.692  1.00  0.00     0.031 C 
ATOM     38  C   UNL A   1      41.038  24.938  27.771  1.00  0.00     0.029 A 
ATOM     39  N   UNL A   1      42.524  26.593  27.990  1.00  0.00    -0.354 N 
ATOM     40  C   UNL A   1      46.730  25.906  27.264  1.00  0.00     0.074 A 
ATOM     41  C   UNL A   1      46.971  24.543  26.844  1.00  0.00     0.031 C 
ATOM     42  C   UNL A   1      40.371  26.023  28.196  1.00  0.00     0.029 A 
ATOM     43  C   UNL A   1      41.315  27.120  28.376  1.00  0.00     0.049 A 
ATOM     44  H   UNL A   1      43.361  27.112  27.985  1.00  0.00     0.167 HD
ATOM     45  C   UNL A   1      47.694  26.845  27.403  1.00  0.00     0.037 A 
ATOM     46  C   UNL A   1      41.007  28.346  28.835  1.00  0.00     0.037 A 
ATOM     47  C   UNL A   1      47.447  28.207  27.792  1.00  0.00     0.049 A 
ATOM     48  C   UNL A   1      42.097  29.370  28.981  1.00  0.00     0.074 A 
ATOM     49  C   UNL A   1      48.345  29.256  27.880  1.00  0.00     0.029 A 
ATOM     50  N   UNL A   1      46.207  28.708  28.160  1.00  0.00    -0.354 N 
ATOM     51  N   UNL A   1      43.377  29.253  28.726  1.00  0.00    -0.248 NA
ATOM     52  C   UNL A   1      41.700  30.693  29.484  1.00  0.00     0.031 C 
ATOM     53  C   UNL A   1      47.655  30.384  28.337  1.00  0.00     0.029 A 
ATOM     54  C   UNL A   1      46.321  30.046  28.500  1.00  0.00     0.049 A 
ATOM     55  H   UNL A   1      45.371  28.191  28.176  1.00  0.00     0.167 HD
ATOM     56  C   UNL A   1      43.937  30.488  29.023  1.00  0.00     0.074 A 
ATOM     57  C   UNL A   1      42.854  31.345  29.461  1.00  0.00     0.031 C 
ATOM     58  C   UNL A   1      45.232  30.878  28.942  1.00  0.00     0.037 A 
BRANCH  45  59
ATOM     59  C   UNL A   1      49.106  26.427  27.122  1.00  0.00     0.057 A 
ATOM     60  C   UNL A   1      49.650  26.497  25.833  1.00  0.00     0.134 A 
ATOM     61  C   UNL A   1      49.937  25.972  28.152  1.00  0.00     0.134 A 
ATOM     62  F   UNL A   1      48.900  26.909  24.800  1.00  0.00    -0.206 F 
ATOM     63  C   UNL A   1      50.966  26.107  25.575  1.00  0.00     0.040 A 
ATOM     64  C   UNL A   1      51.261  25.602  27.912  1.00  0.00     0.040 A 
ATOM     65  F   UNL A   1      49.476  25.883  29.410  1.00  0.00    -0.206 F 
ATOM     66  C   UNL A   1      51.777  25.665  26.618  1.00  0.00     0.006 A 
ENDBRANCH  45  59
BRANCH  46  67
ATOM     67  C   UNL A   1      39.603  28.679  29.179  1.00  0.00     0.057 A 
ATOM     68  C   UNL A   1      38.728  29.188  28.213  1.00  0.00     0.134 A 
ATOM     69  C   UNL A   1      39.105  28.502  30.474  1.00  0.00     0.134 A 
ATOM     70  F   UNL A   1      39.157  29.397  26.959  1.00  0.00    -0.206 F 
ATOM     71  C   UNL A   1      37.410  29.521  28.524  1.00  0.00     0.040 A 
ATOM     72  C   UNL A   1      37.781  28.811  30.795  1.00  0.00     0.040 A 
ATOM     73  F   UNL A   1      39.893  28.013  31.443  1.00  0.00    -0.206 F 
ATOM     74  C   UNL A   1      36.932  29.328  29.819  1.00  0.00     0.006 A 
ENDBRANCH  46  67
BRANCH  58  75
ATOM     75  C   UNL A   1      45.542  32.292  29.329  1.00  0.00     0.057 A 
ATOM     76  C   UNL A   1      45.960  32.621  30.624  1.00  0.00     0.134 A 
ATOM     77  C   UNL A   1      45.457  33.327  28.391  1.00  0.00     0.134 A 
ATOM     78  F   UNL A   1      46.047  31.674  31.571  1.00  0.00    -0.206 F 
ATOM     79  C   UNL A   1      46.269  33.935  30.977  1.00  0.00     0.040 A 
ATOM     80  C   UNL A   1      45.783  34.641  28.725  1.00  0.00     0.040 A 
ATOM     81  F   UNL A   1      45.068  33.074  27.131  1.00  0.00    -0.206 F 
ATOM     82  C   UNL A   1      46.186  34.948  30.024  1.00  0.00     0.006 A 
ENDBRANCH  58  75
ENDBRANCH  32  33
ENDBRANCH  24  27
ENDBRANCH  22  23
ENDBRANCH  21  22
ENDBRANCH  20  21
ENDBRANCH   1  20
TORSDOF 16
ENDMDL
MODEL 2
REMARK VINA RESULT:     -10.9      4.940      9.298
REMARK SMILES C[C@H](CO)CSc1cc(Cl)ccc1C(=O)NCCCCNC(=O)c1ccc(-c2c3nc(c(-c4c(F)cccc4F)c4ccc([nH]4)c(-c4c(F)cccc4F)c4nc(c(-c5c(F)cccc5F)c5ccc2[nH]5)C=C4)C=C3)cc1
REMARK SMILES IDX 17 1 16 2 14 3 15 4 13 6 7 7 8 8 9 9 12 10 10 11 11 12 6 13
REMARK SMILES IDX 5 14 2 15 1 16 3 17 4 18 18 20 19 21 20 22 21 23 22 24 23 26
REMARK SMILES IDX 24 27 25 28 77 29 26 30 76 31 27 32 28 33 29 34 70 35 30 36
REMARK SMILES IDX 75 37 69 38 71 39 31 40 74 41 68 42 67 43 32 45 58 46 41 47
REMARK SMILES IDX 57 48 42 49 45 50 56 51 72 52 43 53 44 54 55 56 73 57 46 58
REMARK SMILES IDX 33 59 34 60 39 61 35 62 36 63 38 64 40 65 37 66 59 67 60 68
REMARK SMILES IDX 65 69 61 70 62 71 64 72 66 73 63 74 47 75 48 76 53 77 49 78
REMARK SMILES IDX 50 79 52 80 54 81 51 82
REMARK H PARENT 16 5 4 19 21 25 71 44 45 55
REMARK Flexibility Score: inf
ROOT
ATOM      1  C   UNL A   1      32.678  28.063  27.041  1.00  0.00     0.116 C 
ENDROOT
BRANCH   1   2
ATOM      2  N   UNL A   1      31.878  26.871  26.923  1.00  0.00    -0.352 N 
ATOM      3  C   UNL A   1      31.937  25.734  26.170  1.00  0.00     0.252 C 
ATOM      4  O   UNL A   1      30.963  24.984  26.331  1.00  0.00    -0.269 OA
ATOM      5  H   UNL A   1      31.104  26.878  27.531  1.00  0.00     0.163 HD
BRANCH   3   6
ATOM      6  C   UNL A   1      33.023  25.252  25.245  1.00  0.00     0.053 A 
ATOM      7  C   UNL A   1      33.071  25.132  23.838  1.00  0.00     0.021 A 
ATOM      8  C   UNL A   1      34.108  24.369  23.247  1.00  0.00     0.036 A 
ATOM      9  C   UNL A   1      35.134  23.812  24.003  1.00  0.00     0.042 A 
ATOM     10  C   UNL A   1      34.109  24.697  25.976  1.00  0.00     0.016 A 
ATOM     11  Cl  UNL A   1      36.367  22.897  23.233  1.00  0.00    -0.084 Cl
ATOM     12  C   UNL A   1      35.154  23.995  25.371  1.00  0.00     0.021 A 
BRANCH   7  13
ATOM     13  S   UNL A   1      31.891  25.722  22.653  1.00  0.00    -0.125 SA
BRANCH  13  14
ATOM     14  C   UNL A   1      31.890  27.563  22.846  1.00  0.00     0.080 C 
BRANCH  14  15
ATOM     15  C   UNL A   1      30.645  28.297  23.395  1.00  0.00     0.022 C 
ATOM     16  C   UNL A   1      29.555  27.253  23.701  1.00  0.00     0.011 C 
BRANCH  15  17
ATOM     17  C   UNL A   1      30.048  29.350  22.453  1.00  0.00     0.160 C 
BRANCH  17  18
ATOM     18  O   UNL A   1      31.039  29.931  21.621  1.00  0.00    -0.396 OA
ATOM     19  H   UNL A   1      31.188  29.363  20.849  1.00  0.00     0.210 HD
ENDBRANCH  17  18
ENDBRANCH  15  17
ENDBRANCH  14  15
ENDBRANCH  13  14
ENDBRANCH   7  13
ENDBRANCH   3   6
ENDBRANCH   1   2
BRANCH   1  20
ATOM     20  C   UNL A   1      31.779  29.301  27.099  1.00  0.00     0.023 C 
BRANCH  20  21
ATOM     21  C   UNL A   1      32.353  30.547  26.435  1.00  0.00     0.023 C 
BRANCH  21  22
ATOM     22  C   UNL A   1      33.169  31.434  27.366  1.00  0.00     0.116 C 
BRANCH  22  23
ATOM     23  N   UNL A   1      32.605  32.764  27.565  1.00  0.00    -0.352 N 
ATOM     24  C   UNL A   1      33.143  33.821  28.260  1.00  0.00     0.251 C 
ATOM     25  H   UNL A   1      31.727  32.926  27.149  1.00  0.00     0.163 HD
ATOM     26  O   UNL A   1      32.528  34.873  28.393  1.00  0.00    -0.269 OA
BRANCH  24  27
ATOM     27  C   UNL A   1      34.460  33.638  28.895  1.00  0.00     0.039 A 
ATOM     28  C   UNL A   1      34.528  32.968  30.117  1.00  0.00     0.014 A 
ATOM     29  C   UNL A   1      35.621  34.013  28.214  1.00  0.00     0.014 A 
ATOM     30  C   UNL A   1      35.771  32.578  30.612  1.00  0.00     0.010 A 
ATOM     31  C   UNL A   1      36.851  33.563  28.671  1.00  0.00     0.010 A 
ATOM     32  C   UNL A   1      36.933  32.823  29.862  1.00  0.00    -0.014 A 
BRANCH  32  33
ATOM     33  C   UNL A   1      38.244  32.269  30.272  1.00  0.00     0.031 A 
ATOM     34  C   UNL A   1      38.714  30.960  29.712  1.00  0.00     0.074 A 
ATOM     35  C   UNL A   1      38.958  32.900  31.226  1.00  0.00     0.049 A 
ATOM     36  N   UNL A   1      39.770  30.259  30.031  1.00  0.00    -0.248 NA
ATOM     37  C   UNL A   1      37.867  30.344  28.678  1.00  0.00     0.031 C 
ATOM     38  C   UNL A   1      38.575  34.150  31.886  1.00  0.00     0.029 A 
ATOM     39  N   UNL A   1      40.148  32.563  31.819  1.00  0.00    -0.354 N 
ATOM     40  C   UNL A   1      39.707  29.112  29.252  1.00  0.00     0.074 A 
ATOM     41  C   UNL A   1      38.487  29.190  28.479  1.00  0.00     0.031 C 
ATOM     42  C   UNL A   1      39.519  34.481  32.781  1.00  0.00     0.029 A 
ATOM     43  C   UNL A   1      40.552  33.452  32.785  1.00  0.00     0.049 A 
ATOM     44  H   UNL A   1      40.664  31.760  31.575  1.00  0.00     0.167 HD
ATOM     45  C   UNL A   1      40.597  28.096  29.176  1.00  0.00     0.037 A 
ATOM     46  C   UNL A   1      41.630  33.432  33.591  1.00  0.00     0.037 A 
ATOM     47  C   UNL A   1      41.824  28.037  29.924  1.00  0.00     0.049 A 
ATOM     48  C   UNL A   1      42.602  32.291  33.486  1.00  0.00     0.074 A 
ATOM     49  C   UNL A   1      42.832  27.092  29.856  1.00  0.00     0.029 A 
ATOM     50  N   UNL A   1      42.207  28.964  30.882  1.00  0.00    -0.354 N 
ATOM     51  N   UNL A   1      42.566  31.247  32.695  1.00  0.00    -0.248 NA
ATOM     52  C   UNL A   1      43.761  32.324  34.389  1.00  0.00     0.031 C 
ATOM     53  C   UNL A   1      43.810  27.428  30.799  1.00  0.00     0.029 A 
ATOM     54  C   UNL A   1      43.426  28.600  31.430  1.00  0.00     0.049 A 
ATOM     55  H   UNL A   1      41.690  29.762  31.135  1.00  0.00     0.167 HD
ATOM     56  C   UNL A   1      43.701  30.505  32.994  1.00  0.00     0.074 A 
ATOM     57  C   UNL A   1      44.415  31.229  34.026  1.00  0.00     0.031 C 
ATOM     58  C   UNL A   1      44.114  29.330  32.463  1.00  0.00     0.037 A 
BRANCH  45  59
ATOM     59  C   UNL A   1      40.277  26.971  28.240  1.00  0.00     0.057 A 
ATOM     60  C   UNL A   1      40.811  26.914  26.946  1.00  0.00     0.134 A 
ATOM     61  C   UNL A   1      39.444  25.920  28.643  1.00  0.00     0.134 A 
ATOM     62  F   UNL A   1      41.603  27.899  26.495  1.00  0.00    -0.206 F 
ATOM     63  C   UNL A   1      40.511  25.864  26.077  1.00  0.00     0.040 A 
ATOM     64  C   UNL A   1      39.154  24.852  27.792  1.00  0.00     0.040 A 
ATOM     65  F   UNL A   1      38.901  25.913  29.870  1.00  0.00    -0.206 F 
ATOM     66  C   UNL A   1      39.685  24.825  26.503  1.00  0.00     0.006 A 
ENDBRANCH  45  59
BRANCH  46  67
ATOM     67  C   UNL A   1      41.853  34.532  34.559  1.00  0.00     0.057 A 
ATOM     68  C   UNL A   1      41.318  34.473  35.851  1.00  0.00     0.134 A 
ATOM     69  C   UNL A   1      42.601  35.665  34.220  1.00  0.00     0.134 A 
ATOM     70  F   UNL A   1      40.577  33.419  36.225  1.00  0.00    -0.206 F 
ATOM     71  C   UNL A   1      41.507  35.507  36.768  1.00  0.00     0.040 A 
ATOM     72  C   UNL A   1      42.815  36.699  35.134  1.00  0.00     0.040 A 
ATOM     73  F   UNL A   1      43.144  35.778  32.999  1.00  0.00    -0.206 F 
ATOM     74  C   UNL A   1      42.262  36.623  36.411  1.00  0.00     0.006 A 
ENDBRANCH  46  67
BRANCH  58  75
ATOM     75  C   UNL A   1      45.398  28.761  32.986  1.00  0.00     0.057 A 
ATOM     76  C   UNL A   1      45.418  27.877  34.071  1.00  0.00     0.134 A 
ATOM     77  C   UNL A   1      46.620  29.073  32.378  1.00  0.00     0.134 A 
ATOM     78  F   UNL A   1      44.281  27.552  34.704  1.00  0.00    -0.206 F 
ATOM     79  C   UNL A   1      46.613  27.333  34.543  1.00  0.00     0.040 A 
ATOM     80  C   UNL A   1      47.818  28.519  32.827  1.00  0.00     0.040 A 
ATOM     81  F   UNL A   1      46.666  29.910  31.330  1.00  0.00    -0.206 F 
ATOM     82  C   UNL A   1      47.817  27.649  33.917  1.00  0.00     0.006 A 
ENDBRANCH  58  75
ENDBRANCH  32  33
ENDBRANCH  24  27
ENDBRANCH  22  23
ENDBRANCH  21  22
ENDBRANCH  20  21
ENDBRANCH   1  20
TORSDOF 16
ENDMDL
MODEL 3
REMARK VINA RESULT:     -10.9      1.760      6.596
REMARK SMILES C[C@H](CO)CSc1cc(Cl)ccc1C(=O)NCCCCNC(=O)c1ccc(-c2c3nc(c(-c4c(F)cccc4F)c4ccc([nH]4)c(-c4c(F)cccc4F)c4nc(c(-c5c(F)cccc5F)c5ccc2[nH]5)C=C4)C=C3)cc1
REMARK SMILES IDX 17 1 16 2 14 3 15 4 13 6 7 7 8 8 9 9 12 10 10 11 11 12 6 13
REMARK SMILES IDX 5 14 2 15 1 16 3 17 4 18 18 20 19 21 20 22 21 23 22 24 23 26
REMARK SMILES IDX 24 27 25 28 77 29 26 30 76 31 27 32 28 33 29 34 70 35 30 36
REMARK SMILES IDX 75 37 69 38 71 39 31 40 74 41 68 42 67 43 32 45 58 46 41 47
REMARK SMILES IDX 57 48 42 49 45 50 56 51 72 52 43 53 44 54 55 56 73 57 46 58
REMARK SMILES IDX 33 59 34 60 39 61 35 62 36 63 38 64 40 65 37 66 59 67 60 68
REMARK SMILES IDX 65 69 61 70 62 71 64 72 66 73 63 74 47 75 48 76 53 77 49 78
REMARK SMILES IDX 50 79 52 80 54 81 51 82
REMARK H PARENT 16 5 4 19 21 25 71 44 45 55
REMARK Flexibility Score: inf
ROOT
ATOM      1  C   UNL A   1      35.682  22.827  26.116  1.00  0.00     0.116 C 
ENDROOT
BRANCH   1   2
ATOM      2  N   UNL A   1      34.692  22.455  27.095  1.00  0.00    -0.352 N 
ATOM      3  C   UNL A   1      33.347  22.637  27.230  1.00  0.00     0.252 C 
ATOM      4  O   UNL A   1      32.897  22.216  28.306  1.00  0.00    -0.269 OA
ATOM      5  H   UNL A   1      35.080  21.951  27.847  1.00  0.00     0.163 HD
BRANCH   3   6
ATOM      6  C   UNL A   1      32.353  23.205  26.251  1.00  0.00     0.053 A 
ATOM      7  C   UNL A   1      32.078  22.886  24.902  1.00  0.00     0.021 A 
ATOM      8  C   UNL A   1      31.297  23.780  24.129  1.00  0.00     0.036 A 
ATOM      9  C   UNL A   1      30.713  24.914  24.682  1.00  0.00     0.042 A 
ATOM     10  C   UNL A   1      31.708  24.354  26.785  1.00  0.00     0.016 A 
ATOM     11  Cl  UNL A   1      29.773  25.961  23.697  1.00  0.00    -0.084 Cl
ATOM     12  C   UNL A   1      30.895  25.194  26.021  1.00  0.00     0.021 A 
BRANCH   7  13
ATOM     13  S   UNL A   1      32.708  21.525  23.954  1.00  0.00    -0.125 SA
BRANCH  13  14
ATOM     14  C   UNL A   1      32.463  20.035  25.025  1.00  0.00     0.080 C 
BRANCH  14  15
ATOM     15  C   UNL A   1      32.976  18.648  24.574  1.00  0.00     0.022 C 
ATOM     16  C   UNL A   1      32.479  18.384  23.140  1.00  0.00     0.011 C 
BRANCH  15  17
ATOM     17  C   UNL A   1      32.531  17.476  25.457  1.00  0.00     0.160 C 
BRANCH  17  18
ATOM     18  O   UNL A   1      33.629  16.883  26.133  1.00  0.00    -0.396 OA
ATOM     19  H   UNL A   1      33.320  16.116  26.640  1.00  0.00     0.210 HD
ENDBRANCH  17  18
ENDBRANCH  15  17
ENDBRANCH  14  15
ENDBRANCH  13  14
ENDBRANCH   7  13
ENDBRANCH   3   6
ENDBRANCH   1   2
BRANCH   1  20
ATOM     20  C   UNL A   1      35.996  21.638  25.203  1.00  0.00     0.023 C 
BRANCH  20  21
ATOM     21  C   UNL A   1      37.415  21.607  24.650  1.00  0.00     0.023 C 
BRANCH  21  22
ATOM     22  C   UNL A   1      38.497  21.433  25.708  1.00  0.00     0.116 C 
BRANCH  22  23
ATOM     23  N   UNL A   1      39.263  20.198  25.577  1.00  0.00    -0.352 N 
ATOM     24  C   UNL A   1      40.567  19.964  25.942  1.00  0.00     0.251 C 
ATOM     25  H   UNL A   1      38.786  19.436  25.176  1.00  0.00     0.163 HD
ATOM     26  O   UNL A   1      41.104  18.885  25.721  1.00  0.00    -0.269 OA
BRANCH  24  27
ATOM     27  C   UNL A   1      41.326  21.067  26.557  1.00  0.00     0.039 A 
ATOM     28  C   UNL A   1      41.955  21.994  25.724  1.00  0.00     0.014 A 
ATOM     29  C   UNL A   1      41.299  21.246  27.942  1.00  0.00     0.014 A 
ATOM     30  C   UNL A   1      42.470  23.165  26.277  1.00  0.00     0.010 A 
ATOM     31  C   UNL A   1      41.749  22.443  28.481  1.00  0.00     0.010 A 
ATOM     32  C   UNL A   1      42.318  23.421  27.649  1.00  0.00    -0.014 A 
BRANCH  32  33
ATOM     33  C   UNL A   1      42.696  24.727  28.235  1.00  0.00     0.031 A 
ATOM     34  C   UNL A   1      41.657  25.790  28.432  1.00  0.00     0.074 A 
ATOM     35  C   UNL A   1      43.993  24.985  28.491  1.00  0.00     0.049 A 
ATOM     36  N   UNL A   1      41.808  27.029  28.820  1.00  0.00    -0.248 NA
ATOM     37  C   UNL A   1      40.267  25.418  28.122  1.00  0.00     0.031 C 
ATOM     38  C   UNL A   1      45.102  24.050  28.286  1.00  0.00     0.029 A 
ATOM     39  N   UNL A   1      44.601  26.121  28.963  1.00  0.00    -0.354 N 
ATOM     40  C   UNL A   1      40.539  27.590  28.784  1.00  0.00     0.074 A 
ATOM     41  C   UNL A   1      39.637  26.571  28.294  1.00  0.00     0.031 C 
ATOM     42  C   UNL A   1      46.251  24.645  28.644  1.00  0.00     0.029 A 
ATOM     43  C   UNL A   1      45.967  26.011  29.068  1.00  0.00     0.049 A 
ATOM     44  H   UNL A   1      44.106  26.937  29.204  1.00  0.00     0.167 HD
ATOM     45  C   UNL A   1      40.160  28.838  29.146  1.00  0.00     0.037 A 
ATOM     46  C   UNL A   1      46.886  26.916  29.451  1.00  0.00     0.037 A 
ATOM     47  C   UNL A   1      41.055  29.838  29.661  1.00  0.00     0.049 A 
ATOM     48  C   UNL A   1      46.438  28.294  29.847  1.00  0.00     0.074 A 
ATOM     49  C   UNL A   1      40.755  31.104  30.134  1.00  0.00     0.029 A 
ATOM     50  N   UNL A   1      42.429  29.686  29.767  1.00  0.00    -0.354 N 
ATOM     51  N   UNL A   1      45.225  28.790  29.875  1.00  0.00    -0.248 NA
ATOM     52  C   UNL A   1      47.486  29.239  30.259  1.00  0.00     0.031 C 
ATOM     53  C   UNL A   1      41.953  31.731  30.493  1.00  0.00     0.029 A 
ATOM     54  C   UNL A   1      42.995  30.843  30.275  1.00  0.00     0.049 A 
ATOM     55  H   UNL A   1      42.929  28.875  29.518  1.00  0.00     0.167 HD
ATOM     56  C   UNL A   1      45.361  30.099  30.319  1.00  0.00     0.074 A 
ATOM     57  C   UNL A   1      46.772  30.313  30.566  1.00  0.00     0.031 C 
ATOM     58  C   UNL A   1      44.403  31.038  30.505  1.00  0.00     0.037 A 
BRANCH  45  59
ATOM     59  C   UNL A   1      38.708  29.182  29.006  1.00  0.00     0.057 A 
ATOM     60  C   UNL A   1      37.829  29.121  30.094  1.00  0.00     0.134 A 
ATOM     61  C   UNL A   1      38.188  29.601  27.775  1.00  0.00     0.134 A 
ATOM     62  F   UNL A   1      38.263  28.712  31.296  1.00  0.00    -0.206 F 
ATOM     63  C   UNL A   1      36.477  29.443  29.960  1.00  0.00     0.040 A 
ATOM     64  C   UNL A   1      36.843  29.948  27.633  1.00  0.00     0.040 A 
ATOM     65  F   UNL A   1      38.977  29.681  26.693  1.00  0.00    -0.206 F 
ATOM     66  C   UNL A   1      35.983  29.865  28.726  1.00  0.00     0.006 A 
ENDBRANCH  45  59
BRANCH  46  67
ATOM     67  C   UNL A   1      48.321  26.545  29.491  1.00  0.00     0.057 A 
ATOM     68  C   UNL A   1      49.152  26.767  28.387  1.00  0.00     0.134 A 
ATOM     69  C   UNL A   1      48.895  25.961  30.626  1.00  0.00     0.134 A 
ATOM     70  F   UNL A   1      48.652  27.307  27.265  1.00  0.00    -0.206 F 
ATOM     71  C   UNL A   1      50.500  26.410  28.404  1.00  0.00     0.040 A 
ATOM     72  C   UNL A   1      50.248  25.616  30.664  1.00  0.00     0.040 A 
ATOM     73  F   UNL A   1      48.152  25.728  31.717  1.00  0.00    -0.206 F 
ATOM     74  C   UNL A   1      51.053  25.836  29.548  1.00  0.00     0.006 A 
ENDBRANCH  46  67
BRANCH  58  75
ATOM     75  C   UNL A   1      44.853  32.378  31.004  1.00  0.00     0.057 A 
ATOM     76  C   UNL A   1      45.171  33.418  30.123  1.00  0.00     0.134 A 
ATOM     77  C   UNL A   1      44.933  32.641  32.377  1.00  0.00     0.134 A 
ATOM     78  F   UNL A   1      45.127  33.222  28.796  1.00  0.00    -0.206 F 
ATOM     79  C   UNL A   1      45.569  34.671  30.590  1.00  0.00     0.040 A 
ATOM     80  C   UNL A   1      45.310  33.895  32.856  1.00  0.00     0.040 A 
ATOM     81  F   UNL A   1      44.635  31.687  33.272  1.00  0.00    -0.206 F 
ATOM     82  C   UNL A   1      45.634  34.913  31.960  1.00  0.00     0.006 A 
ENDBRANCH  58  75
ENDBRANCH  32  33
ENDBRANCH  24  27
ENDBRANCH  22  23
ENDBRANCH  21  22
ENDBRANCH  20  21
ENDBRANCH   1  20
TORSDOF 16
ENDMDL
