MODEL 1
REMARK VINA RESULT:     -12.1      0.000      0.000
REMARK SMILES Cc1cc(OC(F)(F)F)cc2c1O[C@@H](C(F)(F)F)C(C(=O)NCCCCNC(=O)c1ccc(-c3c4nc(c(-c5c(F)cccc5F)c5ccc([nH]5)c(-c5c(F)cccc5F)c5nc(c(-c6c(F)cccc6F)c6ccc3[nH]6)C=C5)C=C4)cc1)=C2
REMARK SMILES IDX 24 1 23 2 22 3 20 4 21 5 19 7 1 8 2 9 3 10 12 11 4 12 11 13
REMARK SMILES IDX 13 14 10 15 84 16 14 17 5 18 6 19 7 20 8 21 9 22 15 23 16 24
REMARK SMILES IDX 17 25 18 26 25 27 26 28 27 29 28 30 29 32 30 33 31 34 83 35
REMARK SMILES IDX 32 36 82 37 33 38 34 39 35 40 76 41 36 42 81 43 75 44 77 45
REMARK SMILES IDX 37 46 80 47 74 48 73 49 38 51 64 52 47 53 63 54 48 55 51 56
REMARK SMILES IDX 62 57 78 58 49 59 50 60 61 62 79 63 52 64 39 65 40 66 45 67
REMARK SMILES IDX 41 68 42 69 44 70 46 71 43 72 65 73 66 74 71 75 67 76 68 77
REMARK SMILES IDX 70 78 72 79 69 80 53 81 54 82 59 83 55 84 56 85 58 86 60 87
REMARK SMILES IDX 57 88
REMARK H PARENT 22 6 27 31 77 50 51 61
REMARK Flexibility Score: inf
ROOT
ATOM      1  C   UNL A   1      37.014  21.445  24.435  1.00  0.00     0.023 C 
ENDROOT
BRANCH   1   2
ATOM      2  C   UNL A   1      36.653  22.448  25.530  1.00  0.00     0.116 C 
BRANCH   2   3
ATOM      3  N   UNL A   1      35.726  21.876  26.486  1.00  0.00    -0.352 N 
ATOM      4  C   UNL A   1      34.416  22.026  26.785  1.00  0.00     0.251 C 
ATOM      5  O   UNL A   1      33.987  21.260  27.655  1.00  0.00    -0.270 OA
ATOM      6  H   UNL A   1      36.160  21.207  27.064  1.00  0.00     0.163 HD
BRANCH   4   7
ATOM      7  C   UNL A   1      33.496  23.022  26.161  1.00  0.00     0.067 C 
ATOM      8  C   UNL A   1      29.909  25.658  23.601  1.00  0.00     0.048 C 
ATOM      9  C   UNL A   1      31.054  26.017  24.507  1.00  0.00    -0.005 A 
ATOM     10  C   UNL A   1      31.390  27.364  24.725  1.00  0.00     0.054 A 
ATOM     11  C   UNL A   1      31.824  25.017  25.115  1.00  0.00     0.131 A 
ATOM     12  C   UNL A   1      32.461  27.708  25.554  1.00  0.00     0.130 A 
ATOM     13  C   UNL A   1      32.895  25.349  25.945  1.00  0.00     0.021 A 
ATOM     14  O   UNL A   1      31.462  23.715  24.898  1.00  0.00    -0.475 OA
ATOM     15  C   UNL A   1      33.208  26.693  26.160  1.00  0.00     0.058 A 
ATOM     16  C   UNL A   1      33.665  24.288  26.582  1.00  0.00     0.025 C 
ATOM     17  C   UNL A   1      32.520  22.727  25.054  1.00  0.00     0.314 C 
BRANCH  12  18
ATOM     18  O   UNL A   1      32.885  28.971  25.849  1.00  0.00    -0.406 OA
BRANCH  18  19
ATOM     19  C   UNL A   1      32.151  29.708  26.811  1.00  0.00     0.573 C 
ATOM     20  F   UNL A   1      31.399  28.892  27.580  1.00  0.00    -0.132 F 
ATOM     21  F   UNL A   1      32.972  30.439  27.596  1.00  0.00    -0.132 F 
ATOM     22  F   UNL A   1      31.321  30.557  26.165  1.00  0.00    -0.132 F 
ENDBRANCH  18  19
ENDBRANCH  12  18
BRANCH  17  23
ATOM     23  C   UNL A   1      33.179  22.446  23.693  1.00  0.00     0.429 C 
ATOM     24  F   UNL A   1      34.177  23.339  23.468  1.00  0.00    -0.167 F 
ATOM     25  F   UNL A   1      33.726  21.212  23.615  1.00  0.00    -0.167 F 
ATOM     26  F   UNL A   1      32.314  22.559  22.660  1.00  0.00    -0.167 F 
ENDBRANCH  17  23
ENDBRANCH   4   7
ENDBRANCH   2   3
ENDBRANCH   1   2
BRANCH   1  27
ATOM     27  C   UNL A   1      37.764  20.210  24.937  1.00  0.00     0.023 C 
BRANCH  27  28
ATOM     28  C   UNL A   1      39.023  20.508  25.741  1.00  0.00     0.116 C 
BRANCH  28  29
ATOM     29  N   UNL A   1      39.993  19.424  25.725  1.00  0.00    -0.352 N 
ATOM     30  C   UNL A   1      41.315  19.474  26.111  1.00  0.00     0.251 C 
ATOM     31  H   UNL A   1      39.667  18.552  25.402  1.00  0.00     0.163 HD
ATOM     32  O   UNL A   1      42.049  18.512  26.001  1.00  0.00    -0.269 OA
BRANCH  30  33
ATOM     33  C   UNL A   1      41.822  20.759  26.625  1.00  0.00     0.039 A 
ATOM     34  C   UNL A   1      42.316  21.695  25.714  1.00  0.00     0.014 A 
ATOM     35  C   UNL A   1      41.691  21.064  27.981  1.00  0.00     0.014 A 
ATOM     36  C   UNL A   1      42.622  22.979  26.161  1.00  0.00     0.010 A 
ATOM     37  C   UNL A   1      41.949  22.359  28.414  1.00  0.00     0.010 A 
ATOM     38  C   UNL A   1      42.410  23.325  27.504  1.00  0.00    -0.014 A 
BRANCH  38  39
ATOM     39  C   UNL A   1      42.688  24.693  27.991  1.00  0.00     0.031 A 
ATOM     40  C   UNL A   1      44.091  25.071  28.359  1.00  0.00     0.074 A 
ATOM     41  C   UNL A   1      41.675  25.563  28.160  1.00  0.00     0.049 A 
ATOM     42  N   UNL A   1      44.539  26.189  28.869  1.00  0.00    -0.248 NA
ATOM     43  C   UNL A   1      45.124  24.044  28.148  1.00  0.00     0.031 C 
ATOM     44  C   UNL A   1      40.266  25.292  27.872  1.00  0.00     0.029 A 
ATOM     45  N   UNL A   1      41.679  26.851  28.629  1.00  0.00    -0.354 N 
ATOM     46  C   UNL A   1      45.902  25.997  29.047  1.00  0.00     0.074 A 
ATOM     47  C   UNL A   1      46.199  24.640  28.639  1.00  0.00     0.031 C 
ATOM     48  C   UNL A   1      39.542  26.389  28.159  1.00  0.00     0.029 A 
ATOM     49  C   UNL A   1      40.433  27.426  28.669  1.00  0.00     0.049 A 
ATOM     50  H   UNL A   1      42.498  27.320  28.909  1.00  0.00     0.167 HD
ATOM     51  C   UNL A   1      46.827  26.879  29.488  1.00  0.00     0.037 A 
ATOM     52  C   UNL A   1      40.059  28.653  29.076  1.00  0.00     0.037 A 
ATOM     53  C   UNL A   1      46.533  28.231  29.874  1.00  0.00     0.049 A 
ATOM     54  C   UNL A   1      41.105  29.612  29.571  1.00  0.00     0.074 A 
ATOM     55  C   UNL A   1      47.406  29.221  30.293  1.00  0.00     0.029 A 
ATOM     56  N   UNL A   1      45.262  28.784  29.886  1.00  0.00    -0.354 N 
ATOM     57  N   UNL A   1      42.400  29.439  29.682  1.00  0.00    -0.248 NA
ATOM     58  C   UNL A   1      40.637  30.940  29.992  1.00  0.00     0.031 C 
ATOM     59  C   UNL A   1      46.656  30.368  30.579  1.00  0.00     0.029 A 
ATOM     60  C   UNL A   1      45.323  30.099  30.315  1.00  0.00     0.049 A 
ATOM     61  H   UNL A   1      44.438  28.311  29.628  1.00  0.00     0.167 HD
ATOM     62  C   UNL A   1      42.905  30.640  30.158  1.00  0.00     0.074 A 
ATOM     63  C   UNL A   1      41.778  31.538  30.309  1.00  0.00     0.031 C 
ATOM     64  C   UNL A   1      44.187  30.974  30.445  1.00  0.00     0.037 A 
BRANCH  51  65
ATOM     65  C   UNL A   1      48.242  26.395  29.562  1.00  0.00     0.057 A 
ATOM     66  C   UNL A   1      49.108  26.538  28.472  1.00  0.00     0.134 A 
ATOM     67  C   UNL A   1      48.752  25.796  30.722  1.00  0.00     0.134 A 
ATOM     68  F   UNL A   1      48.682  27.106  27.333  1.00  0.00    -0.206 F 
ATOM     69  C   UNL A   1      50.435  26.110  28.536  1.00  0.00     0.040 A 
ATOM     70  C   UNL A   1      50.082  25.384  30.806  1.00  0.00     0.040 A 
ATOM     71  F   UNL A   1      47.976  25.650  31.807  1.00  0.00    -0.206 F 
ATOM     72  C   UNL A   1      50.926  25.539  29.709  1.00  0.00     0.006 A 
ENDBRANCH  51  65
BRANCH  52  73
ATOM     73  C   UNL A   1      38.636  29.061  29.008  1.00  0.00     0.057 A 
ATOM     74  C   UNL A   1      37.791  28.964  30.119  1.00  0.00     0.134 A 
ATOM     75  C   UNL A   1      38.097  29.583  27.827  1.00  0.00     0.134 A 
ATOM     76  F   UNL A   1      38.250  28.468  31.276  1.00  0.00    -0.206 F 
ATOM     77  C   UNL A   1      36.458  29.374  30.058  1.00  0.00     0.040 A 
ATOM     78  C   UNL A   1      36.771  30.013  27.757  1.00  0.00     0.040 A 
ATOM     79  F   UNL A   1      38.866  29.717  26.736  1.00  0.00    -0.206 F 
ATOM     80  C   UNL A   1      35.947  29.907  28.875  1.00  0.00     0.006 A 
ENDBRANCH  52  73
BRANCH  64  81
ATOM     81  C   UNL A   1      44.434  32.374  30.916  1.00  0.00     0.057 A 
ATOM     82  C   UNL A   1      44.406  32.681  32.281  1.00  0.00     0.134 A 
ATOM     83  C   UNL A   1      44.670  33.420  30.016  1.00  0.00     0.134 A 
ATOM     84  F   UNL A   1      44.180  31.720  33.190  1.00  0.00    -0.206 F 
ATOM     85  C   UNL A   1      44.603  33.984  32.737  1.00  0.00     0.040 A 
ATOM     86  C   UNL A   1      44.887  34.725  30.461  1.00  0.00     0.040 A 
ATOM     87  F   UNL A   1      44.724  33.183  28.697  1.00  0.00    -0.206 F 
ATOM     88  C   UNL A   1      44.848  35.009  31.826  1.00  0.00     0.006 A 
ENDBRANCH  64  81
ENDBRANCH  38  39
ENDBRANCH  30  33
ENDBRANCH  28  29
ENDBRANCH  27  28
ENDBRANCH   1  27
TORSDOF 14
ENDMDL
MODEL 2
REMARK VINA RESULT:     -12.0      2.471      7.574
REMARK SMILES Cc1cc(OC(F)(F)F)cc2c1O[C@@H](C(F)(F)F)C(C(=O)NCCCCNC(=O)c1ccc(-c3c4nc(c(-c5c(F)cccc5F)c5ccc([nH]5)c(-c5c(F)cccc5F)c5nc(c(-c6c(F)cccc6F)c6ccc3[nH]6)C=C5)C=C4)cc1)=C2
REMARK SMILES IDX 24 1 23 2 22 3 20 4 21 5 19 7 1 8 2 9 3 10 12 11 4 12 11 13
REMARK SMILES IDX 13 14 10 15 84 16 14 17 5 18 6 19 7 20 8 21 9 22 15 23 16 24
REMARK SMILES IDX 17 25 18 26 25 27 26 28 27 29 28 30 29 32 30 33 31 34 83 35
REMARK SMILES IDX 32 36 82 37 33 38 34 39 35 40 76 41 36 42 81 43 75 44 77 45
REMARK SMILES IDX 37 46 80 47 74 48 73 49 38 51 64 52 47 53 63 54 48 55 51 56
REMARK SMILES IDX 62 57 78 58 49 59 50 60 61 62 79 63 52 64 39 65 40 66 45 67
REMARK SMILES IDX 41 68 42 69 44 70 46 71 43 72 65 73 66 74 71 75 67 76 68 77
REMARK SMILES IDX 70 78 72 79 69 80 53 81 54 82 59 83 55 84 56 85 58 86 60 87
REMARK SMILES IDX 57 88
REMARK H PARENT 22 6 27 31 77 50 51 61
REMARK Flexibility Score: inf
ROOT
ATOM      1  C   UNL A   1      33.066  29.253  24.910  1.00  0.00     0.023 C 
ENDROOT
BRANCH   1   2
ATOM      2  C   UNL A   1      31.625  28.746  24.907  1.00  0.00     0.116 C 
BRANCH   2   3
ATOM      3  N   UNL A   1      31.204  28.362  23.575  1.00  0.00    -0.352 N 
ATOM      4  C   UNL A   1      31.123  27.211  22.870  1.00  0.00     0.251 C 
ATOM      5  O   UNL A   1      30.618  27.319  21.747  1.00  0.00    -0.270 OA
ATOM      6  H   UNL A   1      30.898  29.136  23.048  1.00  0.00     0.163 HD
BRANCH   4   7
ATOM      7  C   UNL A   1      31.591  25.874  23.342  1.00  0.00     0.067 C 
ATOM      8  C   UNL A   1      32.246  21.099  25.110  1.00  0.00     0.048 C 
ATOM      9  C   UNL A   1      33.159  22.199  24.645  1.00  0.00    -0.005 A 
ATOM     10  C   UNL A   1      34.553  22.052  24.744  1.00  0.00     0.054 A 
ATOM     11  C   UNL A   1      32.636  23.397  24.145  1.00  0.00     0.131 A 
ATOM     12  C   UNL A   1      35.410  23.074  24.328  1.00  0.00     0.130 A 
ATOM     13  C   UNL A   1      33.482  24.424  23.726  1.00  0.00     0.021 A 
ATOM     14  O   UNL A   1      31.275  23.505  24.045  1.00  0.00    -0.475 OA
ATOM     15  C   UNL A   1      34.866  24.257  23.819  1.00  0.00     0.058 A 
ATOM     16  C   UNL A   1      32.910  25.651  23.187  1.00  0.00     0.025 C 
ATOM     17  C   UNL A   1      30.741  24.859  24.055  1.00  0.00     0.314 C 
BRANCH  12  18
ATOM     18  O   UNL A   1      36.775  23.055  24.366  1.00  0.00    -0.406 OA
BRANCH  18  19
ATOM     19  C   UNL A   1      37.405  23.253  25.620  1.00  0.00     0.573 C 
ATOM     20  F   UNL A   1      36.517  23.658  26.553  1.00  0.00    -0.132 F 
ATOM     21  F   UNL A   1      38.020  22.126  26.039  1.00  0.00    -0.132 F 
ATOM     22  F   UNL A   1      38.342  24.218  25.486  1.00  0.00    -0.132 F 
ENDBRANCH  18  19
ENDBRANCH  12  18
BRANCH  17  23
ATOM     23  C   UNL A   1      30.357  25.259  25.490  1.00  0.00     0.429 C 
ATOM     24  F   UNL A   1      30.093  24.148  26.227  1.00  0.00    -0.167 F 
ATOM     25  F   UNL A   1      31.336  25.937  26.131  1.00  0.00    -0.167 F 
ATOM     26  F   UNL A   1      29.248  26.031  25.539  1.00  0.00    -0.167 F 
ENDBRANCH  17  23
ENDBRANCH   4   7
ENDBRANCH   2   3
ENDBRANCH   1   2
BRANCH   1  27
ATOM     27  C   UNL A   1      34.017  28.441  25.792  1.00  0.00     0.023 C 
BRANCH  27  28
ATOM     28  C   UNL A   1      33.776  28.578  27.289  1.00  0.00     0.116 C 
BRANCH  28  29
ATOM     29  N   UNL A   1      33.704  29.958  27.741  1.00  0.00    -0.352 N 
ATOM     30  C   UNL A   1      34.712  30.713  28.303  1.00  0.00     0.251 C 
ATOM     31  H   UNL A   1      32.834  30.408  27.633  1.00  0.00     0.163 HD
ATOM     32  O   UNL A   1      34.519  31.846  28.696  1.00  0.00    -0.269 OA
BRANCH  30  33
ATOM     33  C   UNL A   1      36.032  30.074  28.451  1.00  0.00     0.039 A 
ATOM     34  C   UNL A   1      36.941  30.165  27.394  1.00  0.00     0.014 A 
ATOM     35  C   UNL A   1      36.394  29.500  29.672  1.00  0.00     0.014 A 
ATOM     36  C   UNL A   1      38.251  29.732  27.588  1.00  0.00     0.010 A 
ATOM     37  C   UNL A   1      37.713  29.117  29.878  1.00  0.00     0.010 A 
ATOM     38  C   UNL A   1      38.650  29.237  28.839  1.00  0.00    -0.014 A 
BRANCH  38  39
ATOM     39  C   UNL A   1      40.046  28.812  29.079  1.00  0.00     0.031 A 
ATOM     40  C   UNL A   1      41.002  29.764  29.732  1.00  0.00     0.074 A 
ATOM     41  C   UNL A   1      40.461  27.604  28.655  1.00  0.00     0.049 A 
ATOM     42  N   UNL A   1      42.279  29.618  29.972  1.00  0.00    -0.248 NA
ATOM     43  C   UNL A   1      40.451  31.064  30.148  1.00  0.00     0.031 C 
ATOM     44  C   UNL A   1      39.629  26.611  27.974  1.00  0.00     0.029 A 
ATOM     45  N   UNL A   1      41.696  27.014  28.726  1.00  0.00    -0.354 N 
ATOM     46  C   UNL A   1      42.686  30.809  30.558  1.00  0.00     0.074 A 
ATOM     47  C   UNL A   1      41.534  31.684  30.592  1.00  0.00     0.031 C 
ATOM     48  C   UNL A   1      40.377  25.526  27.700  1.00  0.00     0.029 A 
ATOM     49  C   UNL A   1      41.740  25.760  28.168  1.00  0.00     0.049 A 
ATOM     50  H   UNL A   1      42.478  27.447  29.139  1.00  0.00     0.167 HD
ATOM     51  C   UNL A   1      43.905  31.134  31.046  1.00  0.00     0.037 A 
ATOM     52  C   UNL A   1      42.769  24.901  28.048  1.00  0.00     0.037 A 
ATOM     53  C   UNL A   1      45.042  30.257  31.028  1.00  0.00     0.049 A 
ATOM     54  C   UNL A   1      44.116  25.291  28.591  1.00  0.00     0.074 A 
ATOM     55  C   UNL A   1      46.311  30.474  31.538  1.00  0.00     0.029 A 
ATOM     56  N   UNL A   1      45.044  28.988  30.470  1.00  0.00    -0.354 N 
ATOM     57  N   UNL A   1      44.476  26.398  29.194  1.00  0.00    -0.248 NA
ATOM     58  C   UNL A   1      45.198  24.308  28.439  1.00  0.00     0.031 C 
ATOM     59  C   UNL A   1      47.087  29.341  31.267  1.00  0.00     0.029 A 
ATOM     60  C   UNL A   1      46.295  28.411  30.612  1.00  0.00     0.049 A 
ATOM     61  H   UNL A   1      44.271  28.560  30.037  1.00  0.00     0.167 HD
ATOM     62  C   UNL A   1      45.815  26.236  29.518  1.00  0.00     0.074 A 
ATOM     63  C   UNL A   1      46.203  24.920  29.051  1.00  0.00     0.031 C 
ATOM     64  C   UNL A   1      46.651  27.096  30.148  1.00  0.00     0.037 A 
BRANCH  51  65
ATOM     65  C   UNL A   1      44.050  32.499  31.645  1.00  0.00     0.057 A 
ATOM     66  C   UNL A   1      44.422  33.594  30.856  1.00  0.00     0.134 A 
ATOM     67  C   UNL A   1      43.806  32.731  33.005  1.00  0.00     0.134 A 
ATOM     68  F   UNL A   1      44.666  33.438  29.546  1.00  0.00    -0.206 F 
ATOM     69  C   UNL A   1      44.539  34.874  31.399  1.00  0.00     0.040 A 
ATOM     70  C   UNL A   1      43.899  34.010  33.554  1.00  0.00     0.040 A 
ATOM     71  F   UNL A   1      43.426  31.725  33.808  1.00  0.00    -0.206 F 
ATOM     72  C   UNL A   1      44.270  35.085  32.750  1.00  0.00     0.006 A 
ENDBRANCH  51  65
BRANCH  52  73
ATOM     73  C   UNL A   1      42.567  23.576  27.415  1.00  0.00     0.057 A 
ATOM     74  C   UNL A   1      42.199  22.454  28.165  1.00  0.00     0.134 A 
ATOM     75  C   UNL A   1      42.717  23.413  26.033  1.00  0.00     0.134 A 
ATOM     76  F   UNL A   1      42.044  22.549  29.493  1.00  0.00    -0.206 F 
ATOM     77  C   UNL A   1      41.984  21.214  27.561  1.00  0.00     0.040 A 
ATOM     78  C   UNL A   1      42.488  22.183  25.415  1.00  0.00     0.040 A 
ATOM     79  F   UNL A   1      43.051  24.458  25.262  1.00  0.00    -0.206 F 
ATOM     80  C   UNL A   1      42.122  21.078  26.181  1.00  0.00     0.006 A 
ENDBRANCH  52  73
BRANCH  64  81
ATOM     81  C   UNL A   1      48.051  26.624  30.393  1.00  0.00     0.057 A 
ATOM     82  C   UNL A   1      49.058  26.863  29.452  1.00  0.00     0.134 A 
ATOM     83  C   UNL A   1      48.392  25.909  31.547  1.00  0.00     0.134 A 
ATOM     84  F   UNL A   1      48.789  27.540  28.325  1.00  0.00    -0.206 F 
ATOM     85  C   UNL A   1      50.360  26.405  29.648  1.00  0.00     0.040 A 
ATOM     86  C   UNL A   1      49.697  25.461  31.764  1.00  0.00     0.040 A 
ATOM     87  F   UNL A   1      47.473  25.663  32.493  1.00  0.00    -0.206 F 
ATOM     88  C   UNL A   1      50.683  25.704  30.808  1.00  0.00     0.006 A 
ENDBRANCH  64  81
ENDBRANCH  38  39
ENDBRANCH  30  33
ENDBRANCH  28  29
ENDBRANCH  27  28
ENDBRANCH   1  27
TORSDOF 14
ENDMDL
MODEL 3
REMARK VINA RESULT:     -11.9      1.522      2.376
REMARK SMILES Cc1cc(OC(F)(F)F)cc2c1O[C@@H](C(F)(F)F)C(C(=O)NCCCCNC(=O)c1ccc(-c3c4nc(c(-c5c(F)cccc5F)c5ccc([nH]5)c(-c5c(F)cccc5F)c5nc(c(-c6c(F)cccc6F)c6ccc3[nH]6)C=C5)C=C4)cc1)=C2
REMARK SMILES IDX 24 1 23 2 22 3 20 4 21 5 19 7 1 8 2 9 3 10 12 11 4 12 11 13
REMARK SMILES IDX 13 14 10 15 84 16 14 17 5 18 6 19 7 20 8 21 9 22 15 23 16 24
REMARK SMILES IDX 17 25 18 26 25 27 26 28 27 29 28 30 29 32 30 33 31 34 83 35
REMARK SMILES IDX 32 36 82 37 33 38 34 39 35 40 76 41 36 42 81 43 75 44 77 45
REMARK SMILES IDX 37 46 80 47 74 48 73 49 38 51 64 52 47 53 63 54 48 55 51 56
REMARK SMILES IDX 62 57 78 58 49 59 50 60 61 62 79 63 52 64 39 65 40 66 45 67
REMARK SMILES IDX 41 68 42 69 44 70 46 71 43 72 65 73 66 74 71 75 67 76 68 77
REMARK SMILES IDX 70 78 72 79 69 80 53 81 54 82 59 83 55 84 56 85 58 86 60 87
REMARK SMILES IDX 57 88
REMARK H PARENT 22 6 27 31 77 50 51 61
REMARK Flexibility Score: inf
ROOT
ATOM      1  C   UNL A   1      36.355  21.087  25.382  1.00  0.00     0.023 C 
ENDROOT
BRANCH   1   2
ATOM      2  C   UNL A   1      36.239  22.546  24.942  1.00  0.00     0.116 C 
BRANCH   2   3
ATOM      3  N   UNL A   1      35.487  22.667  23.709  1.00  0.00    -0.352 N 
ATOM      4  C   UNL A   1      34.566  23.520  23.207  1.00  0.00     0.251 C 
ATOM      5  O   UNL A   1      34.224  23.294  22.042  1.00  0.00    -0.270 OA
ATOM      6  H   UNL A   1      35.702  21.945  23.075  1.00  0.00     0.163 HD
BRANCH   4   7
ATOM      7  C   UNL A   1      33.956  24.665  23.946  1.00  0.00     0.067 C 
ATOM      8  C   UNL A   1      32.190  28.140  27.288  1.00  0.00     0.048 C 
ATOM      9  C   UNL A   1      32.145  27.977  25.794  1.00  0.00    -0.005 A 
ATOM     10  C   UNL A   1      31.402  28.872  25.006  1.00  0.00     0.054 A 
ATOM     11  C   UNL A   1      32.808  26.912  25.172  1.00  0.00     0.131 A 
ATOM     12  C   UNL A   1      31.341  28.721  23.618  1.00  0.00     0.130 A 
ATOM     13  C   UNL A   1      32.754  26.752  23.786  1.00  0.00     0.021 A 
ATOM     14  O   UNL A   1      33.537  26.067  25.963  1.00  0.00    -0.475 OA
ATOM     15  C   UNL A   1      32.021  27.658  23.016  1.00  0.00     0.058 A 
ATOM     16  C   UNL A   1      33.474  25.649  23.163  1.00  0.00     0.025 C 
ATOM     17  C   UNL A   1      33.752  24.727  25.435  1.00  0.00     0.314 C 
BRANCH  12  18
ATOM     18  O   UNL A   1      30.662  29.520  22.744  1.00  0.00    -0.406 OA
BRANCH  18  19
ATOM     19  C   UNL A   1      29.251  29.577  22.857  1.00  0.00     0.573 C 
ATOM     20  F   UNL A   1      28.738  28.368  23.171  1.00  0.00    -0.132 F 
ATOM     21  F   UNL A   1      28.872  30.483  23.783  1.00  0.00    -0.132 F 
ATOM     22  F   UNL A   1      28.736  29.953  21.666  1.00  0.00    -0.132 F 
ENDBRANCH  18  19
ENDBRANCH  12  18
BRANCH  17  23
ATOM     23  C   UNL A   1      32.661  23.778  25.959  1.00  0.00     0.429 C 
ATOM     24  F   UNL A   1      31.693  23.619  25.020  1.00  0.00    -0.167 F 
ATOM     25  F   UNL A   1      33.131  22.545  26.257  1.00  0.00    -0.167 F 
ATOM     26  F   UNL A   1      32.052  24.245  27.072  1.00  0.00    -0.167 F 
ENDBRANCH  17  23
ENDBRANCH   4   7
ENDBRANCH   2   3
ENDBRANCH   1   2
BRANCH   1  27
ATOM     27  C   UNL A   1      37.618  20.380  24.887  1.00  0.00     0.023 C 
BRANCH  27  28
ATOM     28  C   UNL A   1      38.867  20.643  25.716  1.00  0.00     0.116 C 
BRANCH  28  29
ATOM     29  N   UNL A   1      39.842  19.565  25.656  1.00  0.00    -0.352 N 
ATOM     30  C   UNL A   1      41.169  19.610  26.027  1.00  0.00     0.251 C 
ATOM     31  H   UNL A   1      39.517  18.702  25.311  1.00  0.00     0.163 HD
ATOM     32  O   UNL A   1      41.906  18.656  25.880  1.00  0.00    -0.269 OA
BRANCH  30  33
ATOM     33  C   UNL A   1      41.675  20.882  26.574  1.00  0.00     0.039 A 
ATOM     34  C   UNL A   1      42.178  21.837  25.688  1.00  0.00     0.014 A 
ATOM     35  C   UNL A   1      41.536  21.157  27.936  1.00  0.00     0.014 A 
ATOM     36  C   UNL A   1      42.485  23.110  26.165  1.00  0.00     0.010 A 
ATOM     37  C   UNL A   1      41.794  22.442  28.399  1.00  0.00     0.010 A 
ATOM     38  C   UNL A   1      42.265  23.426  27.515  1.00  0.00    -0.014 A 
BRANCH  38  39
ATOM     39  C   UNL A   1      42.543  24.782  28.034  1.00  0.00     0.031 A 
ATOM     40  C   UNL A   1      43.940  25.140  28.445  1.00  0.00     0.074 A 
ATOM     41  C   UNL A   1      41.534  25.659  28.193  1.00  0.00     0.049 A 
ATOM     42  N   UNL A   1      44.385  26.243  28.987  1.00  0.00    -0.248 NA
ATOM     43  C   UNL A   1      44.967  24.106  28.242  1.00  0.00     0.031 C 
ATOM     44  C   UNL A   1      40.131  25.408  27.863  1.00  0.00     0.029 A 
ATOM     45  N   UNL A   1      41.539  26.938  28.686  1.00  0.00    -0.354 N 
ATOM     46  C   UNL A   1      45.741  26.034  29.197  1.00  0.00     0.074 A 
ATOM     47  C   UNL A   1      46.035  24.682  28.772  1.00  0.00     0.031 C 
ATOM     48  C   UNL A   1      39.410  26.506  28.152  1.00  0.00     0.029 A 
ATOM     49  C   UNL A   1      40.298  27.525  28.704  1.00  0.00     0.049 A 
ATOM     50  H   UNL A   1      42.355  27.394  28.996  1.00  0.00     0.167 HD
ATOM     51  C   UNL A   1      46.662  26.898  29.679  1.00  0.00     0.037 A 
ATOM     52  C   UNL A   1      39.925  28.748  29.124  1.00  0.00     0.037 A 
ATOM     53  C   UNL A   1      46.371  28.246  30.083  1.00  0.00     0.049 A 
ATOM     54  C   UNL A   1      40.967  29.687  29.663  1.00  0.00     0.074 A 
ATOM     55  C   UNL A   1      47.242  29.219  30.542  1.00  0.00     0.029 A 
ATOM     56  N   UNL A   1      45.106  28.811  30.071  1.00  0.00    -0.354 N 
ATOM     57  N   UNL A   1      42.256  29.499  29.805  1.00  0.00    -0.248 NA
ATOM     58  C   UNL A   1      40.501  31.012  30.097  1.00  0.00     0.031 C 
ATOM     59  C   UNL A   1      46.496  30.368  30.830  1.00  0.00     0.029 A 
ATOM     60  C   UNL A   1      45.168  30.118  30.526  1.00  0.00     0.049 A 
ATOM     61  H   UNL A   1      44.284  28.352  29.783  1.00  0.00     0.167 HD
ATOM     62  C   UNL A   1      42.761  30.686  30.317  1.00  0.00     0.074 A 
ATOM     63  C   UNL A   1      41.638  31.592  30.455  1.00  0.00     0.031 C 
ATOM     64  C   UNL A   1      44.037  31.002  30.643  1.00  0.00     0.037 A 
BRANCH  51  65
ATOM     65  C   UNL A   1      48.070  26.398  29.780  1.00  0.00     0.057 A 
ATOM     66  C   UNL A   1      48.525  25.764  30.942  1.00  0.00     0.134 A 
ATOM     67  C   UNL A   1      48.973  26.534  28.717  1.00  0.00     0.134 A 
ATOM     68  F   UNL A   1      47.708  25.600  31.993  1.00  0.00    -0.206 F 
ATOM     69  C   UNL A   1      49.828  25.274  31.039  1.00  0.00     0.040 A 
ATOM     70  C   UNL A   1      50.272  26.030  28.795  1.00  0.00     0.040 A 
ATOM     71  F   UNL A   1      48.590  27.115  27.570  1.00  0.00    -0.206 F 
ATOM     72  C   UNL A   1      50.703  25.400  29.961  1.00  0.00     0.006 A 
ENDBRANCH  51  65
BRANCH  52  73
ATOM     73  C   UNL A   1      38.508  29.172  29.026  1.00  0.00     0.057 A 
ATOM     74  C   UNL A   1      37.643  29.100  30.124  1.00  0.00     0.134 A 
ATOM     75  C   UNL A   1      37.995  29.684  27.829  1.00  0.00     0.134 A 
ATOM     76  F   UNL A   1      38.077  28.615  31.296  1.00  0.00    -0.206 F 
ATOM     77  C   UNL A   1      36.317  29.524  30.035  1.00  0.00     0.040 A 
ATOM     78  C   UNL A   1      36.676  30.128  27.731  1.00  0.00     0.040 A 
ATOM     79  F   UNL A   1      38.783  29.794  26.750  1.00  0.00    -0.206 F 
ATOM     80  C   UNL A   1      35.832  30.047  28.837  1.00  0.00     0.006 A 
ENDBRANCH  52  73
BRANCH  64  81
ATOM     81  C   UNL A   1      44.285  32.390  31.146  1.00  0.00     0.057 A 
ATOM     82  C   UNL A   1      44.574  33.429  30.254  1.00  0.00     0.134 A 
ATOM     83  C   UNL A   1      44.266  32.689  32.513  1.00  0.00     0.134 A 
ATOM     84  F   UNL A   1      44.609  33.202  28.932  1.00  0.00    -0.206 F 
ATOM     85  C   UNL A   1      44.838  34.722  30.705  1.00  0.00     0.040 A 
ATOM     86  C   UNL A   1      44.511  33.983  32.976  1.00  0.00     0.040 A 
ATOM     87  F   UNL A   1      43.980  31.738  33.414  1.00  0.00    -0.206 F 
ATOM     88  C   UNL A   1      44.803  35.002  32.070  1.00  0.00     0.006 A 
ENDBRANCH  64  81
ENDBRANCH  38  39
ENDBRANCH  30  33
ENDBRANCH  28  29
ENDBRANCH  27  28
ENDBRANCH   1  27
TORSDOF 14
ENDMDL
