MODEL 1
REMARK VINA RESULT:      -9.5      0.000      0.000
REMARK SMILES [NH3+][C@@H](Cc1c[nH]c2ccccc12)C(=O)NCCC(=O)NCCCCNC(=O)c1ccc(-c2c3nc(c(-c4c(F)cccc4F)c4ccc([nH]4)c(-c4c(F)cccc4F)c4nc(c(-c5c(F)cccc5F)c5ccc2[nH]5)C=C4)C=C3)cc1
REMARK SMILES IDX 21 1 20 2 18 3 19 4 17 6 16 7 15 8 13 9 14 10 2 12 1 13 3 17
REMARK SMILES IDX 4 18 5 19 12 20 6 21 7 22 11 23 8 25 10 26 9 27 22 28 23 29
REMARK SMILES IDX 24 30 25 31 26 32 27 34 28 35 29 36 81 37 30 38 80 39 31 40
REMARK SMILES IDX 32 41 33 42 74 43 34 44 79 45 73 46 75 47 35 48 78 49 72 50
REMARK SMILES IDX 71 51 36 53 62 54 45 55 61 56 46 57 49 58 60 59 76 60 47 61
REMARK SMILES IDX 48 62 59 64 77 65 50 66 37 67 38 68 43 69 39 70 40 71 42 72
REMARK SMILES IDX 44 73 41 74 63 75 64 76 69 77 65 78 66 79 68 80 70 81 67 82
REMARK SMILES IDX 51 83 52 84 57 85 53 86 54 87 56 88 58 89 55 90
REMARK H PARENT 20 5 15 11 1 14 1 15 1 16 6 24 25 33 75 52 49 63
REMARK Flexibility Score: inf
ROOT
ATOM      1  C   UNL A   1      46.653  20.066  24.448  1.00  0.00     0.116 C 
ENDROOT
BRANCH   1   2
ATOM      2  N   UNL A   1      45.634  20.925  23.874  1.00  0.00    -0.356 N 
ATOM      3  C   UNL A   1      45.271  22.196  24.210  1.00  0.00     0.221 C 
ATOM      4  O   UNL A   1      44.309  22.696  23.626  1.00  0.00    -0.275 OA
ATOM      5  H   UNL A   1      45.129  20.531  23.127  1.00  0.00     0.163 HD
BRANCH   3   6
ATOM      6  C   UNL A   1      46.018  22.966  25.283  1.00  0.00     0.121 C 
BRANCH   6   7
ATOM      7  C   UNL A   1      46.233  24.425  24.893  1.00  0.00     0.126 C 
BRANCH   7   8
ATOM      8  N   UNL A   1      45.035  25.220  25.116  1.00  0.00    -0.350 N 
ATOM      9  C   UNL A   1      44.743  26.508  25.401  1.00  0.00     0.278 C 
ATOM     10  O   UNL A   1      43.533  26.764  25.506  1.00  0.00    -0.268 OA
ATOM     11  H   UNL A   1      44.220  24.674  25.039  1.00  0.00     0.163 HD
BRANCH   9  12
ATOM     12  C   UNL A   1      45.766  27.643  25.472  1.00  0.00     0.275 C 
BRANCH  12  13
ATOM     13  N   UNL A   1      46.125  28.199  24.150  1.00  0.00    -0.347 N 
ATOM     14  H   UNL A   1      45.694  27.635  23.417  1.00  0.00     0.345 HD
ATOM     15  H   UNL A   1      47.138  28.185  24.039  1.00  0.00     0.345 HD
ATOM     16  H   UNL A   1      45.787  29.159  24.082  1.00  0.00     0.345 HD
ENDBRANCH  12  13
BRANCH  12  17
ATOM     17  C   UNL A   1      45.356  28.673  26.545  1.00  0.00     0.113 C 
BRANCH  17  18
ATOM     18  C   UNL A   1      46.248  29.873  26.645  1.00  0.00    -0.016 A 
ATOM     19  C   UNL A   1      47.593  29.863  26.970  1.00  0.00     0.087 A 
ATOM     20  C   UNL A   1      45.885  31.241  26.445  1.00  0.00     0.003 A 
ATOM     21  N   UNL A   1      48.024  31.157  27.069  1.00  0.00    -0.361 N 
ATOM     22  C   UNL A   1      46.995  32.020  26.768  1.00  0.00     0.046 A 
ATOM     23  C   UNL A   1      44.700  31.892  26.045  1.00  0.00     0.010 A 
ATOM     24  H   UNL A   1      48.935  31.432  27.318  1.00  0.00     0.166 HD
ATOM     25  C   UNL A   1      46.970  33.418  26.758  1.00  0.00     0.026 A 
ATOM     26  C   UNL A   1      44.666  33.289  25.999  1.00  0.00     0.001 A 
ATOM     27  C   UNL A   1      45.781  34.039  26.363  1.00  0.00     0.002 A 
ENDBRANCH  17  18
ENDBRANCH  12  17
ENDBRANCH   9  12
ENDBRANCH   7   8
ENDBRANCH   6   7
ENDBRANCH   3   6
ENDBRANCH   1   2
BRANCH   1  28
ATOM     28  C   UNL A   1      46.041  19.122  25.491  1.00  0.00     0.023 C 
BRANCH  28  29
ATOM     29  C   UNL A   1      44.624  18.653  25.205  1.00  0.00     0.023 C 
BRANCH  29  30
ATOM     30  C   UNL A   1      43.554  19.328  26.042  1.00  0.00     0.116 C 
BRANCH  30  31
ATOM     31  N   UNL A   1      42.196  18.880  25.766  1.00  0.00    -0.352 N 
ATOM     32  C   UNL A   1      41.031  19.576  25.995  1.00  0.00     0.251 C 
ATOM     33  H   UNL A   1      42.101  17.982  25.371  1.00  0.00     0.163 HD
ATOM     34  O   UNL A   1      39.932  19.083  25.774  1.00  0.00    -0.269 OA
BRANCH  32  35
ATOM     35  C   UNL A   1      41.144  20.926  26.580  1.00  0.00     0.039 A 
ATOM     36  C   UNL A   1      41.154  21.059  27.968  1.00  0.00     0.014 A 
ATOM     37  C   UNL A   1      41.391  22.022  25.751  1.00  0.00     0.014 A 
ATOM     38  C   UNL A   1      41.498  22.287  28.531  1.00  0.00     0.010 A 
ATOM     39  C   UNL A   1      41.830  23.212  26.312  1.00  0.00     0.010 A 
ATOM     40  C   UNL A   1      41.886  23.357  27.708  1.00  0.00    -0.014 A 
BRANCH  40  41
ATOM     41  C   UNL A   1      42.338  24.648  28.277  1.00  0.00     0.031 A 
ATOM     42  C   UNL A   1      41.340  25.753  28.485  1.00  0.00     0.074 A 
ATOM     43  C   UNL A   1      43.645  24.854  28.528  1.00  0.00     0.049 A 
ATOM     44  N   UNL A   1      41.540  26.985  28.876  1.00  0.00    -0.248 NA
ATOM     45  C   UNL A   1      39.935  25.443  28.172  1.00  0.00     0.031 C 
ATOM     46  C   UNL A   1      44.718  23.881  28.307  1.00  0.00     0.029 A 
ATOM     47  N   UNL A   1      44.297  25.958  29.017  1.00  0.00    -0.354 N 
ATOM     48  C   UNL A   1      40.297  27.600  28.825  1.00  0.00     0.074 A 
ATOM     49  C   UNL A   1      39.358  26.627  28.314  1.00  0.00     0.031 C 
ATOM     50  C   UNL A   1      45.888  24.420  28.689  1.00  0.00     0.029 A 
ATOM     51  C   UNL A   1      45.654  25.785  29.148  1.00  0.00     0.049 A 
ATOM     52  H   UNL A   1      43.835  26.795  29.253  1.00  0.00     0.167 HD
ATOM     53  C   UNL A   1      39.959  28.855  29.200  1.00  0.00     0.037 A 
ATOM     54  C   UNL A   1      46.599  26.636  29.592  1.00  0.00     0.037 A 
ATOM     55  C   UNL A   1      40.883  29.802  29.764  1.00  0.00     0.049 A 
ATOM     56  C   UNL A   1      46.191  28.013  30.039  1.00  0.00     0.074 A 
ATOM     57  C   UNL A   1      40.628  31.070  30.253  1.00  0.00     0.029 A 
ATOM     58  N   UNL A   1      42.242  29.573  29.922  1.00  0.00    -0.354 N 
ATOM     59  N   UNL A   1      44.999  28.558  30.054  1.00  0.00    -0.248 NA
ATOM     60  C   UNL A   1      47.259  28.890  30.537  1.00  0.00     0.031 C 
ATOM     61  C   UNL A   1      41.839  31.621  30.682  1.00  0.00     0.029 A 
ATOM     62  C   UNL A   1      42.841  30.683  30.492  1.00  0.00     0.049 A 
ATOM     63  H   UNL A   1      42.710  28.746  29.667  1.00  0.00     0.167 HD
ATOM     64  C   UNL A   1      45.167  29.827  30.589  1.00  0.00     0.074 A 
ATOM     65  C   UNL A   1      46.577  29.968  30.896  1.00  0.00     0.031 C 
ATOM     66  C   UNL A   1      44.242  30.792  30.805  1.00  0.00     0.037 A 
BRANCH  53  67
ATOM     67  C   UNL A   1      38.528  29.267  29.029  1.00  0.00     0.057 A 
ATOM     68  C   UNL A   1      37.627  29.266  30.103  1.00  0.00     0.134 A 
ATOM     69  C   UNL A   1      38.049  29.690  27.783  1.00  0.00     0.134 A 
ATOM     70  F   UNL A   1      38.018  28.855  31.318  1.00  0.00    -0.206 F 
ATOM     71  C   UNL A   1      36.295  29.648  29.937  1.00  0.00     0.040 A 
ATOM     72  C   UNL A   1      36.726  30.100  27.611  1.00  0.00     0.040 A 
ATOM     73  F   UNL A   1      38.861  29.715  26.715  1.00  0.00    -0.206 F 
ATOM     74  C   UNL A   1      35.843  30.074  28.689  1.00  0.00     0.006 A 
ENDBRANCH  53  67
BRANCH  54  75
ATOM     75  C   UNL A   1      48.017  26.205  29.674  1.00  0.00     0.057 A 
ATOM     76  C   UNL A   1      48.851  26.265  28.551  1.00  0.00     0.134 A 
ATOM     77  C   UNL A   1      48.566  25.703  30.859  1.00  0.00     0.134 A 
ATOM     78  F   UNL A   1      48.376  26.718  27.382  1.00  0.00    -0.206 F 
ATOM     79  C   UNL A   1      50.173  25.822  28.597  1.00  0.00     0.040 A 
ATOM     80  C   UNL A   1      49.894  25.278  30.926  1.00  0.00     0.040 A 
ATOM     81  F   UNL A   1      47.821  25.626  31.972  1.00  0.00    -0.206 F 
ATOM     82  C   UNL A   1      50.699  25.328  29.789  1.00  0.00     0.006 A 
ENDBRANCH  54  75
BRANCH  66  83
ATOM     83  C   UNL A   1      44.714  32.065  31.439  1.00  0.00     0.057 A 
ATOM     84  C   UNL A   1      45.007  33.202  30.677  1.00  0.00     0.134 A 
ATOM     85  C   UNL A   1      44.831  32.166  32.831  1.00  0.00     0.134 A 
ATOM     86  F   UNL A   1      44.925  33.164  29.339  1.00  0.00    -0.206 F 
ATOM     87  C   UNL A   1      45.418  34.393  31.278  1.00  0.00     0.040 A 
ATOM     88  C   UNL A   1      45.219  33.357  33.444  1.00  0.00     0.040 A 
ATOM     89  F   UNL A   1      44.557  31.113  33.615  1.00  0.00    -0.206 F 
ATOM     90  C   UNL A   1      45.518  34.474  32.666  1.00  0.00     0.006 A 
ENDBRANCH  66  83
ENDBRANCH  40  41
ENDBRANCH  32  35
ENDBRANCH  30  31
ENDBRANCH  29  30
ENDBRANCH  28  29
ENDBRANCH   1  28
TORSDOF 17
ENDMDL
MODEL 2
REMARK VINA RESULT:      -9.5      4.547     10.315
REMARK SMILES [NH3+][C@@H](Cc1c[nH]c2ccccc12)C(=O)NCCC(=O)NCCCCNC(=O)c1ccc(-c2c3nc(c(-c4c(F)cccc4F)c4ccc([nH]4)c(-c4c(F)cccc4F)c4nc(c(-c5c(F)cccc5F)c5ccc2[nH]5)C=C4)C=C3)cc1
REMARK SMILES IDX 21 1 20 2 18 3 19 4 17 6 16 7 15 8 13 9 14 10 2 12 1 13 3 17
REMARK SMILES IDX 4 18 5 19 12 20 6 21 7 22 11 23 8 25 10 26 9 27 22 28 23 29
REMARK SMILES IDX 24 30 25 31 26 32 27 34 28 35 29 36 81 37 30 38 80 39 31 40
REMARK SMILES IDX 32 41 33 42 74 43 34 44 79 45 73 46 75 47 35 48 78 49 72 50
REMARK SMILES IDX 71 51 36 53 62 54 45 55 61 56 46 57 49 58 60 59 76 60 47 61
REMARK SMILES IDX 48 62 59 64 77 65 50 66 37 67 38 68 43 69 39 70 40 71 42 72
REMARK SMILES IDX 44 73 41 74 63 75 64 76 69 77 65 78 66 79 68 80 70 81 67 82
REMARK SMILES IDX 51 83 52 84 57 85 53 86 54 87 56 88 58 89 55 90
REMARK H PARENT 20 5 15 11 1 14 1 15 1 16 6 24 25 33 75 52 49 63
REMARK Flexibility Score: inf
ROOT
ATOM      1  C   UNL A   1      36.209  21.422  24.699  1.00  0.00     0.116 C 
ENDROOT
BRANCH   1   2
ATOM      2  N   UNL A   1      35.446  21.747  25.890  1.00  0.00    -0.356 N 
ATOM      3  C   UNL A   1      35.072  22.961  26.385  1.00  0.00     0.221 C 
ATOM      4  O   UNL A   1      34.492  22.989  27.472  1.00  0.00    -0.275 OA
ATOM      5  H   UNL A   1      35.153  20.972  26.422  1.00  0.00     0.163 HD
BRANCH   3   6
ATOM      6  C   UNL A   1      35.375  24.242  25.630  1.00  0.00     0.121 C 
BRANCH   6   7
ATOM      7  C   UNL A   1      34.150  24.772  24.891  1.00  0.00     0.126 C 
BRANCH   7   8
ATOM      8  N   UNL A   1      34.118  24.313  23.511  1.00  0.00    -0.350 N 
ATOM      9  C   UNL A   1      33.381  23.455  22.773  1.00  0.00     0.278 C 
ATOM     10  O   UNL A   1      33.711  23.368  21.580  1.00  0.00    -0.268 OA
ATOM     11  H   UNL A   1      34.821  24.742  22.972  1.00  0.00     0.163 HD
BRANCH   9  12
ATOM     12  C   UNL A   1      32.139  22.714  23.271  1.00  0.00     0.275 C 
BRANCH  12  13
ATOM     13  N   UNL A   1      30.872  23.412  22.964  1.00  0.00    -0.347 N 
ATOM     14  H   UNL A   1      30.287  23.435  23.799  1.00  0.00     0.345 HD
ATOM     15  H   UNL A   1      30.383  22.915  22.220  1.00  0.00     0.345 HD
ATOM     16  H   UNL A   1      31.073  24.365  22.663  1.00  0.00     0.345 HD
ENDBRANCH  12  13
BRANCH  12  17
ATOM     17  C   UNL A   1      32.201  21.226  22.870  1.00  0.00     0.113 C 
BRANCH  17  18
ATOM     18  C   UNL A   1      32.431  20.273  24.005  1.00  0.00    -0.016 A 
ATOM     19  C   UNL A   1      32.314  20.568  25.352  1.00  0.00     0.087 A 
ATOM     20  C   UNL A   1      32.826  18.902  23.917  1.00  0.00     0.003 A 
ATOM     21  N   UNL A   1      32.713  19.474  26.069  1.00  0.00    -0.361 N 
ATOM     22  C   UNL A   1      33.046  18.447  25.217  1.00  0.00     0.046 A 
ATOM     23  C   UNL A   1      33.046  18.012  22.846  1.00  0.00     0.010 A 
ATOM     24  H   UNL A   1      32.755  19.427  27.051  1.00  0.00     0.166 HD
ATOM     25  C   UNL A   1      33.520  17.162  25.500  1.00  0.00     0.026 A 
ATOM     26  C   UNL A   1      33.489  16.713  23.113  1.00  0.00     0.001 A 
ATOM     27  C   UNL A   1      33.735  16.301  24.420  1.00  0.00     0.002 A 
ENDBRANCH  17  18
ENDBRANCH  12  17
ENDBRANCH   9  12
ENDBRANCH   7   8
ENDBRANCH   6   7
ENDBRANCH   3   6
ENDBRANCH   1   2
BRANCH   1  28
ATOM     28  C   UNL A   1      37.714  21.470  24.989  1.00  0.00     0.023 C 
BRANCH  28  29
ATOM     29  C   UNL A   1      38.405  20.122  25.112  1.00  0.00     0.023 C 
BRANCH  29  30
ATOM     30  C   UNL A   1      39.538  20.083  26.120  1.00  0.00     0.116 C 
BRANCH  30  31
ATOM     31  N   UNL A   1      40.450  18.958  25.963  1.00  0.00    -0.352 N 
ATOM     32  C   UNL A   1      41.819  18.976  26.099  1.00  0.00     0.251 C 
ATOM     33  H   UNL A   1      40.042  18.090  25.737  1.00  0.00     0.163 HD
ATOM     34  O   UNL A   1      42.500  17.979  25.892  1.00  0.00    -0.269 OA
BRANCH  32  35
ATOM     35  C   UNL A   1      42.457  20.261  26.443  1.00  0.00     0.039 A 
ATOM     36  C   UNL A   1      42.992  21.042  25.419  1.00  0.00     0.014 A 
ATOM     37  C   UNL A   1      42.379  20.745  27.751  1.00  0.00     0.014 A 
ATOM     38  C   UNL A   1      43.376  22.354  25.694  1.00  0.00     0.010 A 
ATOM     39  C   UNL A   1      42.668  22.079  27.999  1.00  0.00     0.010 A 
ATOM     40  C   UNL A   1      43.172  22.895  26.974  1.00  0.00    -0.014 A 
BRANCH  40  41
ATOM     41  C   UNL A   1      43.492  24.310  27.276  1.00  0.00     0.031 A 
ATOM     42  C   UNL A   1      44.916  24.782  27.179  1.00  0.00     0.074 A 
ATOM     43  C   UNL A   1      42.527  25.142  27.714  1.00  0.00     0.049 A 
ATOM     44  N   UNL A   1      45.424  25.945  27.493  1.00  0.00    -0.248 NA
ATOM     45  C   UNL A   1      45.907  23.801  26.705  1.00  0.00     0.031 C 
ATOM     46  C   UNL A   1      41.119  24.784  27.911  1.00  0.00     0.029 A 
ATOM     47  N   UNL A   1      42.586  26.462  28.082  1.00  0.00    -0.354 N 
ATOM     48  C   UNL A   1      46.792  25.825  27.283  1.00  0.00     0.074 A 
ATOM     49  C   UNL A   1      47.042  24.462  26.870  1.00  0.00     0.031 C 
ATOM     50  C   UNL A   1      40.444  25.867  28.333  1.00  0.00     0.029 A 
ATOM     51  C   UNL A   1      41.374  26.983  28.469  1.00  0.00     0.049 A 
ATOM     52  H   UNL A   1      43.418  26.988  28.068  1.00  0.00     0.167 HD
ATOM     53  C   UNL A   1      47.751  26.772  27.395  1.00  0.00     0.037 A 
ATOM     54  C   UNL A   1      41.054  28.224  28.884  1.00  0.00     0.037 A 
ATOM     55  C   UNL A   1      47.490  28.141  27.748  1.00  0.00     0.049 A 
ATOM     56  C   UNL A   1      42.133  29.269  28.962  1.00  0.00     0.074 A 
ATOM     57  C   UNL A   1      48.378  29.199  27.809  1.00  0.00     0.029 A 
ATOM     58  N   UNL A   1      46.242  28.640  28.089  1.00  0.00    -0.354 N 
ATOM     59  N   UNL A   1      43.411  29.160  28.691  1.00  0.00    -0.248 NA
ATOM     60  C   UNL A   1      41.723  30.611  29.397  1.00  0.00     0.031 C 
ATOM     61  C   UNL A   1      47.672  30.336  28.215  1.00  0.00     0.029 A 
ATOM     62  C   UNL A   1      46.338  29.991  28.373  1.00  0.00     0.049 A 
ATOM     63  H   UNL A   1      45.413  28.112  28.125  1.00  0.00     0.167 HD
ATOM     64  C   UNL A   1      43.951  30.422  28.893  1.00  0.00     0.074 A 
ATOM     65  C   UNL A   1      42.860  31.285  29.299  1.00  0.00     0.031 C 
ATOM     66  C   UNL A   1      45.235  30.832  28.757  1.00  0.00     0.037 A 
BRANCH  53  67
ATOM     67  C   UNL A   1      49.165  26.361  27.113  1.00  0.00     0.057 A 
ATOM     68  C   UNL A   1      49.702  26.407  25.820  1.00  0.00     0.134 A 
ATOM     69  C   UNL A   1      50.006  25.937  28.149  1.00  0.00     0.134 A 
ATOM     70  F   UNL A   1      48.943  26.787  24.781  1.00  0.00    -0.206 F 
ATOM     71  C   UNL A   1      51.019  26.021  25.563  1.00  0.00     0.040 A 
ATOM     72  C   UNL A   1      51.332  25.575  27.908  1.00  0.00     0.040 A 
ATOM     73  F   UNL A   1      49.553  25.872  29.411  1.00  0.00    -0.206 F 
ATOM     74  C   UNL A   1      51.840  25.611  26.611  1.00  0.00     0.006 A 
ENDBRANCH  53  67
BRANCH  54  75
ATOM     75  C   UNL A   1      39.649  28.562  29.222  1.00  0.00     0.057 A 
ATOM     76  C   UNL A   1      38.790  29.107  28.260  1.00  0.00     0.134 A 
ATOM     77  C   UNL A   1      39.136  28.372  30.510  1.00  0.00     0.134 A 
ATOM     78  F   UNL A   1      39.230  29.329  27.013  1.00  0.00    -0.206 F 
ATOM     79  C   UNL A   1      37.480  29.473  28.571  1.00  0.00     0.040 A 
ATOM     80  C   UNL A   1      37.821  28.712  30.830  1.00  0.00     0.040 A 
ATOM     81  F   UNL A   1      39.906  27.847  31.475  1.00  0.00    -0.206 F 
ATOM     82  C   UNL A   1      36.991  29.273  29.860  1.00  0.00     0.006 A 
ENDBRANCH  54  75
BRANCH  66  83
ATOM     83  C   UNL A   1      45.522  32.281  29.010  1.00  0.00     0.057 A 
ATOM     84  C   UNL A   1      45.929  32.743  30.267  1.00  0.00     0.134 A 
ATOM     85  C   UNL A   1      45.434  33.214  27.969  1.00  0.00     0.134 A 
ATOM     86  F   UNL A   1      46.020  31.899  31.305  1.00  0.00    -0.206 F 
ATOM     87  C   UNL A   1      46.222  34.091  30.485  1.00  0.00     0.040 A 
ATOM     88  C   UNL A   1      45.747  34.559  28.170  1.00  0.00     0.040 A 
ATOM     89  F   UNL A   1      45.058  32.831  26.740  1.00  0.00    -0.206 F 
ATOM     90  C   UNL A   1      46.138  35.001  29.432  1.00  0.00     0.006 A 
ENDBRANCH  66  83
ENDBRANCH  40  41
ENDBRANCH  32  35
ENDBRANCH  30  31
ENDBRANCH  29  30
ENDBRANCH  28  29
ENDBRANCH   1  28
TORSDOF 17
ENDMDL
MODEL 3
REMARK VINA RESULT:      -9.3      6.525     12.540
REMARK SMILES [NH3+][C@@H](Cc1c[nH]c2ccccc12)C(=O)NCCC(=O)NCCCCNC(=O)c1ccc(-c2c3nc(c(-c4c(F)cccc4F)c4ccc([nH]4)c(-c4c(F)cccc4F)c4nc(c(-c5c(F)cccc5F)c5ccc2[nH]5)C=C4)C=C3)cc1
REMARK SMILES IDX 21 1 20 2 18 3 19 4 17 6 16 7 15 8 13 9 14 10 2 12 1 13 3 17
REMARK SMILES IDX 4 18 5 19 12 20 6 21 7 22 11 23 8 25 10 26 9 27 22 28 23 29
REMARK SMILES IDX 24 30 25 31 26 32 27 34 28 35 29 36 81 37 30 38 80 39 31 40
REMARK SMILES IDX 32 41 33 42 74 43 34 44 79 45 73 46 75 47 35 48 78 49 72 50
REMARK SMILES IDX 71 51 36 53 62 54 45 55 61 56 46 57 49 58 60 59 76 60 47 61
REMARK SMILES IDX 48 62 59 64 77 65 50 66 37 67 38 68 43 69 39 70 40 71 42 72
REMARK SMILES IDX 44 73 41 74 63 75 64 76 69 77 65 78 66 79 68 80 70 81 67 82
REMARK SMILES IDX 51 83 52 84 57 85 53 86 54 87 56 88 58 89 55 90
REMARK H PARENT 20 5 15 11 1 14 1 15 1 16 6 24 25 33 75 52 49 63
REMARK Flexibility Score: inf
ROOT
ATOM      1  C   UNL A   1      35.335  32.562  27.960  1.00  0.00     0.116 C 
ENDROOT
BRANCH   1   2
ATOM      2  N   UNL A   1      35.397  31.115  27.867  1.00  0.00    -0.356 N 
ATOM      3  C   UNL A   1      34.480  30.230  27.381  1.00  0.00     0.221 C 
ATOM      4  O   UNL A   1      34.725  29.028  27.486  1.00  0.00    -0.275 OA
ATOM      5  H   UNL A   1      36.227  30.711  28.207  1.00  0.00     0.163 HD
BRANCH   3   6
ATOM      6  C   UNL A   1      33.190  30.710  26.744  1.00  0.00     0.121 C 
BRANCH   6   7
ATOM      7  C   UNL A   1      32.655  29.716  25.717  1.00  0.00     0.126 C 
BRANCH   7   8
ATOM      8  N   UNL A   1      31.876  28.662  26.349  1.00  0.00    -0.350 N 
ATOM      9  C   UNL A   1      31.570  27.371  26.094  1.00  0.00     0.278 C 
ATOM     10  O   UNL A   1      30.845  26.824  26.939  1.00  0.00    -0.268 OA
ATOM     11  H   UNL A   1      31.462  28.973  27.186  1.00  0.00     0.163 HD
BRANCH   9  12
ATOM     12  C   UNL A   1      32.143  26.547  24.940  1.00  0.00     0.275 C 
BRANCH  12  13
ATOM     13  N   UNL A   1      32.728  25.259  25.368  1.00  0.00    -0.347 N 
ATOM     14  H   UNL A   1      32.330  24.504  24.810  1.00  0.00     0.345 HD
ATOM     15  H   UNL A   1      32.518  25.101  26.353  1.00  0.00     0.345 HD
ATOM     16  H   UNL A   1      33.739  25.283  25.234  1.00  0.00     0.345 HD
ENDBRANCH  12  13
BRANCH  12  17
ATOM     17  C   UNL A   1      31.133  26.473  23.776  1.00  0.00     0.113 C 
BRANCH  17  18
ATOM     18  C   UNL A   1      30.929  27.759  23.032  1.00  0.00    -0.016 A 
ATOM     19  C   UNL A   1      31.912  28.499  22.400  1.00  0.00     0.087 A 
ATOM     20  C   UNL A   1      29.700  28.467  22.850  1.00  0.00     0.003 A 
ATOM     21  N   UNL A   1      31.350  29.656  21.936  1.00  0.00    -0.361 N 
ATOM     22  C   UNL A   1      30.002  29.669  22.212  1.00  0.00     0.046 A 
ATOM     23  C   UNL A   1      28.358  28.208  23.197  1.00  0.00     0.010 A 
ATOM     24  H   UNL A   1      31.837  30.374  21.473  1.00  0.00     0.166 HD
ATOM     25  C   UNL A   1      29.040  30.648  21.944  1.00  0.00     0.026 A 
ATOM     26  C   UNL A   1      27.378  29.162  22.908  1.00  0.00     0.001 A 
ATOM     27  C   UNL A   1      27.718  30.369  22.303  1.00  0.00     0.002 A 
ENDBRANCH  17  18
ENDBRANCH  12  17
ENDBRANCH   9  12
ENDBRANCH   7   8
ENDBRANCH   6   7
ENDBRANCH   3   6
ENDBRANCH   1   2
BRANCH   1  28
ATOM     28  C   UNL A   1      34.549  32.993  29.204  1.00  0.00     0.023 C 
BRANCH  28  29
ATOM     29  C   UNL A   1      33.468  34.036  28.972  1.00  0.00     0.023 C 
BRANCH  29  30
ATOM     30  C   UNL A   1      33.764  35.397  29.574  1.00  0.00     0.116 C 
BRANCH  30  31
ATOM     31  N   UNL A   1      32.743  35.888  30.490  1.00  0.00    -0.352 N 
ATOM     32  C   UNL A   1      32.737  35.775  31.862  1.00  0.00     0.251 C 
ATOM     33  H   UNL A   1      31.975  36.353  30.084  1.00  0.00     0.163 HD
ATOM     34  O   UNL A   1      31.798  36.180  32.537  1.00  0.00    -0.269 OA
BRANCH  32  35
ATOM     35  C   UNL A   1      33.877  35.088  32.498  1.00  0.00     0.039 A 
ATOM     36  C   UNL A   1      33.724  33.763  32.903  1.00  0.00     0.014 A 
ATOM     37  C   UNL A   1      35.124  35.715  32.544  1.00  0.00     0.014 A 
ATOM     38  C   UNL A   1      34.850  33.032  33.280  1.00  0.00     0.010 A 
ATOM     39  C   UNL A   1      36.253  34.959  32.823  1.00  0.00     0.010 A 
ATOM     40  C   UNL A   1      36.127  33.611  33.196  1.00  0.00    -0.014 A 
BRANCH  40  41
ATOM     41  C   UNL A   1      37.350  32.836  33.509  1.00  0.00     0.031 A 
ATOM     42  C   UNL A   1      38.093  33.112  34.786  1.00  0.00     0.074 A 
ATOM     43  C   UNL A   1      37.835  31.951  32.616  1.00  0.00     0.049 A 
ATOM     44  N   UNL A   1      39.230  32.621  35.204  1.00  0.00    -0.248 NA
ATOM     45  C   UNL A   1      37.497  34.105  35.696  1.00  0.00     0.031 C 
ATOM     46  C   UNL A   1      37.239  31.642  31.313  1.00  0.00     0.029 A 
ATOM     47  N   UNL A   1      38.950  31.153  32.666  1.00  0.00    -0.354 N 
ATOM     48  C   UNL A   1      39.498  33.265  36.405  1.00  0.00     0.074 A 
ATOM     49  C   UNL A   1      38.436  34.221  36.622  1.00  0.00     0.031 C 
ATOM     50  C   UNL A   1      37.977  30.699  30.704  1.00  0.00     0.029 A 
ATOM     51  C   UNL A   1      39.114  30.362  31.554  1.00  0.00     0.049 A 
ATOM     52  H   UNL A   1      39.573  31.146  33.429  1.00  0.00     0.167 HD
ATOM     53  C   UNL A   1      40.521  33.058  37.265  1.00  0.00     0.037 A 
ATOM     54  C   UNL A   1      40.075  29.465  31.259  1.00  0.00     0.037 A 
ATOM     55  C   UNL A   1      41.542  32.064  37.074  1.00  0.00     0.049 A 
ATOM     56  C   UNL A   1      41.179  29.226  32.252  1.00  0.00     0.074 A 
ATOM     57  C   UNL A   1      42.576  31.717  37.925  1.00  0.00     0.029 A 
ATOM     58  N   UNL A   1      41.649  31.252  35.956  1.00  0.00    -0.354 N 
ATOM     59  N   UNL A   1      41.381  29.791  33.417  1.00  0.00    -0.248 NA
ATOM     60  C   UNL A   1      42.187  28.220  31.890  1.00  0.00     0.031 C 
ATOM     61  C   UNL A   1      43.326  30.711  37.308  1.00  0.00     0.029 A 
ATOM     62  C   UNL A   1      42.739  30.410  36.089  1.00  0.00     0.049 A 
ATOM     63  H   UNL A   1      41.040  31.272  35.182  1.00  0.00     0.167 HD
ATOM     64  C   UNL A   1      42.517  29.190  33.940  1.00  0.00     0.074 A 
ATOM     65  C   UNL A   1      42.956  28.208  32.969  1.00  0.00     0.031 C 
ATOM     66  C   UNL A   1      43.144  29.429  35.117  1.00  0.00     0.037 A 
BRANCH  53  67
ATOM     67  C   UNL A   1      40.570  33.909  38.498  1.00  0.00     0.057 A 
ATOM     68  C   UNL A   1      39.875  33.562  39.663  1.00  0.00     0.134 A 
ATOM     69  C   UNL A   1      41.341  35.079  38.528  1.00  0.00     0.134 A 
ATOM     70  F   UNL A   1      39.105  32.464  39.693  1.00  0.00    -0.206 F 
ATOM     71  C   UNL A   1      39.923  34.360  40.807  1.00  0.00     0.040 A 
ATOM     72  C   UNL A   1      41.418  35.870  39.675  1.00  0.00     0.040 A 
ATOM     73  F   UNL A   1      42.032  35.467  37.446  1.00  0.00    -0.206 F 
ATOM     74  C   UNL A   1      40.704  35.514  40.817  1.00  0.00     0.006 A 
ENDBRANCH  53  67
BRANCH  54  75
ATOM     75  C   UNL A   1      40.020  28.698  29.990  1.00  0.00     0.057 A 
ATOM     76  C   UNL A   1      40.671  29.164  28.842  1.00  0.00     0.134 A 
ATOM     77  C   UNL A   1      39.304  27.501  29.884  1.00  0.00     0.134 A 
ATOM     78  F   UNL A   1      41.358  30.315  28.876  1.00  0.00    -0.206 F 
ATOM     79  C   UNL A   1      40.594  28.480  27.628  1.00  0.00     0.040 A 
ATOM     80  C   UNL A   1      39.236  26.794  28.682  1.00  0.00     0.040 A 
ATOM     81  F   UNL A   1      38.664  26.998  30.950  1.00  0.00    -0.206 F 
ATOM     82  C   UNL A   1      39.876  27.289  27.547  1.00  0.00     0.006 A 
ENDBRANCH  54  75
BRANCH  66  83
ATOM     83  C   UNL A   1      44.343  28.589  35.437  1.00  0.00     0.057 A 
ATOM     84  C   UNL A   1      44.236  27.399  36.167  1.00  0.00     0.134 A 
ATOM     85  C   UNL A   1      45.611  28.953  34.967  1.00  0.00     0.134 A 
ATOM     86  F   UNL A   1      43.050  27.004  36.653  1.00  0.00    -0.206 F 
ATOM     87  C   UNL A   1      45.355  26.608  36.435  1.00  0.00     0.040 A 
ATOM     88  C   UNL A   1      46.733  28.158  35.209  1.00  0.00     0.040 A 
ATOM     89  F   UNL A   1      45.777  30.077  34.254  1.00  0.00    -0.206 F 
ATOM     90  C   UNL A   1      46.606  26.984  35.949  1.00  0.00     0.006 A 
ENDBRANCH  66  83
ENDBRANCH  40  41
ENDBRANCH  32  35
ENDBRANCH  30  31
ENDBRANCH  29  30
ENDBRANCH  28  29
ENDBRANCH   1  28
TORSDOF 17
ENDMDL
