MODEL 1
REMARK VINA RESULT:     -13.4      0.000      0.000
REMARK SMILES O=C(NCCCCNC(=O)[C@H]1[C@H]2CC[C@H](CC2)[C@@H]1C(=O)Nc1sc2c(c1C(=O)N1CCCCC1)CCCC2)c1ccc(-c2c3nc(c(-c4c(F)cccc4F)c4ccc([nH]4)c(-c4c(F)cccc4F)c4nc(c(-c5c(F)cccc5F)c5ccc2[nH]5)C=C4)C=C3)cc1
REMARK SMILES IDX 6 1 5 2 4 3 3 4 1 5 2 6 39 8 40 9 92 10 41 11 91 12 42 13
REMARK SMILES IDX 43 14 44 15 85 16 45 17 90 18 84 19 86 20 46 21 89 22 83 23
REMARK SMILES IDX 82 24 47 26 73 27 56 28 72 29 57 30 60 31 71 32 87 33 58 34
REMARK SMILES IDX 59 35 70 37 88 38 61 39 48 40 49 41 54 42 50 43 51 44 53 45
REMARK SMILES IDX 55 46 52 47 74 48 75 49 80 50 76 51 77 52 79 53 81 54 78 55
REMARK SMILES IDX 62 56 63 57 68 58 64 59 65 60 67 61 69 62 66 63 7 64 8 65
REMARK SMILES IDX 9 66 10 68 11 69 12 70 18 71 13 72 17 73 15 74 14 75 16 76
REMARK SMILES IDX 19 77 20 78 21 79 22 81 23 82 26 83 24 84 25 85 38 86 35 87
REMARK SMILES IDX 37 88 36 89 27 90 28 91 29 92 30 93 34 94 31 95 33 96 32 97
REMARK H PARENT 3 7 86 25 60 36 8 67 21 80
REMARK Flexibility Score: inf
ROOT
ATOM      1  C   UNL A   1      36.769  21.777  25.407  1.00  0.00     0.023 C 
ENDROOT
BRANCH   1   2
ATOM      2  C   UNL A   1      37.911  20.854  25.019  1.00  0.00     0.023 C 
BRANCH   2   3
ATOM      3  C   UNL A   1      39.162  20.949  25.884  1.00  0.00     0.116 C 
BRANCH   3   4
ATOM      4  N   UNL A   1      40.054  19.792  25.795  1.00  0.00    -0.352 N 
ATOM      5  O   UNL A   1      41.995  18.622  25.846  1.00  0.00    -0.269 OA
ATOM      6  C   UNL A   1      41.401  19.674  26.065  1.00  0.00     0.251 C 
ATOM      7  H   UNL A   1      39.620  18.962  25.493  1.00  0.00     0.163 HD
BRANCH   6   8
ATOM      8  C   UNL A   1      42.149  20.840  26.566  1.00  0.00     0.039 A 
ATOM      9  C   UNL A   1      42.234  21.072  27.934  1.00  0.00     0.014 A 
ATOM     10  C   UNL A   1      42.693  21.754  25.661  1.00  0.00     0.014 A 
ATOM     11  C   UNL A   1      42.576  22.336  28.380  1.00  0.00     0.010 A 
ATOM     12  C   UNL A   1      43.184  22.976  26.129  1.00  0.00     0.010 A 
ATOM     13  C   UNL A   1      43.050  23.311  27.484  1.00  0.00    -0.014 A 
BRANCH  13  14
ATOM     14  C   UNL A   1      43.367  24.665  28.008  1.00  0.00     0.031 A 
ATOM     15  C   UNL A   1      44.791  25.147  28.122  1.00  0.00     0.074 A 
ATOM     16  C   UNL A   1      42.350  25.502  28.293  1.00  0.00     0.049 A 
ATOM     17  N   UNL A   1      45.236  26.317  28.508  1.00  0.00    -0.248 NA
ATOM     18  C   UNL A   1      45.858  24.196  27.770  1.00  0.00     0.031 C 
ATOM     19  C   UNL A   1      40.928  25.152  28.222  1.00  0.00     0.029 A 
ATOM     20  N   UNL A   1      42.346  26.825  28.648  1.00  0.00    -0.354 N 
ATOM     21  C   UNL A   1      46.622  26.226  28.493  1.00  0.00     0.074 A 
ATOM     22  C   UNL A   1      46.951  24.883  28.068  1.00  0.00     0.031 C 
ATOM     23  C   UNL A   1      40.193  26.253  28.430  1.00  0.00     0.029 A 
ATOM     24  C   UNL A   1      41.085  27.364  28.733  1.00  0.00     0.049 A 
ATOM     25  H   UNL A   1      43.168  27.339  28.826  1.00  0.00     0.167 HD
ATOM     26  C   UNL A   1      47.537  27.177  28.802  1.00  0.00     0.037 A 
ATOM     27  C   UNL A   1      40.686  28.613  29.029  1.00  0.00     0.037 A 
ATOM     28  C   UNL A   1      47.208  28.530  29.171  1.00  0.00     0.049 A 
ATOM     29  C   UNL A   1      41.721  29.652  29.340  1.00  0.00     0.074 A 
ATOM     30  C   UNL A   1      48.064  29.577  29.470  1.00  0.00     0.029 A 
ATOM     31  N   UNL A   1      45.917  29.026  29.279  1.00  0.00    -0.354 N 
ATOM     32  N   UNL A   1      43.027  29.544  29.327  1.00  0.00    -0.248 NA
ATOM     33  C   UNL A   1      41.226  30.980  29.720  1.00  0.00     0.031 C 
ATOM     34  C   UNL A   1      47.290  30.697  29.790  1.00  0.00     0.029 A 
ATOM     35  C   UNL A   1      45.954  30.361  29.652  1.00  0.00     0.049 A 
ATOM     36  H   UNL A   1      45.097  28.508  29.117  1.00  0.00     0.167 HD
ATOM     37  C   UNL A   1      43.511  30.793  29.687  1.00  0.00     0.074 A 
ATOM     38  C   UNL A   1      42.358  31.647  29.889  1.00  0.00     0.031 C 
ATOM     39  C   UNL A   1      44.796  31.194  29.843  1.00  0.00     0.037 A 
BRANCH  26  40
ATOM     40  C   UNL A   1      48.987  26.785  28.778  1.00  0.00     0.057 A 
ATOM     41  C   UNL A   1      49.769  26.885  27.621  1.00  0.00     0.134 A 
ATOM     42  C   UNL A   1      49.619  26.344  29.949  1.00  0.00     0.134 A 
ATOM     43  F   UNL A   1      49.223  27.287  26.464  1.00  0.00    -0.206 F 
ATOM     44  C   UNL A   1      51.124  26.543  27.624  1.00  0.00     0.040 A 
ATOM     45  C   UNL A   1      50.977  26.021  29.970  1.00  0.00     0.040 A 
ATOM     46  F   UNL A   1      48.930  26.231  31.094  1.00  0.00    -0.206 F 
ATOM     47  C   UNL A   1      51.733  26.117  28.803  1.00  0.00     0.006 A 
ENDBRANCH  26  40
BRANCH  27  48
ATOM     48  C   UNL A   1      39.240  28.938  29.044  1.00  0.00     0.057 A 
ATOM     49  C   UNL A   1      38.588  29.383  27.888  1.00  0.00     0.134 A 
ATOM     50  C   UNL A   1      38.470  28.786  30.203  1.00  0.00     0.134 A 
ATOM     51  F   UNL A   1      39.276  29.560  26.751  1.00  0.00    -0.206 F 
ATOM     52  C   UNL A   1      37.223  29.672  27.887  1.00  0.00     0.040 A 
ATOM     53  C   UNL A   1      37.100  29.045  30.210  1.00  0.00     0.040 A 
ATOM     54  F   UNL A   1      39.037  28.352  31.339  1.00  0.00    -0.206 F 
ATOM     55  C   UNL A   1      36.474  29.496  29.050  1.00  0.00     0.006 A 
ENDBRANCH  27  48
BRANCH  39  56
ATOM     56  C   UNL A   1      45.011  32.627  30.225  1.00  0.00     0.057 A 
ATOM     57  C   UNL A   1      45.100  33.027  31.564  1.00  0.00     0.134 A 
ATOM     58  C   UNL A   1      45.138  33.613  29.239  1.00  0.00     0.134 A 
ATOM     59  F   UNL A   1      44.971  32.129  32.552  1.00  0.00    -0.206 F 
ATOM     60  C   UNL A   1      45.281  34.366  31.911  1.00  0.00     0.040 A 
ATOM     61  C   UNL A   1      45.341  34.952  29.575  1.00  0.00     0.040 A 
ATOM     62  F   UNL A   1      45.067  33.292  27.940  1.00  0.00    -0.206 F 
ATOM     63  C   UNL A   1      45.406  35.333  30.913  1.00  0.00     0.006 A 
ENDBRANCH  39  56
ENDBRANCH  13  14
ENDBRANCH   6   8
ENDBRANCH   3   4
ENDBRANCH   2   3
ENDBRANCH   1   2
BRANCH   1  64
ATOM     64  C   UNL A   1      36.849  23.192  24.863  1.00  0.00     0.116 C 
BRANCH  64  65
ATOM     65  N   UNL A   1      35.982  24.179  25.452  1.00  0.00    -0.356 N 
ATOM     66  C   UNL A   1      34.655  24.421  25.244  1.00  0.00     0.224 C 
ATOM     67  H   UNL A   1      36.414  24.774  26.108  1.00  0.00     0.163 HD
ATOM     68  O   UNL A   1      34.118  25.162  26.079  1.00  0.00    -0.275 OA
BRANCH  66  69
ATOM     69  C   UNL A   1      33.834  23.973  24.007  1.00  0.00     0.094 C 
ATOM     70  C   UNL A   1      33.343  22.514  24.235  1.00  0.00     0.002 C 
ATOM     71  C   UNL A   1      32.654  24.843  23.505  1.00  0.00     0.094 C 
ATOM     72  C   UNL A   1      32.233  22.487  25.302  1.00  0.00     0.005 C 
ATOM     73  C   UNL A   1      32.751  21.978  22.914  1.00  0.00     0.005 C 
ATOM     74  C   UNL A   1      31.347  23.986  23.475  1.00  0.00     0.002 C 
ATOM     75  C   UNL A   1      31.044  23.337  24.842  1.00  0.00     0.005 C 
ATOM     76  C   UNL A   1      31.537  22.818  22.490  1.00  0.00     0.005 C 
BRANCH  71  77
ATOM     77  C   UNL A   1      32.860  25.516  22.132  1.00  0.00     0.229 C 
ATOM     78  O   UNL A   1      33.018  24.847  21.107  1.00  0.00    -0.274 OA
ATOM     79  N   UNL A   1      32.716  26.882  22.007  1.00  0.00    -0.317 N 
ATOM     80  H   UNL A   1      32.632  27.212  21.082  1.00  0.00     0.170 HD
BRANCH  79  81
ATOM     81  C   UNL A   1      32.671  27.860  22.989  1.00  0.00     0.108 A 
ATOM     82  S   UNL A   1      34.109  28.341  23.748  1.00  0.00    -0.122 S 
ATOM     83  C   UNL A   1      31.588  28.655  23.367  1.00  0.00     0.078 A 
ATOM     84  C   UNL A   1      33.266  29.202  24.923  1.00  0.00     0.011 A 
ATOM     85  C   UNL A   1      31.947  29.415  24.565  1.00  0.00    -0.019 A 
ATOM     86  C   UNL A   1      33.936  29.714  26.159  1.00  0.00     0.047 C 
ATOM     87  C   UNL A   1      31.070  30.277  25.428  1.00  0.00     0.037 C 
ATOM     88  C   UNL A   1      32.887  30.097  27.205  1.00  0.00     0.006 C 
ATOM     89  C   UNL A   1      31.817  30.984  26.573  1.00  0.00     0.005 C 
BRANCH  83  90
ATOM     90  C   UNL A   1      30.290  28.514  22.681  1.00  0.00     0.257 C 
ATOM     91  O   UNL A   1      29.902  27.428  22.248  1.00  0.00    -0.269 OA
ATOM     92  N   UNL A   1      29.458  29.628  22.658  1.00  0.00    -0.339 N 
ATOM     93  C   UNL A   1      28.086  29.407  23.083  1.00  0.00     0.120 C 
ATOM     94  C   UNL A   1      29.594  30.576  21.559  1.00  0.00     0.120 C 
ATOM     95  C   UNL A   1      27.459  30.716  23.543  1.00  0.00     0.022 C 
ATOM     96  C   UNL A   1      28.967  31.926  21.913  1.00  0.00     0.022 C 
ATOM     97  C   UNL A   1      27.542  31.777  22.446  1.00  0.00     0.004 C 
ENDBRANCH  83  90
ENDBRANCH  79  81
ENDBRANCH  71  77
ENDBRANCH  66  69
ENDBRANCH  64  65
ENDBRANCH   1  64
TORSDOF 14
ENDMDL
MODEL 2
REMARK VINA RESULT:     -13.2      1.171      5.933
REMARK SMILES O=C(NCCCCNC(=O)[C@H]1[C@H]2CC[C@H](CC2)[C@@H]1C(=O)Nc1sc2c(c1C(=O)N1CCCCC1)CCCC2)c1ccc(-c2c3nc(c(-c4c(F)cccc4F)c4ccc([nH]4)c(-c4c(F)cccc4F)c4nc(c(-c5c(F)cccc5F)c5ccc2[nH]5)C=C4)C=C3)cc1
REMARK SMILES IDX 6 1 5 2 4 3 3 4 1 5 2 6 39 8 40 9 92 10 41 11 91 12 42 13
REMARK SMILES IDX 43 14 44 15 85 16 45 17 90 18 84 19 86 20 46 21 89 22 83 23
REMARK SMILES IDX 82 24 47 26 73 27 56 28 72 29 57 30 60 31 71 32 87 33 58 34
REMARK SMILES IDX 59 35 70 37 88 38 61 39 48 40 49 41 54 42 50 43 51 44 53 45
REMARK SMILES IDX 55 46 52 47 74 48 75 49 80 50 76 51 77 52 79 53 81 54 78 55
REMARK SMILES IDX 62 56 63 57 68 58 64 59 65 60 67 61 69 62 66 63 7 64 8 65
REMARK SMILES IDX 9 66 10 68 11 69 12 70 18 71 13 72 17 73 15 74 14 75 16 76
REMARK SMILES IDX 19 77 20 78 21 79 22 81 23 82 26 83 24 84 25 85 38 86 35 87
REMARK SMILES IDX 37 88 36 89 27 90 28 91 29 92 30 93 34 94 31 95 33 96 32 97
REMARK H PARENT 3 7 86 25 60 36 8 67 21 80
REMARK Flexibility Score: inf
ROOT
ATOM      1  C   UNL A   1      36.997  21.088  25.304  1.00  0.00     0.023 C 
ENDROOT
BRANCH   1   2
ATOM      2  C   UNL A   1      38.174  20.191  24.967  1.00  0.00     0.023 C 
BRANCH   2   3
ATOM      3  C   UNL A   1      39.412  20.368  25.839  1.00  0.00     0.116 C 
BRANCH   3   4
ATOM      4  N   UNL A   1      40.288  19.198  25.900  1.00  0.00    -0.352 N 
ATOM      5  O   UNL A   1      42.217  18.017  26.061  1.00  0.00    -0.269 OA
ATOM      6  C   UNL A   1      41.643  19.101  26.132  1.00  0.00     0.251 C 
ATOM      7  H   UNL A   1      39.833  18.337  25.751  1.00  0.00     0.163 HD
BRANCH   6   8
ATOM      8  C   UNL A   1      42.423  20.319  26.412  1.00  0.00     0.039 A 
ATOM      9  C   UNL A   1      42.368  20.901  27.673  1.00  0.00     0.014 A 
ATOM     10  C   UNL A   1      43.143  20.931  25.383  1.00  0.00     0.014 A 
ATOM     11  C   UNL A   1      42.762  22.220  27.820  1.00  0.00     0.010 A 
ATOM     12  C   UNL A   1      43.678  22.207  25.583  1.00  0.00     0.010 A 
ATOM     13  C   UNL A   1      43.416  22.896  26.776  1.00  0.00    -0.014 A 
BRANCH  13  14
ATOM     14  C   UNL A   1      43.782  24.324  26.972  1.00  0.00     0.031 A 
ATOM     15  C   UNL A   1      42.784  25.321  27.503  1.00  0.00     0.074 A 
ATOM     16  C   UNL A   1      45.058  24.699  26.756  1.00  0.00     0.049 A 
ATOM     17  N   UNL A   1      42.957  26.589  27.782  1.00  0.00    -0.248 NA
ATOM     18  C   UNL A   1      41.413  24.845  27.745  1.00  0.00     0.031 C 
ATOM     19  C   UNL A   1      46.116  23.824  26.242  1.00  0.00     0.029 A 
ATOM     20  N   UNL A   1      45.696  25.888  26.987  1.00  0.00    -0.354 N 
ATOM     21  C   UNL A   1      41.715  27.069  28.180  1.00  0.00     0.074 A 
ATOM     22  C   UNL A   1      40.791  25.960  28.100  1.00  0.00     0.031 C 
ATOM     23  C   UNL A   1      47.286  24.476  26.287  1.00  0.00     0.029 A 
ATOM     24  C   UNL A   1      47.049  25.837  26.749  1.00  0.00     0.049 A 
ATOM     25  H   UNL A   1      45.232  26.701  27.293  1.00  0.00     0.167 HD
ATOM     26  C   UNL A   1      41.378  28.319  28.579  1.00  0.00     0.037 A 
ATOM     27  C   UNL A   1      47.997  26.782  26.880  1.00  0.00     0.037 A 
ATOM     28  C   UNL A   1      42.312  29.408  28.710  1.00  0.00     0.049 A 
ATOM     29  C   UNL A   1      47.600  28.148  27.350  1.00  0.00     0.074 A 
ATOM     30  C   UNL A   1      42.075  30.703  29.140  1.00  0.00     0.029 A 
ATOM     31  N   UNL A   1      43.667  29.325  28.426  1.00  0.00    -0.354 N 
ATOM     32  N   UNL A   1      46.418  28.584  27.715  1.00  0.00    -0.248 NA
ATOM     33  C   UNL A   1      48.664  29.157  27.411  1.00  0.00     0.031 C 
ATOM     34  C   UNL A   1      43.280  31.412  29.083  1.00  0.00     0.029 A 
ATOM     35  C   UNL A   1      44.275  30.548  28.658  1.00  0.00     0.049 A 
ATOM     36  H   UNL A   1      44.128  28.517  28.106  1.00  0.00     0.167 HD
ATOM     37  C   UNL A   1      46.598  29.915  28.060  1.00  0.00     0.074 A 
ATOM     38  C   UNL A   1      48.007  30.207  27.882  1.00  0.00     0.031 C 
ATOM     39  C   UNL A   1      45.678  30.817  28.480  1.00  0.00     0.037 A 
BRANCH  26  40
ATOM     40  C   UNL A   1      39.933  28.590  28.882  1.00  0.00     0.057 A 
ATOM     41  C   UNL A   1      39.387  28.395  30.156  1.00  0.00     0.134 A 
ATOM     42  C   UNL A   1      39.085  29.099  27.888  1.00  0.00     0.134 A 
ATOM     43  F   UNL A   1      40.139  27.897  31.149  1.00  0.00    -0.206 F 
ATOM     44  C   UNL A   1      38.045  28.679  30.428  1.00  0.00     0.040 A 
ATOM     45  C   UNL A   1      37.749  29.408  28.152  1.00  0.00     0.040 A 
ATOM     46  F   UNL A   1      39.545  29.315  26.646  1.00  0.00    -0.206 F 
ATOM     47  C   UNL A   1      37.225  29.194  29.425  1.00  0.00     0.006 A 
ENDBRANCH  26  40
BRANCH  27  48
ATOM     48  C   UNL A   1      49.407  26.457  26.559  1.00  0.00     0.057 A 
ATOM     49  C   UNL A   1      49.942  26.735  25.297  1.00  0.00     0.134 A 
ATOM     50  C   UNL A   1      50.259  25.888  27.512  1.00  0.00     0.134 A 
ATOM     51  F   UNL A   1      49.170  27.267  24.338  1.00  0.00    -0.206 F 
ATOM     52  C   UNL A   1      51.273  26.450  24.991  1.00  0.00     0.040 A 
ATOM     53  C   UNL A   1      51.598  25.623  27.230  1.00  0.00     0.040 A 
ATOM     54  F   UNL A   1      49.806  25.609  28.745  1.00  0.00    -0.206 F 
ATOM     55  C   UNL A   1      52.107  25.899  25.963  1.00  0.00     0.006 A 
ENDBRANCH  27  48
BRANCH  39  56
ATOM     56  C   UNL A   1      46.181  32.192  28.799  1.00  0.00     0.057 A 
ATOM     57  C   UNL A   1      46.299  33.180  27.814  1.00  0.00     0.134 A 
ATOM     58  C   UNL A   1      46.542  32.530  30.109  1.00  0.00     0.134 A 
ATOM     59  F   UNL A   1      45.982  32.910  26.539  1.00  0.00    -0.206 F 
ATOM     60  C   UNL A   1      46.786  34.452  28.116  1.00  0.00     0.040 A 
ATOM     61  C   UNL A   1      47.010  33.805  30.426  1.00  0.00     0.040 A 
ATOM     62  F   UNL A   1      46.447  31.628  31.097  1.00  0.00    -0.206 F 
ATOM     63  C   UNL A   1      47.140  34.768  29.427  1.00  0.00     0.006 A 
ENDBRANCH  39  56
ENDBRANCH  13  14
ENDBRANCH   6   8
ENDBRANCH   3   4
ENDBRANCH   2   3
ENDBRANCH   1   2
BRANCH   1  64
ATOM     64  C   UNL A   1      36.679  22.172  24.289  1.00  0.00     0.116 C 
BRANCH  64  65
ATOM     65  N   UNL A   1      36.327  23.473  24.797  1.00  0.00    -0.356 N 
ATOM     66  C   UNL A   1      35.145  24.151  24.732  1.00  0.00     0.224 C 
ATOM     67  H   UNL A   1      37.053  23.947  25.264  1.00  0.00     0.163 HD
ATOM     68  O   UNL A   1      35.062  25.136  25.480  1.00  0.00    -0.275 OA
BRANCH  66  69
ATOM     69  C   UNL A   1      33.997  23.880  23.727  1.00  0.00     0.094 C 
ATOM     70  C   UNL A   1      33.359  22.499  24.058  1.00  0.00     0.002 C 
ATOM     71  C   UNL A   1      32.876  24.932  23.528  1.00  0.00     0.094 C 
ATOM     72  C   UNL A   1      32.542  22.589  25.359  1.00  0.00     0.005 C 
ATOM     73  C   UNL A   1      32.397  22.111  22.915  1.00  0.00     0.005 C 
ATOM     74  C   UNL A   1      31.485  24.276  23.809  1.00  0.00     0.002 C 
ATOM     75  C   UNL A   1      31.421  23.621  25.204  1.00  0.00     0.005 C 
ATOM     76  C   UNL A   1      31.259  23.135  22.800  1.00  0.00     0.005 C 
BRANCH  71  77
ATOM     77  C   UNL A   1      32.850  25.625  22.149  1.00  0.00     0.229 C 
ATOM     78  O   UNL A   1      32.927  24.975  21.104  1.00  0.00    -0.274 OA
ATOM     79  N   UNL A   1      32.584  26.975  22.064  1.00  0.00    -0.317 N 
ATOM     80  H   UNL A   1      32.357  27.302  21.162  1.00  0.00     0.170 HD
BRANCH  79  81
ATOM     81  C   UNL A   1      32.589  27.943  23.057  1.00  0.00     0.108 A 
ATOM     82  S   UNL A   1      34.068  28.449  23.716  1.00  0.00    -0.122 S 
ATOM     83  C   UNL A   1      31.520  28.710  23.522  1.00  0.00     0.078 A 
ATOM     84  C   UNL A   1      33.294  29.279  24.958  1.00  0.00     0.011 A 
ATOM     85  C   UNL A   1      31.949  29.467  24.698  1.00  0.00    -0.019 A 
ATOM     86  C   UNL A   1      34.041  29.794  26.149  1.00  0.00     0.047 C 
ATOM     87  C   UNL A   1      31.119  30.300  25.632  1.00  0.00     0.037 C 
ATOM     88  C   UNL A   1      33.062  30.143  27.272  1.00  0.00     0.006 C 
ATOM     89  C   UNL A   1      31.930  31.013  26.728  1.00  0.00     0.005 C 
BRANCH  83  90
ATOM     90  C   UNL A   1      30.179  28.547  22.929  1.00  0.00     0.257 C 
ATOM     91  O   UNL A   1      29.707  27.434  22.695  1.00  0.00    -0.269 OA
ATOM     92  N   UNL A   1      29.411  29.694  22.767  1.00  0.00    -0.339 N 
ATOM     93  C   UNL A   1      28.055  29.633  23.287  1.00  0.00     0.120 C 
ATOM     94  C   UNL A   1      29.538  30.448  21.525  1.00  0.00     0.120 C 
ATOM     95  C   UNL A   1      27.531  31.035  23.560  1.00  0.00     0.022 C 
ATOM     96  C   UNL A   1      29.009  31.874  21.687  1.00  0.00     0.022 C 
ATOM     97  C   UNL A   1      27.610  31.903  22.304  1.00  0.00     0.004 C 
ENDBRANCH  83  90
ENDBRANCH  79  81
ENDBRANCH  71  77
ENDBRANCH  66  69
ENDBRANCH  64  65
ENDBRANCH   1  64
TORSDOF 14
ENDMDL
MODEL 3
REMARK VINA RESULT:     -13.1      2.768      8.655
REMARK SMILES O=C(NCCCCNC(=O)[C@H]1[C@H]2CC[C@H](CC2)[C@@H]1C(=O)Nc1sc2c(c1C(=O)N1CCCCC1)CCCC2)c1ccc(-c2c3nc(c(-c4c(F)cccc4F)c4ccc([nH]4)c(-c4c(F)cccc4F)c4nc(c(-c5c(F)cccc5F)c5ccc2[nH]5)C=C4)C=C3)cc1
REMARK SMILES IDX 6 1 5 2 4 3 3 4 1 5 2 6 39 8 40 9 92 10 41 11 91 12 42 13
REMARK SMILES IDX 43 14 44 15 85 16 45 17 90 18 84 19 86 20 46 21 89 22 83 23
REMARK SMILES IDX 82 24 47 26 73 27 56 28 72 29 57 30 60 31 71 32 87 33 58 34
REMARK SMILES IDX 59 35 70 37 88 38 61 39 48 40 49 41 54 42 50 43 51 44 53 45
REMARK SMILES IDX 55 46 52 47 74 48 75 49 80 50 76 51 77 52 79 53 81 54 78 55
REMARK SMILES IDX 62 56 63 57 68 58 64 59 65 60 67 61 69 62 66 63 7 64 8 65
REMARK SMILES IDX 9 66 10 68 11 69 12 70 18 71 13 72 17 73 15 74 14 75 16 76
REMARK SMILES IDX 19 77 20 78 21 79 22 81 23 82 26 83 24 84 25 85 38 86 35 87
REMARK SMILES IDX 37 88 36 89 27 90 28 91 29 92 30 93 34 94 31 95 33 96 32 97
REMARK H PARENT 3 7 86 25 60 36 8 67 21 80
REMARK Flexibility Score: inf
ROOT
ATOM      1  C   UNL A   1      33.029  30.414  26.872  1.00  0.00     0.023 C 
ENDROOT
BRANCH   1   2
ATOM      2  C   UNL A   1      34.305  30.218  27.672  1.00  0.00     0.023 C 
BRANCH   2   3
ATOM      3  C   UNL A   1      34.979  31.494  28.163  1.00  0.00     0.116 C 
BRANCH   3   4
ATOM      4  N   UNL A   1      35.062  31.619  29.618  1.00  0.00    -0.352 N 
ATOM      5  O   UNL A   1      35.815  31.248  31.725  1.00  0.00    -0.269 OA
ATOM      6  C   UNL A   1      35.966  31.093  30.516  1.00  0.00     0.251 C 
ATOM      7  H   UNL A   1      34.353  32.170  30.023  1.00  0.00     0.163 HD
BRANCH   6   8
ATOM      8  C   UNL A   1      37.096  30.286  30.023  1.00  0.00     0.039 A 
ATOM      9  C   UNL A   1      37.655  29.308  30.837  1.00  0.00     0.014 A 
ATOM     10  C   UNL A   1      37.655  30.569  28.774  1.00  0.00     0.014 A 
ATOM     11  C   UNL A   1      38.925  28.841  30.548  1.00  0.00     0.010 A 
ATOM     12  C   UNL A   1      38.868  29.975  28.414  1.00  0.00     0.010 A 
ATOM     13  C   UNL A   1      39.555  29.173  29.336  1.00  0.00    -0.014 A 
BRANCH  13  14
ATOM     14  C   UNL A   1      40.936  28.678  29.092  1.00  0.00     0.031 A 
ATOM     15  C   UNL A   1      41.188  27.276  28.596  1.00  0.00     0.074 A 
ATOM     16  C   UNL A   1      41.964  29.537  29.230  1.00  0.00     0.049 A 
ATOM     17  N   UNL A   1      42.325  26.706  28.284  1.00  0.00    -0.248 NA
ATOM     18  C   UNL A   1      40.021  26.393  28.440  1.00  0.00     0.031 C 
ATOM     19  C   UNL A   1      41.847  30.920  29.702  1.00  0.00     0.029 A 
ATOM     20  N   UNL A   1      43.296  29.399  28.941  1.00  0.00    -0.354 N 
ATOM     21  C   UNL A   1      42.018  25.394  27.945  1.00  0.00     0.074 A 
ATOM     22  C   UNL A   1      40.587  25.245  28.097  1.00  0.00     0.031 C 
ATOM     23  C   UNL A   1      43.034  31.529  29.580  1.00  0.00     0.029 A 
ATOM     24  C   UNL A   1      44.013  30.560  29.105  1.00  0.00     0.049 A 
ATOM     25  H   UNL A   1      43.700  28.551  28.644  1.00  0.00     0.167 HD
ATOM     26  C   UNL A   1      42.852  24.406  27.540  1.00  0.00     0.037 A 
ATOM     27  C   UNL A   1      45.317  30.818  28.903  1.00  0.00     0.037 A 
ATOM     28  C   UNL A   1      44.268  24.573  27.336  1.00  0.00     0.049 A 
ATOM     29  C   UNL A   1      46.212  29.713  28.430  1.00  0.00     0.074 A 
ATOM     30  C   UNL A   1      45.193  23.642  26.895  1.00  0.00     0.029 A 
ATOM     31  N   UNL A   1      44.962  25.755  27.547  1.00  0.00    -0.354 N 
ATOM     32  N   UNL A   1      45.902  28.477  28.121  1.00  0.00    -0.248 NA
ATOM     33  C   UNL A   1      47.636  30.035  28.290  1.00  0.00     0.031 C 
ATOM     34  C   UNL A   1      46.452  24.252  26.871  1.00  0.00     0.029 A 
ATOM     35  C   UNL A   1      46.305  25.573  27.258  1.00  0.00     0.049 A 
ATOM     36  H   UNL A   1      44.561  26.598  27.858  1.00  0.00     0.167 HD
ATOM     37  C   UNL A   1      47.093  27.876  27.740  1.00  0.00     0.074 A 
ATOM     38  C   UNL A   1      48.124  28.890  27.835  1.00  0.00     0.031 C 
ATOM     39  C   UNL A   1      47.314  26.596  27.354  1.00  0.00     0.037 A 
BRANCH  26  40
ATOM     40  C   UNL A   1      42.263  23.044  27.312  1.00  0.00     0.057 A 
ATOM     41  C   UNL A   1      41.910  22.195  28.368  1.00  0.00     0.134 A 
ATOM     42  C   UNL A   1      42.003  22.595  26.009  1.00  0.00     0.134 A 
ATOM     43  F   UNL A   1      42.144  22.558  29.638  1.00  0.00    -0.206 F 
ATOM     44  C   UNL A   1      41.336  20.942  28.138  1.00  0.00     0.040 A 
ATOM     45  C   UNL A   1      41.410  21.354  25.767  1.00  0.00     0.040 A 
ATOM     46  F   UNL A   1      42.311  23.360  24.951  1.00  0.00    -0.206 F 
ATOM     47  C   UNL A   1      41.079  20.522  26.835  1.00  0.00     0.006 A 
ENDBRANCH  26  40
BRANCH  27  48
ATOM     48  C   UNL A   1      45.843  32.182  29.153  1.00  0.00     0.057 A 
ATOM     49  C   UNL A   1      46.302  32.557  30.420  1.00  0.00     0.134 A 
ATOM     50  C   UNL A   1      45.924  33.131  28.128  1.00  0.00     0.134 A 
ATOM     51  F   UNL A   1      46.237  31.695  31.445  1.00  0.00    -0.206 F 
ATOM     52  C   UNL A   1      46.816  33.832  30.660  1.00  0.00     0.040 A 
ATOM     53  C   UNL A   1      46.460  34.399  28.347  1.00  0.00     0.040 A 
ATOM     54  F   UNL A   1      45.509  32.826  26.889  1.00  0.00    -0.206 F 
ATOM     55  C   UNL A   1      46.903  34.754  29.619  1.00  0.00     0.006 A 
ENDBRANCH  27  48
BRANCH  39  56
ATOM     56  C   UNL A   1      48.720  26.239  26.980  1.00  0.00     0.057 A 
ATOM     57  C   UNL A   1      49.220  26.469  25.692  1.00  0.00     0.134 A 
ATOM     58  C   UNL A   1      49.583  25.667  27.922  1.00  0.00     0.134 A 
ATOM     59  F   UNL A   1      48.435  27.001  24.742  1.00  0.00    -0.206 F 
ATOM     60  C   UNL A   1      50.524  26.116  25.346  1.00  0.00     0.040 A 
ATOM     61  C   UNL A   1      50.896  25.331  27.593  1.00  0.00     0.040 A 
ATOM     62  F   UNL A   1      49.164  25.427  29.173  1.00  0.00    -0.206 F 
ATOM     63  C   UNL A   1      51.368  25.548  26.300  1.00  0.00     0.006 A 
ENDBRANCH  39  56
ENDBRANCH  13  14
ENDBRANCH   6   8
ENDBRANCH   3   4
ENDBRANCH   2   3
ENDBRANCH   1   2
BRANCH   1  64
ATOM     64  C   UNL A   1      32.567  29.216  26.061  1.00  0.00     0.116 C 
BRANCH  64  65
ATOM     65  N   UNL A   1      33.545  28.204  25.756  1.00  0.00    -0.356 N 
ATOM     66  C   UNL A   1      33.399  26.997  25.137  1.00  0.00     0.224 C 
ATOM     67  H   UNL A   1      34.465  28.417  26.039  1.00  0.00     0.163 HD
ATOM     68  O   UNL A   1      34.455  26.455  24.783  1.00  0.00    -0.275 OA
BRANCH  66  69
ATOM     69  C   UNL A   1      32.070  26.213  24.981  1.00  0.00     0.094 C 
ATOM     70  C   UNL A   1      31.298  26.778  23.753  1.00  0.00     0.002 C 
ATOM     71  C   UNL A   1      32.087  24.665  24.912  1.00  0.00     0.094 C 
ATOM     72  C   UNL A   1      31.997  26.359  22.447  1.00  0.00     0.005 C 
ATOM     73  C   UNL A   1      29.874  26.183  23.746  1.00  0.00     0.005 C 
ATOM     74  C   UNL A   1      31.399  24.191  23.591  1.00  0.00     0.002 C 
ATOM     75  C   UNL A   1      32.035  24.831  22.340  1.00  0.00     0.005 C 
ATOM     76  C   UNL A   1      29.931  24.656  23.599  1.00  0.00     0.005 C 
BRANCH  71  77
ATOM     77  C   UNL A   1      31.451  23.937  26.115  1.00  0.00     0.229 C 
ATOM     78  O   UNL A   1      30.356  24.283  26.567  1.00  0.00    -0.274 OA
ATOM     79  N   UNL A   1      32.029  22.786  26.607  1.00  0.00    -0.317 N 
ATOM     80  H   UNL A   1      31.459  22.255  27.210  1.00  0.00     0.170 HD
BRANCH  79  81
ATOM     81  C   UNL A   1      33.293  22.264  26.380  1.00  0.00     0.108 A 
ATOM     82  S   UNL A   1      34.635  22.985  27.126  1.00  0.00    -0.122 S 
ATOM     83  C   UNL A   1      33.636  21.087  25.713  1.00  0.00     0.078 A 
ATOM     84  C   UNL A   1      35.708  22.098  26.179  1.00  0.00     0.011 A 
ATOM     85  C   UNL A   1      35.089  21.031  25.554  1.00  0.00    -0.019 A 
ATOM     86  C   UNL A   1      37.166  22.431  26.116  1.00  0.00     0.047 C 
ATOM     87  C   UNL A   1      35.910  20.049  24.769  1.00  0.00     0.037 C 
ATOM     88  C   UNL A   1      37.810  21.740  24.912  1.00  0.00     0.006 C 
ATOM     89  C   UNL A   1      37.429  20.262  24.891  1.00  0.00     0.005 C 
BRANCH  83  90
ATOM     90  C   UNL A   1      32.582  20.218  25.157  1.00  0.00     0.257 C 
ATOM     91  O   UNL A   1      31.457  20.649  24.900  1.00  0.00    -0.269 OA
ATOM     92  N   UNL A   1      32.944  18.922  24.808  1.00  0.00    -0.339 N 
ATOM     93  C   UNL A   1      32.561  18.490  23.474  1.00  0.00     0.120 C 
ATOM     94  C   UNL A   1      32.851  17.876  25.821  1.00  0.00     0.120 C 
ATOM     95  C   UNL A   1      33.451  17.344  23.016  1.00  0.00     0.022 C 
ATOM     96  C   UNL A   1      33.695  16.659  25.438  1.00  0.00     0.022 C 
ATOM     97  C   UNL A   1      33.409  16.186  24.012  1.00  0.00     0.004 C 
ENDBRANCH  83  90
ENDBRANCH  79  81
ENDBRANCH  71  77
ENDBRANCH  66  69
ENDBRANCH  64  65
ENDBRANCH   1  64
TORSDOF 14
ENDMDL
