MODEL 1
REMARK VINA RESULT:     -11.0      0.000      0.000
REMARK SMILES CC[NH2+][C@]1(C(=O)NCCCCNC(=O)c2ccc(-c3c4nc(c(-c5c(F)cccc5F)c5ccc([nH]5)c(-c5c(F)cccc5F)c5nc(c(-c6c(F)cccc6F)c6ccc3[nH]6)C=C5)C=C4)cc2)CC[C@H](SC2COC2)C1
REMARK SMILES IDX 9 1 8 2 7 3 5 4 6 5 4 7 69 8 77 9 70 10 71 11 3 12 2 15 1 16
REMARK SMILES IDX 72 17 73 18 74 19 76 20 75 21 10 22 11 23 12 24 13 25 14 27
REMARK SMILES IDX 15 28 16 29 68 30 17 31 67 32 18 33 19 34 20 35 61 36 21 37
REMARK SMILES IDX 66 38 60 39 62 40 22 41 65 42 59 43 58 44 23 46 49 47 32 48
REMARK SMILES IDX 48 49 33 50 36 51 47 52 63 53 34 54 35 55 46 57 64 58 37 59
REMARK SMILES IDX 24 60 25 61 30 62 26 63 27 64 29 65 31 66 28 67 50 68 51 69
REMARK SMILES IDX 56 70 52 71 53 72 55 73 57 74 54 75 38 76 39 77 44 78 40 79
REMARK SMILES IDX 41 80 43 81 45 82 42 83
REMARK H PARENT 7 6 3 13 3 14 12 26 62 45 36 56
REMARK Flexibility Score: inf
ROOT
ATOM      1  C   UNL A   1      37.491  22.489  24.556  1.00  0.00     0.023 C 
ENDROOT
BRANCH   1   2
ATOM      2  C   UNL A   1      36.099  22.770  23.992  1.00  0.00     0.116 C 
BRANCH   2   3
ATOM      3  N   UNL A   1      35.204  23.466  24.903  1.00  0.00    -0.351 N 
ATOM      4  C   UNL A   1      34.094  23.093  25.595  1.00  0.00     0.281 C 
ATOM      5  O   UNL A   1      33.725  23.884  26.476  1.00  0.00    -0.268 OA
ATOM      6  H   UNL A   1      35.456  24.407  25.051  1.00  0.00     0.163 HD
BRANCH   4   7
ATOM      7  C   UNL A   1      33.209  21.853  25.257  1.00  0.00     0.176 C 
ATOM      8  C   UNL A   1      32.830  21.587  23.804  1.00  0.00     0.080 C 
ATOM      9  C   UNL A   1      34.030  20.565  25.565  1.00  0.00     0.093 C 
ATOM     10  C   UNL A   1      32.458  20.119  23.755  1.00  0.00     0.022 C 
ATOM     11  C   UNL A   1      33.466  19.436  24.667  1.00  0.00     0.054 C 
BRANCH   7  12
ATOM     12  N   UNL A   1      32.039  21.819  26.183  1.00  0.00    -0.334 N 
ATOM     13  H   UNL A   1      31.733  20.850  26.267  1.00  0.00     0.347 HD
ATOM     14  H   UNL A   1      32.363  22.225  27.061  1.00  0.00     0.347 HD
BRANCH  12  15
ATOM     15  C   UNL A   1      30.889  22.618  25.771  1.00  0.00     0.257 C 
ATOM     16  C   UNL A   1      29.952  22.819  26.953  1.00  0.00     0.071 C 
ENDBRANCH  12  15
ENDBRANCH   7  12
BRANCH  11  17
ATOM     17  S   UNL A   1      32.731  18.083  25.635  1.00  0.00    -0.150 SA
BRANCH  17  18
ATOM     18  C   UNL A   1      33.193  16.559  24.754  1.00  0.00     0.098 C 
ATOM     19  C   UNL A   1      34.624  16.049  24.925  1.00  0.00     0.177 C 
ATOM     20  C   UNL A   1      32.779  15.214  25.339  1.00  0.00     0.177 C 
ATOM     21  O   UNL A   1      34.148  14.738  25.325  1.00  0.00    -0.379 OA
ENDBRANCH  17  18
ENDBRANCH  11  17
ENDBRANCH   4   7
ENDBRANCH   2   3
ENDBRANCH   1   2
BRANCH   1  22
ATOM     22  C   UNL A   1      37.791  21.041  24.925  1.00  0.00     0.023 C 
BRANCH  22  23
ATOM     23  C   UNL A   1      38.859  20.854  25.989  1.00  0.00     0.116 C 
BRANCH  23  24
ATOM     24  N   UNL A   1      39.750  19.725  25.772  1.00  0.00    -0.352 N 
ATOM     25  C   UNL A   1      41.109  19.691  26.016  1.00  0.00     0.251 C 
ATOM     26  H   UNL A   1      39.343  18.902  25.418  1.00  0.00     0.163 HD
ATOM     27  O   UNL A   1      41.783  18.711  25.749  1.00  0.00    -0.269 OA
BRANCH  25  28
ATOM     28  C   UNL A   1      41.735  20.918  26.553  1.00  0.00     0.039 A 
ATOM     29  C   UNL A   1      42.218  21.874  25.658  1.00  0.00     0.014 A 
ATOM     30  C   UNL A   1      41.700  21.174  27.926  1.00  0.00     0.014 A 
ATOM     31  C   UNL A   1      42.583  23.132  26.137  1.00  0.00     0.010 A 
ATOM     32  C   UNL A   1      41.982  22.453  28.387  1.00  0.00     0.010 A 
ATOM     33  C   UNL A   1      42.420  23.446  27.497  1.00  0.00    -0.014 A 
BRANCH  33  34
ATOM     34  C   UNL A   1      42.697  24.808  28.012  1.00  0.00     0.031 A 
ATOM     35  C   UNL A   1      44.097  25.186  28.406  1.00  0.00     0.074 A 
ATOM     36  C   UNL A   1      41.682  25.673  28.204  1.00  0.00     0.049 A 
ATOM     37  N   UNL A   1      44.533  26.294  28.948  1.00  0.00    -0.248 NA
ATOM     38  C   UNL A   1      45.139  24.169  28.195  1.00  0.00     0.031 C 
ATOM     39  C   UNL A   1      40.269  25.402  27.926  1.00  0.00     0.029 A 
ATOM     40  N   UNL A   1      41.683  26.957  28.687  1.00  0.00    -0.354 N 
ATOM     41  C   UNL A   1      45.890  26.096  29.165  1.00  0.00     0.074 A 
ATOM     42  C   UNL A   1      46.195  24.746  28.745  1.00  0.00     0.031 C 
ATOM     43  C   UNL A   1      39.546  26.496  28.218  1.00  0.00     0.029 A 
ATOM     44  C   UNL A   1      40.436  27.534  28.726  1.00  0.00     0.049 A 
ATOM     45  H   UNL A   1      42.501  27.422  28.978  1.00  0.00     0.167 HD
ATOM     46  C   UNL A   1      46.807  26.970  29.642  1.00  0.00     0.037 A 
ATOM     47  C   UNL A   1      40.059  28.764  29.123  1.00  0.00     0.037 A 
ATOM     48  C   UNL A   1      46.510  28.327  30.014  1.00  0.00     0.049 A 
ATOM     49  C   UNL A   1      41.101  29.731  29.608  1.00  0.00     0.074 A 
ATOM     50  C   UNL A   1      47.380  29.314  30.441  1.00  0.00     0.029 A 
ATOM     51  N   UNL A   1      45.244  28.889  29.993  1.00  0.00    -0.354 N 
ATOM     52  N   UNL A   1      42.393  29.555  29.741  1.00  0.00    -0.248 NA
ATOM     53  C   UNL A   1      40.635  31.072  29.989  1.00  0.00     0.031 C 
ATOM     54  C   UNL A   1      46.635  30.469  30.702  1.00  0.00     0.029 A 
ATOM     55  C   UNL A   1      45.306  30.208  30.407  1.00  0.00     0.049 A 
ATOM     56  H   UNL A   1      44.421  28.420  29.724  1.00  0.00     0.167 HD
ATOM     57  C   UNL A   1      42.898  30.765  30.196  1.00  0.00     0.074 A 
ATOM     58  C   UNL A   1      41.774  31.672  30.305  1.00  0.00     0.031 C 
ATOM     59  C   UNL A   1      44.177  31.096  30.498  1.00  0.00     0.037 A 
BRANCH  46  60
ATOM     60  C   UNL A   1      48.218  26.480  29.770  1.00  0.00     0.057 A 
ATOM     61  C   UNL A   1      48.659  25.800  30.913  1.00  0.00     0.134 A 
ATOM     62  C   UNL A   1      49.142  26.682  28.738  1.00  0.00     0.134 A 
ATOM     63  F   UNL A   1      47.825  25.592  31.943  1.00  0.00    -0.206 F 
ATOM     64  C   UNL A   1      49.979  25.365  31.038  1.00  0.00     0.040 A 
ATOM     65  C   UNL A   1      50.458  26.228  28.842  1.00  0.00     0.040 A 
ATOM     66  F   UNL A   1      48.784  27.324  27.617  1.00  0.00    -0.206 F 
ATOM     67  C   UNL A   1      50.881  25.573  29.997  1.00  0.00     0.006 A 
ENDBRANCH  46  60
BRANCH  47  68
ATOM     68  C   UNL A   1      38.634  29.168  29.036  1.00  0.00     0.057 A 
ATOM     69  C   UNL A   1      37.794  29.079  30.152  1.00  0.00     0.134 A 
ATOM     70  C   UNL A   1      38.076  29.643  27.843  1.00  0.00     0.134 A 
ATOM     71  F   UNL A   1      38.268  28.613  31.317  1.00  0.00    -0.206 F 
ATOM     72  C   UNL A   1      36.445  29.429  30.082  1.00  0.00     0.040 A 
ATOM     73  C   UNL A   1      36.733  30.016  27.765  1.00  0.00     0.040 A 
ATOM     74  F   UNL A   1      38.832  29.759  26.741  1.00  0.00    -0.206 F 
ATOM     75  C   UNL A   1      35.912  29.903  28.885  1.00  0.00     0.006 A 
ENDBRANCH  47  68
BRANCH  59  76
ATOM     76  C   UNL A   1      44.431  32.504  30.943  1.00  0.00     0.057 A 
ATOM     77  C   UNL A   1      44.448  32.856  32.298  1.00  0.00     0.134 A 
ATOM     78  C   UNL A   1      44.702  33.509  30.006  1.00  0.00     0.134 A 
ATOM     79  F   UNL A   1      44.182  31.940  33.240  1.00  0.00    -0.206 F 
ATOM     80  C   UNL A   1      44.710  34.164  32.705  1.00  0.00     0.040 A 
ATOM     81  C   UNL A   1      44.987  34.815  30.402  1.00  0.00     0.040 A 
ATOM     82  F   UNL A   1      44.706  33.233  28.693  1.00  0.00    -0.206 F 
ATOM     83  C   UNL A   1      44.987  35.147  31.756  1.00  0.00     0.006 A 
ENDBRANCH  59  76
ENDBRANCH  33  34
ENDBRANCH  25  28
ENDBRANCH  23  24
ENDBRANCH  22  23
ENDBRANCH   1  22
TORSDOF 15
ENDMDL
MODEL 2
REMARK VINA RESULT:     -10.8      0.505      6.428
REMARK SMILES CC[NH2+][C@]1(C(=O)NCCCCNC(=O)c2ccc(-c3c4nc(c(-c5c(F)cccc5F)c5ccc([nH]5)c(-c5c(F)cccc5F)c5nc(c(-c6c(F)cccc6F)c6ccc3[nH]6)C=C5)C=C4)cc2)CC[C@H](SC2COC2)C1
REMARK SMILES IDX 9 1 8 2 7 3 5 4 6 5 4 7 69 8 77 9 70 10 71 11 3 12 2 15 1 16
REMARK SMILES IDX 72 17 73 18 74 19 76 20 75 21 10 22 11 23 12 24 13 25 14 27
REMARK SMILES IDX 15 28 16 29 68 30 17 31 67 32 18 33 19 34 20 35 61 36 21 37
REMARK SMILES IDX 66 38 60 39 62 40 22 41 65 42 59 43 58 44 23 46 49 47 32 48
REMARK SMILES IDX 48 49 33 50 36 51 47 52 63 53 34 54 35 55 46 57 64 58 37 59
REMARK SMILES IDX 24 60 25 61 30 62 26 63 27 64 29 65 31 66 28 67 50 68 51 69
REMARK SMILES IDX 56 70 52 71 53 72 55 73 57 74 54 75 38 76 39 77 44 78 40 79
REMARK SMILES IDX 41 80 43 81 45 82 42 83
REMARK H PARENT 7 6 3 13 3 14 12 26 62 45 36 56
REMARK Flexibility Score: inf
ROOT
ATOM      1  C   UNL A   1      37.774  21.730  24.981  1.00  0.00     0.023 C 
ENDROOT
BRANCH   1   2
ATOM      2  C   UNL A   1      36.506  22.193  24.267  1.00  0.00     0.116 C 
BRANCH   2   3
ATOM      3  N   UNL A   1      35.633  23.036  25.069  1.00  0.00    -0.351 N 
ATOM      4  C   UNL A   1      34.411  22.847  25.638  1.00  0.00     0.281 C 
ATOM      5  O   UNL A   1      34.073  23.706  26.466  1.00  0.00    -0.268 OA
ATOM      6  H   UNL A   1      36.004  23.933  25.233  1.00  0.00     0.163 HD
BRANCH   4   7
ATOM      7  C   UNL A   1      33.394  21.743  25.218  1.00  0.00     0.176 C 
ATOM      8  C   UNL A   1      32.989  21.628  23.751  1.00  0.00     0.080 C 
ATOM      9  C   UNL A   1      34.065  20.352  25.425  1.00  0.00     0.093 C 
ATOM     10  C   UNL A   1      32.455  20.218  23.599  1.00  0.00     0.022 C 
ATOM     11  C   UNL A   1      33.379  19.361  24.452  1.00  0.00     0.054 C 
BRANCH   7  12
ATOM     12  N   UNL A   1      32.226  21.772  26.146  1.00  0.00    -0.334 N 
ATOM     13  H   UNL A   1      31.892  20.815  26.261  1.00  0.00     0.347 HD
ATOM     14  H   UNL A   1      32.565  22.196  27.010  1.00  0.00     0.347 HD
BRANCH  12  15
ATOM     15  C   UNL A   1      31.099  22.592  25.712  1.00  0.00     0.257 C 
ATOM     16  C   UNL A   1      30.182  22.874  26.894  1.00  0.00     0.071 C 
ENDBRANCH  12  15
ENDBRANCH   7  12
BRANCH  11  17
ATOM     17  S   UNL A   1      32.495  18.032  25.324  1.00  0.00    -0.150 SA
BRANCH  17  18
ATOM     18  C   UNL A   1      33.128  16.486  24.604  1.00  0.00     0.098 C 
ATOM     19  C   UNL A   1      34.616  16.180  24.780  1.00  0.00     0.177 C 
ATOM     20  C   UNL A   1      32.901  15.177  25.352  1.00  0.00     0.177 C 
ATOM     21  O   UNL A   1      34.320  14.875  25.342  1.00  0.00    -0.379 OA
ENDBRANCH  17  18
ENDBRANCH  11  17
ENDBRANCH   4   7
ENDBRANCH   2   3
ENDBRANCH   1   2
BRANCH   1  22
ATOM     22  C   UNL A   1      38.162  20.268  24.788  1.00  0.00     0.023 C 
BRANCH  22  23
ATOM     23  C   UNL A   1      38.767  19.594  26.009  1.00  0.00     0.116 C 
BRANCH  23  24
ATOM     24  N   UNL A   1      40.037  18.926  25.774  1.00  0.00    -0.352 N 
ATOM     25  C   UNL A   1      41.295  19.443  26.016  1.00  0.00     0.251 C 
ATOM     26  H   UNL A   1      39.997  18.014  25.407  1.00  0.00     0.163 HD
ATOM     27  O   UNL A   1      42.307  18.824  25.734  1.00  0.00    -0.269 OA
BRANCH  25  28
ATOM     28  C   UNL A   1      41.374  20.811  26.573  1.00  0.00     0.039 A 
ATOM     29  C   UNL A   1      41.485  20.968  27.955  1.00  0.00     0.014 A 
ATOM     30  C   UNL A   1      41.488  21.906  25.714  1.00  0.00     0.014 A 
ATOM     31  C   UNL A   1      41.806  22.223  28.473  1.00  0.00     0.010 A 
ATOM     32  C   UNL A   1      41.891  23.132  26.226  1.00  0.00     0.010 A 
ATOM     33  C   UNL A   1      42.060  23.301  27.609  1.00  0.00    -0.014 A 
BRANCH  33  34
ATOM     34  C   UNL A   1      42.508  24.616  28.128  1.00  0.00     0.031 A 
ATOM     35  C   UNL A   1      41.501  25.705  28.371  1.00  0.00     0.074 A 
ATOM     36  C   UNL A   1      43.822  24.857  28.302  1.00  0.00     0.049 A 
ATOM     37  N   UNL A   1      41.696  26.943  28.745  1.00  0.00    -0.248 NA
ATOM     38  C   UNL A   1      40.091  25.366  28.123  1.00  0.00     0.031 C 
ATOM     39  C   UNL A   1      44.904  23.906  28.035  1.00  0.00     0.029 A 
ATOM     40  N   UNL A   1      44.473  25.984  28.736  1.00  0.00    -0.354 N 
ATOM     41  C   UNL A   1      40.440  27.534  28.754  1.00  0.00     0.074 A 
ATOM     42  C   UNL A   1      39.498  26.536  28.296  1.00  0.00     0.031 C 
ATOM     43  C   UNL A   1      46.080  24.481  28.339  1.00  0.00     0.029 A 
ATOM     44  C   UNL A   1      45.839  25.845  28.794  1.00  0.00     0.049 A 
ATOM     45  H   UNL A   1      44.005  26.814  28.983  1.00  0.00     0.167 HD
ATOM     46  C   UNL A   1      40.096  28.786  29.137  1.00  0.00     0.037 A 
ATOM     47  C   UNL A   1      46.787  26.721  29.179  1.00  0.00     0.037 A 
ATOM     48  C   UNL A   1      41.028  29.760  29.636  1.00  0.00     0.049 A 
ATOM     49  C   UNL A   1      46.376  28.091  29.641  1.00  0.00     0.074 A 
ATOM     50  C   UNL A   1      40.771  31.032  30.116  1.00  0.00     0.029 A 
ATOM     51  N   UNL A   1      42.397  29.565  29.726  1.00  0.00    -0.354 N 
ATOM     52  N   UNL A   1      45.177  28.614  29.711  1.00  0.00    -0.248 NA
ATOM     53  C   UNL A   1      47.451  28.989  30.086  1.00  0.00     0.031 C 
ATOM     54  C   UNL A   1      41.991  31.617  30.476  1.00  0.00     0.029 A 
ATOM     55  C   UNL A   1      43.001  30.696  30.248  1.00  0.00     0.049 A 
ATOM     56  H   UNL A   1      42.870  28.744  29.459  1.00  0.00     0.167 HD
ATOM     57  C   UNL A   1      45.347  29.889  30.231  1.00  0.00     0.074 A 
ATOM     58  C   UNL A   1      46.766  30.058  30.469  1.00  0.00     0.031 C 
ATOM     59  C   UNL A   1      44.414  30.838  30.487  1.00  0.00     0.037 A 
BRANCH  46  60
ATOM     60  C   UNL A   1      38.647  29.157  29.042  1.00  0.00     0.057 A 
ATOM     61  C   UNL A   1      37.789  29.058  30.146  1.00  0.00     0.134 A 
ATOM     62  C   UNL A   1      38.104  29.624  27.840  1.00  0.00     0.134 A 
ATOM     63  F   UNL A   1      38.245  28.600  31.322  1.00  0.00    -0.206 F 
ATOM     64  C   UNL A   1      36.436  29.383  30.049  1.00  0.00     0.040 A 
ATOM     65  C   UNL A   1      36.758  29.977  27.738  1.00  0.00     0.040 A 
ATOM     66  F   UNL A   1      38.871  29.744  26.746  1.00  0.00    -0.206 F 
ATOM     67  C   UNL A   1      35.918  29.850  28.843  1.00  0.00     0.006 A 
ENDBRANCH  46  60
BRANCH  47  68
ATOM     68  C   UNL A   1      48.214  26.317  29.186  1.00  0.00     0.057 A 
ATOM     69  C   UNL A   1      49.021  26.514  28.060  1.00  0.00     0.134 A 
ATOM     70  C   UNL A   1      48.803  25.719  30.307  1.00  0.00     0.134 A 
ATOM     71  F   UNL A   1      48.508  27.065  26.950  1.00  0.00    -0.206 F 
ATOM     72  C   UNL A   1      50.359  26.115  28.039  1.00  0.00     0.040 A 
ATOM     73  C   UNL A   1      50.144  25.334  30.307  1.00  0.00     0.040 A 
ATOM     74  F   UNL A   1      48.083  25.510  31.419  1.00  0.00    -0.206 F 
ATOM     75  C   UNL A   1      50.925  25.526  29.168  1.00  0.00     0.006 A 
ENDBRANCH  47  68
BRANCH  59  76
ATOM     76  C   UNL A   1      44.894  32.126  31.082  1.00  0.00     0.057 A 
ATOM     77  C   UNL A   1      45.258  33.216  30.281  1.00  0.00     0.134 A 
ATOM     78  C   UNL A   1      44.954  32.290  32.471  1.00  0.00     0.134 A 
ATOM     79  F   UNL A   1      45.234  33.114  28.945  1.00  0.00    -0.206 F 
ATOM     80  C   UNL A   1      45.681  34.421  30.844  1.00  0.00     0.040 A 
ATOM     81  C   UNL A   1      45.353  33.497  33.045  1.00  0.00     0.040 A 
ATOM     82  F   UNL A   1      44.612  31.285  33.291  1.00  0.00    -0.206 F 
ATOM     83  C   UNL A   1      45.723  34.566  32.230  1.00  0.00     0.006 A 
ENDBRANCH  59  76
ENDBRANCH  33  34
ENDBRANCH  25  28
ENDBRANCH  23  24
ENDBRANCH  22  23
ENDBRANCH   1  22
TORSDOF 15
ENDMDL
MODEL 3
REMARK VINA RESULT:     -10.6      0.440      1.062
REMARK SMILES CC[NH2+][C@]1(C(=O)NCCCCNC(=O)c2ccc(-c3c4nc(c(-c5c(F)cccc5F)c5ccc([nH]5)c(-c5c(F)cccc5F)c5nc(c(-c6c(F)cccc6F)c6ccc3[nH]6)C=C5)C=C4)cc2)CC[C@H](SC2COC2)C1
REMARK SMILES IDX 9 1 8 2 7 3 5 4 6 5 4 7 69 8 77 9 70 10 71 11 3 12 2 15 1 16
REMARK SMILES IDX 72 17 73 18 74 19 76 20 75 21 10 22 11 23 12 24 13 25 14 27
REMARK SMILES IDX 15 28 16 29 68 30 17 31 67 32 18 33 19 34 20 35 61 36 21 37
REMARK SMILES IDX 66 38 60 39 62 40 22 41 65 42 59 43 58 44 23 46 49 47 32 48
REMARK SMILES IDX 48 49 33 50 36 51 47 52 63 53 34 54 35 55 46 57 64 58 37 59
REMARK SMILES IDX 24 60 25 61 30 62 26 63 27 64 29 65 31 66 28 67 50 68 51 69
REMARK SMILES IDX 56 70 52 71 53 72 55 73 57 74 54 75 38 76 39 77 44 78 40 79
REMARK SMILES IDX 41 80 43 81 45 82 42 83
REMARK H PARENT 7 6 3 13 3 14 12 26 62 45 36 56
REMARK Flexibility Score: inf
ROOT
ATOM      1  C   UNL A   1      37.135  22.625  24.168  1.00  0.00     0.023 C 
ENDROOT
BRANCH   1   2
ATOM      2  C   UNL A   1      35.701  22.869  23.701  1.00  0.00     0.116 C 
BRANCH   2   3
ATOM      3  N   UNL A   1      34.859  23.559  24.663  1.00  0.00    -0.351 N 
ATOM      4  C   UNL A   1      33.823  23.167  25.455  1.00  0.00     0.281 C 
ATOM      5  O   UNL A   1      33.498  23.971  26.342  1.00  0.00    -0.268 OA
ATOM      6  H   UNL A   1      35.084  24.513  24.763  1.00  0.00     0.163 HD
BRANCH   4   7
ATOM      7  C   UNL A   1      32.963  21.887  25.227  1.00  0.00     0.176 C 
ATOM      8  C   UNL A   1      32.498  21.549  23.813  1.00  0.00     0.080 C 
ATOM      9  C   UNL A   1      33.848  20.640  25.527  1.00  0.00     0.093 C 
ATOM     10  C   UNL A   1      32.176  20.069  23.847  1.00  0.00     0.022 C 
ATOM     11  C   UNL A   1      33.266  19.457  24.715  1.00  0.00     0.054 C 
BRANCH   7  12
ATOM     12  N   UNL A   1      31.859  21.852  26.230  1.00  0.00    -0.334 N 
ATOM     13  H   UNL A   1      31.533  20.889  26.305  1.00  0.00     0.347 HD
ATOM     14  H   UNL A   1      32.253  22.221  27.095  1.00  0.00     0.347 HD
BRANCH  12  15
ATOM     15  C   UNL A   1      30.706  22.693  25.923  1.00  0.00     0.257 C 
ATOM     16  C   UNL A   1      29.715  22.649  27.078  1.00  0.00     0.071 C 
ENDBRANCH  12  15
ENDBRANCH   7  12
BRANCH  11  17
ATOM     17  S   UNL A   1      32.645  18.121  25.782  1.00  0.00    -0.150 SA
BRANCH  17  18
ATOM     18  C   UNL A   1      33.059  16.580  24.908  1.00  0.00     0.098 C 
ATOM     19  C   UNL A   1      33.663  16.700  23.509  1.00  0.00     0.177 C 
ATOM     20  C   UNL A   1      34.351  15.854  25.265  1.00  0.00     0.177 C 
ATOM     21  O   UNL A   1      34.790  15.866  23.883  1.00  0.00    -0.379 OA
ENDBRANCH  17  18
ENDBRANCH  11  17
ENDBRANCH   4   7
ENDBRANCH   2   3
ENDBRANCH   1   2
BRANCH   1  22
ATOM     22  C   UNL A   1      37.456  21.219  24.659  1.00  0.00     0.023 C 
BRANCH  22  23
ATOM     23  C   UNL A   1      38.579  21.132  25.680  1.00  0.00     0.116 C 
BRANCH  23  24
ATOM     24  N   UNL A   1      39.407  19.940  25.580  1.00  0.00    -0.352 N 
ATOM     25  C   UNL A   1      40.722  19.816  25.984  1.00  0.00     0.251 C 
ATOM     26  H   UNL A   1      38.988  19.141  25.187  1.00  0.00     0.163 HD
ATOM     27  O   UNL A   1      41.352  18.787  25.808  1.00  0.00    -0.269 OA
BRANCH  25  28
ATOM     28  C   UNL A   1      41.366  21.005  26.582  1.00  0.00     0.039 A 
ATOM     29  C   UNL A   1      41.997  21.922  25.740  1.00  0.00     0.014 A 
ATOM     30  C   UNL A   1      41.207  21.273  27.943  1.00  0.00     0.014 A 
ATOM     31  C   UNL A   1      42.389  23.159  26.252  1.00  0.00     0.010 A 
ATOM     32  C   UNL A   1      41.520  22.535  28.429  1.00  0.00     0.010 A 
ATOM     33  C   UNL A   1      42.108  23.493  27.587  1.00  0.00    -0.014 A 
BRANCH  33  34
ATOM     34  C   UNL A   1      42.416  24.838  28.127  1.00  0.00     0.031 A 
ATOM     35  C   UNL A   1      43.817  25.166  28.560  1.00  0.00     0.074 A 
ATOM     36  C   UNL A   1      41.425  25.734  28.304  1.00  0.00     0.049 A 
ATOM     37  N   UNL A   1      44.275  26.252  29.127  1.00  0.00    -0.248 NA
ATOM     38  C   UNL A   1      44.830  24.118  28.362  1.00  0.00     0.031 C 
ATOM     39  C   UNL A   1      40.012  25.512  27.989  1.00  0.00     0.029 A 
ATOM     40  N   UNL A   1      41.455  27.011  28.804  1.00  0.00    -0.354 N 
ATOM     41  C   UNL A   1      45.619  26.008  29.375  1.00  0.00     0.074 A 
ATOM     42  C   UNL A   1      45.891  24.653  28.946  1.00  0.00     0.031 C 
ATOM     43  C   UNL A   1      39.317  26.625  28.277  1.00  0.00     0.029 A 
ATOM     44  C   UNL A   1      40.227  27.628  28.820  1.00  0.00     0.049 A 
ATOM     45  H   UNL A   1      42.280  27.446  29.122  1.00  0.00     0.167 HD
ATOM     46  C   UNL A   1      46.551  26.846  29.886  1.00  0.00     0.037 A 
ATOM     47  C   UNL A   1      39.880  28.865  29.223  1.00  0.00     0.037 A 
ATOM     48  C   UNL A   1      46.290  28.207  30.267  1.00  0.00     0.049 A 
ATOM     49  C   UNL A   1      40.941  29.791  29.746  1.00  0.00     0.074 A 
ATOM     50  C   UNL A   1      47.180  29.159  30.729  1.00  0.00     0.029 A 
ATOM     51  N   UNL A   1      45.043  28.810  30.222  1.00  0.00    -0.354 N 
ATOM     52  N   UNL A   1      42.223  29.572  29.909  1.00  0.00    -0.248 NA
ATOM     53  C   UNL A   1      40.508  31.142  30.132  1.00  0.00     0.031 C 
ATOM     54  C   UNL A   1      46.466  30.335  30.987  1.00  0.00     0.029 A 
ATOM     55  C   UNL A   1      45.137  30.121  30.655  1.00  0.00     0.049 A 
ATOM     56  H   UNL A   1      44.213  28.371  29.927  1.00  0.00     0.167 HD
ATOM     57  C   UNL A   1      42.755  30.759  30.391  1.00  0.00     0.074 A 
ATOM     58  C   UNL A   1      41.658  31.701  30.484  1.00  0.00     0.031 C 
ATOM     59  C   UNL A   1      44.035  31.045  30.729  1.00  0.00     0.037 A 
BRANCH  46  60
ATOM     60  C   UNL A   1      47.942  26.308  30.042  1.00  0.00     0.057 A 
ATOM     61  C   UNL A   1      48.370  25.713  31.236  1.00  0.00     0.134 A 
ATOM     62  C   UNL A   1      48.860  26.379  28.988  1.00  0.00     0.134 A 
ATOM     63  F   UNL A   1      47.543  25.631  32.289  1.00  0.00    -0.206 F 
ATOM     64  C   UNL A   1      49.672  25.233  31.386  1.00  0.00     0.040 A 
ATOM     65  C   UNL A   1      50.156  25.879  29.118  1.00  0.00     0.040 A 
ATOM     66  F   UNL A   1      48.513  26.935  27.818  1.00  0.00    -0.206 F 
ATOM     67  C   UNL A   1      50.568  25.311  30.322  1.00  0.00     0.006 A 
ENDBRANCH  46  60
BRANCH  47  68
ATOM     68  C   UNL A   1      38.472  29.316  29.106  1.00  0.00     0.057 A 
ATOM     69  C   UNL A   1      37.962  29.768  27.884  1.00  0.00     0.134 A 
ATOM     70  C   UNL A   1      37.607  29.318  30.208  1.00  0.00     0.134 A 
ATOM     71  F   UNL A   1      38.748  29.806  26.798  1.00  0.00    -0.206 F 
ATOM     72  C   UNL A   1      36.648  30.222  27.761  1.00  0.00     0.040 A 
ATOM     73  C   UNL A   1      36.285  29.751  30.095  1.00  0.00     0.040 A 
ATOM     74  F   UNL A   1      38.034  28.890  31.405  1.00  0.00    -0.206 F 
ATOM     75  C   UNL A   1      35.804  30.211  28.870  1.00  0.00     0.006 A 
ENDBRANCH  47  68
BRANCH  59  76
ATOM     76  C   UNL A   1      44.323  32.438  31.199  1.00  0.00     0.057 A 
ATOM     77  C   UNL A   1      44.294  32.778  32.557  1.00  0.00     0.134 A 
ATOM     78  C   UNL A   1      44.673  33.439  30.284  1.00  0.00     0.134 A 
ATOM     79  F   UNL A   1      43.953  31.865  33.477  1.00  0.00    -0.206 F 
ATOM     80  C   UNL A   1      44.588  34.072  32.988  1.00  0.00     0.040 A 
ATOM     81  C   UNL A   1      44.991  34.730  30.705  1.00  0.00     0.040 A 
ATOM     82  F   UNL A   1      44.725  33.174  28.970  1.00  0.00    -0.206 F 
ATOM     83  C   UNL A   1      44.944  35.051  32.061  1.00  0.00     0.006 A 
ENDBRANCH  59  76
ENDBRANCH  33  34
ENDBRANCH  25  28
ENDBRANCH  23  24
ENDBRANCH  22  23
ENDBRANCH   1  22
TORSDOF 15
ENDMDL
