MODEL 1
REMARK VINA RESULT:     -13.6      0.000      0.000
REMARK SMILES O=C(NCCCCNC(=O)c1cc([C@@H]2C=NN=C2c2ccc(F)cc2)c2c(ccc3ccccc32)n1)c1ccc(-c2c3nc(c(-c4c(F)cccc4F)c4ccc([nH]4)c(-c4c(F)cccc4F)c4nc(c(-c5c(F)cccc5F)c5ccc2[nH]5)C=C4)C=C3)cc1
REMARK SMILES IDX 5 1 4 2 3 3 1 4 2 5 37 7 38 8 90 9 39 10 89 11 40 12 41 13
REMARK SMILES IDX 42 14 83 15 43 16 88 17 82 18 84 19 44 20 87 21 81 22 80 23
REMARK SMILES IDX 45 25 71 26 54 27 70 28 55 29 58 30 69 31 85 32 56 33 57 34
REMARK SMILES IDX 68 36 86 37 59 38 46 39 47 40 52 41 48 42 49 43 51 44 53 45
REMARK SMILES IDX 50 46 72 47 73 48 78 49 74 50 75 51 77 52 79 53 76 54 60 55
REMARK SMILES IDX 61 56 66 57 62 58 63 59 65 60 67 61 64 62 6 63 7 64 8 65
REMARK SMILES IDX 9 66 10 68 11 69 12 70 36 71 13 72 27 73 26 74 28 75 35 76
REMARK SMILES IDX 29 77 30 78 34 79 31 80 33 81 32 82 14 83 15 84 18 85 16 86
REMARK SMILES IDX 17 87 19 88 20 89 25 90 21 91 24 92 22 93 23 94
REMARK H PARENT 3 6 84 24 58 35 8 67
REMARK Flexibility Score: inf
ROOT
ATOM      1  C   UNL A   1      34.180  31.248  27.492  1.00  0.00     0.023 C 
ENDROOT
BRANCH   1   2
ATOM      2  C   UNL A   1      34.857  32.438  28.173  1.00  0.00     0.116 C 
BRANCH   2   3
ATOM      3  N   UNL A   1      34.694  32.496  29.612  1.00  0.00    -0.352 N 
ATOM      4  O   UNL A   1      34.997  32.353  31.796  1.00  0.00    -0.269 OA
ATOM      5  C   UNL A   1      35.404  32.021  30.681  1.00  0.00     0.251 C 
ATOM      6  H   UNL A   1      33.887  32.992  29.882  1.00  0.00     0.163 HD
BRANCH   5   7
ATOM      7  C   UNL A   1      36.575  31.107  30.589  1.00  0.00     0.039 A 
ATOM      8  C   UNL A   1      36.526  29.717  30.697  1.00  0.00     0.014 A 
ATOM      9  C   UNL A   1      37.822  31.718  30.361  1.00  0.00     0.014 A 
ATOM     10  C   UNL A   1      37.696  28.962  30.666  1.00  0.00     0.010 A 
ATOM     11  C   UNL A   1      38.992  30.964  30.297  1.00  0.00     0.010 A 
ATOM     12  C   UNL A   1      38.931  29.585  30.479  1.00  0.00    -0.014 A 
BRANCH  12  13
ATOM     13  C   UNL A   1      40.117  28.735  30.375  1.00  0.00     0.031 A 
ATOM     14  C   UNL A   1      40.881  28.489  31.637  1.00  0.00     0.074 A 
ATOM     15  C   UNL A   1      40.440  28.045  29.264  1.00  0.00     0.049 A 
ATOM     16  N   UNL A   1      42.144  28.661  31.871  1.00  0.00    -0.248 NA
ATOM     17  C   UNL A   1      40.119  28.000  32.798  1.00  0.00     0.031 C 
ATOM     18  C   UNL A   1      39.647  27.875  28.045  1.00  0.00     0.029 A 
ATOM     19  N   UNL A   1      41.523  27.244  29.049  1.00  0.00    -0.354 N 
ATOM     20  C   UNL A   1      42.371  28.177  33.160  1.00  0.00     0.074 A 
ATOM     21  C   UNL A   1      41.079  27.852  33.711  1.00  0.00     0.031 C 
ATOM     22  C   UNL A   1      40.169  26.863  27.318  1.00  0.00     0.029 A 
ATOM     23  C   UNL A   1      41.394  26.406  27.955  1.00  0.00     0.049 A 
ATOM     24  H   UNL A   1      42.324  27.261  29.621  1.00  0.00     0.167 HD
ATOM     25  C   UNL A   1      43.615  27.938  33.661  1.00  0.00     0.037 A 
ATOM     26  C   UNL A   1      42.195  25.360  27.642  1.00  0.00     0.037 A 
ATOM     27  C   UNL A   1      44.647  28.590  32.911  1.00  0.00     0.049 A 
ATOM     28  C   UNL A   1      43.478  25.524  28.364  1.00  0.00     0.074 A 
ATOM     29  C   UNL A   1      44.978  29.901  32.638  1.00  0.00     0.029 A 
ATOM     30  N   UNL A   1      45.414  27.831  32.064  1.00  0.00    -0.354 N 
ATOM     31  N   UNL A   1      44.372  26.435  28.101  1.00  0.00    -0.248 NA
ATOM     32  C   UNL A   1      43.634  24.850  29.645  1.00  0.00     0.031 C 
ATOM     33  C   UNL A   1      45.552  29.876  31.334  1.00  0.00     0.029 A 
ATOM     34  C   UNL A   1      45.537  28.548  30.903  1.00  0.00     0.049 A 
ATOM     35  H   UNL A   1      45.801  26.946  32.254  1.00  0.00     0.167 HD
ATOM     36  C   UNL A   1      44.949  26.730  29.325  1.00  0.00     0.074 A 
ATOM     37  C   UNL A   1      44.549  25.642  30.207  1.00  0.00     0.031 C 
ATOM     38  C   UNL A   1      45.467  27.966  29.584  1.00  0.00     0.037 A 
BRANCH  25  39
ATOM     39  C   UNL A   1      43.923  26.898  34.702  1.00  0.00     0.057 A 
ATOM     40  C   UNL A   1      44.038  27.197  36.074  1.00  0.00     0.134 A 
ATOM     41  C   UNL A   1      43.846  25.530  34.387  1.00  0.00     0.134 A 
ATOM     42  F   UNL A   1      44.005  28.460  36.523  1.00  0.00    -0.206 F 
ATOM     43  C   UNL A   1      44.097  26.208  37.061  1.00  0.00     0.040 A 
ATOM     44  C   UNL A   1      43.857  24.533  35.370  1.00  0.00     0.040 A 
ATOM     45  F   UNL A   1      43.693  25.124  33.118  1.00  0.00    -0.206 F 
ATOM     46  C   UNL A   1      43.984  24.870  36.712  1.00  0.00     0.006 A 
ENDBRANCH  25  39
BRANCH  26  47
ATOM     47  C   UNL A   1      41.827  24.088  26.981  1.00  0.00     0.057 A 
ATOM     48  C   UNL A   1      40.760  23.298  27.444  1.00  0.00     0.134 A 
ATOM     49  C   UNL A   1      42.680  23.485  26.046  1.00  0.00     0.134 A 
ATOM     50  F   UNL A   1      39.929  23.742  28.398  1.00  0.00    -0.206 F 
ATOM     51  C   UNL A   1      40.558  21.984  27.013  1.00  0.00     0.040 A 
ATOM     52  C   UNL A   1      42.497  22.165  25.616  1.00  0.00     0.040 A 
ATOM     53  F   UNL A   1      43.750  24.143  25.578  1.00  0.00    -0.206 F 
ATOM     54  C   UNL A   1      41.439  21.407  26.106  1.00  0.00     0.006 A 
ENDBRANCH  26  47
BRANCH  38  55
ATOM     55  C   UNL A   1      45.679  28.900  28.428  1.00  0.00     0.057 A 
ATOM     56  C   UNL A   1      46.972  29.062  27.916  1.00  0.00     0.134 A 
ATOM     57  C   UNL A   1      44.685  29.754  27.927  1.00  0.00     0.134 A 
ATOM     58  F   UNL A   1      47.986  28.322  28.392  1.00  0.00    -0.206 F 
ATOM     59  C   UNL A   1      47.265  30.024  26.947  1.00  0.00     0.040 A 
ATOM     60  C   UNL A   1      44.959  30.698  26.934  1.00  0.00     0.040 A 
ATOM     61  F   UNL A   1      43.444  29.745  28.432  1.00  0.00    -0.206 F 
ATOM     62  C   UNL A   1      46.254  30.840  26.446  1.00  0.00     0.006 A 
ENDBRANCH  38  55
ENDBRANCH  12  13
ENDBRANCH   5   7
ENDBRANCH   2   3
ENDBRANCH   1   2
BRANCH   1  63
ATOM     63  C   UNL A   1      35.044  29.995  27.353  1.00  0.00     0.023 C 
BRANCH  63  64
ATOM     64  C   UNL A   1      34.280  28.693  27.155  1.00  0.00     0.116 C 
BRANCH  64  65
ATOM     65  N   UNL A   1      32.972  28.700  27.792  1.00  0.00    -0.351 N 
ATOM     66  C   UNL A   1      31.896  27.865  27.577  1.00  0.00     0.269 C 
ATOM     67  H   UNL A   1      32.836  29.399  28.471  1.00  0.00     0.163 HD
ATOM     68  O   UNL A   1      30.835  28.081  28.160  1.00  0.00    -0.268 OA
BRANCH  66  69
ATOM     69  C   UNL A   1      32.044  26.694  26.670  1.00  0.00     0.129 A 
ATOM     70  C   UNL A   1      32.252  26.887  25.325  1.00  0.00     0.039 A 
ATOM     71  N   UNL A   1      31.943  25.478  27.211  1.00  0.00    -0.243 NA
ATOM     72  C   UNL A   1      32.259  25.785  24.437  1.00  0.00    -0.021 A 
ATOM     73  C   UNL A   1      32.021  24.414  26.408  1.00  0.00     0.072 A 
ATOM     74  C   UNL A   1      32.158  24.440  24.982  1.00  0.00     0.012 A 
ATOM     75  C   UNL A   1      31.966  23.231  27.106  1.00  0.00     0.029 A 
ATOM     76  C   UNL A   1      32.205  23.117  24.317  1.00  0.00    -0.009 A 
ATOM     77  C   UNL A   1      32.026  22.001  26.477  1.00  0.00     0.011 A 
ATOM     78  C   UNL A   1      32.135  21.926  25.098  1.00  0.00    -0.018 A 
ATOM     79  C   UNL A   1      32.332  22.871  22.931  1.00  0.00     0.009 A 
ATOM     80  C   UNL A   1      32.179  20.644  24.524  1.00  0.00     0.009 A 
ATOM     81  C   UNL A   1      32.365  21.594  22.352  1.00  0.00     0.001 A 
ATOM     82  C   UNL A   1      32.289  20.474  23.153  1.00  0.00     0.001 A 
BRANCH  72  83
ATOM     83  C   UNL A   1      32.410  26.246  23.003  1.00  0.00     0.115 C 
ATOM     84  C   UNL A   1      33.776  26.408  22.447  1.00  0.00     0.123 C 
ATOM     85  C   UNL A   1      31.815  27.527  22.517  1.00  0.00     0.083 C 
ATOM     86  N   UNL A   1      33.878  27.443  21.677  1.00  0.00    -0.162 NA
ATOM     87  N   UNL A   1      32.625  28.154  21.711  1.00  0.00    -0.154 NA
BRANCH  85  88
ATOM     88  C   UNL A   1      30.416  27.930  22.756  1.00  0.00    -0.001 A 
ATOM     89  C   UNL A   1      30.032  29.223  22.381  1.00  0.00     0.013 A 
ATOM     90  C   UNL A   1      29.473  27.061  23.318  1.00  0.00     0.013 A 
ATOM     91  C   UNL A   1      28.704  29.628  22.533  1.00  0.00     0.040 A 
ATOM     92  C   UNL A   1      28.146  27.469  23.468  1.00  0.00     0.040 A 
ATOM     93  C   UNL A   1      27.773  28.746  23.068  1.00  0.00     0.123 A 
ATOM     94  F   UNL A   1      26.498  29.132  23.208  1.00  0.00    -0.207 F 
ENDBRANCH  85  88
ENDBRANCH  72  83
ENDBRANCH  66  69
ENDBRANCH  64  65
ENDBRANCH  63  64
ENDBRANCH   1  63
TORSDOF 13
ENDMDL
MODEL 2
REMARK VINA RESULT:     -13.3      5.082      9.434
REMARK SMILES O=C(NCCCCNC(=O)c1cc([C@@H]2C=NN=C2c2ccc(F)cc2)c2c(ccc3ccccc32)n1)c1ccc(-c2c3nc(c(-c4c(F)cccc4F)c4ccc([nH]4)c(-c4c(F)cccc4F)c4nc(c(-c5c(F)cccc5F)c5ccc2[nH]5)C=C4)C=C3)cc1
REMARK SMILES IDX 5 1 4 2 3 3 1 4 2 5 37 7 38 8 90 9 39 10 89 11 40 12 41 13
REMARK SMILES IDX 42 14 83 15 43 16 88 17 82 18 84 19 44 20 87 21 81 22 80 23
REMARK SMILES IDX 45 25 71 26 54 27 70 28 55 29 58 30 69 31 85 32 56 33 57 34
REMARK SMILES IDX 68 36 86 37 59 38 46 39 47 40 52 41 48 42 49 43 51 44 53 45
REMARK SMILES IDX 50 46 72 47 73 48 78 49 74 50 75 51 77 52 79 53 76 54 60 55
REMARK SMILES IDX 61 56 66 57 62 58 63 59 65 60 67 61 64 62 6 63 7 64 8 65
REMARK SMILES IDX 9 66 10 68 11 69 12 70 36 71 13 72 27 73 26 74 28 75 35 76
REMARK SMILES IDX 29 77 30 78 34 79 31 80 33 81 32 82 14 83 15 84 18 85 16 86
REMARK SMILES IDX 17 87 19 88 20 89 25 90 21 91 24 92 22 93 23 94
REMARK H PARENT 3 6 84 24 58 35 8 67
REMARK Flexibility Score: inf
ROOT
ATOM      1  C   UNL A   1      34.116  34.854  30.879  1.00  0.00     0.023 C 
ENDROOT
BRANCH   1   2
ATOM      2  C   UNL A   1      35.033  33.816  30.231  1.00  0.00     0.116 C 
BRANCH   2   3
ATOM      3  N   UNL A   1      34.434  33.054  29.154  1.00  0.00    -0.352 N 
ATOM      4  O   UNL A   1      33.928  31.488  27.678  1.00  0.00    -0.269 OA
ATOM      5  C   UNL A   1      34.745  31.886  28.512  1.00  0.00     0.251 C 
ATOM      6  H   UNL A   1      33.615  33.474  28.804  1.00  0.00     0.163 HD
BRANCH   5   7
ATOM      7  C   UNL A   1      35.999  31.111  28.710  1.00  0.00     0.039 A 
ATOM      8  C   UNL A   1      36.126  29.729  28.573  1.00  0.00     0.014 A 
ATOM      9  C   UNL A   1      37.142  31.858  29.053  1.00  0.00     0.014 A 
ATOM     10  C   UNL A   1      37.335  29.096  28.851  1.00  0.00     0.010 A 
ATOM     11  C   UNL A   1      38.362  31.233  29.301  1.00  0.00     0.010 A 
ATOM     12  C   UNL A   1      38.451  29.846  29.229  1.00  0.00    -0.014 A 
BRANCH  12  13
ATOM     13  C   UNL A   1      39.714  29.136  29.431  1.00  0.00     0.031 A 
ATOM     14  C   UNL A   1      40.071  28.789  30.841  1.00  0.00     0.074 A 
ATOM     15  C   UNL A   1      40.459  28.645  28.422  1.00  0.00     0.049 A 
ATOM     16  N   UNL A   1      41.162  29.046  31.492  1.00  0.00    -0.248 NA
ATOM     17  C   UNL A   1      39.059  28.069  31.631  1.00  0.00     0.031 C 
ATOM     18  C   UNL A   1      40.118  28.575  27.000  1.00  0.00     0.029 A 
ATOM     19  N   UNL A   1      41.654  27.990  28.492  1.00  0.00    -0.354 N 
ATOM     20  C   UNL A   1      41.039  28.409  32.727  1.00  0.00     0.074 A 
ATOM     21  C   UNL A   1      39.696  27.886  32.789  1.00  0.00     0.031 C 
ATOM     22  C   UNL A   1      40.974  27.730  26.384  1.00  0.00     0.029 A 
ATOM     23  C   UNL A   1      41.989  27.307  27.336  1.00  0.00     0.049 A 
ATOM     24  H   UNL A   1      42.226  28.003  29.293  1.00  0.00     0.167 HD
ATOM     25  C   UNL A   1      42.084  28.221  33.580  1.00  0.00     0.037 A 
ATOM     26  C   UNL A   1      42.982  26.398  27.195  1.00  0.00     0.037 A 
ATOM     27  C   UNL A   1      43.200  29.068  33.281  1.00  0.00     0.049 A 
ATOM     28  C   UNL A   1      43.941  26.580  28.311  1.00  0.00     0.074 A 
ATOM     29  C   UNL A   1      43.417  30.431  33.268  1.00  0.00     0.029 A 
ATOM     30  N   UNL A   1      44.289  28.515  32.658  1.00  0.00    -0.354 N 
ATOM     31  N   UNL A   1      44.739  27.600  28.450  1.00  0.00    -0.248 NA
ATOM     32  C   UNL A   1      43.779  25.750  29.496  1.00  0.00     0.031 C 
ATOM     33  C   UNL A   1      44.368  30.646  32.228  1.00  0.00     0.029 A 
ATOM     34  C   UNL A   1      44.669  29.397  31.682  1.00  0.00     0.049 A 
ATOM     35  H   UNL A   1      44.714  27.653  32.872  1.00  0.00     0.167 HD
ATOM     36  C   UNL A   1      44.858  27.774  29.819  1.00  0.00     0.074 A 
ATOM     37  C   UNL A   1      44.355  26.538  30.405  1.00  0.00     0.031 C 
ATOM     38  C   UNL A   1      45.096  29.004  30.360  1.00  0.00     0.037 A 
BRANCH  25  39
ATOM     39  C   UNL A   1      42.190  27.079  34.552  1.00  0.00     0.057 A 
ATOM     40  C   UNL A   1      42.907  25.899  34.273  1.00  0.00     0.134 A 
ATOM     41  C   UNL A   1      41.804  27.247  35.893  1.00  0.00     0.134 A 
ATOM     42  F   UNL A   1      43.435  25.667  33.063  1.00  0.00    -0.206 F 
ATOM     43  C   UNL A   1      43.197  24.942  35.249  1.00  0.00     0.040 A 
ATOM     44  C   UNL A   1      42.129  26.318  36.889  1.00  0.00     0.040 A 
ATOM     45  F   UNL A   1      41.153  28.351  36.288  1.00  0.00    -0.206 F 
ATOM     46  C   UNL A   1      42.827  25.159  36.569  1.00  0.00     0.006 A 
ENDBRANCH  25  39
BRANCH  26  47
ATOM     47  C   UNL A   1      43.016  25.203  26.324  1.00  0.00     0.057 A 
ATOM     48  C   UNL A   1      42.263  24.053  26.618  1.00  0.00     0.134 A 
ATOM     49  C   UNL A   1      43.993  25.062  25.328  1.00  0.00     0.134 A 
ATOM     50  F   UNL A   1      41.357  24.049  27.607  1.00  0.00    -0.206 F 
ATOM     51  C   UNL A   1      42.472  22.833  25.969  1.00  0.00     0.040 A 
ATOM     52  C   UNL A   1      44.223  23.841  24.680  1.00  0.00     0.040 A 
ATOM     53  F   UNL A   1      44.792  26.090  25.007  1.00  0.00    -0.206 F 
ATOM     54  C   UNL A   1      43.468  22.720  25.007  1.00  0.00     0.006 A 
ENDBRANCH  26  47
BRANCH  38  55
ATOM     55  C   UNL A   1      45.529  30.109  29.440  1.00  0.00     0.057 A 
ATOM     56  C   UNL A   1      46.872  30.500  29.438  1.00  0.00     0.134 A 
ATOM     57  C   UNL A   1      44.636  30.892  28.694  1.00  0.00     0.134 A 
ATOM     58  F   UNL A   1      47.774  29.834  30.178  1.00  0.00    -0.206 F 
ATOM     59  C   UNL A   1      47.313  31.617  28.723  1.00  0.00     0.040 A 
ATOM     60  C   UNL A   1      45.071  31.992  27.948  1.00  0.00     0.040 A 
ATOM     61  F   UNL A   1      43.318  30.658  28.721  1.00  0.00    -0.206 F 
ATOM     62  C   UNL A   1      46.411  32.361  27.967  1.00  0.00     0.006 A 
ENDBRANCH  38  55
ENDBRANCH  12  13
ENDBRANCH   5   7
ENDBRANCH   2   3
ENDBRANCH   1   2
BRANCH   1  63
ATOM     63  C   UNL A   1      33.723  34.567  32.328  1.00  0.00     0.023 C 
BRANCH  63  64
ATOM     64  C   UNL A   1      34.437  33.389  32.979  1.00  0.00     0.116 C 
BRANCH  64  65
ATOM     65  N   UNL A   1      34.776  33.631  34.372  1.00  0.00    -0.351 N 
ATOM     66  C   UNL A   1      36.019  33.695  34.967  1.00  0.00     0.269 C 
ATOM     67  H   UNL A   1      34.010  33.767  34.976  1.00  0.00     0.163 HD
ATOM     68  O   UNL A   1      36.101  33.830  36.186  1.00  0.00    -0.268 OA
BRANCH  66  69
ATOM     69  C   UNL A   1      37.241  33.637  34.120  1.00  0.00     0.129 A 
ATOM     70  C   UNL A   1      38.370  33.006  34.584  1.00  0.00     0.039 A 
ATOM     71  N   UNL A   1      37.195  34.235  32.927  1.00  0.00    -0.243 NA
ATOM     72  C   UNL A   1      39.576  33.063  33.845  1.00  0.00    -0.021 A 
ATOM     73  C   UNL A   1      38.296  34.240  32.173  1.00  0.00     0.072 A 
ATOM     74  C   UNL A   1      39.572  33.699  32.537  1.00  0.00     0.012 A 
ATOM     75  C   UNL A   1      38.086  34.833  30.950  1.00  0.00     0.029 A 
ATOM     76  C   UNL A   1      40.644  33.847  31.526  1.00  0.00    -0.009 A 
ATOM     77  C   UNL A   1      39.090  34.953  30.007  1.00  0.00     0.011 A 
ATOM     78  C   UNL A   1      40.363  34.479  30.278  1.00  0.00    -0.018 A 
ATOM     79  C   UNL A   1      41.982  33.404  31.640  1.00  0.00     0.009 A 
ATOM     80  C   UNL A   1      41.338  34.643  29.279  1.00  0.00     0.009 A 
ATOM     81  C   UNL A   1      42.961  33.576  30.651  1.00  0.00     0.001 A 
ATOM     82  C   UNL A   1      42.638  34.198  29.464  1.00  0.00     0.001 A 
BRANCH  72  83
ATOM     83  C   UNL A   1      40.702  32.380  34.592  1.00  0.00     0.115 C 
ATOM     84  C   UNL A   1      40.366  31.316  35.570  1.00  0.00     0.123 C 
ATOM     85  C   UNL A   1      41.681  33.146  35.419  1.00  0.00     0.083 C 
ATOM     86  N   UNL A   1      41.111  31.361  36.627  1.00  0.00    -0.162 NA
ATOM     87  N   UNL A   1      41.959  32.523  36.530  1.00  0.00    -0.154 NA
BRANCH  85  88
ATOM     88  C   UNL A   1      42.395  34.349  34.950  1.00  0.00    -0.001 A 
ATOM     89  C   UNL A   1      43.725  34.204  34.537  1.00  0.00     0.013 A 
ATOM     90  C   UNL A   1      41.781  35.605  34.885  1.00  0.00     0.013 A 
ATOM     91  C   UNL A   1      44.422  35.303  34.029  1.00  0.00     0.040 A 
ATOM     92  C   UNL A   1      42.480  36.702  34.376  1.00  0.00     0.040 A 
ATOM     93  C   UNL A   1      43.791  36.539  33.947  1.00  0.00     0.123 A 
ATOM     94  F   UNL A   1      44.457  37.591  33.453  1.00  0.00    -0.207 F 
ENDBRANCH  85  88
ENDBRANCH  72  83
ENDBRANCH  66  69
ENDBRANCH  64  65
ENDBRANCH  63  64
ENDBRANCH   1  63
TORSDOF 13
ENDMDL
MODEL 3
REMARK VINA RESULT:     -13.3      3.466      8.359
REMARK SMILES O=C(NCCCCNC(=O)c1cc([C@@H]2C=NN=C2c2ccc(F)cc2)c2c(ccc3ccccc32)n1)c1ccc(-c2c3nc(c(-c4c(F)cccc4F)c4ccc([nH]4)c(-c4c(F)cccc4F)c4nc(c(-c5c(F)cccc5F)c5ccc2[nH]5)C=C4)C=C3)cc1
REMARK SMILES IDX 5 1 4 2 3 3 1 4 2 5 37 7 38 8 90 9 39 10 89 11 40 12 41 13
REMARK SMILES IDX 42 14 83 15 43 16 88 17 82 18 84 19 44 20 87 21 81 22 80 23
REMARK SMILES IDX 45 25 71 26 54 27 70 28 55 29 58 30 69 31 85 32 56 33 57 34
REMARK SMILES IDX 68 36 86 37 59 38 46 39 47 40 52 41 48 42 49 43 51 44 53 45
REMARK SMILES IDX 50 46 72 47 73 48 78 49 74 50 75 51 77 52 79 53 76 54 60 55
REMARK SMILES IDX 61 56 66 57 62 58 63 59 65 60 67 61 64 62 6 63 7 64 8 65
REMARK SMILES IDX 9 66 10 68 11 69 12 70 36 71 13 72 27 73 26 74 28 75 35 76
REMARK SMILES IDX 29 77 30 78 34 79 31 80 33 81 32 82 14 83 15 84 18 85 16 86
REMARK SMILES IDX 17 87 19 88 20 89 25 90 21 91 24 92 22 93 23 94
REMARK H PARENT 3 6 84 24 58 35 8 67
REMARK Flexibility Score: inf
ROOT
ATOM      1  C   UNL A   1      39.032  22.066  26.139  1.00  0.00     0.023 C 
ENDROOT
BRANCH   1   2
ATOM      2  C   UNL A   1      40.448  21.824  26.661  1.00  0.00     0.116 C 
BRANCH   2   3
ATOM      3  N   UNL A   1      41.512  22.209  25.755  1.00  0.00    -0.352 N 
ATOM      4  O   UNL A   1      43.168  23.264  24.741  1.00  0.00    -0.269 OA
ATOM      5  C   UNL A   1      42.268  23.336  25.580  1.00  0.00     0.251 C 
ATOM      6  H   UNL A   1      41.743  21.494  25.117  1.00  0.00     0.163 HD
BRANCH   5   7
ATOM      7  C   UNL A   1      42.046  24.629  26.283  1.00  0.00     0.039 A 
ATOM      8  C   UNL A   1      41.305  25.702  25.787  1.00  0.00     0.014 A 
ATOM      9  C   UNL A   1      42.632  24.752  27.556  1.00  0.00     0.014 A 
ATOM     10  C   UNL A   1      41.219  26.895  26.499  1.00  0.00     0.010 A 
ATOM     11  C   UNL A   1      42.523  25.932  28.288  1.00  0.00     0.010 A 
ATOM     12  C   UNL A   1      41.839  27.017  27.744  1.00  0.00    -0.014 A 
BRANCH  12  13
ATOM     13  C   UNL A   1      41.649  28.265  28.483  1.00  0.00     0.031 A 
ATOM     14  C   UNL A   1      42.647  29.351  28.235  1.00  0.00     0.074 A 
ATOM     15  C   UNL A   1      40.553  28.532  29.219  1.00  0.00     0.049 A 
ATOM     16  N   UNL A   1      43.358  30.015  29.092  1.00  0.00    -0.248 NA
ATOM     17  C   UNL A   1      42.893  29.730  26.834  1.00  0.00     0.031 C 
ATOM     18  C   UNL A   1      39.317  27.754  29.312  1.00  0.00     0.029 A 
ATOM     19  N   UNL A   1      40.281  29.645  29.959  1.00  0.00    -0.354 N 
ATOM     20  C   UNL A   1      44.041  30.989  28.362  1.00  0.00     0.074 A 
ATOM     21  C   UNL A   1      43.776  30.720  26.970  1.00  0.00     0.031 C 
ATOM     22  C   UNL A   1      38.359  28.517  29.883  1.00  0.00     0.029 A 
ATOM     23  C   UNL A   1      38.948  29.778  30.305  1.00  0.00     0.049 A 
ATOM     24  H   UNL A   1      40.971  30.296  30.224  1.00  0.00     0.167 HD
ATOM     25  C   UNL A   1      44.676  32.047  28.937  1.00  0.00     0.037 A 
ATOM     26  C   UNL A   1      38.356  30.877  30.829  1.00  0.00     0.037 A 
ATOM     27  C   UNL A   1      44.914  31.855  30.336  1.00  0.00     0.049 A 
ATOM     28  C   UNL A   1      39.410  31.743  31.405  1.00  0.00     0.074 A 
ATOM     29  C   UNL A   1      45.653  30.965  31.089  1.00  0.00     0.029 A 
ATOM     30  N   UNL A   1      44.115  32.520  31.230  1.00  0.00    -0.354 N 
ATOM     31  N   UNL A   1      40.103  31.467  32.473  1.00  0.00    -0.248 NA
ATOM     32  C   UNL A   1      39.945  32.815  30.577  1.00  0.00     0.031 C 
ATOM     33  C   UNL A   1      44.922  30.807  32.302  1.00  0.00     0.029 A 
ATOM     34  C   UNL A   1      43.789  31.617  32.208  1.00  0.00     0.049 A 
ATOM     35  H   UNL A   1      43.832  33.462  31.180  1.00  0.00     0.167 HD
ATOM     36  C   UNL A   1      41.347  32.034  32.247  1.00  0.00     0.074 A 
ATOM     37  C   UNL A   1      41.150  32.952  31.132  1.00  0.00     0.031 C 
ATOM     38  C   UNL A   1      42.478  31.507  32.801  1.00  0.00     0.037 A 
BRANCH  25  39
ATOM     39  C   UNL A   1      44.867  33.383  28.274  1.00  0.00     0.057 A 
ATOM     40  C   UNL A   1      46.032  33.726  27.562  1.00  0.00     0.134 A 
ATOM     41  C   UNL A   1      43.778  34.256  28.106  1.00  0.00     0.134 A 
ATOM     42  F   UNL A   1      47.104  32.922  27.540  1.00  0.00    -0.206 F 
ATOM     43  C   UNL A   1      46.120  34.868  26.759  1.00  0.00     0.040 A 
ATOM     44  C   UNL A   1      43.838  35.377  27.268  1.00  0.00     0.040 A 
ATOM     45  F   UNL A   1      42.601  34.011  28.700  1.00  0.00    -0.206 F 
ATOM     46  C   UNL A   1      45.013  35.687  26.592  1.00  0.00     0.006 A 
ENDBRANCH  25  39
BRANCH  26  47
ATOM     47  C   UNL A   1      36.973  31.362  30.622  1.00  0.00     0.057 A 
ATOM     48  C   UNL A   1      36.544  31.857  29.378  1.00  0.00     0.134 A 
ATOM     49  C   UNL A   1      36.119  31.599  31.708  1.00  0.00     0.134 A 
ATOM     50  F   UNL A   1      37.317  31.760  28.287  1.00  0.00    -0.206 F 
ATOM     51  C   UNL A   1      35.343  32.556  29.223  1.00  0.00     0.040 A 
ATOM     52  C   UNL A   1      34.920  32.310  31.570  1.00  0.00     0.040 A 
ATOM     53  F   UNL A   1      36.461  31.203  32.942  1.00  0.00    -0.206 F 
ATOM     54  C   UNL A   1      34.534  32.799  30.326  1.00  0.00     0.006 A 
ENDBRANCH  26  47
BRANCH  38  55
ATOM     55  C   UNL A   1      42.321  30.495  33.899  1.00  0.00     0.057 A 
ATOM     56  C   UNL A   1      42.077  29.160  33.560  1.00  0.00     0.134 A 
ATOM     57  C   UNL A   1      42.239  30.832  35.258  1.00  0.00     0.134 A 
ATOM     58  F   UNL A   1      42.079  28.777  32.272  1.00  0.00    -0.206 F 
ATOM     59  C   UNL A   1      41.771  28.198  34.526  1.00  0.00     0.040 A 
ATOM     60  C   UNL A   1      41.966  29.872  36.238  1.00  0.00     0.040 A 
ATOM     61  F   UNL A   1      42.352  32.103  35.667  1.00  0.00    -0.206 F 
ATOM     62  C   UNL A   1      41.724  28.553  35.871  1.00  0.00     0.006 A 
ENDBRANCH  38  55
ENDBRANCH  12  13
ENDBRANCH   5   7
ENDBRANCH   2   3
ENDBRANCH   1   2
BRANCH   1  63
ATOM     63  C   UNL A   1      38.414  23.412  26.520  1.00  0.00     0.023 C 
BRANCH  63  64
ATOM     64  C   UNL A   1      37.346  23.934  25.569  1.00  0.00     0.116 C 
BRANCH  64  65
ATOM     65  N   UNL A   1      37.417  23.327  24.249  1.00  0.00    -0.351 N 
ATOM     66  C   UNL A   1      36.427  23.199  23.297  1.00  0.00     0.269 C 
ATOM     67  H   UNL A   1      38.293  22.956  24.000  1.00  0.00     0.163 HD
ATOM     68  O   UNL A   1      36.658  22.577  22.262  1.00  0.00    -0.268 OA
BRANCH  66  69
ATOM     69  C   UNL A   1      35.105  23.846  23.520  1.00  0.00     0.129 A 
ATOM     70  C   UNL A   1      34.267  23.379  24.503  1.00  0.00     0.039 A 
ATOM     71  N   UNL A   1      34.772  24.862  22.720  1.00  0.00    -0.243 NA
ATOM     72  C   UNL A   1      32.957  23.898  24.634  1.00  0.00    -0.021 A 
ATOM     73  C   UNL A   1      33.571  25.423  22.868  1.00  0.00     0.072 A 
ATOM     74  C   UNL A   1      32.552  25.009  23.788  1.00  0.00     0.012 A 
ATOM     75  C   UNL A   1      33.389  26.493  22.024  1.00  0.00     0.029 A 
ATOM     76  C   UNL A   1      31.294  25.789  23.745  1.00  0.00    -0.009 A 
ATOM     77  C   UNL A   1      32.215  27.225  22.003  1.00  0.00     0.011 A 
ATOM     78  C   UNL A   1      31.166  26.885  22.840  1.00  0.00    -0.018 A 
ATOM     79  C   UNL A   1      30.143  25.584  24.541  1.00  0.00     0.009 A 
ATOM     80  C   UNL A   1      29.998  27.663  22.759  1.00  0.00     0.009 A 
ATOM     81  C   UNL A   1      28.973  26.351  24.455  1.00  0.00     0.001 A 
ATOM     82  C   UNL A   1      28.899  27.396  23.560  1.00  0.00     0.001 A 
BRANCH  72  83
ATOM     83  C   UNL A   1      32.192  23.170  25.719  1.00  0.00     0.115 C 
ATOM     84  C   UNL A   1      32.227  23.711  27.100  1.00  0.00     0.123 C 
ATOM     85  C   UNL A   1      32.439  21.731  26.032  1.00  0.00     0.083 C 
ATOM     86  N   UNL A   1      32.294  22.778  27.994  1.00  0.00    -0.162 NA
ATOM     87  N   UNL A   1      32.420  21.512  27.317  1.00  0.00    -0.154 NA
BRANCH  85  88
ATOM     88  C   UNL A   1      32.495  20.664  25.015  1.00  0.00    -0.001 A 
ATOM     89  C   UNL A   1      32.893  19.385  25.427  1.00  0.00     0.013 A 
ATOM     90  C   UNL A   1      32.147  20.885  23.678  1.00  0.00     0.013 A 
ATOM     91  C   UNL A   1      32.904  18.330  24.513  1.00  0.00     0.040 A 
ATOM     92  C   UNL A   1      32.159  19.827  22.766  1.00  0.00     0.040 A 
ATOM     93  C   UNL A   1      32.530  18.559  23.193  1.00  0.00     0.123 A 
ATOM     94  F   UNL A   1      32.534  17.545  22.318  1.00  0.00    -0.207 F 
ENDBRANCH  85  88
ENDBRANCH  72  83
ENDBRANCH  66  69
ENDBRANCH  64  65
ENDBRANCH  63  64
ENDBRANCH   1  63
TORSDOF 13
ENDMDL
