MODEL 1
REMARK VINA RESULT:     -12.8      0.000      0.000
REMARK SMILES O=C(NCCCCNC(=O)[C@H]1CCCN(C(=O)C2CCN(S(=O)(=O)c3ccccc3)CC2)C1)c1ccc(-c2c3nc(c(-c4c(F)cccc4F)c4ccc([nH]4)c(-c4c(F)cccc4F)c4nc(c(-c5c(F)cccc5F)c5ccc2[nH]5)C=C4)C=C3)cc1
REMARK SMILES IDX 6 1 5 2 4 3 3 4 1 5 2 6 34 8 35 9 87 10 36 11 86 12 37 13
REMARK SMILES IDX 38 14 39 15 80 16 40 17 85 18 79 19 81 20 41 21 84 22 78 23
REMARK SMILES IDX 77 24 42 26 68 27 51 28 67 29 52 30 55 31 66 32 82 33 53 34
REMARK SMILES IDX 54 35 65 37 83 38 56 39 43 40 44 41 49 42 45 43 46 44 48 45
REMARK SMILES IDX 50 46 47 47 69 48 70 49 75 50 71 51 72 52 74 53 76 54 73 55
REMARK SMILES IDX 57 56 58 57 63 58 59 59 60 60 62 61 64 62 61 63 7 64 8 65
REMARK SMILES IDX 9 66 10 68 11 69 12 70 33 71 13 72 15 73 14 74 16 75 17 76
REMARK SMILES IDX 18 77 19 78 32 79 20 80 31 81 21 82 22 83 23 84 24 85 25 86
REMARK SMILES IDX 26 87 30 88 27 89 29 90 28 91
REMARK H PARENT 3 7 81 25 55 36 8 67
REMARK Flexibility Score: inf
ROOT
ATOM      1  C   UNL A   1      32.058  30.237  26.843  1.00  0.00     0.023 C 
ENDROOT
BRANCH   1   2
ATOM      2  C   UNL A   1      31.733  31.722  26.811  1.00  0.00     0.023 C 
BRANCH   2   3
ATOM      3  C   UNL A   1      32.832  32.640  27.314  1.00  0.00     0.116 C 
BRANCH   3   4
ATOM      4  N   UNL A   1      32.388  33.986  27.643  1.00  0.00    -0.352 N 
ATOM      5  O   UNL A   1      32.467  35.959  28.758  1.00  0.00    -0.269 OA
ATOM      6  C   UNL A   1      32.973  34.869  28.522  1.00  0.00     0.251 C 
ATOM      7  H   UNL A   1      31.575  34.301  27.185  1.00  0.00     0.163 HD
BRANCH   6   8
ATOM      8  C   UNL A   1      34.202  34.447  29.222  1.00  0.00     0.039 A 
ATOM      9  C   UNL A   1      35.454  34.679  28.648  1.00  0.00     0.014 A 
ATOM     10  C   UNL A   1      34.084  33.732  30.415  1.00  0.00     0.014 A 
ATOM     11  C   UNL A   1      36.579  34.069  29.187  1.00  0.00     0.010 A 
ATOM     12  C   UNL A   1      35.225  33.184  30.999  1.00  0.00     0.010 A 
ATOM     13  C   UNL A   1      36.472  33.318  30.368  1.00  0.00    -0.014 A 
BRANCH  13  14
ATOM     14  C   UNL A   1      37.681  32.706  30.965  1.00  0.00     0.031 A 
ATOM     15  C   UNL A   1      38.353  31.536  30.309  1.00  0.00     0.074 A 
ATOM     16  C   UNL A   1      38.152  33.206  32.120  1.00  0.00     0.049 A 
ATOM     17  N   UNL A   1      39.350  30.809  30.744  1.00  0.00    -0.248 NA
ATOM     18  C   UNL A   1      37.833  31.122  28.997  1.00  0.00     0.031 C 
ATOM     19  C   UNL A   1      37.580  34.347  32.839  1.00  0.00     0.029 A 
ATOM     20  N   UNL A   1      39.209  32.815  32.899  1.00  0.00    -0.354 N 
ATOM     21  C   UNL A   1      39.558  29.833  29.779  1.00  0.00     0.074 A 
ATOM     22  C   UNL A   1      38.576  30.054  28.737  1.00  0.00     0.031 C 
ATOM     23  C   UNL A   1      38.297  34.569  33.949  1.00  0.00     0.029 A 
ATOM     24  C   UNL A   1      39.335  33.550  34.052  1.00  0.00     0.049 A 
ATOM     25  H   UNL A   1      39.818  32.081  32.656  1.00  0.00     0.167 HD
ATOM     26  C   UNL A   1      40.482  28.843  29.769  1.00  0.00     0.037 A 
ATOM     27  C   UNL A   1      40.167  33.396  35.095  1.00  0.00     0.037 A 
ATOM     28  C   UNL A   1      41.465  28.646  30.804  1.00  0.00     0.049 A 
ATOM     29  C   UNL A   1      41.166  32.280  35.074  1.00  0.00     0.074 A 
ATOM     30  C   UNL A   1      42.470  27.697  30.870  1.00  0.00     0.029 A 
ATOM     31  N   UNL A   1      41.561  29.412  31.957  1.00  0.00    -0.354 N 
ATOM     32  N   UNL A   1      41.360  31.370  34.151  1.00  0.00    -0.248 NA
ATOM     33  C   UNL A   1      42.054  32.163  36.238  1.00  0.00     0.031 C 
ATOM     34  C   UNL A   1      43.151  27.867  32.081  1.00  0.00     0.029 A 
ATOM     35  C   UNL A   1      42.595  28.946  32.751  1.00  0.00     0.049 A 
ATOM     36  H   UNL A   1      40.979  30.175  32.178  1.00  0.00     0.167 HD
ATOM     37  C   UNL A   1      42.404  30.581  34.612  1.00  0.00     0.074 A 
ATOM     38  C   UNL A   1      42.805  31.125  35.894  1.00  0.00     0.031 C 
ATOM     39  C   UNL A   1      42.979  29.505  34.022  1.00  0.00     0.037 A 
BRANCH  26  40
ATOM     40  C   UNL A   1      40.453  27.880  28.619  1.00  0.00     0.057 A 
ATOM     41  C   UNL A   1      41.162  28.112  27.435  1.00  0.00     0.134 A 
ATOM     42  C   UNL A   1      39.720  26.688  28.710  1.00  0.00     0.134 A 
ATOM     43  F   UNL A   1      41.873  29.240  27.279  1.00  0.00    -0.206 F 
ATOM     44  C   UNL A   1      41.128  27.206  26.373  1.00  0.00     0.040 A 
ATOM     45  C   UNL A   1      39.696  25.764  27.663  1.00  0.00     0.040 A 
ATOM     46  F   UNL A   1      39.022  26.401  29.818  1.00  0.00    -0.206 F 
ATOM     47  C   UNL A   1      40.395  26.026  26.488  1.00  0.00     0.006 A 
ENDBRANCH  26  40
BRANCH  27  48
ATOM     48  C   UNL A   1      40.058  34.326  36.243  1.00  0.00     0.057 A 
ATOM     49  C   UNL A   1      40.741  35.545  36.253  1.00  0.00     0.134 A 
ATOM     50  C   UNL A   1      39.209  34.049  37.321  1.00  0.00     0.134 A 
ATOM     51  F   UNL A   1      41.576  35.858  35.251  1.00  0.00    -0.206 F 
ATOM     52  C   UNL A   1      40.582  36.460  37.294  1.00  0.00     0.040 A 
ATOM     53  C   UNL A   1      39.022  34.963  38.357  1.00  0.00     0.040 A 
ATOM     54  F   UNL A   1      38.515  32.901  37.360  1.00  0.00    -0.206 F 
ATOM     55  C   UNL A   1      39.712  36.174  38.345  1.00  0.00     0.006 A 
ENDBRANCH  27  48
BRANCH  39  56
ATOM     56  C   UNL A   1      44.124  28.864  34.745  1.00  0.00     0.057 A 
ATOM     57  C   UNL A   1      45.442  29.299  34.570  1.00  0.00     0.134 A 
ATOM     58  C   UNL A   1      43.893  27.833  35.665  1.00  0.00     0.134 A 
ATOM     59  F   UNL A   1      45.725  30.272  33.692  1.00  0.00    -0.206 F 
ATOM     60  C   UNL A   1      46.497  28.722  35.278  1.00  0.00     0.040 A 
ATOM     61  C   UNL A   1      44.937  27.262  36.392  1.00  0.00     0.040 A 
ATOM     62  F   UNL A   1      42.651  27.378  35.880  1.00  0.00    -0.206 F 
ATOM     63  C   UNL A   1      46.245  27.706  36.198  1.00  0.00     0.006 A 
ENDBRANCH  39  56
ENDBRANCH  13  14
ENDBRANCH   6   8
ENDBRANCH   3   4
ENDBRANCH   2   3
ENDBRANCH   1   2
BRANCH   1  64
ATOM     64  C   UNL A   1      33.337  29.785  26.111  1.00  0.00     0.116 C 
BRANCH  64  65
ATOM     65  N   UNL A   1      33.157  29.631  24.673  1.00  0.00    -0.356 N 
ATOM     66  C   UNL A   1      32.235  28.991  23.899  1.00  0.00     0.224 C 
ATOM     67  H   UNL A   1      33.854  30.086  24.147  1.00  0.00     0.163 HD
ATOM     68  O   UNL A   1      32.325  29.193  22.681  1.00  0.00    -0.275 OA
BRANCH  66  69
ATOM     69  C   UNL A   1      31.101  28.096  24.423  1.00  0.00     0.098 C 
ATOM     70  C   UNL A   1      29.817  28.156  23.590  1.00  0.00     0.017 C 
ATOM     71  C   UNL A   1      31.628  26.675  24.764  1.00  0.00     0.133 C 
ATOM     72  C   UNL A   1      28.894  26.979  23.748  1.00  0.00     0.022 C 
ATOM     73  N   UNL A   1      30.555  25.661  24.799  1.00  0.00    -0.342 N 
ATOM     74  C   UNL A   1      29.724  25.718  23.640  1.00  0.00     0.119 C 
BRANCH  73  75
ATOM     75  C   UNL A   1      30.298  24.869  25.903  1.00  0.00     0.225 C 
ATOM     76  O   UNL A   1      29.427  25.219  26.712  1.00  0.00    -0.275 OA
BRANCH  75  77
ATOM     77  C   UNL A   1      31.058  23.525  26.200  1.00  0.00     0.081 C 
ATOM     78  C   UNL A   1      32.305  23.573  27.071  1.00  0.00     0.030 C 
ATOM     79  C   UNL A   1      31.228  22.482  25.104  1.00  0.00     0.030 C 
ATOM     80  C   UNL A   1      33.650  23.601  26.360  1.00  0.00     0.103 C 
ATOM     81  C   UNL A   1      32.545  22.471  24.340  1.00  0.00     0.103 C 
ATOM     82  N   UNL A   1      33.782  22.805  25.087  1.00  0.00    -0.198 NA
BRANCH  82  83
ATOM     83  S   UNL A   1      35.093  23.486  24.133  1.00  0.00     0.243 S 
ATOM     84  O   UNL A   1      34.901  23.061  22.761  1.00  0.00    -0.207 OA
ATOM     85  O   UNL A   1      35.129  24.901  24.447  1.00  0.00    -0.207 OA
BRANCH  83  86
ATOM     86  C   UNL A   1      36.645  22.763  24.635  1.00  0.00     0.082 A 
ATOM     87  C   UNL A   1      36.884  21.411  24.379  1.00  0.00     0.022 A 
ATOM     88  C   UNL A   1      37.473  23.447  25.537  1.00  0.00     0.022 A 
ATOM     89  C   UNL A   1      37.960  20.766  24.998  1.00  0.00     0.001 A 
ATOM     90  C   UNL A   1      38.564  22.810  26.128  1.00  0.00     0.001 A 
ATOM     91  C   UNL A   1      38.802  21.467  25.862  1.00  0.00     0.000 A 
ENDBRANCH  83  86
ENDBRANCH  82  83
ENDBRANCH  75  77
ENDBRANCH  73  75
ENDBRANCH  66  69
ENDBRANCH  64  65
ENDBRANCH   1  64
TORSDOF 15
ENDMDL
MODEL 2
REMARK VINA RESULT:     -12.7      1.834      2.665
REMARK SMILES O=C(NCCCCNC(=O)[C@H]1CCCN(C(=O)C2CCN(S(=O)(=O)c3ccccc3)CC2)C1)c1ccc(-c2c3nc(c(-c4c(F)cccc4F)c4ccc([nH]4)c(-c4c(F)cccc4F)c4nc(c(-c5c(F)cccc5F)c5ccc2[nH]5)C=C4)C=C3)cc1
REMARK SMILES IDX 6 1 5 2 4 3 3 4 1 5 2 6 34 8 35 9 87 10 36 11 86 12 37 13
REMARK SMILES IDX 38 14 39 15 80 16 40 17 85 18 79 19 81 20 41 21 84 22 78 23
REMARK SMILES IDX 77 24 42 26 68 27 51 28 67 29 52 30 55 31 66 32 82 33 53 34
REMARK SMILES IDX 54 35 65 37 83 38 56 39 43 40 44 41 49 42 45 43 46 44 48 45
REMARK SMILES IDX 50 46 47 47 69 48 70 49 75 50 71 51 72 52 74 53 76 54 73 55
REMARK SMILES IDX 57 56 58 57 63 58 59 59 60 60 62 61 64 62 61 63 7 64 8 65
REMARK SMILES IDX 9 66 10 68 11 69 12 70 33 71 13 72 15 73 14 74 16 75 17 76
REMARK SMILES IDX 18 77 19 78 32 79 20 80 31 81 21 82 22 83 23 84 24 85 25 86
REMARK SMILES IDX 26 87 30 88 27 89 29 90 28 91
REMARK H PARENT 3 7 81 25 55 36 8 67
REMARK Flexibility Score: inf
ROOT
ATOM      1  C   UNL A   1      31.079  30.939  25.297  1.00  0.00     0.023 C 
ENDROOT
BRANCH   1   2
ATOM      2  C   UNL A   1      31.033  31.868  26.500  1.00  0.00     0.023 C 
BRANCH   2   3
ATOM      3  C   UNL A   1      32.343  32.554  26.843  1.00  0.00     0.116 C 
BRANCH   3   4
ATOM      4  N   UNL A   1      32.193  33.874  27.437  1.00  0.00    -0.352 N 
ATOM      5  O   UNL A   1      32.743  35.569  28.840  1.00  0.00    -0.269 OA
ATOM      6  C   UNL A   1      33.010  34.469  28.371  1.00  0.00     0.251 C 
ATOM      7  H   UNL A   1      31.417  34.402  27.137  1.00  0.00     0.163 HD
BRANCH   6   8
ATOM      8  C   UNL A   1      34.194  33.724  28.839  1.00  0.00     0.039 A 
ATOM      9  C   UNL A   1      34.041  32.584  29.632  1.00  0.00     0.014 A 
ATOM     10  C   UNL A   1      35.464  34.231  28.554  1.00  0.00     0.014 A 
ATOM     11  C   UNL A   1      35.149  32.035  30.266  1.00  0.00     0.010 A 
ATOM     12  C   UNL A   1      36.584  33.632  29.130  1.00  0.00     0.010 A 
ATOM     13  C   UNL A   1      36.428  32.555  30.017  1.00  0.00    -0.014 A 
BRANCH  13  14
ATOM     14  C   UNL A   1      37.612  31.940  30.659  1.00  0.00     0.031 A 
ATOM     15  C   UNL A   1      38.414  30.892  29.947  1.00  0.00     0.074 A 
ATOM     16  C   UNL A   1      37.941  32.323  31.906  1.00  0.00     0.049 A 
ATOM     17  N   UNL A   1      39.410  30.171  30.395  1.00  0.00    -0.248 NA
ATOM     18  C   UNL A   1      38.047  30.611  28.551  1.00  0.00     0.031 C 
ATOM     19  C   UNL A   1      37.233  33.340  32.688  1.00  0.00     0.029 A 
ATOM     20  N   UNL A   1      38.943  31.898  32.737  1.00  0.00    -0.354 N 
ATOM     21  C   UNL A   1      39.768  29.328  29.351  1.00  0.00     0.074 A 
ATOM     22  C   UNL A   1      38.877  29.621  28.247  1.00  0.00     0.031 C 
ATOM     23  C   UNL A   1      37.827  33.465  33.882  1.00  0.00     0.029 A 
ATOM     24  C   UNL A   1      38.913  32.496  33.972  1.00  0.00     0.049 A 
ATOM     25  H   UNL A   1      39.617  31.230  32.475  1.00  0.00     0.167 HD
ATOM     26  C   UNL A   1      40.750  28.396  29.322  1.00  0.00     0.037 A 
ATOM     27  C   UNL A   1      39.652  32.263  35.070  1.00  0.00     0.037 A 
ATOM     28  C   UNL A   1      41.642  28.129  30.422  1.00  0.00     0.049 A 
ATOM     29  C   UNL A   1      40.717  31.210  35.023  1.00  0.00     0.074 A 
ATOM     30  C   UNL A   1      42.695  27.231  30.481  1.00  0.00     0.029 A 
ATOM     31  N   UNL A   1      41.581  28.757  31.657  1.00  0.00    -0.354 N 
ATOM     32  N   UNL A   1      41.054  30.427  34.027  1.00  0.00    -0.248 NA
ATOM     33  C   UNL A   1      41.498  31.003  36.249  1.00  0.00     0.031 C 
ATOM     34  C   UNL A   1      43.247  27.291  31.765  1.00  0.00     0.029 A 
ATOM     35  C   UNL A   1      42.564  28.253  32.493  1.00  0.00     0.049 A 
ATOM     36  H   UNL A   1      40.934  29.456  31.904  1.00  0.00     0.167 HD
ATOM     37  C   UNL A   1      42.097  29.644  34.498  1.00  0.00     0.074 A 
ATOM     38  C   UNL A   1      42.341  30.052  35.867  1.00  0.00     0.031 C 
ATOM     39  C   UNL A   1      42.792  28.677  33.851  1.00  0.00     0.037 A 
BRANCH  26  40
ATOM     40  C   UNL A   1      40.889  27.575  28.073  1.00  0.00     0.057 A 
ATOM     41  C   UNL A   1      41.703  27.975  27.007  1.00  0.00     0.134 A 
ATOM     42  C   UNL A   1      40.215  26.353  27.949  1.00  0.00     0.134 A 
ATOM     43  F   UNL A   1      42.366  29.141  27.057  1.00  0.00    -0.206 F 
ATOM     44  C   UNL A   1      41.825  27.200  25.851  1.00  0.00     0.040 A 
ATOM     45  C   UNL A   1      40.346  25.560  26.808  1.00  0.00     0.040 A 
ATOM     46  F   UNL A   1      39.423  25.908  28.935  1.00  0.00    -0.206 F 
ATOM     47  C   UNL A   1      41.147  25.986  25.751  1.00  0.00     0.006 A 
ENDBRANCH  26  40
BRANCH  27  48
ATOM     48  C   UNL A   1      39.378  33.043  36.299  1.00  0.00     0.057 A 
ATOM     49  C   UNL A   1      38.496  32.569  37.273  1.00  0.00     0.134 A 
ATOM     50  C   UNL A   1      40.050  34.244  36.560  1.00  0.00     0.134 A 
ATOM     51  F   UNL A   1      37.817  31.430  37.072  1.00  0.00    -0.206 F 
ATOM     52  C   UNL A   1      38.292  33.259  38.469  1.00  0.00     0.040 A 
ATOM     53  C   UNL A   1      39.873  34.932  37.759  1.00  0.00     0.040 A 
ATOM     54  F   UNL A   1      40.920  34.741  35.668  1.00  0.00    -0.206 F 
ATOM     55  C   UNL A   1      38.990  34.440  38.718  1.00  0.00     0.006 A 
ENDBRANCH  27  48
BRANCH  39  56
ATOM     56  C   UNL A   1      43.902  28.015  34.609  1.00  0.00     0.057 A 
ATOM     57  C   UNL A   1      45.191  28.555  34.648  1.00  0.00     0.134 A 
ATOM     58  C   UNL A   1      43.659  26.849  35.347  1.00  0.00     0.134 A 
ATOM     59  F   UNL A   1      45.486  29.662  33.949  1.00  0.00    -0.206 F 
ATOM     60  C   UNL A   1      46.209  27.953  35.389  1.00  0.00     0.040 A 
ATOM     61  C   UNL A   1      44.663  26.249  36.106  1.00  0.00     0.040 A 
ATOM     62  F   UNL A   1      42.442  26.287  35.353  1.00  0.00    -0.206 F 
ATOM     63  C   UNL A   1      45.944  26.800  36.127  1.00  0.00     0.006 A 
ENDBRANCH  39  56
ENDBRANCH  13  14
ENDBRANCH   6   8
ENDBRANCH   3   4
ENDBRANCH   2   3
ENDBRANCH   1   2
BRANCH   1  64
ATOM     64  C   UNL A   1      29.842  30.923  24.378  1.00  0.00     0.116 C 
BRANCH  64  65
ATOM     65  N   UNL A   1      30.014  30.095  23.191  1.00  0.00    -0.356 N 
ATOM     66  C   UNL A   1      30.401  28.803  22.987  1.00  0.00     0.224 C 
ATOM     67  H   UNL A   1      29.808  30.573  22.355  1.00  0.00     0.163 HD
ATOM     68  O   UNL A   1      30.300  28.391  21.825  1.00  0.00    -0.275 OA
BRANCH  66  69
ATOM     69  C   UNL A   1      30.902  27.843  24.076  1.00  0.00     0.098 C 
ATOM     70  C   UNL A   1      29.909  26.735  24.442  1.00  0.00     0.017 C 
ATOM     71  C   UNL A   1      32.359  27.386  23.788  1.00  0.00     0.133 C 
ATOM     72  C   UNL A   1      30.513  25.524  25.102  1.00  0.00     0.022 C 
ATOM     73  N   UNL A   1      32.715  26.136  24.488  1.00  0.00    -0.342 N 
ATOM     74  C   UNL A   1      31.732  25.118  24.303  1.00  0.00     0.119 C 
BRANCH  73  75
ATOM     75  C   UNL A   1      33.791  26.031  25.351  1.00  0.00     0.225 C 
ATOM     76  O   UNL A   1      34.029  26.956  26.139  1.00  0.00    -0.275 OA
BRANCH  75  77
ATOM     77  C   UNL A   1      34.748  24.784  25.393  1.00  0.00     0.081 C 
ATOM     78  C   UNL A   1      35.111  24.103  24.082  1.00  0.00     0.030 C 
ATOM     79  C   UNL A   1      34.608  23.746  26.498  1.00  0.00     0.030 C 
ATOM     80  C   UNL A   1      34.318  22.861  23.701  1.00  0.00     0.103 C 
ATOM     81  C   UNL A   1      33.808  22.489  26.186  1.00  0.00     0.103 C 
ATOM     82  N   UNL A   1      33.894  21.937  24.813  1.00  0.00    -0.198 NA
BRANCH  82  83
ATOM     83  S   UNL A   1      32.501  21.010  24.270  1.00  0.00     0.243 S 
ATOM     84  O   UNL A   1      31.542  20.988  25.357  1.00  0.00    -0.207 OA
ATOM     85  O   UNL A   1      32.118  21.568  22.988  1.00  0.00    -0.207 OA
BRANCH  83  86
ATOM     86  C   UNL A   1      32.966  19.307  24.021  1.00  0.00     0.082 A 
ATOM     87  C   UNL A   1      34.117  18.815  24.641  1.00  0.00     0.022 A 
ATOM     88  C   UNL A   1      32.375  18.567  22.987  1.00  0.00     0.022 A 
ATOM     89  C   UNL A   1      34.646  17.581  24.247  1.00  0.00     0.001 A 
ATOM     90  C   UNL A   1      32.886  17.322  22.618  1.00  0.00     0.001 A 
ATOM     91  C   UNL A   1      34.026  16.834  23.244  1.00  0.00     0.000 A 
ENDBRANCH  83  86
ENDBRANCH  82  83
ENDBRANCH  75  77
ENDBRANCH  73  75
ENDBRANCH  66  69
ENDBRANCH  64  65
ENDBRANCH   1  64
TORSDOF 15
ENDMDL
MODEL 3
REMARK VINA RESULT:     -12.6      0.905      6.039
REMARK SMILES O=C(NCCCCNC(=O)[C@H]1CCCN(C(=O)C2CCN(S(=O)(=O)c3ccccc3)CC2)C1)c1ccc(-c2c3nc(c(-c4c(F)cccc4F)c4ccc([nH]4)c(-c4c(F)cccc4F)c4nc(c(-c5c(F)cccc5F)c5ccc2[nH]5)C=C4)C=C3)cc1
REMARK SMILES IDX 6 1 5 2 4 3 3 4 1 5 2 6 34 8 35 9 87 10 36 11 86 12 37 13
REMARK SMILES IDX 38 14 39 15 80 16 40 17 85 18 79 19 81 20 41 21 84 22 78 23
REMARK SMILES IDX 77 24 42 26 68 27 51 28 67 29 52 30 55 31 66 32 82 33 53 34
REMARK SMILES IDX 54 35 65 37 83 38 56 39 43 40 44 41 49 42 45 43 46 44 48 45
REMARK SMILES IDX 50 46 47 47 69 48 70 49 75 50 71 51 72 52 74 53 76 54 73 55
REMARK SMILES IDX 57 56 58 57 63 58 59 59 60 60 62 61 64 62 61 63 7 64 8 65
REMARK SMILES IDX 9 66 10 68 11 69 12 70 33 71 13 72 15 73 14 74 16 75 17 76
REMARK SMILES IDX 18 77 19 78 32 79 20 80 31 81 21 82 22 83 23 84 24 85 25 86
REMARK SMILES IDX 26 87 30 88 27 89 29 90 28 91
REMARK H PARENT 3 7 81 25 55 36 8 67
REMARK Flexibility Score: inf
ROOT
ATOM      1  C   UNL A   1      31.807  30.523  26.615  1.00  0.00     0.023 C 
ENDROOT
BRANCH   1   2
ATOM      2  C   UNL A   1      31.607  32.031  26.627  1.00  0.00     0.023 C 
BRANCH   2   3
ATOM      3  C   UNL A   1      32.728  32.830  27.265  1.00  0.00     0.116 C 
BRANCH   3   4
ATOM      4  N   UNL A   1      32.365  34.193  27.626  1.00  0.00    -0.352 N 
ATOM      5  O   UNL A   1      32.531  36.115  28.818  1.00  0.00    -0.269 OA
ATOM      6  C   UNL A   1      32.969  35.000  28.562  1.00  0.00     0.251 C 
ATOM      7  H   UNL A   1      31.599  34.582  27.144  1.00  0.00     0.163 HD
BRANCH   6   8
ATOM      8  C   UNL A   1      34.131  34.466  29.299  1.00  0.00     0.039 A 
ATOM      9  C   UNL A   1      35.417  34.578  28.763  1.00  0.00     0.014 A 
ATOM     10  C   UNL A   1      33.911  33.769  30.488  1.00  0.00     0.014 A 
ATOM     11  C   UNL A   1      36.463  33.865  29.336  1.00  0.00     0.010 A 
ATOM     12  C   UNL A   1      34.978  33.118  31.106  1.00  0.00     0.010 A 
ATOM     13  C   UNL A   1      36.250  33.132  30.513  1.00  0.00    -0.014 A 
BRANCH  13  14
ATOM     14  C   UNL A   1      37.377  32.410  31.145  1.00  0.00     0.031 A 
ATOM     15  C   UNL A   1      37.968  32.891  32.438  1.00  0.00     0.074 A 
ATOM     16  C   UNL A   1      37.877  31.326  30.526  1.00  0.00     0.049 A 
ATOM     17  N   UNL A   1      39.022  32.449  33.076  1.00  0.00    -0.248 NA
ATOM     18  C   UNL A   1      37.293  34.019  33.096  1.00  0.00     0.031 C 
ATOM     19  C   UNL A   1      37.373  30.768  29.269  1.00  0.00     0.029 A 
ATOM     20  N   UNL A   1      38.924  30.509  30.861  1.00  0.00    -0.354 N 
ATOM     21  C   UNL A   1      39.157  33.264  34.193  1.00  0.00     0.074 A 
ATOM     22  C   UNL A   1      38.082  34.233  34.141  1.00  0.00     0.031 C 
ATOM     23  C   UNL A   1      38.106  29.695  28.942  1.00  0.00     0.029 A 
ATOM     24  C   UNL A   1      39.166  29.530  29.929  1.00  0.00     0.049 A 
ATOM     25  H   UNL A   1      39.449  30.612  31.686  1.00  0.00     0.167 HD
ATOM     26  C   UNL A   1      40.096  33.205  35.167  1.00  0.00     0.037 A 
ATOM     27  C   UNL A   1      40.156  28.624  29.856  1.00  0.00     0.037 A 
ATOM     28  C   UNL A   1      41.149  32.223  35.215  1.00  0.00     0.049 A 
ATOM     29  C   UNL A   1      41.198  28.593  30.932  1.00  0.00     0.074 A 
ATOM     30  C   UNL A   1      42.128  32.054  36.179  1.00  0.00     0.029 A 
ATOM     31  N   UNL A   1      41.362  31.247  34.253  1.00  0.00    -0.354 N 
ATOM     32  N   UNL A   1      41.310  29.360  31.989  1.00  0.00    -0.248 NA
ATOM     33  C   UNL A   1      42.252  27.579  30.804  1.00  0.00     0.031 C 
ATOM     34  C   UNL A   1      42.954  30.997  35.781  1.00  0.00     0.029 A 
ATOM     35  C   UNL A   1      42.467  30.483  34.589  1.00  0.00     0.049 A 
ATOM     36  H   UNL A   1      40.808  31.116  33.449  1.00  0.00     0.167 HD
ATOM     37  C   UNL A   1      42.436  28.913  32.663  1.00  0.00     0.074 A 
ATOM     38  C   UNL A   1      42.968  27.803  31.898  1.00  0.00     0.031 C 
ATOM     39  C   UNL A   1      42.977  29.380  33.815  1.00  0.00     0.037 A 
BRANCH  26  40
ATOM     40  C   UNL A   1      40.045  34.251  36.242  1.00  0.00     0.057 A 
ATOM     41  C   UNL A   1      39.361  34.048  37.446  1.00  0.00     0.134 A 
ATOM     42  C   UNL A   1      40.711  35.473  36.076  1.00  0.00     0.134 A 
ATOM     43  F   UNL A   1      38.692  32.905  37.663  1.00  0.00    -0.206 F 
ATOM     44  C   UNL A   1      39.324  35.029  38.439  1.00  0.00     0.040 A 
ATOM     45  C   UNL A   1      40.699  36.453  37.070  1.00  0.00     0.040 A 
ATOM     46  F   UNL A   1      41.389  35.731  34.948  1.00  0.00    -0.206 F 
ATOM     47  C   UNL A   1      39.997  36.235  38.253  1.00  0.00     0.006 A 
ENDBRANCH  26  40
BRANCH  27  48
ATOM     48  C   UNL A   1      40.196  27.696  28.702  1.00  0.00     0.057 A 
ATOM     49  C   UNL A   1      40.907  28.017  27.542  1.00  0.00     0.134 A 
ATOM     50  C   UNL A   1      39.587  26.437  28.763  1.00  0.00     0.134 A 
ATOM     51  F   UNL A   1      41.502  29.213  27.425  1.00  0.00    -0.206 F 
ATOM     52  C   UNL A   1      41.015  27.116  26.482  1.00  0.00     0.040 A 
ATOM     53  C   UNL A   1      39.705  25.518  27.722  1.00  0.00     0.040 A 
ATOM     54  F   UNL A   1      38.903  26.068  29.858  1.00  0.00    -0.206 F 
ATOM     55  C   UNL A   1      40.421  25.857  26.576  1.00  0.00     0.006 A 
ENDBRANCH  27  48
BRANCH  39  56
ATOM     56  C   UNL A   1      44.191  28.670  34.332  1.00  0.00     0.057 A 
ATOM     57  C   UNL A   1      45.485  29.099  34.018  1.00  0.00     0.134 A 
ATOM     58  C   UNL A   1      44.058  27.576  35.196  1.00  0.00     0.134 A 
ATOM     59  F   UNL A   1      45.673  30.133  33.184  1.00  0.00    -0.206 F 
ATOM     60  C   UNL A   1      46.609  28.457  34.536  1.00  0.00     0.040 A 
ATOM     61  C   UNL A   1      45.174  26.937  35.736  1.00  0.00     0.040 A 
ATOM     62  F   UNL A   1      42.843  27.122  35.538  1.00  0.00    -0.206 F 
ATOM     63  C   UNL A   1      46.455  27.377  35.405  1.00  0.00     0.006 A 
ENDBRANCH  39  56
ENDBRANCH  13  14
ENDBRANCH   6   8
ENDBRANCH   3   4
ENDBRANCH   2   3
ENDBRANCH   1   2
BRANCH   1  64
ATOM     64  C   UNL A   1      33.252  30.007  26.756  1.00  0.00     0.116 C 
BRANCH  64  65
ATOM     65  N   UNL A   1      33.743  29.330  25.562  1.00  0.00    -0.356 N 
ATOM     66  C   UNL A   1      33.356  28.213  24.882  1.00  0.00     0.224 C 
ATOM     67  H   UNL A   1      34.524  29.775  25.161  1.00  0.00     0.163 HD
ATOM     68  O   UNL A   1      33.938  28.010  23.810  1.00  0.00    -0.275 OA
BRANCH  66  69
ATOM     69  C   UNL A   1      32.252  27.240  25.325  1.00  0.00     0.098 C 
ATOM     70  C   UNL A   1      30.917  27.432  24.600  1.00  0.00     0.017 C 
ATOM     71  C   UNL A   1      32.790  25.784  25.394  1.00  0.00     0.133 C 
ATOM     72  C   UNL A   1      29.997  26.241  24.623  1.00  0.00     0.022 C 
ATOM     73  N   UNL A   1      31.714  24.774  25.332  1.00  0.00    -0.342 N 
ATOM     74  C   UNL A   1      30.809  25.018  24.256  1.00  0.00     0.119 C 
BRANCH  73  75
ATOM     75  C   UNL A   1      31.523  23.811  26.307  1.00  0.00     0.225 C 
ATOM     76  O   UNL A   1      30.758  24.047  27.252  1.00  0.00    -0.275 OA
BRANCH  75  77
ATOM     77  C   UNL A   1      32.232  22.408  26.286  1.00  0.00     0.081 C 
ATOM     78  C   UNL A   1      33.276  22.106  27.351  1.00  0.00     0.030 C 
ATOM     79  C   UNL A   1      32.639  21.774  24.963  1.00  0.00     0.030 C 
ATOM     80  C   UNL A   1      34.736  22.298  26.968  1.00  0.00     0.103 C 
ATOM     81  C   UNL A   1      34.083  21.948  24.514  1.00  0.00     0.103 C 
ATOM     82  N   UNL A   1      35.137  21.956  25.556  1.00  0.00    -0.198 NA
BRANCH  82  83
ATOM     83  S   UNL A   1      36.602  22.846  25.159  1.00  0.00     0.243 S 
ATOM     84  O   UNL A   1      36.550  23.162  23.746  1.00  0.00    -0.207 OA
ATOM     85  O   UNL A   1      36.700  23.918  26.130  1.00  0.00    -0.207 OA
BRANCH  83  86
ATOM     86  C   UNL A   1      38.024  21.787  25.351  1.00  0.00     0.082 A 
ATOM     87  C   UNL A   1      37.927  20.440  24.992  1.00  0.00     0.022 A 
ATOM     88  C   UNL A   1      39.110  22.212  26.129  1.00  0.00     0.022 A 
ATOM     89  C   UNL A   1      38.926  19.542  25.384  1.00  0.00     0.001 A 
ATOM     90  C   UNL A   1      40.120  21.321  26.493  1.00  0.00     0.001 A 
ATOM     91  C   UNL A   1      40.023  19.984  26.125  1.00  0.00     0.000 A 
ENDBRANCH  83  86
ENDBRANCH  82  83
ENDBRANCH  75  77
ENDBRANCH  73  75
ENDBRANCH  66  69
ENDBRANCH  64  65
ENDBRANCH   1  64
TORSDOF 15
ENDMDL
