MODEL 1
REMARK VINA RESULT:     -12.3      0.000      0.000
REMARK SMILES NS(=O)(=O)c1ccc(-n2nc(C(F)F)cc2-c2ccc(C(=O)NCCCCNC(=O)c3ccc(-c4c5nc(c(-c6c(F)cccc6F)c6ccc([nH]6)c(-c6c(F)cccc6F)c6nc(c(-c7c(F)cccc7F)c7ccc4[nH]7)C=C6)C=C5)cc3)cc2)cc1
REMARK SMILES IDX 24 1 23 2 21 3 22 4 20 6 17 7 18 8 86 9 19 10 85 11 16 12
REMARK SMILES IDX 9 13 10 14 11 15 15 16 8 17 5 18 6 19 88 20 7 21 87 22 2 23
REMARK SMILES IDX 3 24 4 25 1 26 12 29 13 30 14 31 25 32 26 33 27 34 28 35
REMARK SMILES IDX 29 36 30 38 31 39 32 40 84 41 33 42 83 43 34 44 35 45 36 46
REMARK SMILES IDX 77 47 37 48 82 49 76 50 78 51 38 52 81 53 75 54 74 55 39 57
REMARK SMILES IDX 65 58 48 59 64 60 49 61 52 62 63 63 79 64 50 65 51 66 62 68
REMARK SMILES IDX 80 69 53 70 40 71 41 72 46 73 42 74 43 75 45 76 47 77 44 78
REMARK SMILES IDX 66 79 67 80 72 81 68 82 69 83 71 84 73 85 70 86 54 87 55 88
REMARK SMILES IDX 60 89 56 90 57 91 59 92 61 93 58 94
REMARK H PARENT 23 5 1 27 1 28 28 37 78 56 52 67
REMARK Flexibility Score: inf
ROOT
ATOM      1  C   UNL A   1      40.272  21.763  26.829  1.00  0.00     0.116 C 
ENDROOT
BRANCH   1   2
ATOM      2  N   UNL A   1      39.781  23.113  26.632  1.00  0.00    -0.352 N 
ATOM      3  C   UNL A   1      38.565  23.608  26.237  1.00  0.00     0.251 C 
ATOM      4  O   UNL A   1      38.438  24.834  26.203  1.00  0.00    -0.269 OA
ATOM      5  H   UNL A   1      40.452  23.809  26.819  1.00  0.00     0.163 HD
BRANCH   3   6
ATOM      6  C   UNL A   1      37.394  22.750  25.898  1.00  0.00     0.039 A 
ATOM      7  C   UNL A   1      35.279  21.055  25.126  1.00  0.00     0.000 A 
ATOM      8  C   UNL A   1      36.558  20.870  24.592  1.00  0.00     0.011 A 
ATOM      9  C   UNL A   1      35.064  22.072  26.054  1.00  0.00     0.011 A 
ATOM     10  C   UNL A   1      37.605  21.717  24.972  1.00  0.00     0.014 A 
ATOM     11  C   UNL A   1      36.124  22.883  26.466  1.00  0.00     0.014 A 
BRANCH   7  12
ATOM     12  C   UNL A   1      34.189  20.155  24.773  1.00  0.00     0.075 A 
ATOM     13  N   UNL A   1      32.978  20.555  24.222  1.00  0.00    -0.233 N 
ATOM     14  N   UNL A   1      32.068  19.550  24.234  1.00  0.00    -0.166 NA
ATOM     15  C   UNL A   1      32.770  18.453  24.571  1.00  0.00     0.129 A 
ATOM     16  C   UNL A   1      34.088  18.793  24.955  1.00  0.00     0.060 A 
BRANCH  13  17
ATOM     17  C   UNL A   1      32.653  21.831  23.694  1.00  0.00     0.065 A 
ATOM     18  C   UNL A   1      32.207  24.414  22.758  1.00  0.00     0.082 A 
ATOM     19  C   UNL A   1      32.954  23.525  21.985  1.00  0.00     0.024 A 
ATOM     20  C   UNL A   1      31.644  24.007  23.975  1.00  0.00     0.024 A 
ATOM     21  C   UNL A   1      33.182  22.235  22.458  1.00  0.00     0.030 A 
ATOM     22  C   UNL A   1      31.840  22.700  24.431  1.00  0.00     0.030 A 
BRANCH  18  23
ATOM     23  S   UNL A   1      32.013  26.088  22.224  1.00  0.00     0.238 S 
ATOM     24  O   UNL A   1      33.294  26.765  22.354  1.00  0.00    -0.207 OA
ATOM     25  O   UNL A   1      30.795  26.608  22.766  1.00  0.00    -0.207 OA
BRANCH  23  26
ATOM     26  N   UNL A   1      31.773  25.950  20.562  1.00  0.00    -0.225 NA
ATOM     27  H   UNL A   1      32.122  26.788  20.098  1.00  0.00     0.137 HD
ATOM     28  H   UNL A   1      30.777  25.843  20.371  1.00  0.00     0.137 HD
ENDBRANCH  23  26
ENDBRANCH  18  23
ENDBRANCH  13  17
BRANCH  15  29
ATOM     29  C   UNL A   1      32.186  17.071  24.539  1.00  0.00     0.393 C 
ATOM     30  F   UNL A   1      32.903  16.217  23.762  1.00  0.00    -0.203 F 
ATOM     31  F   UNL A   1      32.138  16.523  25.785  1.00  0.00    -0.203 F 
ENDBRANCH  15  29
ENDBRANCH   7  12
ENDBRANCH   3   6
ENDBRANCH   1   2
BRANCH   1  32
ATOM     32  C   UNL A   1      41.564  21.756  27.653  1.00  0.00     0.023 C 
BRANCH  32  33
ATOM     33  C   UNL A   1      42.522  20.602  27.332  1.00  0.00     0.023 C 
BRANCH  33  34
ATOM     34  C   UNL A   1      42.297  19.954  25.970  1.00  0.00     0.116 C 
BRANCH  34  35
ATOM     35  N   UNL A   1      43.549  19.691  25.267  1.00  0.00    -0.352 N 
ATOM     36  C   UNL A   1      44.447  20.596  24.747  1.00  0.00     0.251 C 
ATOM     37  H   UNL A   1      43.781  18.742  25.147  1.00  0.00     0.163 HD
ATOM     38  O   UNL A   1      45.259  20.260  23.894  1.00  0.00    -0.269 OA
BRANCH  36  39
ATOM     39  C   UNL A   1      44.417  21.985  25.232  1.00  0.00     0.039 A 
ATOM     40  C   UNL A   1      43.469  22.882  24.739  1.00  0.00     0.014 A 
ATOM     41  C   UNL A   1      45.325  22.371  26.217  1.00  0.00     0.014 A 
ATOM     42  C   UNL A   1      43.376  24.147  25.314  1.00  0.00     0.010 A 
ATOM     43  C   UNL A   1      45.170  23.587  26.849  1.00  0.00     0.010 A 
ATOM     44  C   UNL A   1      44.208  24.491  26.392  1.00  0.00    -0.014 A 
BRANCH  44  45
ATOM     45  C   UNL A   1      43.967  25.738  27.122  1.00  0.00     0.031 A 
ATOM     46  C   UNL A   1      44.905  26.861  26.815  1.00  0.00     0.074 A 
ATOM     47  C   UNL A   1      42.855  25.982  27.848  1.00  0.00     0.049 A 
ATOM     48  N   UNL A   1      45.674  27.508  27.630  1.00  0.00    -0.248 NA
ATOM     49  C   UNL A   1      45.053  27.272  25.409  1.00  0.00     0.031 C 
ATOM     50  C   UNL A   1      41.668  25.135  27.999  1.00  0.00     0.029 A 
ATOM     51  N   UNL A   1      42.503  27.119  28.515  1.00  0.00    -0.354 N 
ATOM     52  C   UNL A   1      46.273  28.523  26.881  1.00  0.00     0.074 A 
ATOM     53  C   UNL A   1      45.958  28.247  25.503  1.00  0.00     0.031 C 
ATOM     54  C   UNL A   1      40.652  25.872  28.499  1.00  0.00     0.029 A 
ATOM     55  C   UNL A   1      41.160  27.183  28.858  1.00  0.00     0.049 A 
ATOM     56  H   UNL A   1      43.145  27.832  28.734  1.00  0.00     0.167 HD
ATOM     57  C   UNL A   1      46.812  29.627  27.469  1.00  0.00     0.037 A 
ATOM     58  C   UNL A   1      40.495  28.245  29.372  1.00  0.00     0.037 A 
ATOM     59  C   UNL A   1      47.062  29.412  28.871  1.00  0.00     0.049 A 
ATOM     60  C   UNL A   1      41.497  29.171  29.948  1.00  0.00     0.074 A 
ATOM     61  C   UNL A   1      47.809  28.510  29.604  1.00  0.00     0.029 A 
ATOM     62  N   UNL A   1      46.218  30.005  29.776  1.00  0.00    -0.354 N 
ATOM     63  N   UNL A   1      42.198  28.920  31.016  1.00  0.00    -0.248 NA
ATOM     64  C   UNL A   1      42.011  30.235  29.100  1.00  0.00     0.031 C 
ATOM     65  C   UNL A   1      47.030  28.250  30.769  1.00  0.00     0.029 A 
ATOM     66  C   UNL A   1      45.887  29.048  30.697  1.00  0.00     0.049 A 
ATOM     67  H   UNL A   1      45.910  30.941  29.764  1.00  0.00     0.167 HD
ATOM     68  C   UNL A   1      43.444  29.465  30.752  1.00  0.00     0.074 A 
ATOM     69  C   UNL A   1      43.234  30.362  29.620  1.00  0.00     0.031 C 
ATOM     70  C   UNL A   1      44.578  28.924  31.289  1.00  0.00     0.037 A 
BRANCH  57  71
ATOM     71  C   UNL A   1      46.788  31.015  26.870  1.00  0.00     0.057 A 
ATOM     72  C   UNL A   1      47.960  31.798  26.885  1.00  0.00     0.134 A 
ATOM     73  C   UNL A   1      45.607  31.720  26.563  1.00  0.00     0.134 A 
ATOM     74  F   UNL A   1      49.150  31.251  27.177  1.00  0.00    -0.206 F 
ATOM     75  C   UNL A   1      47.942  33.185  26.691  1.00  0.00     0.040 A 
ATOM     76  C   UNL A   1      45.586  33.096  26.317  1.00  0.00     0.040 A 
ATOM     77  F   UNL A   1      44.401  31.140  26.587  1.00  0.00    -0.206 F 
ATOM     78  C   UNL A   1      46.749  33.841  26.415  1.00  0.00     0.006 A 
ENDBRANCH  57  71
BRANCH  58  79
ATOM     79  C   UNL A   1      39.077  28.626  29.202  1.00  0.00     0.057 A 
ATOM     80  C   UNL A   1      38.206  28.693  30.297  1.00  0.00     0.134 A 
ATOM     81  C   UNL A   1      38.611  29.195  28.003  1.00  0.00     0.134 A 
ATOM     82  F   UNL A   1      38.576  28.208  31.492  1.00  0.00    -0.206 F 
ATOM     83  C   UNL A   1      36.955  29.316  30.216  1.00  0.00     0.040 A 
ATOM     84  C   UNL A   1      37.360  29.813  27.905  1.00  0.00     0.040 A 
ATOM     85  F   UNL A   1      39.389  29.249  26.913  1.00  0.00    -0.206 F 
ATOM     86  C   UNL A   1      36.534  29.889  29.020  1.00  0.00     0.006 A 
ENDBRANCH  58  79
BRANCH  70  87
ATOM     87  C   UNL A   1      44.424  27.926  32.403  1.00  0.00     0.057 A 
ATOM     88  C   UNL A   1      44.215  26.552  32.212  1.00  0.00     0.134 A 
ATOM     89  C   UNL A   1      44.630  28.355  33.719  1.00  0.00     0.134 A 
ATOM     90  F   UNL A   1      44.113  26.026  30.985  1.00  0.00    -0.206 F 
ATOM     91  C   UNL A   1      44.156  25.658  33.286  1.00  0.00     0.040 A 
ATOM     92  C   UNL A   1      44.611  27.467  34.797  1.00  0.00     0.040 A 
ATOM     93  F   UNL A   1      44.896  29.646  33.977  1.00  0.00    -0.206 F 
ATOM     94  C   UNL A   1      44.360  26.116  34.584  1.00  0.00     0.006 A 
ENDBRANCH  70  87
ENDBRANCH  44  45
ENDBRANCH  36  39
ENDBRANCH  34  35
ENDBRANCH  33  34
ENDBRANCH  32  33
ENDBRANCH   1  32
TORSDOF 16
ENDMDL
MODEL 2
REMARK VINA RESULT:     -12.1      4.501      8.767
REMARK SMILES NS(=O)(=O)c1ccc(-n2nc(C(F)F)cc2-c2ccc(C(=O)NCCCCNC(=O)c3ccc(-c4c5nc(c(-c6c(F)cccc6F)c6ccc([nH]6)c(-c6c(F)cccc6F)c6nc(c(-c7c(F)cccc7F)c7ccc4[nH]7)C=C6)C=C5)cc3)cc2)cc1
REMARK SMILES IDX 24 1 23 2 21 3 22 4 20 6 17 7 18 8 86 9 19 10 85 11 16 12
REMARK SMILES IDX 9 13 10 14 11 15 15 16 8 17 5 18 6 19 88 20 7 21 87 22 2 23
REMARK SMILES IDX 3 24 4 25 1 26 12 29 13 30 14 31 25 32 26 33 27 34 28 35
REMARK SMILES IDX 29 36 30 38 31 39 32 40 84 41 33 42 83 43 34 44 35 45 36 46
REMARK SMILES IDX 77 47 37 48 82 49 76 50 78 51 38 52 81 53 75 54 74 55 39 57
REMARK SMILES IDX 65 58 48 59 64 60 49 61 52 62 63 63 79 64 50 65 51 66 62 68
REMARK SMILES IDX 80 69 53 70 40 71 41 72 46 73 42 74 43 75 45 76 47 77 44 78
REMARK SMILES IDX 66 79 67 80 72 81 68 82 69 83 71 84 73 85 70 86 54 87 55 88
REMARK SMILES IDX 60 89 56 90 57 91 59 92 61 93 58 94
REMARK H PARENT 23 5 1 27 1 28 28 37 78 56 52 67
REMARK Flexibility Score: inf
ROOT
ATOM      1  C   UNL A   1      35.445  23.023  23.796  1.00  0.00     0.116 C 
ENDROOT
BRANCH   1   2
ATOM      2  N   UNL A   1      34.031  22.928  23.491  1.00  0.00    -0.352 N 
ATOM      3  C   UNL A   1      32.986  23.799  23.660  1.00  0.00     0.251 C 
ATOM      4  O   UNL A   1      31.879  23.440  23.254  1.00  0.00    -0.269 OA
ATOM      5  H   UNL A   1      33.770  22.070  23.084  1.00  0.00     0.163 HD
BRANCH   3   6
ATOM      6  C   UNL A   1      33.132  25.158  24.255  1.00  0.00     0.039 A 
ATOM      7  C   UNL A   1      33.296  27.675  25.513  1.00  0.00     0.000 A 
ATOM      8  C   UNL A   1      32.684  26.601  26.167  1.00  0.00     0.011 A 
ATOM      9  C   UNL A   1      33.838  27.485  24.243  1.00  0.00     0.011 A 
ATOM     10  C   UNL A   1      32.598  25.354  25.539  1.00  0.00     0.014 A 
ATOM     11  C   UNL A   1      33.792  26.226  23.641  1.00  0.00     0.014 A 
BRANCH   7  12
ATOM     12  C   UNL A   1      33.431  28.967  26.172  1.00  0.00     0.075 A 
ATOM     13  N   UNL A   1      32.634  30.075  25.914  1.00  0.00    -0.233 N 
ATOM     14  N   UNL A   1      33.142  31.199  26.479  1.00  0.00    -0.166 NA
ATOM     15  C   UNL A   1      34.124  30.763  27.288  1.00  0.00     0.129 A 
ATOM     16  C   UNL A   1      34.365  29.383  27.096  1.00  0.00     0.060 A 
BRANCH  13  17
ATOM     17  C   UNL A   1      31.430  30.113  25.163  1.00  0.00     0.065 A 
ATOM     18  C   UNL A   1      29.196  30.250  23.510  1.00  0.00     0.082 A 
ATOM     19  C   UNL A   1      29.903  29.052  23.607  1.00  0.00     0.024 A 
ATOM     20  C   UNL A   1      29.571  31.366  24.268  1.00  0.00     0.024 A 
ATOM     21  C   UNL A   1      31.026  28.987  24.429  1.00  0.00     0.030 A 
ATOM     22  C   UNL A   1      30.674  31.290  25.124  1.00  0.00     0.030 A 
BRANCH  18  23
ATOM     23  S   UNL A   1      27.844  30.378  22.378  1.00  0.00     0.238 S 
ATOM     24  O   UNL A   1      28.339  30.116  21.035  1.00  0.00    -0.207 OA
ATOM     25  O   UNL A   1      27.068  31.533  22.714  1.00  0.00    -0.207 OA
BRANCH  23  26
ATOM     26  N   UNL A   1      26.889  29.040  22.747  1.00  0.00    -0.225 NA
ATOM     27  H   UNL A   1      27.288  28.548  23.546  1.00  0.00     0.137 HD
ATOM     28  H   UNL A   1      26.855  28.415  21.943  1.00  0.00     0.137 HD
ENDBRANCH  23  26
ENDBRANCH  18  23
ENDBRANCH  13  17
BRANCH  15  29
ATOM     29  C   UNL A   1      34.850  31.663  28.245  1.00  0.00     0.393 C 
ATOM     30  F   UNL A   1      35.424  32.730  27.628  1.00  0.00    -0.203 F 
ATOM     31  F   UNL A   1      34.009  32.163  29.193  1.00  0.00    -0.203 F 
ENDBRANCH  15  29
ENDBRANCH   7  12
ENDBRANCH   3   6
ENDBRANCH   1   2
BRANCH   1  32
ATOM     32  C   UNL A   1      35.673  23.426  25.257  1.00  0.00     0.023 C 
BRANCH  32  33
ATOM     33  C   UNL A   1      37.025  22.994  25.837  1.00  0.00     0.023 C 
BRANCH  33  34
ATOM     34  C   UNL A   1      37.861  24.134  26.410  1.00  0.00     0.116 C 
BRANCH  34  35
ATOM     35  N   UNL A   1      39.285  23.970  26.137  1.00  0.00    -0.352 N 
ATOM     36  C   UNL A   1      40.305  24.875  26.329  1.00  0.00     0.251 C 
ATOM     37  H   UNL A   1      39.552  23.098  25.767  1.00  0.00     0.163 HD
ATOM     38  O   UNL A   1      41.376  24.751  25.748  1.00  0.00    -0.269 OA
BRANCH  36  39
ATOM     39  C   UNL A   1      40.089  26.005  27.246  1.00  0.00     0.039 A 
ATOM     40  C   UNL A   1      39.693  25.778  28.564  1.00  0.00     0.014 A 
ATOM     41  C   UNL A   1      40.325  27.299  26.782  1.00  0.00     0.014 A 
ATOM     42  C   UNL A   1      39.629  26.855  29.444  1.00  0.00     0.010 A 
ATOM     43  C   UNL A   1      40.354  28.350  27.675  1.00  0.00     0.010 A 
ATOM     44  C   UNL A   1      39.989  28.140  29.007  1.00  0.00    -0.014 A 
BRANCH  44  45
ATOM     45  C   UNL A   1      40.119  29.225  29.983  1.00  0.00     0.031 A 
ATOM     46  C   UNL A   1      38.888  30.046  30.207  1.00  0.00     0.074 A 
ATOM     47  C   UNL A   1      41.171  29.367  30.817  1.00  0.00     0.049 A 
ATOM     48  N   UNL A   1      38.738  31.322  30.054  1.00  0.00    -0.248 NA
ATOM     49  C   UNL A   1      37.651  29.345  30.587  1.00  0.00     0.031 C 
ATOM     50  C   UNL A   1      42.322  28.473  30.982  1.00  0.00     0.029 A 
ATOM     51  N   UNL A   1      41.366  30.297  31.796  1.00  0.00    -0.354 N 
ATOM     52  C   UNL A   1      37.443  31.618  30.484  1.00  0.00     0.074 A 
ATOM     53  C   UNL A   1      36.782  30.353  30.674  1.00  0.00     0.031 C 
ATOM     54  C   UNL A   1      42.956  28.767  32.139  1.00  0.00     0.029 A 
ATOM     55  C   UNL A   1      42.362  29.965  32.703  1.00  0.00     0.049 A 
ATOM     56  H   UNL A   1      40.846  31.131  31.853  1.00  0.00     0.167 HD
ATOM     57  C   UNL A   1      37.078  32.878  30.848  1.00  0.00     0.037 A 
ATOM     58  C   UNL A   1      42.665  30.605  33.858  1.00  0.00     0.037 A 
ATOM     59  C   UNL A   1      37.999  33.864  30.344  1.00  0.00     0.049 A 
ATOM     60  C   UNL A   1      42.096  31.970  33.781  1.00  0.00     0.074 A 
ATOM     61  C   UNL A   1      38.451  34.228  29.089  1.00  0.00     0.029 A 
ATOM     62  N   UNL A   1      38.874  34.443  31.227  1.00  0.00    -0.354 N 
ATOM     63  N   UNL A   1      42.536  32.905  32.989  1.00  0.00    -0.248 NA
ATOM     64  C   UNL A   1      40.760  32.184  34.318  1.00  0.00     0.031 C 
ATOM     65  C   UNL A   1      39.826  34.555  29.276  1.00  0.00     0.029 A 
ATOM     66  C   UNL A   1      40.109  34.421  30.636  1.00  0.00     0.049 A 
ATOM     67  H   UNL A   1      38.656  34.805  32.117  1.00  0.00     0.167 HD
ATOM     68  C   UNL A   1      41.398  33.580  32.579  1.00  0.00     0.074 A 
ATOM     69  C   UNL A   1      40.357  33.175  33.519  1.00  0.00     0.031 C 
ATOM     70  C   UNL A   1      41.337  34.178  31.353  1.00  0.00     0.037 A 
BRANCH  57  71
ATOM     71  C   UNL A   1      36.095  33.201  31.951  1.00  0.00     0.057 A 
ATOM     72  C   UNL A   1      35.057  34.124  31.708  1.00  0.00     0.134 A 
ATOM     73  C   UNL A   1      36.303  32.886  33.309  1.00  0.00     0.134 A 
ATOM     74  F   UNL A   1      34.766  34.519  30.459  1.00  0.00    -0.206 F 
ATOM     75  C   UNL A   1      34.342  34.743  32.740  1.00  0.00     0.040 A 
ATOM     76  C   UNL A   1      35.560  33.460  34.344  1.00  0.00     0.040 A 
ATOM     77  F   UNL A   1      37.300  32.090  33.713  1.00  0.00    -0.206 F 
ATOM     78  C   UNL A   1      34.599  34.418  34.066  1.00  0.00     0.006 A 
ENDBRANCH  57  71
BRANCH  58  79
ATOM     79  C   UNL A   1      43.213  30.050  35.113  1.00  0.00     0.057 A 
ATOM     80  C   UNL A   1      42.577  28.994  35.779  1.00  0.00     0.134 A 
ATOM     81  C   UNL A   1      44.514  30.360  35.544  1.00  0.00     0.134 A 
ATOM     82  F   UNL A   1      41.347  28.602  35.415  1.00  0.00    -0.206 F 
ATOM     83  C   UNL A   1      43.209  28.266  36.794  1.00  0.00     0.040 A 
ATOM     84  C   UNL A   1      45.155  29.648  36.563  1.00  0.00     0.040 A 
ATOM     85  F   UNL A   1      45.241  31.306  34.932  1.00  0.00    -0.206 F 
ATOM     86  C   UNL A   1      44.507  28.585  37.181  1.00  0.00     0.006 A 
ENDBRANCH  58  79
BRANCH  70  87
ATOM     87  C   UNL A   1      42.619  34.351  30.587  1.00  0.00     0.057 A 
ATOM     88  C   UNL A   1      43.520  35.409  30.781  1.00  0.00     0.134 A 
ATOM     89  C   UNL A   1      43.021  33.334  29.715  1.00  0.00     0.134 A 
ATOM     90  F   UNL A   1      43.277  36.376  31.674  1.00  0.00    -0.206 F 
ATOM     91  C   UNL A   1      44.736  35.478  30.094  1.00  0.00     0.040 A 
ATOM     92  C   UNL A   1      44.249  33.371  29.051  1.00  0.00     0.040 A 
ATOM     93  F   UNL A   1      42.240  32.258  29.524  1.00  0.00    -0.206 F 
ATOM     94  C   UNL A   1      45.106  34.453  29.229  1.00  0.00     0.006 A 
ENDBRANCH  70  87
ENDBRANCH  44  45
ENDBRANCH  36  39
ENDBRANCH  34  35
ENDBRANCH  33  34
ENDBRANCH  32  33
ENDBRANCH   1  32
TORSDOF 16
ENDMDL
MODEL 3
REMARK VINA RESULT:     -12.1      4.462      9.450
REMARK SMILES NS(=O)(=O)c1ccc(-n2nc(C(F)F)cc2-c2ccc(C(=O)NCCCCNC(=O)c3ccc(-c4c5nc(c(-c6c(F)cccc6F)c6ccc([nH]6)c(-c6c(F)cccc6F)c6nc(c(-c7c(F)cccc7F)c7ccc4[nH]7)C=C6)C=C5)cc3)cc2)cc1
REMARK SMILES IDX 24 1 23 2 21 3 22 4 20 6 17 7 18 8 86 9 19 10 85 11 16 12
REMARK SMILES IDX 9 13 10 14 11 15 15 16 8 17 5 18 6 19 88 20 7 21 87 22 2 23
REMARK SMILES IDX 3 24 4 25 1 26 12 29 13 30 14 31 25 32 26 33 27 34 28 35
REMARK SMILES IDX 29 36 30 38 31 39 32 40 84 41 33 42 83 43 34 44 35 45 36 46
REMARK SMILES IDX 77 47 37 48 82 49 76 50 78 51 38 52 81 53 75 54 74 55 39 57
REMARK SMILES IDX 65 58 48 59 64 60 49 61 52 62 63 63 79 64 50 65 51 66 62 68
REMARK SMILES IDX 80 69 53 70 40 71 41 72 46 73 42 74 43 75 45 76 47 77 44 78
REMARK SMILES IDX 66 79 67 80 72 81 68 82 69 83 71 84 73 85 70 86 54 87 55 88
REMARK SMILES IDX 60 89 56 90 57 91 59 92 61 93 58 94
REMARK H PARENT 23 5 1 27 1 28 28 37 78 56 52 67
REMARK Flexibility Score: inf
ROOT
ATOM      1  C   UNL A   1      35.150  32.468  27.910  1.00  0.00     0.116 C 
ENDROOT
BRANCH   1   2
ATOM      2  N   UNL A   1      35.624  31.142  28.253  1.00  0.00    -0.352 N 
ATOM      3  C   UNL A   1      35.235  29.888  27.859  1.00  0.00     0.251 C 
ATOM      4  O   UNL A   1      35.874  28.931  28.304  1.00  0.00    -0.269 OA
ATOM      5  H   UNL A   1      36.372  31.142  28.894  1.00  0.00     0.163 HD
BRANCH   3   6
ATOM      6  C   UNL A   1      34.126  29.631  26.897  1.00  0.00     0.039 A 
ATOM      7  C   UNL A   1      31.915  29.210  25.200  1.00  0.00     0.000 A 
ATOM      8  C   UNL A   1      31.765  29.942  26.383  1.00  0.00     0.011 A 
ATOM      9  C   UNL A   1      33.169  28.707  24.861  1.00  0.00     0.011 A 
ATOM     10  C   UNL A   1      32.862  30.144  27.227  1.00  0.00     0.014 A 
ATOM     11  C   UNL A   1      34.271  28.953  25.683  1.00  0.00     0.014 A 
BRANCH   7  12
ATOM     12  C   UNL A   1      30.791  29.028  24.291  1.00  0.00     0.075 A 
ATOM     13  N   UNL A   1      30.323  27.798  23.847  1.00  0.00    -0.233 N 
ATOM     14  N   UNL A   1      29.444  27.938  22.824  1.00  0.00    -0.166 NA
ATOM     15  C   UNL A   1      29.176  29.255  22.778  1.00  0.00     0.129 A 
ATOM     16  C   UNL A   1      30.026  29.977  23.648  1.00  0.00     0.060 A 
BRANCH  13  17
ATOM     17  C   UNL A   1      30.670  26.515  24.344  1.00  0.00     0.065 A 
ATOM     18  C   UNL A   1      31.541  24.094  25.404  1.00  0.00     0.082 A 
ATOM     19  C   UNL A   1      30.744  24.935  26.182  1.00  0.00     0.024 A 
ATOM     20  C   UNL A   1      31.867  24.434  24.086  1.00  0.00     0.024 A 
ATOM     21  C   UNL A   1      30.316  26.150  25.652  1.00  0.00     0.030 A 
ATOM     22  C   UNL A   1      31.404  25.636  23.540  1.00  0.00     0.030 A 
BRANCH  18  23
ATOM     23  S   UNL A   1      32.190  22.609  26.109  1.00  0.00     0.238 S 
ATOM     24  O   UNL A   1      33.602  22.811  26.394  1.00  0.00    -0.207 OA
ATOM     25  O   UNL A   1      31.694  21.490  25.366  1.00  0.00    -0.207 OA
BRANCH  23  26
ATOM     26  N   UNL A   1      31.458  22.534  27.624  1.00  0.00    -0.225 NA
ATOM     27  H   UNL A   1      31.830  23.275  28.218  1.00  0.00     0.137 HD
ATOM     28  H   UNL A   1      31.650  21.628  28.050  1.00  0.00     0.137 HD
ENDBRANCH  23  26
ENDBRANCH  18  23
ENDBRANCH  13  17
BRANCH  15  29
ATOM     29  C   UNL A   1      28.113  29.840  21.894  1.00  0.00     0.393 C 
ATOM     30  F   UNL A   1      26.943  30.052  22.552  1.00  0.00    -0.203 F 
ATOM     31  F   UNL A   1      28.498  31.041  21.380  1.00  0.00    -0.203 F 
ENDBRANCH  15  29
ENDBRANCH   7  12
ENDBRANCH   3   6
ENDBRANCH   1   2
BRANCH   1  32
ATOM     32  C   UNL A   1      35.946  33.551  28.646  1.00  0.00     0.023 C 
BRANCH  32  33
ATOM     33  C   UNL A   1      35.106  34.729  29.154  1.00  0.00     0.023 C 
BRANCH  33  34
ATOM     34  C   UNL A   1      34.151  34.381  30.292  1.00  0.00     0.116 C 
BRANCH  34  35
ATOM     35  N   UNL A   1      34.226  35.337  31.392  1.00  0.00    -0.352 N 
ATOM     36  C   UNL A   1      34.964  35.254  32.552  1.00  0.00     0.251 C 
ATOM     37  H   UNL A   1      33.676  36.147  31.292  1.00  0.00     0.163 HD
ATOM     38  O   UNL A   1      34.679  35.931  33.531  1.00  0.00    -0.269 OA
BRANCH  36  39
ATOM     39  C   UNL A   1      36.107  34.328  32.601  1.00  0.00     0.039 A 
ATOM     40  C   UNL A   1      35.897  32.955  32.733  1.00  0.00     0.014 A 
ATOM     41  C   UNL A   1      37.395  34.847  32.476  1.00  0.00     0.014 A 
ATOM     42  C   UNL A   1      36.987  32.095  32.639  1.00  0.00     0.010 A 
ATOM     43  C   UNL A   1      38.460  33.991  32.288  1.00  0.00     0.010 A 
ATOM     44  C   UNL A   1      38.268  32.611  32.387  1.00  0.00    -0.014 A 
BRANCH  44  45
ATOM     45  C   UNL A   1      39.371  31.693  32.085  1.00  0.00     0.031 A 
ATOM     46  C   UNL A   1      40.160  31.219  33.264  1.00  0.00     0.074 A 
ATOM     47  C   UNL A   1      39.553  31.104  30.884  1.00  0.00     0.049 A 
ATOM     48  N   UNL A   1      41.429  31.346  33.482  1.00  0.00    -0.248 NA
ATOM     49  C   UNL A   1      39.430  30.579  34.370  1.00  0.00     0.031 C 
ATOM     50  C   UNL A   1      38.694  31.181  29.698  1.00  0.00     0.029 A 
ATOM     51  N   UNL A   1      40.502  30.197  30.513  1.00  0.00    -0.354 N 
ATOM     52  C   UNL A   1      41.695  30.652  34.663  1.00  0.00     0.074 A 
ATOM     53  C   UNL A   1      40.415  30.316  35.231  1.00  0.00     0.031 C 
ATOM     54  C   UNL A   1      39.022  30.189  28.842  1.00  0.00     0.029 A 
ATOM     55  C   UNL A   1      40.211  29.520  29.337  1.00  0.00     0.049 A 
ATOM     56  H   UNL A   1      41.322  30.037  31.034  1.00  0.00     0.167 HD
ATOM     57  C   UNL A   1      42.950  30.228  34.981  1.00  0.00     0.037 A 
ATOM     58  C   UNL A   1      40.875  28.461  28.815  1.00  0.00     0.037 A 
ATOM     59  C   UNL A   1      43.953  30.926  34.218  1.00  0.00     0.049 A 
ATOM     60  C   UNL A   1      42.223  28.425  29.429  1.00  0.00     0.074 A 
ATOM     61  C   UNL A   1      44.312  32.251  34.055  1.00  0.00     0.029 A 
ATOM     62  N   UNL A   1      44.569  30.253  33.193  1.00  0.00    -0.354 N 
ATOM     63  N   UNL A   1      43.158  29.300  29.196  1.00  0.00    -0.248 NA
ATOM     64  C   UNL A   1      42.407  27.618  30.625  1.00  0.00     0.031 C 
ATOM     65  C   UNL A   1      44.680  32.364  32.682  1.00  0.00     0.029 A 
ATOM     66  C   UNL A   1      44.573  31.095  32.112  1.00  0.00     0.049 A 
ATOM     67  H   UNL A   1      44.937  29.340  33.228  1.00  0.00     0.167 HD
ATOM     68  C   UNL A   1      43.795  29.464  30.414  1.00  0.00     0.074 A 
ATOM     69  C   UNL A   1      43.375  28.320  31.219  1.00  0.00     0.031 C 
ATOM     70  C   UNL A   1      44.374  30.654  30.753  1.00  0.00     0.037 A 
BRANCH  57  71
ATOM     71  C   UNL A   1      43.261  28.944  35.716  1.00  0.00     0.057 A 
ATOM     72  C   UNL A   1      44.177  28.962  36.786  1.00  0.00     0.134 A 
ATOM     73  C   UNL A   1      42.941  27.661  35.229  1.00  0.00     0.134 A 
ATOM     74  F   UNL A   1      44.576  30.121  37.333  1.00  0.00    -0.206 F 
ATOM     75  C   UNL A   1      44.787  27.800  37.276  1.00  0.00     0.040 A 
ATOM     76  C   UNL A   1      43.504  26.491  35.745  1.00  0.00     0.040 A 
ATOM     77  F   UNL A   1      42.149  27.477  34.165  1.00  0.00    -0.206 F 
ATOM     78  C   UNL A   1      44.458  26.558  36.748  1.00  0.00     0.006 A 
ENDBRANCH  57  71
BRANCH  58  79
ATOM     79  C   UNL A   1      40.353  27.347  27.996  1.00  0.00     0.057 A 
ATOM     80  C   UNL A   1      40.850  27.097  26.710  1.00  0.00     0.134 A 
ATOM     81  C   UNL A   1      39.548  26.341  28.557  1.00  0.00     0.134 A 
ATOM     82  F   UNL A   1      41.656  27.983  26.107  1.00  0.00    -0.206 F 
ATOM     83  C   UNL A   1      40.589  25.900  26.032  1.00  0.00     0.040 A 
ATOM     84  C   UNL A   1      39.270  25.145  27.887  1.00  0.00     0.040 A 
ATOM     85  F   UNL A   1      39.077  26.445  29.808  1.00  0.00    -0.206 F 
ATOM     86  C   UNL A   1      39.806  24.915  26.625  1.00  0.00     0.006 A 
ENDBRANCH  58  79
BRANCH  70  87
ATOM     87  C   UNL A   1      44.572  31.676  29.669  1.00  0.00     0.057 A 
ATOM     88  C   UNL A   1      43.601  32.611  29.275  1.00  0.00     0.134 A 
ATOM     89  C   UNL A   1      45.840  31.806  29.093  1.00  0.00     0.134 A 
ATOM     90  F   UNL A   1      42.390  32.638  29.843  1.00  0.00    -0.206 F 
ATOM     91  C   UNL A   1      43.867  33.589  28.312  1.00  0.00     0.040 A 
ATOM     92  C   UNL A   1      46.130  32.803  28.159  1.00  0.00     0.040 A 
ATOM     93  F   UNL A   1      46.838  30.987  29.464  1.00  0.00    -0.206 F 
ATOM     94  C   UNL A   1      45.138  33.690  27.755  1.00  0.00     0.006 A 
ENDBRANCH  70  87
ENDBRANCH  44  45
ENDBRANCH  36  39
ENDBRANCH  34  35
ENDBRANCH  33  34
ENDBRANCH  32  33
ENDBRANCH   1  32
TORSDOF 16
ENDMDL
