MODEL 1
REMARK VINA RESULT:     -12.5      0.000      0.000
REMARK SMILES C[C@H](Oc1ccc(-c2ccccc2)cc1)C(=O)N[C@H](C)C(=O)NCCCCNC(=O)c1ccc(-c2c3nc(c(-c4c(F)cccc4F)c4ccc([nH]4)c(-c4c(F)cccc4F)c4nc(c(-c5c(F)cccc5F)c5ccc2[nH]5)C=C4)C=C3)cc1
REMARK SMILES IDX 24 1 23 2 21 3 22 4 19 6 20 7 18 8 16 9 17 10 2 12 1 13 3 14
REMARK SMILES IDX 4 15 5 16 15 17 6 18 14 19 7 20 8 21 9 22 13 23 10 24 12 25
REMARK SMILES IDX 11 26 25 27 26 28 27 29 28 30 29 31 30 33 31 34 32 35 84 36
REMARK SMILES IDX 33 37 83 38 34 39 35 40 36 41 77 42 37 43 82 44 76 45 78 46
REMARK SMILES IDX 38 47 81 48 75 49 74 50 39 52 65 53 48 54 64 55 49 56 52 57
REMARK SMILES IDX 63 58 79 59 50 60 51 61 62 63 80 64 53 65 40 66 41 67 46 68
REMARK SMILES IDX 42 69 43 70 45 71 47 72 44 73 66 74 67 75 72 76 68 77 69 78
REMARK SMILES IDX 71 79 73 80 70 81 54 82 55 83 60 84 56 85 57 86 59 87 61 88
REMARK SMILES IDX 58 89
REMARK H PARENT 23 5 18 11 28 32 78 51 52 62
REMARK Flexibility Score: inf
ROOT
ATOM      1  C   UNL A   1      31.392  29.752  25.132  1.00  0.00     0.116 C 
ENDROOT
BRANCH   1   2
ATOM      2  N   UNL A   1      30.808  29.758  23.801  1.00  0.00    -0.354 N 
ATOM      3  C   UNL A   1      30.489  28.718  22.967  1.00  0.00     0.242 C 
ATOM      4  O   UNL A   1      30.018  28.995  21.860  1.00  0.00    -0.273 OA
ATOM      5  H   UNL A   1      30.609  30.652  23.442  1.00  0.00     0.163 HD
BRANCH   3   6
ATOM      6  C   UNL A   1      30.837  27.258  23.344  1.00  0.00     0.168 C 
ATOM      7  C   UNL A   1      29.516  26.543  23.551  1.00  0.00     0.041 C 
BRANCH   6   8
ATOM      8  N   UNL A   1      31.821  26.748  22.374  1.00  0.00    -0.341 N 
ATOM      9  C   UNL A   1      32.837  25.847  22.356  1.00  0.00     0.261 C 
ATOM     10  O   UNL A   1      33.566  25.881  21.356  1.00  0.00    -0.271 OA
ATOM     11  H   UNL A   1      31.712  27.180  21.496  1.00  0.00     0.164 HD
BRANCH   9  12
ATOM     12  C   UNL A   1      33.027  24.737  23.399  1.00  0.00     0.258 C 
ATOM     13  C   UNL A   1      34.482  24.271  23.326  1.00  0.00     0.064 C 
BRANCH  12  14
ATOM     14  O   UNL A   1      31.938  23.837  23.248  1.00  0.00    -0.481 OA
BRANCH  14  15
ATOM     15  C   UNL A   1      31.917  22.541  23.645  1.00  0.00     0.120 A 
ATOM     16  C   UNL A   1      31.952  22.040  24.936  1.00  0.00     0.047 A 
ATOM     17  C   UNL A   1      31.981  21.643  22.577  1.00  0.00     0.047 A 
ATOM     18  C   UNL A   1      32.233  20.683  25.153  1.00  0.00     0.012 A 
ATOM     19  C   UNL A   1      32.229  20.287  22.791  1.00  0.00     0.012 A 
ATOM     20  C   UNL A   1      32.422  19.788  24.087  1.00  0.00    -0.018 A 
BRANCH  20  21
ATOM     21  C   UNL A   1      32.859  18.394  24.314  1.00  0.00    -0.018 A 
ATOM     22  C   UNL A   1      32.601  17.727  25.522  1.00  0.00     0.009 A 
ATOM     23  C   UNL A   1      33.587  17.697  23.330  1.00  0.00     0.009 A 
ATOM     24  C   UNL A   1      33.053  16.422  25.741  1.00  0.00     0.001 A 
ATOM     25  C   UNL A   1      34.034  16.390  23.542  1.00  0.00     0.001 A 
ATOM     26  C   UNL A   1      33.768  15.755  24.750  1.00  0.00     0.000 A 
ENDBRANCH  20  21
ENDBRANCH  14  15
ENDBRANCH  12  14
ENDBRANCH   9  12
ENDBRANCH   6   8
ENDBRANCH   3   6
ENDBRANCH   1   2
BRANCH   1  27
ATOM     27  C   UNL A   1      32.919  29.696  25.129  1.00  0.00     0.023 C 
BRANCH  27  28
ATOM     28  C   UNL A   1      33.534  28.520  25.879  1.00  0.00     0.023 C 
BRANCH  28  29
ATOM     29  C   UNL A   1      33.700  28.721  27.377  1.00  0.00     0.116 C 
BRANCH  29  30
ATOM     30  N   UNL A   1      33.745  30.119  27.781  1.00  0.00    -0.352 N 
ATOM     31  C   UNL A   1      34.815  30.813  28.303  1.00  0.00     0.251 C 
ATOM     32  H   UNL A   1      32.911  30.628  27.667  1.00  0.00     0.163 HD
ATOM     33  O   UNL A   1      34.694  31.970  28.679  1.00  0.00    -0.269 OA
BRANCH  31  34
ATOM     34  C   UNL A   1      36.105  30.109  28.449  1.00  0.00     0.039 A 
ATOM     35  C   UNL A   1      37.016  30.143  27.391  1.00  0.00     0.014 A 
ATOM     36  C   UNL A   1      36.443  29.508  29.663  1.00  0.00     0.014 A 
ATOM     37  C   UNL A   1      38.309  29.650  27.583  1.00  0.00     0.010 A 
ATOM     38  C   UNL A   1      37.749  29.085  29.875  1.00  0.00     0.010 A 
ATOM     39  C   UNL A   1      38.697  29.164  28.841  1.00  0.00    -0.014 A 
BRANCH  39  40
ATOM     40  C   UNL A   1      40.091  28.744  29.123  1.00  0.00     0.031 A 
ATOM     41  C   UNL A   1      41.057  29.727  29.715  1.00  0.00     0.074 A 
ATOM     42  C   UNL A   1      40.515  27.526  28.736  1.00  0.00     0.049 A 
ATOM     43  N   UNL A   1      42.352  29.624  29.869  1.00  0.00    -0.248 NA
ATOM     44  C   UNL A   1      40.495  31.013  30.154  1.00  0.00     0.031 C 
ATOM     45  C   UNL A   1      39.687  26.499  28.102  1.00  0.00     0.029 A 
ATOM     46  N   UNL A   1      41.763  26.958  28.792  1.00  0.00    -0.354 N 
ATOM     47  C   UNL A   1      42.763  30.843  30.391  1.00  0.00     0.074 A 
ATOM     48  C   UNL A   1      41.588  31.681  30.490  1.00  0.00     0.031 C 
ATOM     49  C   UNL A   1      40.447  25.427  27.830  1.00  0.00     0.029 A 
ATOM     50  C   UNL A   1      41.822  25.704  28.235  1.00  0.00     0.049 A 
ATOM     51  H   UNL A   1      42.543  27.408  29.193  1.00  0.00     0.167 HD
ATOM     52  C   UNL A   1      44.007  31.225  30.767  1.00  0.00     0.037 A 
ATOM     53  C   UNL A   1      42.870  24.878  28.054  1.00  0.00     0.037 A 
ATOM     54  C   UNL A   1      45.168  30.378  30.701  1.00  0.00     0.049 A 
ATOM     55  C   UNL A   1      44.235  25.308  28.510  1.00  0.00     0.074 A 
ATOM     56  C   UNL A   1      46.460  30.649  31.116  1.00  0.00     0.029 A 
ATOM     57  N   UNL A   1      45.174  29.090  30.188  1.00  0.00    -0.354 N 
ATOM     58  N   UNL A   1      44.604  26.446  29.046  1.00  0.00    -0.248 NA
ATOM     59  C   UNL A   1      45.327  24.340  28.340  1.00  0.00     0.031 C 
ATOM     60  C   UNL A   1      47.253  29.533  30.833  1.00  0.00     0.029 A 
ATOM     61  C   UNL A   1      46.448  28.555  30.270  1.00  0.00     0.049 A 
ATOM     62  H   UNL A   1      44.388  28.625  29.821  1.00  0.00     0.167 HD
ATOM     63  C   UNL A   1      45.964  26.324  29.296  1.00  0.00     0.074 A 
ATOM     64  C   UNL A   1      46.353  24.998  28.861  1.00  0.00     0.031 C 
ATOM     65  C   UNL A   1      46.814  27.230  29.839  1.00  0.00     0.037 A 
BRANCH  52  66
ATOM     66  C   UNL A   1      44.163  32.624  31.281  1.00  0.00     0.057 A 
ATOM     67  C   UNL A   1      43.947  32.944  32.628  1.00  0.00     0.134 A 
ATOM     68  C   UNL A   1      44.527  33.666  30.418  1.00  0.00     0.134 A 
ATOM     69  F   UNL A   1      43.579  31.994  33.501  1.00  0.00    -0.206 F 
ATOM     70  C   UNL A   1      44.054  34.256  33.093  1.00  0.00     0.040 A 
ATOM     71  C   UNL A   1      44.661  34.978  30.877  1.00  0.00     0.040 A 
ATOM     72  F   UNL A   1      44.751  33.428  29.118  1.00  0.00    -0.206 F 
ATOM     73  C   UNL A   1      44.416  35.277  32.216  1.00  0.00     0.006 A 
ENDBRANCH  52  66
BRANCH  53  74
ATOM     74  C   UNL A   1      42.659  23.552  27.426  1.00  0.00     0.057 A 
ATOM     75  C   UNL A   1      42.305  22.441  28.197  1.00  0.00     0.134 A 
ATOM     76  C   UNL A   1      42.783  23.370  26.044  1.00  0.00     0.134 A 
ATOM     77  F   UNL A   1      42.189  22.553  29.529  1.00  0.00    -0.206 F 
ATOM     78  C   UNL A   1      42.090  21.188  27.618  1.00  0.00     0.040 A 
ATOM     79  C   UNL A   1      42.552  22.129  25.449  1.00  0.00     0.040 A 
ATOM     80  F   UNL A   1      43.111  24.401  25.252  1.00  0.00    -0.206 F 
ATOM     81  C   UNL A   1      42.208  21.033  26.239  1.00  0.00     0.006 A 
ENDBRANCH  53  74
BRANCH  65  82
ATOM     82  C   UNL A   1      48.240  26.807  30.021  1.00  0.00     0.057 A 
ATOM     83  C   UNL A   1      48.656  26.087  31.146  1.00  0.00     0.134 A 
ATOM     84  C   UNL A   1      49.196  27.085  29.035  1.00  0.00     0.134 A 
ATOM     85  F   UNL A   1      47.789  25.803  32.131  1.00  0.00    -0.206 F 
ATOM     86  C   UNL A   1      49.979  25.667  31.292  1.00  0.00     0.040 A 
ATOM     87  C   UNL A   1      50.516  26.654  29.161  1.00  0.00     0.040 A 
ATOM     88  F   UNL A   1      48.856  27.766  27.931  1.00  0.00    -0.206 F 
ATOM     89  C   UNL A   1      50.912  25.945  30.294  1.00  0.00     0.006 A 
ENDBRANCH  65  82
ENDBRANCH  39  40
ENDBRANCH  31  34
ENDBRANCH  29  30
ENDBRANCH  28  29
ENDBRANCH  27  28
ENDBRANCH   1  27
TORSDOF 16
ENDMDL
MODEL 2
REMARK VINA RESULT:     -12.3      2.722      8.585
REMARK SMILES C[C@H](Oc1ccc(-c2ccccc2)cc1)C(=O)N[C@H](C)C(=O)NCCCCNC(=O)c1ccc(-c2c3nc(c(-c4c(F)cccc4F)c4ccc([nH]4)c(-c4c(F)cccc4F)c4nc(c(-c5c(F)cccc5F)c5ccc2[nH]5)C=C4)C=C3)cc1
REMARK SMILES IDX 24 1 23 2 21 3 22 4 19 6 20 7 18 8 16 9 17 10 2 12 1 13 3 14
REMARK SMILES IDX 4 15 5 16 15 17 6 18 14 19 7 20 8 21 9 22 13 23 10 24 12 25
REMARK SMILES IDX 11 26 25 27 26 28 27 29 28 30 29 31 30 33 31 34 32 35 84 36
REMARK SMILES IDX 33 37 83 38 34 39 35 40 36 41 77 42 37 43 82 44 76 45 78 46
REMARK SMILES IDX 38 47 81 48 75 49 74 50 39 52 65 53 48 54 64 55 49 56 52 57
REMARK SMILES IDX 63 58 79 59 50 60 51 61 62 63 80 64 53 65 40 66 41 67 46 68
REMARK SMILES IDX 42 69 43 70 45 71 47 72 44 73 66 74 67 75 72 76 68 77 69 78
REMARK SMILES IDX 71 79 73 80 70 81 54 82 55 83 60 84 56 85 57 86 59 87 61 88
REMARK SMILES IDX 58 89
REMARK H PARENT 23 5 18 11 28 32 78 51 52 62
REMARK Flexibility Score: inf
ROOT
ATOM      1  C   UNL A   1      36.092  22.712  25.134  1.00  0.00     0.116 C 
ENDROOT
BRANCH   1   2
ATOM      2  N   UNL A   1      35.563  22.161  26.371  1.00  0.00    -0.354 N 
ATOM      3  C   UNL A   1      34.317  21.672  26.664  1.00  0.00     0.242 C 
ATOM      4  O   UNL A   1      34.111  21.279  27.815  1.00  0.00    -0.273 OA
ATOM      5  H   UNL A   1      36.203  22.136  27.118  1.00  0.00     0.163 HD
BRANCH   3   6
ATOM      6  C   UNL A   1      33.169  21.742  25.627  1.00  0.00     0.168 C 
ATOM      7  C   UNL A   1      33.067  20.361  25.010  1.00  0.00     0.041 C 
BRANCH   6   8
ATOM      8  N   UNL A   1      31.999  22.363  26.269  1.00  0.00    -0.341 N 
ATOM      9  C   UNL A   1      31.504  23.615  26.454  1.00  0.00     0.261 C 
ATOM     10  O   UNL A   1      30.567  23.706  27.258  1.00  0.00    -0.271 OA
ATOM     11  H   UNL A   1      31.414  21.685  26.676  1.00  0.00     0.164 HD
BRANCH   9  12
ATOM     12  C   UNL A   1      31.931  24.844  25.640  1.00  0.00     0.258 C 
ATOM     13  C   UNL A   1      33.342  25.232  26.084  1.00  0.00     0.064 C 
BRANCH  12  14
ATOM     14  O   UNL A   1      30.848  25.762  25.679  1.00  0.00    -0.481 OA
BRANCH  14  15
ATOM     15  C   UNL A   1      30.711  26.864  24.901  1.00  0.00     0.120 A 
ATOM     16  C   UNL A   1      31.347  28.087  25.031  1.00  0.00     0.047 A 
ATOM     17  C   UNL A   1      29.710  26.729  23.937  1.00  0.00     0.047 A 
ATOM     18  C   UNL A   1      30.863  29.206  24.336  1.00  0.00     0.012 A 
ATOM     19  C   UNL A   1      29.249  27.833  23.220  1.00  0.00     0.012 A 
ATOM     20  C   UNL A   1      29.776  29.111  23.451  1.00  0.00    -0.018 A 
BRANCH  20  21
ATOM     21  C   UNL A   1      29.176  30.311  22.831  1.00  0.00    -0.018 A 
ATOM     22  C   UNL A   1      28.714  30.304  21.505  1.00  0.00     0.009 A 
ATOM     23  C   UNL A   1      29.082  31.522  23.544  1.00  0.00     0.009 A 
ATOM     24  C   UNL A   1      28.184  31.456  20.915  1.00  0.00     0.001 A 
ATOM     25  C   UNL A   1      28.546  32.673  22.961  1.00  0.00     0.001 A 
ATOM     26  C   UNL A   1      28.100  32.639  21.644  1.00  0.00     0.000 A 
ENDBRANCH  20  21
ENDBRANCH  14  15
ENDBRANCH  12  14
ENDBRANCH   9  12
ENDBRANCH   6   8
ENDBRANCH   3   6
ENDBRANCH   1   2
BRANCH   1  27
ATOM     27  C   UNL A   1      36.856  21.694  24.289  1.00  0.00     0.023 C 
BRANCH  27  28
ATOM     28  C   UNL A   1      37.508  20.555  25.064  1.00  0.00     0.023 C 
BRANCH  28  29
ATOM     29  C   UNL A   1      38.873  20.871  25.656  1.00  0.00     0.116 C 
BRANCH  29  30
ATOM     30  N   UNL A   1      39.784  19.736  25.671  1.00  0.00    -0.352 N 
ATOM     31  C   UNL A   1      41.105  19.720  26.063  1.00  0.00     0.251 C 
ATOM     32  H   UNL A   1      39.412  18.879  25.365  1.00  0.00     0.163 HD
ATOM     33  O   UNL A   1      41.785  18.710  25.950  1.00  0.00    -0.269 OA
BRANCH  31  34
ATOM     34  C   UNL A   1      41.700  20.969  26.580  1.00  0.00     0.039 A 
ATOM     35  C   UNL A   1      42.284  21.862  25.678  1.00  0.00     0.014 A 
ATOM     36  C   UNL A   1      41.587  21.293  27.933  1.00  0.00     0.014 A 
ATOM     37  C   UNL A   1      42.676  23.127  26.122  1.00  0.00     0.010 A 
ATOM     38  C   UNL A   1      41.910  22.576  28.357  1.00  0.00     0.010 A 
ATOM     39  C   UNL A   1      42.445  23.508  27.453  1.00  0.00    -0.014 A 
BRANCH  39  40
ATOM     40  C   UNL A   1      42.733  24.880  27.937  1.00  0.00     0.031 A 
ATOM     41  C   UNL A   1      44.117  25.229  28.399  1.00  0.00     0.074 A 
ATOM     42  C   UNL A   1      41.729  25.767  28.075  1.00  0.00     0.049 A 
ATOM     43  N   UNL A   1      44.536  26.300  29.023  1.00  0.00    -0.248 NA
ATOM     44  C   UNL A   1      45.159  24.219  28.164  1.00  0.00     0.031 C 
ATOM     45  C   UNL A   1      40.330  25.530  27.712  1.00  0.00     0.029 A 
ATOM     46  N   UNL A   1      41.728  27.038  28.591  1.00  0.00    -0.354 N 
ATOM     47  C   UNL A   1      45.881  26.078  29.283  1.00  0.00     0.074 A 
ATOM     48  C   UNL A   1      46.197  24.756  28.785  1.00  0.00     0.031 C 
ATOM     49  C   UNL A   1      39.608  26.621  28.013  1.00  0.00     0.029 A 
ATOM     50  C   UNL A   1      40.483  27.617  28.624  1.00  0.00     0.049 A 
ATOM     51  H   UNL A   1      42.542  27.492  28.907  1.00  0.00     0.167 HD
ATOM     52  C   UNL A   1      46.776  26.906  29.872  1.00  0.00     0.037 A 
ATOM     53  C   UNL A   1      40.087  28.808  29.110  1.00  0.00     0.037 A 
ATOM     54  C   UNL A   1      46.468  28.234  30.334  1.00  0.00     0.049 A 
ATOM     55  C   UNL A   1      41.103  29.727  29.728  1.00  0.00     0.074 A 
ATOM     56  C   UNL A   1      47.318  29.175  30.886  1.00  0.00     0.029 A 
ATOM     57  N   UNL A   1      45.206  28.808  30.292  1.00  0.00    -0.354 N 
ATOM     58  N   UNL A   1      42.383  29.525  29.926  1.00  0.00    -0.248 NA
ATOM     59  C   UNL A   1      40.622  31.037  30.186  1.00  0.00     0.031 C 
ATOM     60  C   UNL A   1      46.566  30.312  31.201  1.00  0.00     0.029 A 
ATOM     61  C   UNL A   1      45.253  30.089  30.815  1.00  0.00     0.049 A 
ATOM     62  H   UNL A   1      44.398  28.369  29.942  1.00  0.00     0.167 HD
ATOM     63  C   UNL A   1      42.864  30.688  30.512  1.00  0.00     0.074 A 
ATOM     64  C   UNL A   1      41.740  31.595  30.629  1.00  0.00     0.031 C 
ATOM     65  C   UNL A   1      44.125  30.979  30.916  1.00  0.00     0.037 A 
BRANCH  52  66
ATOM     66  C   UNL A   1      48.172  26.388  30.045  1.00  0.00     0.057 A 
ATOM     67  C   UNL A   1      48.575  25.729  31.214  1.00  0.00     0.134 A 
ATOM     68  C   UNL A   1      49.125  26.554  29.033  1.00  0.00     0.134 A 
ATOM     69  F   UNL A   1      47.713  25.554  32.227  1.00  0.00    -0.206 F 
ATOM     70  C   UNL A   1      49.887  25.285  31.385  1.00  0.00     0.040 A 
ATOM     71  C   UNL A   1      50.434  26.090  29.182  1.00  0.00     0.040 A 
ATOM     72  F   UNL A   1      48.804  27.172  27.888  1.00  0.00    -0.206 F 
ATOM     73  C   UNL A   1      50.820  25.462  30.365  1.00  0.00     0.006 A 
ENDBRANCH  52  66
BRANCH  53  74
ATOM     74  C   UNL A   1      38.662  29.205  29.012  1.00  0.00     0.057 A 
ATOM     75  C   UNL A   1      38.120  29.640  27.799  1.00  0.00     0.134 A 
ATOM     76  C   UNL A   1      37.806  29.136  30.117  1.00  0.00     0.134 A 
ATOM     77  F   UNL A   1      38.897  29.741  26.710  1.00  0.00    -0.206 F 
ATOM     78  C   UNL A   1      36.777  30.003  27.687  1.00  0.00     0.040 A 
ATOM     79  C   UNL A   1      36.457  29.478  30.017  1.00  0.00     0.040 A 
ATOM     80  F   UNL A   1      38.267  28.718  31.306  1.00  0.00    -0.206 F 
ATOM     81  C   UNL A   1      35.941  29.917  28.798  1.00  0.00     0.006 A 
ENDBRANCH  53  74
BRANCH  65  82
ATOM     82  C   UNL A   1      44.362  32.342  31.491  1.00  0.00     0.057 A 
ATOM     83  C   UNL A   1      44.276  32.585  32.866  1.00  0.00     0.134 A 
ATOM     84  C   UNL A   1      44.726  33.410  30.662  1.00  0.00     0.134 A 
ATOM     85  F   UNL A   1      43.918  31.605  33.710  1.00  0.00    -0.206 F 
ATOM     86  C   UNL A   1      44.532  33.850  33.398  1.00  0.00     0.040 A 
ATOM     87  C   UNL A   1      45.003  34.674  31.183  1.00  0.00     0.040 A 
ATOM     88  F   UNL A   1      44.830  33.238  29.336  1.00  0.00    -0.206 F 
ATOM     89  C   UNL A   1      44.903  34.898  32.555  1.00  0.00     0.006 A 
ENDBRANCH  65  82
ENDBRANCH  39  40
ENDBRANCH  31  34
ENDBRANCH  29  30
ENDBRANCH  28  29
ENDBRANCH  27  28
ENDBRANCH   1  27
TORSDOF 16
ENDMDL
MODEL 3
REMARK VINA RESULT:     -12.2      3.356      6.895
REMARK SMILES C[C@H](Oc1ccc(-c2ccccc2)cc1)C(=O)N[C@H](C)C(=O)NCCCCNC(=O)c1ccc(-c2c3nc(c(-c4c(F)cccc4F)c4ccc([nH]4)c(-c4c(F)cccc4F)c4nc(c(-c5c(F)cccc5F)c5ccc2[nH]5)C=C4)C=C3)cc1
REMARK SMILES IDX 24 1 23 2 21 3 22 4 19 6 20 7 18 8 16 9 17 10 2 12 1 13 3 14
REMARK SMILES IDX 4 15 5 16 15 17 6 18 14 19 7 20 8 21 9 22 13 23 10 24 12 25
REMARK SMILES IDX 11 26 25 27 26 28 27 29 28 30 29 31 30 33 31 34 32 35 84 36
REMARK SMILES IDX 33 37 83 38 34 39 35 40 36 41 77 42 37 43 82 44 76 45 78 46
REMARK SMILES IDX 38 47 81 48 75 49 74 50 39 52 65 53 48 54 64 55 49 56 52 57
REMARK SMILES IDX 63 58 79 59 50 60 51 61 62 63 80 64 53 65 40 66 41 67 46 68
REMARK SMILES IDX 42 69 43 70 45 71 47 72 44 73 66 74 67 75 72 76 68 77 69 78
REMARK SMILES IDX 71 79 73 80 70 81 54 82 55 83 60 84 56 85 57 86 59 87 61 88
REMARK SMILES IDX 58 89
REMARK H PARENT 23 5 18 11 28 32 78 51 52 62
REMARK Flexibility Score: inf
ROOT
ATOM      1  C   UNL A   1      33.238  29.198  23.272  1.00  0.00     0.116 C 
ENDROOT
BRANCH   1   2
ATOM      2  N   UNL A   1      31.990  29.522  22.601  1.00  0.00    -0.354 N 
ATOM      3  C   UNL A   1      30.868  28.762  22.396  1.00  0.00     0.242 C 
ATOM      4  O   UNL A   1      29.938  29.272  21.766  1.00  0.00    -0.273 OA
ATOM      5  H   UNL A   1      31.943  30.435  22.236  1.00  0.00     0.163 HD
BRANCH   3   6
ATOM      6  C   UNL A   1      30.826  27.273  22.817  1.00  0.00     0.168 C 
ATOM      7  C   UNL A   1      29.380  26.965  23.152  1.00  0.00     0.041 C 
BRANCH   6   8
ATOM      8  N   UNL A   1      31.546  26.482  21.805  1.00  0.00    -0.341 N 
ATOM      9  C   UNL A   1      32.541  25.559  21.775  1.00  0.00     0.261 C 
ATOM     10  O   UNL A   1      32.997  25.298  20.655  1.00  0.00    -0.271 OA
ATOM     11  H   UNL A   1      31.214  26.677  20.899  1.00  0.00     0.164 HD
BRANCH   9  12
ATOM     12  C   UNL A   1      33.007  24.749  22.994  1.00  0.00     0.258 C 
ATOM     13  C   UNL A   1      34.055  25.580  23.735  1.00  0.00     0.064 C 
BRANCH  12  14
ATOM     14  O   UNL A   1      33.273  23.432  22.537  1.00  0.00    -0.481 OA
BRANCH  14  15
ATOM     15  C   UNL A   1      33.293  22.312  23.302  1.00  0.00     0.120 A 
ATOM     16  C   UNL A   1      34.195  21.972  24.297  1.00  0.00     0.047 A 
ATOM     17  C   UNL A   1      32.333  21.374  22.920  1.00  0.00     0.047 A 
ATOM     18  C   UNL A   1      34.252  20.653  24.769  1.00  0.00     0.012 A 
ATOM     19  C   UNL A   1      32.366  20.069  23.413  1.00  0.00     0.012 A 
ATOM     20  C   UNL A   1      33.369  19.664  24.305  1.00  0.00    -0.018 A 
BRANCH  20  21
ATOM     21  C   UNL A   1      33.520  18.246  24.693  1.00  0.00    -0.018 A 
ATOM     22  C   UNL A   1      34.672  17.510  24.369  1.00  0.00     0.009 A 
ATOM     23  C   UNL A   1      32.490  17.570  25.376  1.00  0.00     0.009 A 
ATOM     24  C   UNL A   1      34.788  16.158  24.707  1.00  0.00     0.001 A 
ATOM     25  C   UNL A   1      32.606  16.222  25.723  1.00  0.00     0.001 A 
ATOM     26  C   UNL A   1      33.755  15.516  25.385  1.00  0.00     0.000 A 
ENDBRANCH  20  21
ENDBRANCH  14  15
ENDBRANCH  12  14
ENDBRANCH   9  12
ENDBRANCH   6   8
ENDBRANCH   3   6
ENDBRANCH   1   2
BRANCH   1  27
ATOM     27  C   UNL A   1      33.136  29.220  24.797  1.00  0.00     0.023 C 
BRANCH  27  28
ATOM     28  C   UNL A   1      31.980  30.035  25.366  1.00  0.00     0.023 C 
BRANCH  28  29
ATOM     29  C   UNL A   1      32.165  30.511  26.798  1.00  0.00     0.116 C 
BRANCH  29  30
ATOM     30  N   UNL A   1      31.981  31.944  26.969  1.00  0.00    -0.352 N 
ATOM     31  C   UNL A   1      32.863  32.849  27.519  1.00  0.00     0.251 C 
ATOM     32  H   UNL A   1      31.124  32.311  26.654  1.00  0.00     0.163 HD
ATOM     33  O   UNL A   1      32.550  34.020  27.678  1.00  0.00    -0.269 OA
BRANCH  31  34
ATOM     34  C   UNL A   1      34.185  32.361  27.963  1.00  0.00     0.039 A 
ATOM     35  C   UNL A   1      35.247  33.263  28.042  1.00  0.00     0.014 A 
ATOM     36  C   UNL A   1      34.337  31.040  28.391  1.00  0.00     0.014 A 
ATOM     37  C   UNL A   1      36.445  32.864  28.639  1.00  0.00     0.010 A 
ATOM     38  C   UNL A   1      35.502  30.666  29.050  1.00  0.00     0.010 A 
ATOM     39  C   UNL A   1      36.561  31.578  29.190  1.00  0.00    -0.014 A 
BRANCH  39  40
ATOM     40  C   UNL A   1      37.768  31.152  29.939  1.00  0.00     0.031 A 
ATOM     41  C   UNL A   1      38.728  30.185  29.313  1.00  0.00     0.074 A 
ATOM     42  C   UNL A   1      37.933  31.537  31.219  1.00  0.00     0.049 A 
ATOM     43  N   UNL A   1      39.734  29.549  29.854  1.00  0.00    -0.248 NA
ATOM     44  C   UNL A   1      38.497  29.859  27.897  1.00  0.00     0.031 C 
ATOM     45  C   UNL A   1      37.042  32.432  31.959  1.00  0.00     0.029 A 
ATOM     46  N   UNL A   1      38.896  31.195  32.135  1.00  0.00    -0.354 N 
ATOM     47  C   UNL A   1      40.235  28.724  28.856  1.00  0.00     0.074 A 
ATOM     48  C   UNL A   1      39.399  28.913  27.690  1.00  0.00     0.031 C 
ATOM     49  C   UNL A   1      37.501  32.571  33.213  1.00  0.00     0.029 A 
ATOM     50  C   UNL A   1      38.694  31.746  33.376  1.00  0.00     0.049 A 
ATOM     51  H   UNL A   1      39.659  30.609  31.922  1.00  0.00     0.167 HD
ATOM     52  C   UNL A   1      41.305  27.895  28.903  1.00  0.00     0.037 A 
ATOM     53  C   UNL A   1      39.383  31.590  34.523  1.00  0.00     0.037 A 
ATOM     54  C   UNL A   1      42.157  27.737  30.051  1.00  0.00     0.049 A 
ATOM     55  C   UNL A   1      40.587  30.693  34.543  1.00  0.00     0.074 A 
ATOM     56  C   UNL A   1      43.302  26.971  30.179  1.00  0.00     0.029 A 
ATOM     57  N   UNL A   1      41.955  28.363  31.272  1.00  0.00    -0.354 N 
ATOM     58  N   UNL A   1      41.080  29.954  33.579  1.00  0.00    -0.248 NA
ATOM     59  C   UNL A   1      41.332  30.609  35.807  1.00  0.00     0.031 C 
ATOM     60  C   UNL A   1      43.780  27.114  31.485  1.00  0.00     0.029 A 
ATOM     61  C   UNL A   1      42.950  27.995  32.162  1.00  0.00     0.049 A 
ATOM     62  H   UNL A   1      41.214  28.978  31.476  1.00  0.00     0.167 HD
ATOM     63  C   UNL A   1      42.203  29.334  34.112  1.00  0.00     0.074 A 
ATOM     64  C   UNL A   1      42.323  29.791  35.482  1.00  0.00     0.031 C 
ATOM     65  C   UNL A   1      43.058  28.466  33.519  1.00  0.00     0.037 A 
BRANCH  52  66
ATOM     66  C   UNL A   1      41.604  27.100  27.668  1.00  0.00     0.057 A 
ATOM     67  C   UNL A   1      42.390  27.617  26.629  1.00  0.00     0.134 A 
ATOM     68  C   UNL A   1      41.094  25.805  27.512  1.00  0.00     0.134 A 
ATOM     69  F   UNL A   1      42.893  28.858  26.711  1.00  0.00    -0.206 F 
ATOM     70  C   UNL A   1      42.631  26.887  25.464  1.00  0.00     0.040 A 
ATOM     71  C   UNL A   1      41.350  25.056  26.361  1.00  0.00     0.040 A 
ATOM     72  F   UNL A   1      40.337  25.250  28.469  1.00  0.00    -0.206 F 
ATOM     73  C   UNL A   1      42.113  25.600  25.330  1.00  0.00     0.006 A 
ENDBRANCH  52  66
BRANCH  53  74
ATOM     74  C   UNL A   1      38.955  32.319  35.741  1.00  0.00     0.057 A 
ATOM     75  C   UNL A   1      38.193  31.685  36.727  1.00  0.00     0.134 A 
ATOM     76  C   UNL A   1      39.317  33.654  35.959  1.00  0.00     0.134 A 
ATOM     77  F   UNL A   1      37.804  30.412  36.563  1.00  0.00    -0.206 F 
ATOM     78  C   UNL A   1      37.795  32.354  37.886  1.00  0.00     0.040 A 
ATOM     79  C   UNL A   1      38.942  34.330  37.121  1.00  0.00     0.040 A 
ATOM     80  F   UNL A   1      40.055  34.312  35.053  1.00  0.00    -0.206 F 
ATOM     81  C   UNL A   1      38.175  33.679  38.086  1.00  0.00     0.006 A 
ENDBRANCH  53  74
BRANCH  65  82
ATOM     82  C   UNL A   1      44.214  27.978  34.336  1.00  0.00     0.057 A 
ATOM     83  C   UNL A   1      45.422  28.683  34.398  1.00  0.00     0.134 A 
ATOM     84  C   UNL A   1      44.100  26.814  35.107  1.00  0.00     0.134 A 
ATOM     85  F   UNL A   1      45.596  29.798  33.671  1.00  0.00    -0.206 F 
ATOM     86  C   UNL A   1      46.483  28.240  35.189  1.00  0.00     0.040 A 
ATOM     87  C   UNL A   1      45.146  26.372  35.916  1.00  0.00     0.040 A 
ATOM     88  F   UNL A   1      42.966  26.099  35.094  1.00  0.00    -0.206 F 
ATOM     89  C   UNL A   1      46.344  27.084  35.956  1.00  0.00     0.006 A 
ENDBRANCH  65  82
ENDBRANCH  39  40
ENDBRANCH  31  34
ENDBRANCH  29  30
ENDBRANCH  28  29
ENDBRANCH  27  28
ENDBRANCH   1  27
TORSDOF 16
ENDMDL
