MODEL 1
REMARK VINA RESULT:     -12.1      0.000      0.000
REMARK SMILES Cc1cc2c(c(C)c1Cl)C=C(C(=O)NCCCCNC(=O)c1ccc(-c3c4nc(c(-c5c(F)cccc5F)c5ccc([nH]5)c(-c5c(F)cccc5F)c5nc(c(-c6c(F)cccc6F)c6ccc3[nH]6)C=C5)C=C4)cc1)[C@@H](C(F)(F)F)O2
REMARK SMILES IDX 17 1 16 2 15 3 14 4 12 5 13 6 11 8 1 9 2 10 3 11 8 12 4 13
REMARK SMILES IDX 6 14 9 15 5 16 81 17 7 18 10 19 76 20 77 21 78 22 79 23
REMARK SMILES IDX 80 24 18 25 19 26 20 27 21 29 22 30 23 31 75 32 24 33 74 34
REMARK SMILES IDX 25 35 26 36 27 37 68 38 28 39 73 40 67 41 69 42 29 43 72 44
REMARK SMILES IDX 66 45 65 46 30 48 56 49 39 50 55 51 40 52 43 53 54 54 70 55
REMARK SMILES IDX 41 56 42 57 53 59 71 60 44 61 31 62 32 63 37 64 33 65 34 66
REMARK SMILES IDX 36 67 38 68 35 69 57 70 58 71 63 72 59 73 60 74 62 75 64 76
REMARK SMILES IDX 61 77 45 78 46 79 51 80 47 81 48 82 50 83 52 84 49 85
REMARK H PARENT 14 7 19 28 69 47 43 58
REMARK Flexibility Score: inf
ROOT
ATOM      1  C   UNL A   1      37.510  20.655  24.907  1.00  0.00     0.023 C 
ENDROOT
BRANCH   1   2
ATOM      2  C   UNL A   1      36.936  21.889  24.203  1.00  0.00     0.023 C 
BRANCH   2   3
ATOM      3  C   UNL A   1      36.802  23.114  25.102  1.00  0.00     0.116 C 
BRANCH   3   4
ATOM      4  N   UNL A   1      35.951  22.851  26.248  1.00  0.00    -0.352 N 
ATOM      5  C   UNL A   1      34.693  23.165  26.639  1.00  0.00     0.251 C 
ATOM      6  O   UNL A   1      34.365  22.721  27.744  1.00  0.00    -0.270 OA
ATOM      7  H   UNL A   1      36.410  22.297  26.920  1.00  0.00     0.163 HD
BRANCH   5   8
ATOM      8  C   UNL A   1      33.719  23.978  25.851  1.00  0.00     0.067 C 
ATOM      9  C   UNL A   1      30.016  28.556  23.062  1.00  0.00     0.046 C 
ATOM     10  C   UNL A   1      30.996  27.765  23.886  1.00  0.00    -0.028 A 
ATOM     11  C   UNL A   1      31.193  26.417  23.576  1.00  0.00     0.052 A 
ATOM     12  C   UNL A   1      31.708  28.327  24.966  1.00  0.00     0.047 A 
ATOM     13  C   UNL A   1      32.074  25.642  24.323  1.00  0.00     0.128 A 
ATOM     14  C   UNL A   1      32.621  27.552  25.724  1.00  0.00    -0.021 A 
ATOM     15  Cl  UNL A   1      31.438  30.002  25.345  1.00  0.00    -0.084 Cl
ATOM     16  C   UNL A   1      32.801  26.188  25.386  1.00  0.00     0.022 A 
ATOM     17  O   UNL A   1      32.204  24.346  23.914  1.00  0.00    -0.475 OA
ATOM     18  C   UNL A   1      33.402  28.141  26.876  1.00  0.00     0.047 C 
ATOM     19  C   UNL A   1      33.748  25.307  26.077  1.00  0.00     0.026 C 
ATOM     20  C   UNL A   1      32.719  23.407  24.891  1.00  0.00     0.314 C 
BRANCH  20  21
ATOM     21  C   UNL A   1      31.544  22.708  25.600  1.00  0.00     0.429 C 
ATOM     22  F   UNL A   1      31.392  23.196  26.856  1.00  0.00    -0.167 F 
ATOM     23  F   UNL A   1      30.363  22.909  24.968  1.00  0.00    -0.167 F 
ATOM     24  F   UNL A   1      31.713  21.371  25.701  1.00  0.00    -0.167 F 
ENDBRANCH  20  21
ENDBRANCH   5   8
ENDBRANCH   3   4
ENDBRANCH   2   3
ENDBRANCH   1   2
BRANCH   1  25
ATOM     25  C   UNL A   1      38.782  20.896  25.718  1.00  0.00     0.116 C 
BRANCH  25  26
ATOM     26  N   UNL A   1      39.741  19.802  25.646  1.00  0.00    -0.352 N 
ATOM     27  C   UNL A   1      41.066  19.812  26.005  1.00  0.00     0.251 C 
ATOM     28  H   UNL A   1      39.396  18.950  25.296  1.00  0.00     0.163 HD
ATOM     29  O   UNL A   1      41.777  18.831  25.811  1.00  0.00    -0.269 OA
BRANCH  27  30
ATOM     30  C   UNL A   1      41.637  21.039  26.589  1.00  0.00     0.039 A 
ATOM     31  C   UNL A   1      42.136  22.023  25.733  1.00  0.00     0.014 A 
ATOM     32  C   UNL A   1      41.624  21.234  27.973  1.00  0.00     0.014 A 
ATOM     33  C   UNL A   1      42.560  23.241  26.262  1.00  0.00     0.010 A 
ATOM     34  C   UNL A   1      41.993  22.469  28.493  1.00  0.00     0.010 A 
ATOM     35  C   UNL A   1      42.458  23.483  27.642  1.00  0.00    -0.014 A 
BRANCH  35  36
ATOM     36  C   UNL A   1      42.834  24.793  28.223  1.00  0.00     0.031 A 
ATOM     37  C   UNL A   1      41.782  25.841  28.438  1.00  0.00     0.074 A 
ATOM     38  C   UNL A   1      44.126  25.060  28.487  1.00  0.00     0.049 A 
ATOM     39  N   UNL A   1      41.920  27.084  28.823  1.00  0.00    -0.248 NA
ATOM     40  C   UNL A   1      40.392  25.446  28.157  1.00  0.00     0.031 C 
ATOM     41  C   UNL A   1      45.241  24.131  28.293  1.00  0.00     0.029 A 
ATOM     42  N   UNL A   1      44.722  26.199  28.966  1.00  0.00    -0.354 N 
ATOM     43  C   UNL A   1      40.641  27.622  28.817  1.00  0.00     0.074 A 
ATOM     44  C   UNL A   1      39.745  26.586  28.347  1.00  0.00     0.031 C 
ATOM     45  C   UNL A   1      46.382  24.730  28.668  1.00  0.00     0.029 A 
ATOM     46  C   UNL A   1      46.086  26.096  29.092  1.00  0.00     0.049 A 
ATOM     47  H   UNL A   1      44.220  27.013  29.197  1.00  0.00     0.167 HD
ATOM     48  C   UNL A   1      40.246  28.862  29.188  1.00  0.00     0.037 A 
ATOM     49  C   UNL A   1      46.993  27.002  29.500  1.00  0.00     0.037 A 
ATOM     50  C   UNL A   1      41.136  29.881  29.675  1.00  0.00     0.049 A 
ATOM     51  C   UNL A   1      46.531  28.374  29.902  1.00  0.00     0.074 A 
ATOM     52  C   UNL A   1      40.829  31.160  30.106  1.00  0.00     0.029 A 
ATOM     53  N   UNL A   1      42.510  29.733  29.804  1.00  0.00    -0.354 N 
ATOM     54  N   UNL A   1      45.316  28.865  29.912  1.00  0.00    -0.248 NA
ATOM     55  C   UNL A   1      47.564  29.317  30.350  1.00  0.00     0.031 C 
ATOM     56  C   UNL A   1      42.022  31.795  30.471  1.00  0.00     0.029 A 
ATOM     57  C   UNL A   1      43.065  30.900  30.301  1.00  0.00     0.049 A 
ATOM     58  H   UNL A   1      43.014  28.919  29.575  1.00  0.00     0.167 HD
ATOM     59  C   UNL A   1      45.434  30.165  30.387  1.00  0.00     0.074 A 
ATOM     60  C   UNL A   1      46.839  30.382  30.665  1.00  0.00     0.031 C 
ATOM     61  C   UNL A   1      44.466  31.094  30.575  1.00  0.00     0.037 A 
BRANCH  48  62
ATOM     62  C   UNL A   1      38.785  29.178  29.086  1.00  0.00     0.057 A 
ATOM     63  C   UNL A   1      37.943  29.120  30.204  1.00  0.00     0.134 A 
ATOM     64  C   UNL A   1      38.219  29.573  27.868  1.00  0.00     0.134 A 
ATOM     65  F   UNL A   1      38.421  28.733  31.396  1.00  0.00    -0.206 F 
ATOM     66  C   UNL A   1      36.583  29.423  30.110  1.00  0.00     0.040 A 
ATOM     67  C   UNL A   1      36.866  29.903  27.766  1.00  0.00     0.040 A 
ATOM     68  F   UNL A   1      38.971  29.650  26.760  1.00  0.00    -0.206 F 
ATOM     69  C   UNL A   1      36.043  29.824  28.889  1.00  0.00     0.006 A 
ENDBRANCH  48  62
BRANCH  49  70
ATOM     70  C   UNL A   1      48.426  26.628  29.576  1.00  0.00     0.057 A 
ATOM     71  C   UNL A   1      48.940  25.992  30.712  1.00  0.00     0.134 A 
ATOM     72  C   UNL A   1      49.308  26.879  28.520  1.00  0.00     0.134 A 
ATOM     73  F   UNL A   1      48.144  25.742  31.762  1.00  0.00    -0.206 F 
ATOM     74  C   UNL A   1      50.282  25.624  30.799  1.00  0.00     0.040 A 
ATOM     75  C   UNL A   1      50.650  26.499  28.585  1.00  0.00     0.040 A 
ATOM     76  F   UNL A   1      48.875  27.480  27.402  1.00  0.00    -0.206 F 
ATOM     77  C   UNL A   1      51.141  25.872  29.729  1.00  0.00     0.006 A 
ENDBRANCH  49  70
BRANCH  61  78
ATOM     78  C   UNL A   1      44.888  32.422  31.128  1.00  0.00     0.057 A 
ATOM     79  C   UNL A   1      45.235  33.491  30.293  1.00  0.00     0.134 A 
ATOM     80  C   UNL A   1      44.897  32.647  32.510  1.00  0.00     0.134 A 
ATOM     81  F   UNL A   1      45.257  33.332  28.961  1.00  0.00    -0.206 F 
ATOM     82  C   UNL A   1      45.591  34.735  30.815  1.00  0.00     0.040 A 
ATOM     83  C   UNL A   1      45.228  33.893  33.042  1.00  0.00     0.040 A 
ATOM     84  F   UNL A   1      44.565  31.666  33.362  1.00  0.00    -0.206 F 
ATOM     85  C   UNL A   1      45.580  34.941  32.193  1.00  0.00     0.006 A 
ENDBRANCH  61  78
ENDBRANCH  35  36
ENDBRANCH  27  30
ENDBRANCH  25  26
ENDBRANCH   1  25
TORSDOF 12
ENDMDL
MODEL 2
REMARK VINA RESULT:     -12.1      2.441      7.323
REMARK SMILES Cc1cc2c(c(C)c1Cl)C=C(C(=O)NCCCCNC(=O)c1ccc(-c3c4nc(c(-c5c(F)cccc5F)c5ccc([nH]5)c(-c5c(F)cccc5F)c5nc(c(-c6c(F)cccc6F)c6ccc3[nH]6)C=C5)C=C4)cc1)[C@@H](C(F)(F)F)O2
REMARK SMILES IDX 17 1 16 2 15 3 14 4 12 5 13 6 11 8 1 9 2 10 3 11 8 12 4 13
REMARK SMILES IDX 6 14 9 15 5 16 81 17 7 18 10 19 76 20 77 21 78 22 79 23
REMARK SMILES IDX 80 24 18 25 19 26 20 27 21 29 22 30 23 31 75 32 24 33 74 34
REMARK SMILES IDX 25 35 26 36 27 37 68 38 28 39 73 40 67 41 69 42 29 43 72 44
REMARK SMILES IDX 66 45 65 46 30 48 56 49 39 50 55 51 40 52 43 53 54 54 70 55
REMARK SMILES IDX 41 56 42 57 53 59 71 60 44 61 31 62 32 63 37 64 33 65 34 66
REMARK SMILES IDX 36 67 38 68 35 69 57 70 58 71 63 72 59 73 60 74 62 75 64 76
REMARK SMILES IDX 61 77 45 78 46 79 51 80 47 81 48 82 50 83 52 84 49 85
REMARK H PARENT 14 7 19 28 69 47 43 58
REMARK Flexibility Score: inf
ROOT
ATOM      1  C   UNL A   1      32.896  28.344  26.002  1.00  0.00     0.023 C 
ENDROOT
BRANCH   1   2
ATOM      2  C   UNL A   1      33.319  27.330  24.934  1.00  0.00     0.023 C 
BRANCH   2   3
ATOM      3  C   UNL A   1      32.187  26.431  24.446  1.00  0.00     0.116 C 
BRANCH   3   4
ATOM      4  N   UNL A   1      31.533  25.742  25.543  1.00  0.00    -0.352 N 
ATOM      5  C   UNL A   1      31.619  24.530  26.142  1.00  0.00     0.251 C 
ATOM      6  O   UNL A   1      30.830  24.353  27.076  1.00  0.00    -0.270 OA
ATOM      7  H   UNL A   1      30.845  26.305  25.965  1.00  0.00     0.163 HD
BRANCH   5   8
ATOM      8  C   UNL A   1      32.569  23.442  25.762  1.00  0.00     0.067 C 
ATOM      9  C   UNL A   1      37.619  19.459  24.723  1.00  0.00     0.046 C 
ATOM     10  C   UNL A   1      36.692  20.582  25.103  1.00  0.00    -0.028 A 
ATOM     11  C   UNL A   1      35.317  20.393  24.953  1.00  0.00     0.052 A 
ATOM     12  C   UNL A   1      37.160  21.821  25.589  1.00  0.00     0.047 A 
ATOM     13  C   UNL A   1      34.424  21.410  25.274  1.00  0.00     0.128 A 
ATOM     14  C   UNL A   1      36.260  22.860  25.934  1.00  0.00    -0.021 A 
ATOM     15  Cl  UNL A   1      38.877  22.043  25.755  1.00  0.00    -0.084 Cl
ATOM     16  C   UNL A   1      34.870  22.638  25.773  1.00  0.00     0.022 A 
ATOM     17  O   UNL A   1      33.104  21.103  25.110  1.00  0.00    -0.475 OA
ATOM     18  C   UNL A   1      36.744  24.188  26.468  1.00  0.00     0.047 C 
ATOM     19  C   UNL A   1      33.851  23.628  26.136  1.00  0.00     0.026 C 
ATOM     20  C   UNL A   1      32.190  22.221  24.979  1.00  0.00     0.314 C 
BRANCH  20  21
ATOM     21  C   UNL A   1      31.955  22.520  23.487  1.00  0.00     0.429 C 
ATOM     22  F   UNL A   1      30.788  23.190  23.317  1.00  0.00    -0.167 F 
ATOM     23  F   UNL A   1      32.924  23.303  22.955  1.00  0.00    -0.167 F 
ATOM     24  F   UNL A   1      31.895  21.401  22.732  1.00  0.00    -0.167 F 
ENDBRANCH  20  21
ENDBRANCH   5   8
ENDBRANCH   3   4
ENDBRANCH   2   3
ENDBRANCH   1   2
BRANCH   1  25
ATOM     25  C   UNL A   1      33.933  28.619  27.090  1.00  0.00     0.116 C 
BRANCH  25  26
ATOM     26  N   UNL A   1      33.850  29.958  27.656  1.00  0.00    -0.352 N 
ATOM     27  C   UNL A   1      34.826  30.660  28.319  1.00  0.00     0.251 C 
ATOM     28  H   UNL A   1      32.985  30.416  27.551  1.00  0.00     0.163 HD
ATOM     29  O   UNL A   1      34.585  31.755  28.816  1.00  0.00    -0.269 OA
BRANCH  27  30
ATOM     30  C   UNL A   1      36.163  30.056  28.465  1.00  0.00     0.039 A 
ATOM     31  C   UNL A   1      37.066  30.155  27.404  1.00  0.00     0.014 A 
ATOM     32  C   UNL A   1      36.535  29.447  29.667  1.00  0.00     0.014 A 
ATOM     33  C   UNL A   1      38.373  29.704  27.573  1.00  0.00     0.010 A 
ATOM     34  C   UNL A   1      37.854  29.050  29.852  1.00  0.00     0.010 A 
ATOM     35  C   UNL A   1      38.784  29.181  28.810  1.00  0.00    -0.014 A 
BRANCH  35  36
ATOM     36  C   UNL A   1      40.185  28.759  29.040  1.00  0.00     0.031 A 
ATOM     37  C   UNL A   1      41.157  29.717  29.666  1.00  0.00     0.074 A 
ATOM     38  C   UNL A   1      40.596  27.548  28.623  1.00  0.00     0.049 A 
ATOM     39  N   UNL A   1      42.446  29.586  29.846  1.00  0.00    -0.248 NA
ATOM     40  C   UNL A   1      40.610  31.003  30.126  1.00  0.00     0.031 C 
ATOM     41  C   UNL A   1      39.750  26.542  27.975  1.00  0.00     0.029 A 
ATOM     42  N   UNL A   1      41.835  26.960  28.668  1.00  0.00    -0.354 N 
ATOM     43  C   UNL A   1      42.865  30.775  30.425  1.00  0.00     0.074 A 
ATOM     44  C   UNL A   1      41.704  31.633  30.525  1.00  0.00     0.031 C 
ATOM     45  C   UNL A   1      40.490  25.455  27.704  1.00  0.00     0.029 A 
ATOM     46  C   UNL A   1      41.867  25.701  28.122  1.00  0.00     0.049 A 
ATOM     47  H   UNL A   1      42.625  27.400  29.056  1.00  0.00     0.167 HD
ATOM     48  C   UNL A   1      44.104  31.113  30.853  1.00  0.00     0.037 A 
ATOM     49  C   UNL A   1      42.894  24.845  27.971  1.00  0.00     0.037 A 
ATOM     50  C   UNL A   1      45.251  30.250  30.772  1.00  0.00     0.049 A 
ATOM     51  C   UNL A   1      44.261  25.245  28.449  1.00  0.00     0.074 A 
ATOM     52  C   UNL A   1      46.543  30.489  31.207  1.00  0.00     0.029 A 
ATOM     53  N   UNL A   1      45.241  28.975  30.226  1.00  0.00    -0.354 N 
ATOM     54  N   UNL A   1      44.641  26.364  29.015  1.00  0.00    -0.248 NA
ATOM     55  C   UNL A   1      45.340  24.264  28.269  1.00  0.00     0.031 C 
ATOM     56  C   UNL A   1      47.321  29.368  30.898  1.00  0.00     0.029 A 
ATOM     57  C   UNL A   1      46.506  28.417  30.306  1.00  0.00     0.049 A 
ATOM     58  H   UNL A   1      44.451  28.533  29.838  1.00  0.00     0.167 HD
ATOM     59  C   UNL A   1      45.997  26.216  29.279  1.00  0.00     0.074 A 
ATOM     60  C   UNL A   1      46.370  24.893  28.822  1.00  0.00     0.031 C 
ATOM     61  C   UNL A   1      46.855  27.097  29.848  1.00  0.00     0.037 A 
BRANCH  48  62
ATOM     62  C   UNL A   1      44.276  32.476  31.454  1.00  0.00     0.057 A 
ATOM     63  C   UNL A   1      44.612  33.586  30.667  1.00  0.00     0.134 A 
ATOM     64  C   UNL A   1      44.075  32.689  32.822  1.00  0.00     0.134 A 
ATOM     65  F   UNL A   1      44.834  33.445  29.352  1.00  0.00    -0.206 F 
ATOM     66  C   UNL A   1      44.763  34.856  31.225  1.00  0.00     0.040 A 
ATOM     67  C   UNL A   1      44.199  33.958  33.388  1.00  0.00     0.040 A 
ATOM     68  F   UNL A   1      43.750  31.668  33.630  1.00  0.00    -0.206 F 
ATOM     69  C   UNL A   1      44.549  35.046  32.589  1.00  0.00     0.006 A 
ENDBRANCH  48  62
BRANCH  49  70
ATOM     70  C   UNL A   1      42.660  23.511  27.366  1.00  0.00     0.057 A 
ATOM     71  C   UNL A   1      42.307  22.416  28.162  1.00  0.00     0.134 A 
ATOM     72  C   UNL A   1      42.763  23.301  25.986  1.00  0.00     0.134 A 
ATOM     73  F   UNL A   1      42.211  22.554  29.493  1.00  0.00    -0.206 F 
ATOM     74  C   UNL A   1      42.074  21.156  27.611  1.00  0.00     0.040 A 
ATOM     75  C   UNL A   1      42.513  22.050  25.418  1.00  0.00     0.040 A 
ATOM     76  F   UNL A   1      43.090  24.312  25.169  1.00  0.00    -0.206 F 
ATOM     77  C   UNL A   1      42.170  20.973  26.233  1.00  0.00     0.006 A 
ENDBRANCH  49  70
BRANCH  61  78
ATOM     78  C   UNL A   1      48.275  26.651  30.030  1.00  0.00     0.057 A 
ATOM     79  C   UNL A   1      48.678  25.919  31.153  1.00  0.00     0.134 A 
ATOM     80  C   UNL A   1      49.236  26.915  29.046  1.00  0.00     0.134 A 
ATOM     81  F   UNL A   1      47.806  25.646  32.135  1.00  0.00    -0.206 F 
ATOM     82  C   UNL A   1      49.993  25.477  31.298  1.00  0.00     0.040 A 
ATOM     83  C   UNL A   1      50.547  26.457  29.170  1.00  0.00     0.040 A 
ATOM     84  F   UNL A   1      48.910  27.603  27.942  1.00  0.00    -0.206 F 
ATOM     85  C   UNL A   1      50.931  25.739  30.300  1.00  0.00     0.006 A 
ENDBRANCH  61  78
ENDBRANCH  35  36
ENDBRANCH  27  30
ENDBRANCH  25  26
ENDBRANCH   1  25
TORSDOF 12
ENDMDL
MODEL 3
REMARK VINA RESULT:     -12.1      2.752      7.358
REMARK SMILES Cc1cc2c(c(C)c1Cl)C=C(C(=O)NCCCCNC(=O)c1ccc(-c3c4nc(c(-c5c(F)cccc5F)c5ccc([nH]5)c(-c5c(F)cccc5F)c5nc(c(-c6c(F)cccc6F)c6ccc3[nH]6)C=C5)C=C4)cc1)[C@@H](C(F)(F)F)O2
REMARK SMILES IDX 17 1 16 2 15 3 14 4 12 5 13 6 11 8 1 9 2 10 3 11 8 12 4 13
REMARK SMILES IDX 6 14 9 15 5 16 81 17 7 18 10 19 76 20 77 21 78 22 79 23
REMARK SMILES IDX 80 24 18 25 19 26 20 27 21 29 22 30 23 31 75 32 24 33 74 34
REMARK SMILES IDX 25 35 26 36 27 37 68 38 28 39 73 40 67 41 69 42 29 43 72 44
REMARK SMILES IDX 66 45 65 46 30 48 56 49 39 50 55 51 40 52 43 53 54 54 70 55
REMARK SMILES IDX 41 56 42 57 53 59 71 60 44 61 31 62 32 63 37 64 33 65 34 66
REMARK SMILES IDX 36 67 38 68 35 69 57 70 58 71 63 72 59 73 60 74 62 75 64 76
REMARK SMILES IDX 61 77 45 78 46 79 51 80 47 81 48 82 50 83 52 84 49 85
REMARK H PARENT 14 7 19 28 69 47 43 58
REMARK Flexibility Score: inf
ROOT
ATOM      1  C   UNL A   1      35.818  23.093  26.102  1.00  0.00     0.023 C 
ENDROOT
BRANCH   1   2
ATOM      2  C   UNL A   1      34.564  23.970  26.039  1.00  0.00     0.023 C 
BRANCH   2   3
ATOM      3  C   UNL A   1      33.468  23.426  25.127  1.00  0.00     0.116 C 
BRANCH   3   4
ATOM      4  N   UNL A   1      33.651  23.849  23.751  1.00  0.00    -0.352 N 
ATOM      5  C   UNL A   1      33.388  24.953  23.011  1.00  0.00     0.251 C 
ATOM      6  O   UNL A   1      33.716  24.875  21.823  1.00  0.00    -0.270 OA
ATOM      7  H   UNL A   1      34.083  23.148  23.211  1.00  0.00     0.163 HD
BRANCH   5   8
ATOM      8  C   UNL A   1      32.754  26.206  23.521  1.00  0.00     0.067 C 
ATOM      9  C   UNL A   1      31.146  31.828  26.393  1.00  0.00     0.046 C 
ATOM     10  C   UNL A   1      31.806  30.563  25.914  1.00  0.00    -0.028 A 
ATOM     11  C   UNL A   1      31.202  29.845  24.879  1.00  0.00     0.052 A 
ATOM     12  C   UNL A   1      32.999  30.068  26.480  1.00  0.00     0.047 A 
ATOM     13  C   UNL A   1      31.767  28.661  24.417  1.00  0.00     0.128 A 
ATOM     14  C   UNL A   1      33.593  28.871  26.008  1.00  0.00    -0.021 A 
ATOM     15  Cl  UNL A   1      33.727  30.967  27.778  1.00  0.00    -0.084 Cl
ATOM     16  C   UNL A   1      32.958  28.166  24.956  1.00  0.00     0.022 A 
ATOM     17  O   UNL A   1      31.102  28.060  23.387  1.00  0.00    -0.475 OA
ATOM     18  C   UNL A   1      34.877  28.333  26.595  1.00  0.00     0.047 C 
ATOM     19  C   UNL A   1      33.505  26.940  24.365  1.00  0.00     0.026 C 
ATOM     20  C   UNL A   1      31.361  26.647  23.187  1.00  0.00     0.314 C 
BRANCH  20  21
ATOM     21  C   UNL A   1      30.283  25.821  23.914  1.00  0.00     0.429 C 
ATOM     22  F   UNL A   1      30.583  25.708  25.232  1.00  0.00    -0.167 F 
ATOM     23  F   UNL A   1      29.058  26.396  23.850  1.00  0.00    -0.167 F 
ATOM     24  F   UNL A   1      30.158  24.570  23.417  1.00  0.00    -0.167 F 
ENDBRANCH  20  21
ENDBRANCH   5   8
ENDBRANCH   3   4
ENDBRANCH   2   3
ENDBRANCH   1   2
BRANCH   1  25
ATOM     25  C   UNL A   1      37.073  23.698  25.476  1.00  0.00     0.116 C 
BRANCH  25  26
ATOM     26  N   UNL A   1      38.255  22.855  25.595  1.00  0.00    -0.352 N 
ATOM     27  C   UNL A   1      39.447  23.149  26.209  1.00  0.00     0.251 C 
ATOM     28  H   UNL A   1      38.190  21.963  25.183  1.00  0.00     0.163 HD
ATOM     29  O   UNL A   1      40.390  22.364  26.160  1.00  0.00    -0.269 OA
BRANCH  27  30
ATOM     30  C   UNL A   1      39.595  24.445  26.895  1.00  0.00     0.039 A 
ATOM     31  C   UNL A   1      39.124  24.572  28.203  1.00  0.00     0.014 A 
ATOM     32  C   UNL A   1      40.247  25.508  26.263  1.00  0.00     0.014 A 
ATOM     33  C   UNL A   1      39.370  25.748  28.909  1.00  0.00     0.010 A 
ATOM     34  C   UNL A   1      40.542  26.656  26.987  1.00  0.00     0.010 A 
ATOM     35  C   UNL A   1      40.111  26.783  28.316  1.00  0.00    -0.014 A 
BRANCH  35  36
ATOM     36  C   UNL A   1      40.449  28.016  29.066  1.00  0.00     0.031 A 
ATOM     37  C   UNL A   1      41.788  28.136  29.734  1.00  0.00     0.074 A 
ATOM     38  C   UNL A   1      39.529  28.987  29.204  1.00  0.00     0.049 A 
ATOM     39  N   UNL A   1      42.232  29.074  30.530  1.00  0.00    -0.248 NA
ATOM     40  C   UNL A   1      42.743  27.042  29.497  1.00  0.00     0.031 C 
ATOM     41  C   UNL A   1      38.184  28.970  28.625  1.00  0.00     0.029 A 
ATOM     42  N   UNL A   1      39.581  30.176  29.888  1.00  0.00    -0.354 N 
ATOM     43  C   UNL A   1      43.510  28.678  30.899  1.00  0.00     0.074 A 
ATOM     44  C   UNL A   1      43.753  27.393  30.277  1.00  0.00     0.031 C 
ATOM     45  C   UNL A   1      37.547  30.103  28.960  1.00  0.00     0.029 A 
ATOM     46  C   UNL A   1      38.422  30.908  29.808  1.00  0.00     0.049 A 
ATOM     47  H   UNL A   1      40.374  30.475  30.388  1.00  0.00     0.167 HD
ATOM     48  C   UNL A   1      44.407  29.335  31.670  1.00  0.00     0.037 A 
ATOM     49  C   UNL A   1      38.102  32.092  30.361  1.00  0.00     0.037 A 
ATOM     50  C   UNL A   1      44.170  30.621  32.267  1.00  0.00     0.049 A 
ATOM     51  C   UNL A   1      39.113  32.801  31.218  1.00  0.00     0.074 A 
ATOM     52  C   UNL A   1      45.027  31.385  33.040  1.00  0.00     0.029 A 
ATOM     53  N   UNL A   1      42.988  31.340  32.151  1.00  0.00    -0.354 N 
ATOM     54  N   UNL A   1      40.326  32.426  31.542  1.00  0.00    -0.248 NA
ATOM     55  C   UNL A   1      38.711  34.095  31.784  1.00  0.00     0.031 C 
ATOM     56  C   UNL A   1      44.354  32.553  33.414  1.00  0.00     0.029 A 
ATOM     57  C   UNL A   1      43.092  32.534  32.843  1.00  0.00     0.049 A 
ATOM     58  H   UNL A   1      42.194  31.043  31.650  1.00  0.00     0.167 HD
ATOM     59  C   UNL A   1      40.842  33.445  32.331  1.00  0.00     0.074 A 
ATOM     60  C   UNL A   1      39.813  34.461  32.426  1.00  0.00     0.031 C 
ATOM     61  C   UNL A   1      42.057  33.533  32.923  1.00  0.00     0.037 A 
BRANCH  48  62
ATOM     62  C   UNL A   1      45.731  28.672  31.903  1.00  0.00     0.057 A 
ATOM     63  C   UNL A   1      46.822  28.895  31.053  1.00  0.00     0.134 A 
ATOM     64  C   UNL A   1      45.927  27.827  33.001  1.00  0.00     0.134 A 
ATOM     65  F   UNL A   1      46.693  29.682  29.974  1.00  0.00    -0.206 F 
ATOM     66  C   UNL A   1      48.057  28.284  31.276  1.00  0.00     0.040 A 
ATOM     67  C   UNL A   1      47.164  27.229  33.248  1.00  0.00     0.040 A 
ATOM     68  F   UNL A   1      44.923  27.573  33.854  1.00  0.00    -0.206 F 
ATOM     69  C   UNL A   1      48.232  27.454  32.382  1.00  0.00     0.006 A 
ENDBRANCH  48  62
BRANCH  49  70
ATOM     70  C   UNL A   1      36.774  32.695  30.094  1.00  0.00     0.057 A 
ATOM     71  C   UNL A   1      35.701  32.481  30.968  1.00  0.00     0.134 A 
ATOM     72  C   UNL A   1      36.547  33.510  28.979  1.00  0.00     0.134 A 
ATOM     73  F   UNL A   1      35.856  31.696  32.044  1.00  0.00    -0.206 F 
ATOM     74  C   UNL A   1      34.448  33.048  30.739  1.00  0.00     0.040 A 
ATOM     75  C   UNL A   1      35.302  34.099  28.748  1.00  0.00     0.040 A 
ATOM     76  F   UNL A   1      37.536  33.758  28.109  1.00  0.00    -0.206 F 
ATOM     77  C   UNL A   1      34.248  33.865  29.628  1.00  0.00     0.006 A 
ENDBRANCH  49  70
BRANCH  61  78
ATOM     78  C   UNL A   1      42.351  34.776  33.707  1.00  0.00     0.057 A 
ATOM     79  C   UNL A   1      42.135  34.844  35.088  1.00  0.00     0.134 A 
ATOM     80  C   UNL A   1      42.904  35.900  33.079  1.00  0.00     0.134 A 
ATOM     81  F   UNL A   1      41.597  33.804  35.743  1.00  0.00    -0.206 F 
ATOM     82  C   UNL A   1      42.447  35.993  35.817  1.00  0.00     0.040 A 
ATOM     83  C   UNL A   1      43.240  37.044  33.801  1.00  0.00     0.040 A 
ATOM     84  F   UNL A   1      43.143  35.894  31.759  1.00  0.00    -0.206 F 
ATOM     85  C   UNL A   1      43.008  37.095  35.174  1.00  0.00     0.006 A 
ENDBRANCH  61  78
ENDBRANCH  35  36
ENDBRANCH  27  30
ENDBRANCH  25  26
ENDBRANCH   1  25
TORSDOF 12
ENDMDL
