MODEL 1
REMARK VINA RESULT:     -11.2      0.000      0.000
REMARK SMILES O=C(NCCCCNC(=O)c1ccc(Cl)nc1NC[C@@H]1C[N@@H+]2CCC[C@@H]2CO1)c1ccc(-c2c3nc(c(-c4c(F)cccc4F)c4ccc([nH]4)c(-c4c(F)cccc4F)c4nc(c(-c5c(F)cccc5F)c5ccc2[nH]5)C=C4)C=C3)cc1
REMARK SMILES IDX 6 1 5 2 4 3 3 4 1 5 2 6 29 8 30 9 82 10 31 11 81 12 32 13
REMARK SMILES IDX 33 14 34 15 75 16 35 17 80 18 74 19 76 20 36 21 79 22 73 23
REMARK SMILES IDX 72 24 37 26 63 27 46 28 62 29 47 30 50 31 61 32 77 33 48 34
REMARK SMILES IDX 49 35 60 37 78 38 51 39 38 40 39 41 44 42 40 43 41 44 43 45
REMARK SMILES IDX 45 46 42 47 64 48 65 49 70 50 66 51 67 52 69 53 71 54 68 55
REMARK SMILES IDX 52 56 53 57 58 58 54 59 55 60 57 61 59 62 56 63 7 64 8 65
REMARK SMILES IDX 9 66 10 68 11 69 12 70 17 71 13 72 16 73 14 74 15 75 18 76
REMARK SMILES IDX 19 78 20 79 21 80 28 81 22 82 27 83 23 84 26 85 24 87 25 88
REMARK H PARENT 3 7 76 25 50 36 8 67 18 77 22 86
REMARK Flexibility Score: inf
ROOT
ATOM      1  C   UNL A   1      38.725  22.588  26.241  1.00  0.00     0.023 C 
ENDROOT
BRANCH   1   2
ATOM      2  C   UNL A   1      38.924  21.266  25.502  1.00  0.00     0.023 C 
BRANCH   2   3
ATOM      3  C   UNL A   1      39.319  20.079  26.371  1.00  0.00     0.116 C 
BRANCH   3   4
ATOM      4  N   UNL A   1      40.485  19.363  25.878  1.00  0.00    -0.352 N 
ATOM      5  O   UNL A   1      42.645  19.061  25.297  1.00  0.00    -0.269 OA
ATOM      6  C   UNL A   1      41.802  19.760  25.853  1.00  0.00     0.251 C 
ATOM      7  H   UNL A   1      40.306  18.468  25.510  1.00  0.00     0.163 HD
BRANCH   6   8
ATOM      8  C   UNL A   1      42.198  21.047  26.465  1.00  0.00     0.039 A 
ATOM      9  C   UNL A   1      42.240  21.191  27.853  1.00  0.00     0.014 A 
ATOM     10  C   UNL A   1      42.517  22.129  25.639  1.00  0.00     0.014 A 
ATOM     11  C   UNL A   1      42.433  22.451  28.408  1.00  0.00     0.010 A 
ATOM     12  C   UNL A   1      42.803  23.377  26.204  1.00  0.00     0.010 A 
ATOM     13  C   UNL A   1      42.725  23.557  27.592  1.00  0.00    -0.014 A 
BRANCH  13  14
ATOM     14  C   UNL A   1      42.989  24.870  28.237  1.00  0.00     0.031 A 
ATOM     15  C   UNL A   1      44.383  25.297  28.608  1.00  0.00     0.074 A 
ATOM     16  C   UNL A   1      41.954  25.711  28.424  1.00  0.00     0.049 A 
ATOM     17  N   UNL A   1      44.786  26.440  29.104  1.00  0.00    -0.248 NA
ATOM     18  C   UNL A   1      45.463  24.319  28.404  1.00  0.00     0.031 C 
ATOM     19  C   UNL A   1      40.553  25.399  28.125  1.00  0.00     0.029 A 
ATOM     20  N   UNL A   1      41.917  27.005  28.874  1.00  0.00    -0.354 N 
ATOM     21  C   UNL A   1      46.159  26.318  29.281  1.00  0.00     0.074 A 
ATOM     22  C   UNL A   1      46.518  24.978  28.867  1.00  0.00     0.031 C 
ATOM     23  C   UNL A   1      39.805  26.490  28.341  1.00  0.00     0.029 A 
ATOM     24  C   UNL A   1      40.659  27.558  28.846  1.00  0.00     0.049 A 
ATOM     25  H   UNL A   1      42.714  27.491  29.188  1.00  0.00     0.167 HD
ATOM     26  C   UNL A   1      47.039  27.242  29.736  1.00  0.00     0.037 A 
ATOM     27  C   UNL A   1      40.238  28.787  29.189  1.00  0.00     0.037 A 
ATOM     28  C   UNL A   1      46.682  28.579  30.139  1.00  0.00     0.049 A 
ATOM     29  C   UNL A   1      41.236  29.792  29.680  1.00  0.00     0.074 A 
ATOM     30  C   UNL A   1      47.505  29.589  30.611  1.00  0.00     0.029 A 
ATOM     31  N   UNL A   1      45.395  29.096  30.113  1.00  0.00    -0.354 N 
ATOM     32  N   UNL A   1      42.532  29.663  29.826  1.00  0.00    -0.248 NA
ATOM     33  C   UNL A   1      40.715  31.113  30.055  1.00  0.00     0.031 C 
ATOM     34  C   UNL A   1      46.712  30.706  30.896  1.00  0.00     0.029 A 
ATOM     35  C   UNL A   1      45.401  30.404  30.567  1.00  0.00     0.049 A 
ATOM     36  H   UNL A   1      44.595  28.604  29.814  1.00  0.00     0.167 HD
ATOM     37  C   UNL A   1      42.982  30.884  30.307  1.00  0.00     0.074 A 
ATOM     38  C   UNL A   1      41.825  31.751  30.395  1.00  0.00     0.031 C 
ATOM     39  C   UNL A   1      44.239  31.250  30.655  1.00  0.00     0.037 A 
BRANCH  26  40
ATOM     40  C   UNL A   1      48.483  26.842  29.828  1.00  0.00     0.057 A 
ATOM     41  C   UNL A   1      48.984  26.148  30.937  1.00  0.00     0.134 A 
ATOM     42  C   UNL A   1      49.368  27.100  28.774  1.00  0.00     0.134 A 
ATOM     43  F   UNL A   1      48.191  25.880  31.986  1.00  0.00    -0.206 F 
ATOM     44  C   UNL A   1      50.317  25.737  30.999  1.00  0.00     0.040 A 
ATOM     45  C   UNL A   1      50.698  26.676  28.816  1.00  0.00     0.040 A 
ATOM     46  F   UNL A   1      48.951  27.754  27.680  1.00  0.00    -0.206 F 
ATOM     47  C   UNL A   1      51.176  25.994  29.933  1.00  0.00     0.006 A 
ENDBRANCH  26  40
BRANCH  27  48
ATOM     48  C   UNL A   1      38.797  29.127  29.081  1.00  0.00     0.057 A 
ATOM     49  C   UNL A   1      38.235  29.527  27.865  1.00  0.00     0.134 A 
ATOM     50  C   UNL A   1      37.950  29.045  30.192  1.00  0.00     0.134 A 
ATOM     51  F   UNL A   1      39.001  29.639  26.770  1.00  0.00    -0.206 F 
ATOM     52  C   UNL A   1      36.880  29.848  27.760  1.00  0.00     0.040 A 
ATOM     53  C   UNL A   1      36.589  29.336  30.095  1.00  0.00     0.040 A 
ATOM     54  F   UNL A   1      38.429  28.657  31.383  1.00  0.00    -0.206 F 
ATOM     55  C   UNL A   1      36.052  29.746  28.876  1.00  0.00     0.006 A 
ENDBRANCH  27  48
BRANCH  39  56
ATOM     56  C   UNL A   1      44.416  32.652  31.156  1.00  0.00     0.057 A 
ATOM     57  C   UNL A   1      44.673  33.716  30.282  1.00  0.00     0.134 A 
ATOM     58  C   UNL A   1      44.325  32.941  32.522  1.00  0.00     0.134 A 
ATOM     59  F   UNL A   1      44.788  33.498  28.963  1.00  0.00    -0.206 F 
ATOM     60  C   UNL A   1      44.861  35.015  30.753  1.00  0.00     0.040 A 
ATOM     61  C   UNL A   1      44.489  34.240  33.004  1.00  0.00     0.040 A 
ATOM     62  F   UNL A   1      44.076  31.967  33.410  1.00  0.00    -0.206 F 
ATOM     63  C   UNL A   1      44.766  35.281  32.118  1.00  0.00     0.006 A 
ENDBRANCH  39  56
ENDBRANCH  13  14
ENDBRANCH   6   8
ENDBRANCH   3   4
ENDBRANCH   2   3
ENDBRANCH   1   2
BRANCH   1  64
ATOM     64  C   UNL A   1      37.557  23.445  25.756  1.00  0.00     0.116 C 
BRANCH  64  65
ATOM     65  N   UNL A   1      37.403  23.420  24.312  1.00  0.00    -0.352 N 
ATOM     66  C   UNL A   1      36.312  23.068  23.556  1.00  0.00     0.255 C 
ATOM     67  H   UNL A   1      38.197  23.693  23.800  1.00  0.00     0.163 HD
ATOM     68  O   UNL A   1      36.422  22.959  22.337  1.00  0.00    -0.269 OA
BRANCH  66  69
ATOM     69  C   UNL A   1      35.009  22.811  24.197  1.00  0.00     0.082 A 
ATOM     70  C   UNL A   1      34.769  21.580  24.819  1.00  0.00     0.021 A 
ATOM     71  C   UNL A   1      34.028  23.815  24.225  1.00  0.00     0.140 A 
ATOM     72  C   UNL A   1      33.523  21.342  25.378  1.00  0.00     0.042 A 
ATOM     73  N   UNL A   1      32.813  23.578  24.770  1.00  0.00    -0.219 NA
ATOM     74  C   UNL A   1      32.592  22.362  25.316  1.00  0.00     0.131 A 
ATOM     75  Cl  UNL A   1      31.010  22.139  25.940  1.00  0.00    -0.062 Cl
BRANCH  71  76
ATOM     76  N   UNL A   1      34.252  25.031  23.607  1.00  0.00    -0.367 N 
ATOM     77  H   UNL A   1      35.022  25.572  23.896  1.00  0.00     0.162 HD
BRANCH  76  78
ATOM     78  C   UNL A   1      33.403  25.548  22.547  1.00  0.00     0.152 C 
BRANCH  78  79
ATOM     79  C   UNL A   1      32.972  27.015  22.810  1.00  0.00     0.192 C 
ATOM     80  C   UNL A   1      33.791  27.673  23.964  1.00  0.00     0.296 C 
ATOM     81  O   UNL A   1      31.542  27.046  22.998  1.00  0.00    -0.364 OA
ATOM     82  N   UNL A   1      33.054  28.301  25.067  1.00  0.00    -0.328 N 
ATOM     83  C   UNL A   1      31.193  26.736  24.345  1.00  0.00     0.225 C 
ATOM     84  C   UNL A   1      33.742  28.231  26.357  1.00  0.00     0.262 C 
ATOM     85  C   UNL A   1      31.659  27.870  25.250  1.00  0.00     0.210 C 
ATOM     86  H   UNL A   1      33.023  29.269  24.748  1.00  0.00     0.348 HD
ATOM     87  C   UNL A   1      32.622  28.347  27.377  1.00  0.00     0.068 C 
ATOM     88  C   UNL A   1      31.510  27.544  26.732  1.00  0.00     0.073 C 
ENDBRANCH  78  79
ENDBRANCH  76  78
ENDBRANCH  71  76
ENDBRANCH  66  69
ENDBRANCH  64  65
ENDBRANCH   1  64
TORSDOF 14
ENDMDL
MODEL 2
REMARK VINA RESULT:     -11.1      0.117      1.585
REMARK SMILES O=C(NCCCCNC(=O)c1ccc(Cl)nc1NC[C@@H]1C[N@@H+]2CCC[C@@H]2CO1)c1ccc(-c2c3nc(c(-c4c(F)cccc4F)c4ccc([nH]4)c(-c4c(F)cccc4F)c4nc(c(-c5c(F)cccc5F)c5ccc2[nH]5)C=C4)C=C3)cc1
REMARK SMILES IDX 6 1 5 2 4 3 3 4 1 5 2 6 29 8 30 9 82 10 31 11 81 12 32 13
REMARK SMILES IDX 33 14 34 15 75 16 35 17 80 18 74 19 76 20 36 21 79 22 73 23
REMARK SMILES IDX 72 24 37 26 63 27 46 28 62 29 47 30 50 31 61 32 77 33 48 34
REMARK SMILES IDX 49 35 60 37 78 38 51 39 38 40 39 41 44 42 40 43 41 44 43 45
REMARK SMILES IDX 45 46 42 47 64 48 65 49 70 50 66 51 67 52 69 53 71 54 68 55
REMARK SMILES IDX 52 56 53 57 58 58 54 59 55 60 57 61 59 62 56 63 7 64 8 65
REMARK SMILES IDX 9 66 10 68 11 69 12 70 17 71 13 72 16 73 14 74 15 75 18 76
REMARK SMILES IDX 19 78 20 79 21 80 28 81 22 82 27 83 23 84 26 85 24 87 25 88
REMARK H PARENT 3 7 76 25 50 36 8 67 18 77 22 86
REMARK Flexibility Score: inf
ROOT
ATOM      1  C   UNL A   1      38.862  22.604  26.327  1.00  0.00     0.023 C 
ENDROOT
BRANCH   1   2
ATOM      2  C   UNL A   1      39.108  21.338  25.508  1.00  0.00     0.023 C 
BRANCH   2   3
ATOM      3  C   UNL A   1      39.397  20.079  26.313  1.00  0.00     0.116 C 
BRANCH   3   4
ATOM      4  N   UNL A   1      40.567  19.351  25.850  1.00  0.00    -0.352 N 
ATOM      5  O   UNL A   1      42.737  19.028  25.317  1.00  0.00    -0.269 OA
ATOM      6  C   UNL A   1      41.888  19.737  25.850  1.00  0.00     0.251 C 
ATOM      7  H   UNL A   1      40.390  18.455  25.484  1.00  0.00     0.163 HD
BRANCH   6   8
ATOM      8  C   UNL A   1      42.281  21.026  26.463  1.00  0.00     0.039 A 
ATOM      9  C   UNL A   1      42.268  21.187  27.850  1.00  0.00     0.014 A 
ATOM     10  C   UNL A   1      42.651  22.092  25.637  1.00  0.00     0.014 A 
ATOM     11  C   UNL A   1      42.459  22.450  28.397  1.00  0.00     0.010 A 
ATOM     12  C   UNL A   1      42.935  23.342  26.198  1.00  0.00     0.010 A 
ATOM     13  C   UNL A   1      42.803  23.541  27.580  1.00  0.00    -0.014 A 
BRANCH  13  14
ATOM     14  C   UNL A   1      43.063  24.857  28.219  1.00  0.00     0.031 A 
ATOM     15  C   UNL A   1      44.458  25.297  28.572  1.00  0.00     0.074 A 
ATOM     16  C   UNL A   1      42.023  25.690  28.416  1.00  0.00     0.049 A 
ATOM     17  N   UNL A   1      44.856  26.445  29.062  1.00  0.00    -0.248 NA
ATOM     18  C   UNL A   1      45.544  24.329  28.358  1.00  0.00     0.031 C 
ATOM     19  C   UNL A   1      40.622  25.365  28.135  1.00  0.00     0.029 A 
ATOM     20  N   UNL A   1      41.980  26.984  28.864  1.00  0.00    -0.354 N 
ATOM     21  C   UNL A   1      46.232  26.336  29.223  1.00  0.00     0.074 A 
ATOM     22  C   UNL A   1      46.598  24.999  28.806  1.00  0.00     0.031 C 
ATOM     23  C   UNL A   1      39.866  26.449  28.358  1.00  0.00     0.029 A 
ATOM     24  C   UNL A   1      40.717  27.525  28.850  1.00  0.00     0.049 A 
ATOM     25  H   UNL A   1      42.776  27.478  29.168  1.00  0.00     0.167 HD
ATOM     26  C   UNL A   1      47.110  27.269  29.666  1.00  0.00     0.037 A 
ATOM     27  C   UNL A   1      40.288  28.752  29.196  1.00  0.00     0.037 A 
ATOM     28  C   UNL A   1      46.745  28.603  30.070  1.00  0.00     0.049 A 
ATOM     29  C   UNL A   1      41.283  29.766  29.674  1.00  0.00     0.074 A 
ATOM     30  C   UNL A   1      47.565  29.621  30.530  1.00  0.00     0.029 A 
ATOM     31  N   UNL A   1      45.453  29.108  30.058  1.00  0.00    -0.354 N 
ATOM     32  N   UNL A   1      42.582  29.649  29.805  1.00  0.00    -0.248 NA
ATOM     33  C   UNL A   1      40.755  31.083  30.052  1.00  0.00     0.031 C 
ATOM     34  C   UNL A   1      46.765  30.731  30.823  1.00  0.00     0.029 A 
ATOM     35  C   UNL A   1      45.452  30.418  30.510  1.00  0.00     0.049 A 
ATOM     36  H   UNL A   1      44.655  28.609  29.770  1.00  0.00     0.167 HD
ATOM     37  C   UNL A   1      43.027  30.875  30.278  1.00  0.00     0.074 A 
ATOM     38  C   UNL A   1      41.863  31.732  30.378  1.00  0.00     0.031 C 
ATOM     39  C   UNL A   1      44.284  31.253  30.610  1.00  0.00     0.037 A 
BRANCH  26  40
ATOM     40  C   UNL A   1      48.558  26.882  29.741  1.00  0.00     0.057 A 
ATOM     41  C   UNL A   1      49.447  27.155  28.694  1.00  0.00     0.134 A 
ATOM     42  C   UNL A   1      49.082  26.283  30.894  1.00  0.00     0.134 A 
ATOM     43  F   UNL A   1      49.006  27.717  27.558  1.00  0.00    -0.206 F 
ATOM     44  C   UNL A   1      50.803  26.835  28.786  1.00  0.00     0.040 A 
ATOM     45  C   UNL A   1      50.439  25.977  31.005  1.00  0.00     0.040 A 
ATOM     46  F   UNL A   1      48.286  26.001  31.935  1.00  0.00    -0.206 F 
ATOM     47  C   UNL A   1      51.304  26.251  29.947  1.00  0.00     0.006 A 
ENDBRANCH  26  40
BRANCH  27  48
ATOM     48  C   UNL A   1      38.844  29.079  29.105  1.00  0.00     0.057 A 
ATOM     49  C   UNL A   1      38.012  29.012  30.227  1.00  0.00     0.134 A 
ATOM     50  C   UNL A   1      38.268  29.479  27.894  1.00  0.00     0.134 A 
ATOM     51  F   UNL A   1      38.504  28.620  31.412  1.00  0.00    -0.206 F 
ATOM     52  C   UNL A   1      36.653  29.319  30.145  1.00  0.00     0.040 A 
ATOM     53  C   UNL A   1      36.918  29.814  27.803  1.00  0.00     0.040 A 
ATOM     54  F   UNL A   1      39.017  29.572  26.785  1.00  0.00    -0.206 F 
ATOM     55  C   UNL A   1      36.103  29.728  28.931  1.00  0.00     0.006 A 
ENDBRANCH  27  48
BRANCH  39  56
ATOM     56  C   UNL A   1      44.455  32.657  31.106  1.00  0.00     0.057 A 
ATOM     57  C   UNL A   1      44.365  32.970  32.469  1.00  0.00     0.134 A 
ATOM     58  C   UNL A   1      44.716  33.704  30.215  1.00  0.00     0.134 A 
ATOM     59  F   UNL A   1      44.101  32.012  33.369  1.00  0.00    -0.206 F 
ATOM     60  C   UNL A   1      44.501  34.281  32.924  1.00  0.00     0.040 A 
ATOM     61  C   UNL A   1      44.877  35.017  30.661  1.00  0.00     0.040 A 
ATOM     62  F   UNL A   1      44.820  33.470  28.899  1.00  0.00    -0.206 F 
ATOM     63  C   UNL A   1      44.761  35.309  32.020  1.00  0.00     0.006 A 
ENDBRANCH  39  56
ENDBRANCH  13  14
ENDBRANCH   6   8
ENDBRANCH   3   4
ENDBRANCH   2   3
ENDBRANCH   1   2
BRANCH   1  64
ATOM     64  C   UNL A   1      37.702  23.479  25.857  1.00  0.00     0.116 C 
BRANCH  64  65
ATOM     65  N   UNL A   1      37.534  23.463  24.414  1.00  0.00    -0.352 N 
ATOM     66  C   UNL A   1      36.434  23.122  23.666  1.00  0.00     0.255 C 
ATOM     67  H   UNL A   1      38.325  23.734  23.896  1.00  0.00     0.163 HD
ATOM     68  O   UNL A   1      36.532  23.019  22.446  1.00  0.00    -0.269 OA
BRANCH  66  69
ATOM     69  C   UNL A   1      35.135  22.869  24.318  1.00  0.00     0.082 A 
ATOM     70  C   UNL A   1      34.921  21.665  25.000  1.00  0.00     0.021 A 
ATOM     71  C   UNL A   1      34.133  23.852  24.295  1.00  0.00     0.140 A 
ATOM     72  C   UNL A   1      33.679  21.429  25.569  1.00  0.00     0.042 A 
ATOM     73  N   UNL A   1      32.923  23.616  24.850  1.00  0.00    -0.219 NA
ATOM     74  C   UNL A   1      32.726  22.424  25.456  1.00  0.00     0.131 A 
ATOM     75  Cl  UNL A   1      31.148  22.198  26.088  1.00  0.00    -0.062 Cl
BRANCH  71  76
ATOM     76  N   UNL A   1      34.332  25.040  23.617  1.00  0.00    -0.367 N 
ATOM     77  H   UNL A   1      35.121  25.584  23.843  1.00  0.00     0.162 HD
BRANCH  76  78
ATOM     78  C   UNL A   1      33.431  25.523  22.584  1.00  0.00     0.152 C 
BRANCH  78  79
ATOM     79  C   UNL A   1      32.987  26.987  22.838  1.00  0.00     0.192 C 
ATOM     80  C   UNL A   1      33.804  27.663  23.983  1.00  0.00     0.296 C 
ATOM     81  O   UNL A   1      31.557  27.005  23.032  1.00  0.00    -0.364 OA
ATOM     82  N   UNL A   1      33.064  28.292  25.084  1.00  0.00    -0.328 N 
ATOM     83  C   UNL A   1      31.216  26.702  24.382  1.00  0.00     0.225 C 
ATOM     84  C   UNL A   1      33.759  28.238  26.372  1.00  0.00     0.262 C 
ATOM     85  C   UNL A   1      31.675  27.848  25.277  1.00  0.00     0.210 C 
ATOM     86  H   UNL A   1      33.022  29.256  24.758  1.00  0.00     0.348 HD
ATOM     87  C   UNL A   1      32.641  28.351  27.395  1.00  0.00     0.068 C 
ATOM     88  C   UNL A   1      31.534  27.532  26.762  1.00  0.00     0.073 C 
ENDBRANCH  78  79
ENDBRANCH  76  78
ENDBRANCH  71  76
ENDBRANCH  66  69
ENDBRANCH  64  65
ENDBRANCH   1  64
TORSDOF 14
ENDMDL
MODEL 3
REMARK VINA RESULT:     -10.9      0.412      6.270
REMARK SMILES O=C(NCCCCNC(=O)c1ccc(Cl)nc1NC[C@@H]1C[N@@H+]2CCC[C@@H]2CO1)c1ccc(-c2c3nc(c(-c4c(F)cccc4F)c4ccc([nH]4)c(-c4c(F)cccc4F)c4nc(c(-c5c(F)cccc5F)c5ccc2[nH]5)C=C4)C=C3)cc1
REMARK SMILES IDX 6 1 5 2 4 3 3 4 1 5 2 6 29 8 30 9 82 10 31 11 81 12 32 13
REMARK SMILES IDX 33 14 34 15 75 16 35 17 80 18 74 19 76 20 36 21 79 22 73 23
REMARK SMILES IDX 72 24 37 26 63 27 46 28 62 29 47 30 50 31 61 32 77 33 48 34
REMARK SMILES IDX 49 35 60 37 78 38 51 39 38 40 39 41 44 42 40 43 41 44 43 45
REMARK SMILES IDX 45 46 42 47 64 48 65 49 70 50 66 51 67 52 69 53 71 54 68 55
REMARK SMILES IDX 52 56 53 57 58 58 54 59 55 60 57 61 59 62 56 63 7 64 8 65
REMARK SMILES IDX 9 66 10 68 11 69 12 70 17 71 13 72 16 73 14 74 15 75 18 76
REMARK SMILES IDX 19 78 20 79 21 80 28 81 22 82 27 83 23 84 26 85 24 87 25 88
REMARK H PARENT 3 7 76 25 50 36 8 67 18 77 22 86
REMARK Flexibility Score: inf
ROOT
ATOM      1  C   UNL A   1      38.772  22.633  26.247  1.00  0.00     0.023 C 
ENDROOT
BRANCH   1   2
ATOM      2  C   UNL A   1      38.978  21.296  25.538  1.00  0.00     0.023 C 
BRANCH   2   3
ATOM      3  C   UNL A   1      39.307  20.115  26.441  1.00  0.00     0.116 C 
BRANCH   3   4
ATOM      4  N   UNL A   1      40.454  19.343  25.991  1.00  0.00    -0.352 N 
ATOM      5  O   UNL A   1      42.604  18.955  25.422  1.00  0.00    -0.269 OA
ATOM      6  C   UNL A   1      41.780  19.707  25.936  1.00  0.00     0.251 C 
ATOM      7  H   UNL A   1      40.253  18.431  25.680  1.00  0.00     0.163 HD
BRANCH   6   8
ATOM      8  C   UNL A   1      42.208  21.021  26.463  1.00  0.00     0.039 A 
ATOM      9  C   UNL A   1      42.222  21.265  27.838  1.00  0.00     0.014 A 
ATOM     10  C   UNL A   1      42.584  22.028  25.570  1.00  0.00     0.014 A 
ATOM     11  C   UNL A   1      42.448  22.554  28.306  1.00  0.00     0.010 A 
ATOM     12  C   UNL A   1      42.902  23.303  26.051  1.00  0.00     0.010 A 
ATOM     13  C   UNL A   1      42.798  23.587  27.420  1.00  0.00    -0.014 A 
BRANCH  13  14
ATOM     14  C   UNL A   1      43.095  24.933  27.975  1.00  0.00     0.031 A 
ATOM     15  C   UNL A   1      42.003  25.935  28.234  1.00  0.00     0.074 A 
ATOM     16  C   UNL A   1      44.367  25.221  28.310  1.00  0.00     0.049 A 
ATOM     17  N   UNL A   1      42.091  27.119  28.786  1.00  0.00    -0.248 NA
ATOM     18  C   UNL A   1      40.641  25.568  27.818  1.00  0.00     0.031 C 
ATOM     19  C   UNL A   1      45.516  24.339  28.085  1.00  0.00     0.029 A 
ATOM     20  N   UNL A   1      44.906  26.313  28.939  1.00  0.00    -0.354 N 
ATOM     21  C   UNL A   1      40.804  27.643  28.776  1.00  0.00     0.074 A 
ATOM     22  C   UNL A   1      39.956  26.660  28.136  1.00  0.00     0.031 C 
ATOM     23  C   UNL A   1      46.610  24.896  28.621  1.00  0.00     0.029 A 
ATOM     24  C   UNL A   1      46.254  26.196  29.178  1.00  0.00     0.049 A 
ATOM     25  H   UNL A   1      44.380  27.104  29.194  1.00  0.00     0.167 HD
ATOM     26  C   UNL A   1      40.368  28.829  29.265  1.00  0.00     0.037 A 
ATOM     27  C   UNL A   1      47.112  27.040  29.778  1.00  0.00     0.037 A 
ATOM     28  C   UNL A   1      41.211  29.803  29.911  1.00  0.00     0.049 A 
ATOM     29  C   UNL A   1      46.600  28.341  30.318  1.00  0.00     0.074 A 
ATOM     30  C   UNL A   1      40.860  31.033  30.444  1.00  0.00     0.029 A 
ATOM     31  N   UNL A   1      42.575  29.655  30.119  1.00  0.00    -0.354 N 
ATOM     32  N   UNL A   1      45.376  28.811  30.312  1.00  0.00    -0.248 NA
ATOM     33  C   UNL A   1      47.585  29.228  30.949  1.00  0.00     0.031 C 
ATOM     34  C   UNL A   1      42.016  31.641  30.947  1.00  0.00     0.029 A 
ATOM     35  C   UNL A   1      43.080  30.773  30.763  1.00  0.00     0.049 A 
ATOM     36  H   UNL A   1      43.105  28.871  29.849  1.00  0.00     0.167 HD
ATOM     37  C   UNL A   1      45.443  30.048  30.938  1.00  0.00     0.074 A 
ATOM     38  C   UNL A   1      46.822  30.238  31.340  1.00  0.00     0.031 C 
ATOM     39  C   UNL A   1      44.455  30.949  31.149  1.00  0.00     0.037 A 
BRANCH  26  40
ATOM     40  C   UNL A   1      38.908  29.148  29.120  1.00  0.00     0.057 A 
ATOM     41  C   UNL A   1      38.356  29.516  27.887  1.00  0.00     0.134 A 
ATOM     42  C   UNL A   1      38.036  29.030  30.210  1.00  0.00     0.134 A 
ATOM     43  F   UNL A   1      39.138  29.658  26.807  1.00  0.00    -0.206 F 
ATOM     44  C   UNL A   1      36.989  29.767  27.746  1.00  0.00     0.040 A 
ATOM     45  C   UNL A   1      36.665  29.259  30.076  1.00  0.00     0.040 A 
ATOM     46  F   UNL A   1      38.499  28.675  31.417  1.00  0.00    -0.206 F 
ATOM     47  C   UNL A   1      36.139  29.631  28.841  1.00  0.00     0.006 A 
ENDBRANCH  26  40
BRANCH  27  48
ATOM     48  C   UNL A   1      48.546  26.674  29.890  1.00  0.00     0.057 A 
ATOM     49  C   UNL A   1      49.016  25.900  30.955  1.00  0.00     0.134 A 
ATOM     50  C   UNL A   1      49.474  27.081  28.924  1.00  0.00     0.134 A 
ATOM     51  F   UNL A   1      48.176  25.493  31.919  1.00  0.00    -0.206 F 
ATOM     52  C   UNL A   1      50.364  25.554  31.064  1.00  0.00     0.040 A 
ATOM     53  C   UNL A   1      50.818  26.721  29.007  1.00  0.00     0.040 A 
ATOM     54  F   UNL A   1      49.081  27.818  27.875  1.00  0.00    -0.206 F 
ATOM     55  C   UNL A   1      51.268  25.959  30.084  1.00  0.00     0.006 A 
ENDBRANCH  27  48
BRANCH  39  56
ATOM     56  C   UNL A   1      44.839  32.216  31.853  1.00  0.00     0.057 A 
ATOM     57  C   UNL A   1      44.791  32.322  33.249  1.00  0.00     0.134 A 
ATOM     58  C   UNL A   1      45.265  33.336  31.130  1.00  0.00     0.134 A 
ATOM     59  F   UNL A   1      44.375  31.288  33.995  1.00  0.00    -0.206 F 
ATOM     60  C   UNL A   1      45.126  33.509  33.900  1.00  0.00     0.040 A 
ATOM     61  C   UNL A   1      45.625  34.522  31.771  1.00  0.00     0.040 A 
ATOM     62  F   UNL A   1      45.339  33.296  29.792  1.00  0.00    -0.206 F 
ATOM     63  C   UNL A   1      45.548  34.613  33.161  1.00  0.00     0.006 A 
ENDBRANCH  39  56
ENDBRANCH  13  14
ENDBRANCH   6   8
ENDBRANCH   3   4
ENDBRANCH   2   3
ENDBRANCH   1   2
BRANCH   1  64
ATOM     64  C   UNL A   1      37.589  23.465  25.755  1.00  0.00     0.116 C 
BRANCH  64  65
ATOM     65  N   UNL A   1      37.440  23.433  24.310  1.00  0.00    -0.352 N 
ATOM     66  C   UNL A   1      36.356  23.066  23.551  1.00  0.00     0.255 C 
ATOM     67  H   UNL A   1      38.234  23.713  23.800  1.00  0.00     0.163 HD
ATOM     68  O   UNL A   1      36.472  22.954  22.334  1.00  0.00    -0.269 OA
BRANCH  66  69
ATOM     69  C   UNL A   1      35.054  22.797  24.188  1.00  0.00     0.082 A 
ATOM     70  C   UNL A   1      34.817  21.556  24.792  1.00  0.00     0.021 A 
ATOM     71  C   UNL A   1      34.070  23.798  24.231  1.00  0.00     0.140 A 
ATOM     72  C   UNL A   1      33.572  21.307  25.348  1.00  0.00     0.042 A 
ATOM     73  N   UNL A   1      32.856  23.549  24.772  1.00  0.00    -0.219 NA
ATOM     74  C   UNL A   1      32.638  22.325  25.300  1.00  0.00     0.131 A 
ATOM     75  Cl  UNL A   1      31.056  22.090  25.920  1.00  0.00    -0.062 Cl
BRANCH  71  76
ATOM     76  N   UNL A   1      34.291  25.023  23.630  1.00  0.00    -0.367 N 
ATOM     77  H   UNL A   1      35.050  25.569  23.940  1.00  0.00     0.162 HD
BRANCH  76  78
ATOM     78  C   UNL A   1      33.456  25.543  22.560  1.00  0.00     0.152 C 
BRANCH  78  79
ATOM     79  C   UNL A   1      33.029  27.012  22.817  1.00  0.00     0.192 C 
ATOM     80  C   UNL A   1      33.825  27.661  23.992  1.00  0.00     0.296 C 
ATOM     81  O   UNL A   1      31.595  27.052  22.972  1.00  0.00    -0.364 OA
ATOM     82  N   UNL A   1      33.066  28.292  25.079  1.00  0.00    -0.328 N 
ATOM     83  C   UNL A   1      31.212  26.740  24.309  1.00  0.00     0.225 C 
ATOM     84  C   UNL A   1      33.723  28.214  26.384  1.00  0.00     0.262 C 
ATOM     85  C   UNL A   1      31.664  27.870  25.228  1.00  0.00     0.210 C 
ATOM     86  H   UNL A   1      33.049  29.260  24.761  1.00  0.00     0.348 HD
ATOM     87  C   UNL A   1      32.580  28.335  27.378  1.00  0.00     0.068 C 
ATOM     88  C   UNL A   1      31.478  27.541  26.705  1.00  0.00     0.073 C 
ENDBRANCH  78  79
ENDBRANCH  76  78
ENDBRANCH  71  76
ENDBRANCH  66  69
ENDBRANCH  64  65
ENDBRANCH   1  64
TORSDOF 14
ENDMDL
