MODEL 1
REMARK VINA RESULT:     -11.9      0.000      0.000
REMARK SMILES Cc1nsc(NC[C@@H]2C[C@H]3CC[C@@H]2C3)c1C(=O)NCCCCNC(=O)c1ccc(-c2c3nc(c(-c4c(F)cccc4F)c4ccc([nH]4)c(-c4c(F)cccc4F)c4nc(c(-c5c(F)cccc5F)c5ccc2[nH]5)C=C4)C=C3)cc1
REMARK SMILES IDX 20 1 19 2 18 3 16 4 17 5 15 7 1 8 2 9 3 10 4 11 5 12 6 13
REMARK SMILES IDX 7 15 8 16 9 17 13 18 10 19 12 20 14 21 11 22 21 23 22 24
REMARK SMILES IDX 23 25 24 26 25 28 26 29 27 30 79 31 28 32 78 33 29 34 30 35
REMARK SMILES IDX 31 36 72 37 32 38 77 39 71 40 73 41 33 42 76 43 70 44 69 45
REMARK SMILES IDX 34 47 60 48 43 49 59 50 44 51 47 52 58 53 74 54 45 55 46 56
REMARK SMILES IDX 57 58 75 59 48 60 35 61 36 62 41 63 37 64 38 65 40 66 42 67
REMARK SMILES IDX 39 68 61 69 62 70 67 71 63 72 64 73 66 74 68 75 65 76 49 77
REMARK SMILES IDX 50 78 55 79 51 80 52 81 54 82 56 83 53 84
REMARK H PARENT 18 6 6 14 23 27 73 46 47 57
REMARK Flexibility Score: inf
ROOT
ATOM      1  C   UNL A   1      31.769  30.001  26.722  1.00  0.00     0.023 C 
ENDROOT
BRANCH   1   2
ATOM      2  C   UNL A   1      33.109  29.326  26.444  1.00  0.00     0.116 C 
BRANCH   2   3
ATOM      3  N   UNL A   1      33.532  29.393  25.072  1.00  0.00    -0.352 N 
ATOM      4  C   UNL A   1      33.436  28.595  23.963  1.00  0.00     0.256 C 
ATOM      5  O   UNL A   1      33.890  29.171  22.960  1.00  0.00    -0.269 OA
ATOM      6  H   UNL A   1      34.015  30.229  24.880  1.00  0.00     0.163 HD
BRANCH   4   7
ATOM      7  C   UNL A   1      32.920  27.204  23.865  1.00  0.00     0.097 A 
ATOM      8  C   UNL A   1      34.258  25.545  25.528  1.00  0.00     0.069 C 
ATOM      9  C   UNL A   1      33.259  25.919  24.490  1.00  0.00     0.066 A 
ATOM     10  N   UNL A   1      32.543  24.864  24.100  1.00  0.00    -0.195 NA
ATOM     11  S   UNL A   1      31.394  25.321  23.048  1.00  0.00    -0.018 S 
ATOM     12  C   UNL A   1      31.803  26.981  23.022  1.00  0.00     0.122 A 
BRANCH  12  13
ATOM     13  N   UNL A   1      31.142  27.915  22.280  1.00  0.00    -0.375 N 
ATOM     14  H   UNL A   1      31.657  28.367  21.574  1.00  0.00     0.161 HD
BRANCH  13  15
ATOM     15  C   UNL A   1      29.757  28.307  22.429  1.00  0.00     0.117 C 
BRANCH  15  16
ATOM     16  C   UNL A   1      29.535  29.827  22.258  1.00  0.00     0.012 C 
ATOM     17  C   UNL A   1      29.755  30.586  23.594  1.00  0.00     0.009 C 
ATOM     18  C   UNL A   1      28.117  30.310  21.848  1.00  0.00    -0.006 C 
ATOM     19  C   UNL A   1      28.477  31.430  23.738  1.00  0.00    -0.011 C 
ATOM     20  C   UNL A   1      28.211  31.777  21.378  1.00  0.00     0.004 C 
ATOM     21  C   UNL A   1      27.414  30.476  23.194  1.00  0.00     0.007 C 
ATOM     22  C   UNL A   1      28.494  32.541  22.677  1.00  0.00     0.004 C 
ENDBRANCH  15  16
ENDBRANCH  13  15
ENDBRANCH  12  13
ENDBRANCH   4   7
ENDBRANCH   2   3
ENDBRANCH   1   2
BRANCH   1  23
ATOM     23  C   UNL A   1      31.752  31.528  26.573  1.00  0.00     0.023 C 
BRANCH  23  24
ATOM     24  C   UNL A   1      32.899  32.265  27.262  1.00  0.00     0.116 C 
BRANCH  24  25
ATOM     25  N   UNL A   1      32.554  33.619  27.692  1.00  0.00    -0.352 N 
ATOM     26  C   UNL A   1      33.109  34.311  28.751  1.00  0.00     0.251 C 
ATOM     27  H   UNL A   1      31.857  34.083  27.175  1.00  0.00     0.163 HD
ATOM     28  O   UNL A   1      32.510  35.234  29.297  1.00  0.00    -0.269 OA
BRANCH  26  29
ATOM     29  C   UNL A   1      34.452  33.924  29.208  1.00  0.00     0.039 A 
ATOM     30  C   UNL A   1      34.629  33.061  30.289  1.00  0.00     0.014 A 
ATOM     31  C   UNL A   1      35.541  34.395  28.473  1.00  0.00     0.014 A 
ATOM     32  C   UNL A   1      35.912  32.592  30.562  1.00  0.00     0.010 A 
ATOM     33  C   UNL A   1      36.785  33.844  28.671  1.00  0.00     0.010 A 
ATOM     34  C   UNL A   1      36.984  32.957  29.726  1.00  0.00    -0.014 A 
BRANCH  34  35
ATOM     35  C   UNL A   1      38.264  32.254  29.833  1.00  0.00     0.031 A 
ATOM     36  C   UNL A   1      38.196  30.847  29.351  1.00  0.00     0.074 A 
ATOM     37  C   UNL A   1      39.442  32.848  30.131  1.00  0.00     0.049 A 
ATOM     38  N   UNL A   1      38.221  29.776  30.072  1.00  0.00    -0.248 NA
ATOM     39  C   UNL A   1      37.892  30.591  27.932  1.00  0.00     0.031 C 
ATOM     40  C   UNL A   1      39.691  34.285  30.305  1.00  0.00     0.029 A 
ATOM     41  N   UNL A   1      40.696  32.314  30.245  1.00  0.00    -0.354 N 
ATOM     42  C   UNL A   1      38.228  28.716  29.170  1.00  0.00     0.074 A 
ATOM     43  C   UNL A   1      37.797  29.258  27.911  1.00  0.00     0.031 C 
ATOM     44  C   UNL A   1      41.018  34.528  30.254  1.00  0.00     0.029 A 
ATOM     45  C   UNL A   1      41.721  33.259  30.235  1.00  0.00     0.049 A 
ATOM     46  H   UNL A   1      40.861  31.347  30.327  1.00  0.00     0.167 HD
ATOM     47  C   UNL A   1      38.932  27.588  29.464  1.00  0.00     0.037 A 
ATOM     48  C   UNL A   1      43.059  33.032  30.227  1.00  0.00     0.037 A 
ATOM     49  C   UNL A   1      39.313  27.586  30.854  1.00  0.00     0.049 A 
ATOM     50  C   UNL A   1      43.283  31.672  30.757  1.00  0.00     0.074 A 
ATOM     51  C   UNL A   1      38.708  27.393  32.075  1.00  0.00     0.029 A 
ATOM     52  N   UNL A   1      40.489  28.247  31.079  1.00  0.00    -0.354 N 
ATOM     53  N   UNL A   1      43.061  31.342  31.997  1.00  0.00    -0.248 NA
ATOM     54  C   UNL A   1      43.431  30.558  29.827  1.00  0.00     0.031 C 
ATOM     55  C   UNL A   1      39.514  28.082  33.032  1.00  0.00     0.029 A 
ATOM     56  C   UNL A   1      40.617  28.631  32.382  1.00  0.00     0.049 A 
ATOM     57  H   UNL A   1      41.163  28.424  30.384  1.00  0.00     0.167 HD
ATOM     58  C   UNL A   1      42.593  30.048  31.918  1.00  0.00     0.074 A 
ATOM     59  C   UNL A   1      43.023  29.559  30.614  1.00  0.00     0.031 C 
ATOM     60  C   UNL A   1      41.603  29.619  32.753  1.00  0.00     0.037 A 
BRANCH  47  61
ATOM     61  C   UNL A   1      39.770  26.803  28.466  1.00  0.00     0.057 A 
ATOM     62  C   UNL A   1      40.691  27.506  27.662  1.00  0.00     0.134 A 
ATOM     63  C   UNL A   1      39.471  25.500  28.020  1.00  0.00     0.134 A 
ATOM     64  F   UNL A   1      41.051  28.763  27.968  1.00  0.00    -0.206 F 
ATOM     65  C   UNL A   1      41.203  26.984  26.465  1.00  0.00     0.040 A 
ATOM     66  C   UNL A   1      40.013  24.952  26.851  1.00  0.00     0.040 A 
ATOM     67  F   UNL A   1      38.562  24.722  28.616  1.00  0.00    -0.206 F 
ATOM     68  C   UNL A   1      40.856  25.705  26.052  1.00  0.00     0.006 A 
ENDBRANCH  47  61
BRANCH  48  69
ATOM     69  C   UNL A   1      44.158  33.834  29.647  1.00  0.00     0.057 A 
ATOM     70  C   UNL A   1      44.420  33.832  28.269  1.00  0.00     0.134 A 
ATOM     71  C   UNL A   1      44.782  34.847  30.393  1.00  0.00     0.134 A 
ATOM     72  F   UNL A   1      43.845  32.925  27.466  1.00  0.00    -0.206 F 
ATOM     73  C   UNL A   1      45.228  34.803  27.662  1.00  0.00     0.040 A 
ATOM     74  C   UNL A   1      45.591  35.823  29.801  1.00  0.00     0.040 A 
ATOM     75  F   UNL A   1      44.549  34.976  31.708  1.00  0.00    -0.206 F 
ATOM     76  C   UNL A   1      45.804  35.813  28.426  1.00  0.00     0.006 A 
ENDBRANCH  48  69
BRANCH  60  77
ATOM     77  C   UNL A   1      41.446  30.321  34.062  1.00  0.00     0.057 A 
ATOM     78  C   UNL A   1      42.247  30.109  35.191  1.00  0.00     0.134 A 
ATOM     79  C   UNL A   1      40.469  31.320  34.151  1.00  0.00     0.134 A 
ATOM     80  F   UNL A   1      43.252  29.223  35.174  1.00  0.00    -0.206 F 
ATOM     81  C   UNL A   1      42.058  30.838  36.369  1.00  0.00     0.040 A 
ATOM     82  C   UNL A   1      40.292  32.077  35.307  1.00  0.00     0.040 A 
ATOM     83  F   UNL A   1      39.691  31.598  33.093  1.00  0.00    -0.206 F 
ATOM     84  C   UNL A   1      41.081  31.831  36.426  1.00  0.00     0.006 A 
ENDBRANCH  60  77
ENDBRANCH  34  35
ENDBRANCH  26  29
ENDBRANCH  24  25
ENDBRANCH  23  24
ENDBRANCH   1  23
TORSDOF 14
ENDMDL
MODEL 2
REMARK VINA RESULT:     -11.8      4.664      9.488
REMARK SMILES Cc1nsc(NC[C@@H]2C[C@H]3CC[C@@H]2C3)c1C(=O)NCCCCNC(=O)c1ccc(-c2c3nc(c(-c4c(F)cccc4F)c4ccc([nH]4)c(-c4c(F)cccc4F)c4nc(c(-c5c(F)cccc5F)c5ccc2[nH]5)C=C4)C=C3)cc1
REMARK SMILES IDX 20 1 19 2 18 3 16 4 17 5 15 7 1 8 2 9 3 10 4 11 5 12 6 13
REMARK SMILES IDX 7 15 8 16 9 17 13 18 10 19 12 20 14 21 11 22 21 23 22 24
REMARK SMILES IDX 23 25 24 26 25 28 26 29 27 30 79 31 28 32 78 33 29 34 30 35
REMARK SMILES IDX 31 36 72 37 32 38 77 39 71 40 73 41 33 42 76 43 70 44 69 45
REMARK SMILES IDX 34 47 60 48 43 49 59 50 44 51 47 52 58 53 74 54 45 55 46 56
REMARK SMILES IDX 57 58 75 59 48 60 35 61 36 62 41 63 37 64 38 65 40 66 42 67
REMARK SMILES IDX 39 68 61 69 62 70 67 71 63 72 64 73 66 74 68 75 65 76 49 77
REMARK SMILES IDX 50 78 55 79 51 80 52 81 54 82 56 83 53 84
REMARK H PARENT 18 6 6 14 23 27 73 46 47 57
REMARK Flexibility Score: inf
ROOT
ATOM      1  C   UNL A   1      36.872  21.201  24.976  1.00  0.00     0.023 C 
ENDROOT
BRANCH   1   2
ATOM      2  C   UNL A   1      37.122  22.516  24.245  1.00  0.00     0.116 C 
BRANCH   2   3
ATOM      3  N   UNL A   1      36.104  22.867  23.292  1.00  0.00    -0.352 N 
ATOM      4  C   UNL A   1      34.818  23.338  23.341  1.00  0.00     0.256 C 
ATOM      5  O   UNL A   1      34.391  23.584  22.201  1.00  0.00    -0.269 OA
ATOM      6  H   UNL A   1      36.410  22.735  22.366  1.00  0.00     0.163 HD
BRANCH   4   7
ATOM      7  C   UNL A   1      33.946  23.527  24.530  1.00  0.00     0.097 A 
ATOM      8  C   UNL A   1      33.873  26.121  25.287  1.00  0.00     0.069 C 
ATOM      9  C   UNL A   1      33.556  24.669  25.366  1.00  0.00     0.066 A 
ATOM     10  N   UNL A   1      32.743  24.404  26.390  1.00  0.00    -0.195 NA
ATOM     11  S   UNL A   1      32.331  22.833  26.388  1.00  0.00    -0.018 S 
ATOM     12  C   UNL A   1      33.251  22.392  25.016  1.00  0.00     0.122 A 
BRANCH  12  13
ATOM     13  N   UNL A   1      33.294  21.129  24.504  1.00  0.00    -0.375 N 
ATOM     14  H   UNL A   1      34.041  20.921  23.898  1.00  0.00     0.161 HD
BRANCH  13  15
ATOM     15  C   UNL A   1      32.351  20.063  24.765  1.00  0.00     0.117 C 
BRANCH  15  16
ATOM     16  C   UNL A   1      33.031  18.737  25.173  1.00  0.00     0.012 C 
ATOM     17  C   UNL A   1      34.472  18.641  24.602  1.00  0.00     0.009 C 
ATOM     18  C   UNL A   1      32.399  17.412  24.664  1.00  0.00    -0.006 C 
ATOM     19  C   UNL A   1      34.486  17.271  23.903  1.00  0.00    -0.011 C 
ATOM     20  C   UNL A   1      32.992  16.240  25.473  1.00  0.00     0.004 C 
ATOM     21  C   UNL A   1      33.078  17.211  23.311  1.00  0.00     0.007 C 
ATOM     22  C   UNL A   1      34.440  16.168  24.971  1.00  0.00     0.004 C 
ENDBRANCH  15  16
ENDBRANCH  13  15
ENDBRANCH  12  13
ENDBRANCH   4   7
ENDBRANCH   2   3
ENDBRANCH   1   2
BRANCH   1  23
ATOM     23  C   UNL A   1      38.019  20.183  24.921  1.00  0.00     0.023 C 
BRANCH  23  24
ATOM     24  C   UNL A   1      39.143  20.410  25.931  1.00  0.00     0.116 C 
BRANCH  24  25
ATOM     25  N   UNL A   1      40.201  19.404  25.868  1.00  0.00    -0.352 N 
ATOM     26  C   UNL A   1      41.562  19.641  25.896  1.00  0.00     0.251 C 
ATOM     27  H   UNL A   1      39.916  18.465  25.797  1.00  0.00     0.163 HD
ATOM     28  O   UNL A   1      42.364  18.832  25.435  1.00  0.00    -0.269 OA
BRANCH  26  29
ATOM     29  C   UNL A   1      42.039  20.890  26.509  1.00  0.00     0.039 A 
ATOM     30  C   UNL A   1      42.279  22.029  25.741  1.00  0.00     0.014 A 
ATOM     31  C   UNL A   1      42.170  20.914  27.898  1.00  0.00     0.014 A 
ATOM     32  C   UNL A   1      42.556  23.226  26.395  1.00  0.00     0.010 A 
ATOM     33  C   UNL A   1      42.329  22.116  28.546  1.00  0.00     0.010 A 
ATOM     34  C   UNL A   1      42.543  23.274  27.803  1.00  0.00    -0.014 A 
BRANCH  34  35
ATOM     35  C   UNL A   1      42.552  24.568  28.487  1.00  0.00     0.031 A 
ATOM     36  C   UNL A   1      41.356  25.399  28.175  1.00  0.00     0.074 A 
ATOM     37  C   UNL A   1      43.423  24.914  29.463  1.00  0.00     0.049 A 
ATOM     38  N   UNL A   1      41.315  26.456  27.435  1.00  0.00    -0.248 NA
ATOM     39  C   UNL A   1      40.024  24.914  28.579  1.00  0.00     0.031 C 
ATOM     40  C   UNL A   1      44.441  24.058  30.085  1.00  0.00     0.029 A 
ATOM     41  N   UNL A   1      43.526  26.071  30.185  1.00  0.00    -0.354 N 
ATOM     42  C   UNL A   1      40.007  26.926  27.524  1.00  0.00     0.074 A 
ATOM     43  C   UNL A   1      39.223  25.835  28.034  1.00  0.00     0.031 C 
ATOM     44  C   UNL A   1      44.877  24.626  31.230  1.00  0.00     0.029 A 
ATOM     45  C   UNL A   1      44.317  25.961  31.327  1.00  0.00     0.049 A 
ATOM     46  H   UNL A   1      43.080  26.908  29.921  1.00  0.00     0.167 HD
ATOM     47  C   UNL A   1      39.772  28.268  27.512  1.00  0.00     0.037 A 
ATOM     48  C   UNL A   1      44.522  26.897  32.288  1.00  0.00     0.037 A 
ATOM     49  C   UNL A   1      40.954  28.976  27.089  1.00  0.00     0.049 A 
ATOM     50  C   UNL A   1      44.217  28.216  31.698  1.00  0.00     0.074 A 
ATOM     51  C   UNL A   1      41.644  29.198  25.919  1.00  0.00     0.029 A 
ATOM     52  N   UNL A   1      41.805  29.246  28.124  1.00  0.00    -0.354 N 
ATOM     53  N   UNL A   1      44.941  28.767  30.766  1.00  0.00    -0.248 NA
ATOM     54  C   UNL A   1      42.893  28.797  31.890  1.00  0.00     0.031 C 
ATOM     55  C   UNL A   1      42.990  29.491  26.300  1.00  0.00     0.029 A 
ATOM     56  C   UNL A   1      43.074  29.493  27.690  1.00  0.00     0.049 A 
ATOM     57  H   UNL A   1      41.534  29.259  29.071  1.00  0.00     0.167 HD
ATOM     58  C   UNL A   1      44.023  29.424  29.976  1.00  0.00     0.074 A 
ATOM     59  C   UNL A   1      42.834  29.575  30.806  1.00  0.00     0.031 C 
ATOM     60  C   UNL A   1      44.178  29.463  28.621  1.00  0.00     0.037 A 
BRANCH  47  61
ATOM     61  C   UNL A   1      38.758  28.980  28.394  1.00  0.00     0.057 A 
ATOM     62  C   UNL A   1      38.771  28.716  29.779  1.00  0.00     0.134 A 
ATOM     63  C   UNL A   1      37.586  29.604  27.923  1.00  0.00     0.134 A 
ATOM     64  F   UNL A   1      39.823  28.112  30.354  1.00  0.00    -0.206 F 
ATOM     65  C   UNL A   1      37.671  28.976  30.609  1.00  0.00     0.040 A 
ATOM     66  C   UNL A   1      36.500  29.910  28.751  1.00  0.00     0.040 A 
ATOM     67  F   UNL A   1      37.372  29.856  26.627  1.00  0.00    -0.206 F 
ATOM     68  C   UNL A   1      36.526  29.566  30.092  1.00  0.00     0.006 A 
ENDBRANCH  47  61
BRANCH  48  69
ATOM     69  C   UNL A   1      44.805  26.736  33.731  1.00  0.00     0.057 A 
ATOM     70  C   UNL A   1      43.818  26.302  34.629  1.00  0.00     0.134 A 
ATOM     71  C   UNL A   1      46.126  26.716  34.207  1.00  0.00     0.134 A 
ATOM     72  F   UNL A   1      42.531  26.253  34.257  1.00  0.00    -0.206 F 
ATOM     73  C   UNL A   1      44.131  25.842  35.916  1.00  0.00     0.040 A 
ATOM     74  C   UNL A   1      46.452  26.260  35.490  1.00  0.00     0.040 A 
ATOM     75  F   UNL A   1      47.150  27.051  33.409  1.00  0.00    -0.206 F 
ATOM     76  C   UNL A   1      45.454  25.805  36.344  1.00  0.00     0.006 A 
ENDBRANCH  48  69
BRANCH  60  77
ATOM     77  C   UNL A   1      45.562  29.314  28.077  1.00  0.00     0.057 A 
ATOM     78  C   UNL A   1      46.143  28.104  27.677  1.00  0.00     0.134 A 
ATOM     79  C   UNL A   1      46.314  30.479  27.884  1.00  0.00     0.134 A 
ATOM     80  F   UNL A   1      45.470  26.948  27.759  1.00  0.00    -0.206 F 
ATOM     81  C   UNL A   1      47.433  28.056  27.140  1.00  0.00     0.040 A 
ATOM     82  C   UNL A   1      47.588  30.449  27.320  1.00  0.00     0.040 A 
ATOM     83  F   UNL A   1      45.802  31.675  28.214  1.00  0.00    -0.206 F 
ATOM     84  C   UNL A   1      48.157  29.233  26.954  1.00  0.00     0.006 A 
ENDBRANCH  60  77
ENDBRANCH  34  35
ENDBRANCH  26  29
ENDBRANCH  24  25
ENDBRANCH  23  24
ENDBRANCH   1  23
TORSDOF 14
ENDMDL
MODEL 3
REMARK VINA RESULT:     -11.8      3.566      5.082
REMARK SMILES Cc1nsc(NC[C@@H]2C[C@H]3CC[C@@H]2C3)c1C(=O)NCCCCNC(=O)c1ccc(-c2c3nc(c(-c4c(F)cccc4F)c4ccc([nH]4)c(-c4c(F)cccc4F)c4nc(c(-c5c(F)cccc5F)c5ccc2[nH]5)C=C4)C=C3)cc1
REMARK SMILES IDX 20 1 19 2 18 3 16 4 17 5 15 7 1 8 2 9 3 10 4 11 5 12 6 13
REMARK SMILES IDX 7 15 8 16 9 17 13 18 10 19 12 20 14 21 11 22 21 23 22 24
REMARK SMILES IDX 23 25 24 26 25 28 26 29 27 30 79 31 28 32 78 33 29 34 30 35
REMARK SMILES IDX 31 36 72 37 32 38 77 39 71 40 73 41 33 42 76 43 70 44 69 45
REMARK SMILES IDX 34 47 60 48 43 49 59 50 44 51 47 52 58 53 74 54 45 55 46 56
REMARK SMILES IDX 57 58 75 59 48 60 35 61 36 62 41 63 37 64 38 65 40 66 42 67
REMARK SMILES IDX 39 68 61 69 62 70 67 71 63 72 64 73 66 74 68 75 65 76 49 77
REMARK SMILES IDX 50 78 55 79 51 80 52 81 54 82 56 83 53 84
REMARK H PARENT 18 6 6 14 23 27 73 46 47 57
REMARK Flexibility Score: inf
ROOT
ATOM      1  C   UNL A   1      32.535  29.053  26.245  1.00  0.00     0.023 C 
ENDROOT
BRANCH   1   2
ATOM      2  C   UNL A   1      32.075  28.208  27.429  1.00  0.00     0.116 C 
BRANCH   2   3
ATOM      3  N   UNL A   1      31.125  27.184  27.092  1.00  0.00    -0.352 N 
ATOM      4  C   UNL A   1      31.056  26.149  26.195  1.00  0.00     0.256 C 
ATOM      5  O   UNL A   1      30.032  25.470  26.378  1.00  0.00    -0.269 OA
ATOM      6  H   UNL A   1      30.314  27.239  27.648  1.00  0.00     0.163 HD
BRANCH   4   7
ATOM      7  C   UNL A   1      31.994  25.818  25.091  1.00  0.00     0.097 A 
ATOM      8  C   UNL A   1      34.225  24.614  26.031  1.00  0.00     0.069 C 
ATOM      9  C   UNL A   1      33.323  25.199  25.002  1.00  0.00     0.066 A 
ATOM     10  N   UNL A   1      33.850  25.101  23.780  1.00  0.00    -0.195 NA
ATOM     11  S   UNL A   1      32.801  25.651  22.669  1.00  0.00    -0.018 S 
ATOM     12  C   UNL A   1      31.566  26.091  23.768  1.00  0.00     0.122 A 
BRANCH  12  13
ATOM     13  N   UNL A   1      30.372  26.631  23.393  1.00  0.00    -0.375 N 
ATOM     14  H   UNL A   1      29.560  26.195  23.737  1.00  0.00     0.161 HD
BRANCH  13  15
ATOM     15  C   UNL A   1      30.180  27.783  22.537  1.00  0.00     0.117 C 
BRANCH  15  16
ATOM     16  C   UNL A   1      29.401  28.926  23.226  1.00  0.00     0.012 C 
ATOM     17  C   UNL A   1      27.876  28.815  22.957  1.00  0.00     0.009 C 
ATOM     18  C   UNL A   1      29.698  30.381  22.771  1.00  0.00    -0.006 C 
ATOM     19  C   UNL A   1      27.503  30.216  22.445  1.00  0.00    -0.011 C 
ATOM     20  C   UNL A   1      29.111  31.355  23.814  1.00  0.00     0.004 C 
ATOM     21  C   UNL A   1      28.729  30.577  21.607  1.00  0.00     0.007 C 
ATOM     22  C   UNL A   1      27.598  31.212  23.611  1.00  0.00     0.004 C 
ENDBRANCH  15  16
ENDBRANCH  13  15
ENDBRANCH  12  13
ENDBRANCH   4   7
ENDBRANCH   2   3
ENDBRANCH   1   2
BRANCH   1  23
ATOM     23  C   UNL A   1      34.043  29.327  26.172  1.00  0.00     0.023 C 
BRANCH  23  24
ATOM     24  C   UNL A   1      34.845  28.899  27.399  1.00  0.00     0.116 C 
BRANCH  24  25
ATOM     25  N   UNL A   1      35.095  29.985  28.346  1.00  0.00    -0.352 N 
ATOM     26  C   UNL A   1      36.190  30.113  29.180  1.00  0.00     0.251 C 
ATOM     27  H   UNL A   1      34.416  30.695  28.394  1.00  0.00     0.163 HD
ATOM     28  O   UNL A   1      36.140  30.789  30.204  1.00  0.00    -0.269 OA
BRANCH  26  29
ATOM     29  C   UNL A   1      37.434  29.426  28.804  1.00  0.00     0.039 A 
ATOM     30  C   UNL A   1      38.139  29.780  27.653  1.00  0.00     0.014 A 
ATOM     31  C   UNL A   1      37.923  28.457  29.681  1.00  0.00     0.014 A 
ATOM     32  C   UNL A   1      39.396  29.220  27.445  1.00  0.00     0.010 A 
ATOM     33  C   UNL A   1      39.210  27.993  29.535  1.00  0.00     0.010 A 
ATOM     34  C   UNL A   1      39.946  28.353  28.409  1.00  0.00    -0.014 A 
BRANCH  34  35
ATOM     35  C   UNL A   1      41.362  27.989  28.338  1.00  0.00     0.031 A 
ATOM     36  C   UNL A   1      41.601  26.730  27.581  1.00  0.00     0.074 A 
ATOM     37  C   UNL A   1      42.381  28.793  28.721  1.00  0.00     0.049 A 
ATOM     38  N   UNL A   1      41.939  25.582  28.067  1.00  0.00    -0.248 NA
ATOM     39  C   UNL A   1      41.261  26.682  26.147  1.00  0.00     0.031 C 
ATOM     40  C   UNL A   1      42.286  30.185  29.177  1.00  0.00     0.029 A 
ATOM     41  N   UNL A   1      43.732  28.582  28.690  1.00  0.00    -0.354 N 
ATOM     42  C   UNL A   1      42.135  24.751  26.967  1.00  0.00     0.074 A 
ATOM     43  C   UNL A   1      41.490  25.397  25.856  1.00  0.00     0.031 C 
ATOM     44  C   UNL A   1      43.508  30.761  29.143  1.00  0.00     0.029 A 
ATOM     45  C   UNL A   1      44.493  29.738  28.847  1.00  0.00     0.049 A 
ATOM     46  H   UNL A   1      44.132  27.690  28.569  1.00  0.00     0.167 HD
ATOM     47  C   UNL A   1      43.111  23.802  27.006  1.00  0.00     0.037 A 
ATOM     48  C   UNL A   1      45.842  29.862  28.759  1.00  0.00     0.037 A 
ATOM     49  C   UNL A   1      43.585  23.631  28.356  1.00  0.00     0.049 A 
ATOM     50  C   UNL A   1      46.428  28.528  28.993  1.00  0.00     0.074 A 
ATOM     51  C   UNL A   1      43.140  23.061  29.527  1.00  0.00     0.029 A 
ATOM     52  N   UNL A   1      44.580  24.511  28.681  1.00  0.00    -0.354 N 
ATOM     53  N   UNL A   1      46.388  27.921  30.146  1.00  0.00    -0.248 NA
ATOM     54  C   UNL A   1      46.771  27.687  27.852  1.00  0.00     0.031 C 
ATOM     55  C   UNL A   1      43.826  23.735  30.584  1.00  0.00     0.029 A 
ATOM     56  C   UNL A   1      44.710  24.658  30.031  1.00  0.00     0.049 A 
ATOM     57  H   UNL A   1      45.136  24.983  28.019  1.00  0.00     0.167 HD
ATOM     58  C   UNL A   1      46.243  26.591  29.816  1.00  0.00     0.074 A 
ATOM     59  C   UNL A   1      46.678  26.485  28.428  1.00  0.00     0.031 C 
ATOM     60  C   UNL A   1      45.453  25.774  30.570  1.00  0.00     0.037 A 
BRANCH  47  61
ATOM     61  C   UNL A   1      44.036  23.461  25.847  1.00  0.00     0.057 A 
ATOM     62  C   UNL A   1      44.230  22.102  25.521  1.00  0.00     0.134 A 
ATOM     63  C   UNL A   1      44.988  24.342  25.295  1.00  0.00     0.134 A 
ATOM     64  F   UNL A   1      43.402  21.157  25.994  1.00  0.00    -0.206 F 
ATOM     65  C   UNL A   1      45.331  21.653  24.778  1.00  0.00     0.040 A 
ATOM     66  C   UNL A   1      46.064  23.908  24.514  1.00  0.00     0.040 A 
ATOM     67  F   UNL A   1      45.001  25.651  25.564  1.00  0.00    -0.206 F 
ATOM     68  C   UNL A   1      46.258  22.557  24.280  1.00  0.00     0.006 A 
ENDBRANCH  47  61
BRANCH  48  69
ATOM     69  C   UNL A   1      46.667  31.012  28.326  1.00  0.00     0.057 A 
ATOM     70  C   UNL A   1      46.655  31.466  26.999  1.00  0.00     0.134 A 
ATOM     71  C   UNL A   1      47.253  31.871  29.269  1.00  0.00     0.134 A 
ATOM     72  F   UNL A   1      46.088  30.731  26.032  1.00  0.00    -0.206 F 
ATOM     73  C   UNL A   1      47.166  32.719  26.635  1.00  0.00     0.040 A 
ATOM     74  C   UNL A   1      47.767  33.126  28.920  1.00  0.00     0.040 A 
ATOM     75  F   UNL A   1      47.260  31.560  30.574  1.00  0.00    -0.206 F 
ATOM     76  C   UNL A   1      47.710  33.561  27.600  1.00  0.00     0.006 A 
ENDBRANCH  48  69
BRANCH  60  77
ATOM     77  C   UNL A   1      45.230  26.150  31.999  1.00  0.00     0.057 A 
ATOM     78  C   UNL A   1      44.105  26.825  32.488  1.00  0.00     0.134 A 
ATOM     79  C   UNL A   1      46.184  25.736  32.937  1.00  0.00     0.134 A 
ATOM     80  F   UNL A   1      43.108  27.196  31.673  1.00  0.00    -0.206 F 
ATOM     81  C   UNL A   1      43.955  27.105  33.849  1.00  0.00     0.040 A 
ATOM     82  C   UNL A   1      46.032  25.980  34.300  1.00  0.00     0.040 A 
ATOM     83  F   UNL A   1      47.270  25.054  32.539  1.00  0.00    -0.206 F 
ATOM     84  C   UNL A   1      44.918  26.676  34.761  1.00  0.00     0.006 A 
ENDBRANCH  60  77
ENDBRANCH  34  35
ENDBRANCH  26  29
ENDBRANCH  24  25
ENDBRANCH  23  24
ENDBRANCH   1  23
TORSDOF 14
ENDMDL
