MODEL 1
REMARK VINA RESULT:     -11.2      0.000      0.000
REMARK SMILES C/C(=C/C[NH+]1C[C@@H](C)[C@H](C)C1)C(=O)NCCCCNC(=O)c1ccc(-c2c3nc(c(-c4c(F)cccc4F)c4ccc([nH]4)c(-c4c(F)cccc4F)c4nc(c(-c5c(F)cccc5F)c5ccc2[nH]5)C=C4)C=C3)cc1
REMARK SMILES IDX 16 1 15 2 14 3 12 4 13 5 2 7 1 8 3 9 4 10 5 11 6 12 11 13
REMARK SMILES IDX 7 15 9 16 8 17 10 18 17 19 18 20 19 21 20 22 21 24 22 25
REMARK SMILES IDX 23 26 75 27 24 28 74 29 25 30 26 31 27 32 68 33 28 34 73 35
REMARK SMILES IDX 67 36 69 37 29 38 72 39 66 40 65 41 30 43 56 44 39 45 55 46
REMARK SMILES IDX 40 47 43 48 54 49 70 50 41 51 42 52 53 54 71 55 44 56 31 57
REMARK SMILES IDX 32 58 37 59 33 60 34 61 36 62 38 63 35 64 57 65 58 66 63 67
REMARK SMILES IDX 59 68 60 69 62 70 64 71 61 72 45 73 46 74 51 75 47 76 48 77
REMARK SMILES IDX 50 78 52 79 49 80
REMARK H PARENT 14 6 5 14 19 23 69 42 43 53
REMARK Flexibility Score: inf
ROOT
ATOM      1  C   UNL A   1      36.975  22.767  24.278  1.00  0.00     0.023 C 
ENDROOT
BRANCH   1   2
ATOM      2  C   UNL A   1      35.698  22.875  23.438  1.00  0.00     0.116 C 
BRANCH   2   3
ATOM      3  N   UNL A   1      34.643  23.507  24.194  1.00  0.00    -0.352 N 
ATOM      4  C   UNL A   1      33.792  23.119  25.166  1.00  0.00     0.246 C 
ATOM      5  O   UNL A   1      32.995  23.997  25.523  1.00  0.00    -0.270 OA
ATOM      6  H   UNL A   1      34.512  24.448  23.938  1.00  0.00     0.163 HD
BRANCH   4   7
ATOM      7  C   UNL A   1      33.769  21.797  25.901  1.00  0.00     0.015 C 
ATOM      8  C   UNL A   1      34.096  22.030  27.372  1.00  0.00     0.050 C 
ATOM      9  C   UNL A   1      33.500  20.517  25.566  1.00  0.00     0.042 C 
BRANCH   9  10
ATOM     10  C   UNL A   1      33.101  19.815  24.313  1.00  0.00     0.291 C 
BRANCH  10  11
ATOM     11  N   UNL A   1      33.334  18.371  24.300  1.00  0.00    -0.331 N 
ATOM     12  C   UNL A   1      34.697  17.886  24.525  1.00  0.00     0.266 C 
ATOM     13  C   UNL A   1      32.431  17.590  25.152  1.00  0.00     0.266 C 
ATOM     14  H   UNL A   1      33.129  18.205  23.315  1.00  0.00     0.348 HD
ATOM     15  C   UNL A   1      34.485  16.391  24.721  1.00  0.00     0.049 C 
ATOM     16  C   UNL A   1      33.241  16.370  25.612  1.00  0.00     0.049 C 
ATOM     17  C   UNL A   1      35.699  15.714  25.341  1.00  0.00     0.014 C 
ATOM     18  C   UNL A   1      32.465  15.064  25.534  1.00  0.00     0.014 C 
ENDBRANCH  10  11
ENDBRANCH   9  10
ENDBRANCH   4   7
ENDBRANCH   2   3
ENDBRANCH   1   2
BRANCH   1  19
ATOM     19  C   UNL A   1      37.354  21.344  24.685  1.00  0.00     0.023 C 
BRANCH  19  20
ATOM     20  C   UNL A   1      38.498  21.271  25.688  1.00  0.00     0.116 C 
BRANCH  20  21
ATOM     21  N   UNL A   1      39.310  20.066  25.574  1.00  0.00    -0.352 N 
ATOM     22  C   UNL A   1      40.626  19.907  25.944  1.00  0.00     0.251 C 
ATOM     23  H   UNL A   1      38.867  19.276  25.188  1.00  0.00     0.163 HD
ATOM     24  O   UNL A   1      41.227  18.860  25.736  1.00  0.00    -0.269 OA
BRANCH  22  25
ATOM     25  C   UNL A   1      41.317  21.058  26.551  1.00  0.00     0.039 A 
ATOM     26  C   UNL A   1      41.872  22.030  25.717  1.00  0.00     0.014 A 
ATOM     27  C   UNL A   1      41.312  21.222  27.939  1.00  0.00     0.014 A 
ATOM     28  C   UNL A   1      42.348  23.217  26.273  1.00  0.00     0.010 A 
ATOM     29  C   UNL A   1      41.723  22.431  28.483  1.00  0.00     0.010 A 
ATOM     30  C   UNL A   1      42.234  23.444  27.655  1.00  0.00    -0.014 A 
BRANCH  30  31
ATOM     31  C   UNL A   1      42.639  24.731  28.270  1.00  0.00     0.031 A 
ATOM     32  C   UNL A   1      41.609  25.800  28.492  1.00  0.00     0.074 A 
ATOM     33  C   UNL A   1      43.937  24.969  28.537  1.00  0.00     0.049 A 
ATOM     34  N   UNL A   1      41.774  27.041  28.868  1.00  0.00    -0.248 NA
ATOM     35  C   UNL A   1      40.210  25.432  28.221  1.00  0.00     0.031 C 
ATOM     36  C   UNL A   1      45.038  24.027  28.325  1.00  0.00     0.029 A 
ATOM     37  N   UNL A   1      44.553  26.092  29.029  1.00  0.00    -0.354 N 
ATOM     38  C   UNL A   1      40.507  27.610  28.849  1.00  0.00     0.074 A 
ATOM     39  C   UNL A   1      39.590  26.589  28.389  1.00  0.00     0.031 C 
ATOM     40  C   UNL A   1      46.190  24.605  28.702  1.00  0.00     0.029 A 
ATOM     41  C   UNL A   1      45.916  25.968  29.146  1.00  0.00     0.049 A 
ATOM     42  H   UNL A   1      44.064  26.910  29.275  1.00  0.00     0.167 HD
ATOM     43  C   UNL A   1      40.139  28.864  29.202  1.00  0.00     0.037 A 
ATOM     44  C   UNL A   1      46.839  26.858  29.556  1.00  0.00     0.037 A 
ATOM     45  C   UNL A   1      41.045  29.862  29.700  1.00  0.00     0.049 A 
ATOM     46  C   UNL A   1      46.399  28.235  29.972  1.00  0.00     0.074 A 
ATOM     47  C   UNL A   1      40.764  31.150  30.121  1.00  0.00     0.029 A 
ATOM     48  N   UNL A   1      42.410  29.676  29.859  1.00  0.00    -0.354 N 
ATOM     49  N   UNL A   1      45.193  28.749  29.979  1.00  0.00    -0.248 NA
ATOM     50  C   UNL A   1      47.447  29.153  30.441  1.00  0.00     0.031 C 
ATOM     51  C   UNL A   1      41.963  31.749  30.522  1.00  0.00     0.029 A 
ATOM     52  C   UNL A   1      42.984  30.825  30.375  1.00  0.00     0.049 A 
ATOM     53  H   UNL A   1      42.898  28.850  29.636  1.00  0.00     0.167 HD
ATOM     54  C   UNL A   1      45.332  30.036  30.482  1.00  0.00     0.074 A 
ATOM     55  C   UNL A   1      46.738  30.223  30.772  1.00  0.00     0.031 C 
ATOM     56  C   UNL A   1      44.380  30.978  30.686  1.00  0.00     0.037 A 
BRANCH  43  57
ATOM     57  C   UNL A   1      38.689  29.214  29.070  1.00  0.00     0.057 A 
ATOM     58  C   UNL A   1      37.819  29.165  30.166  1.00  0.00     0.134 A 
ATOM     59  C   UNL A   1      38.159  29.620  27.840  1.00  0.00     0.134 A 
ATOM     60  F   UNL A   1      38.264  28.766  31.368  1.00  0.00    -0.206 F 
ATOM     61  C   UNL A   1      36.467  29.487  30.040  1.00  0.00     0.040 A 
ATOM     62  C   UNL A   1      36.814  29.968  27.705  1.00  0.00     0.040 A 
ATOM     63  F   UNL A   1      38.939  29.690  26.751  1.00  0.00    -0.206 F 
ATOM     64  C   UNL A   1      35.963  29.895  28.807  1.00  0.00     0.006 A 
ENDBRANCH  43  57
BRANCH  44  65
ATOM     65  C   UNL A   1      48.269  26.474  29.626  1.00  0.00     0.057 A 
ATOM     66  C   UNL A   1      48.783  25.827  30.756  1.00  0.00     0.134 A 
ATOM     67  C   UNL A   1      49.158  26.759  28.584  1.00  0.00     0.134 A 
ATOM     68  F   UNL A   1      47.981  25.546  31.793  1.00  0.00    -0.206 F 
ATOM     69  C   UNL A   1      50.134  25.496  30.858  1.00  0.00     0.040 A 
ATOM     70  C   UNL A   1      50.509  26.416  28.664  1.00  0.00     0.040 A 
ATOM     71  F   UNL A   1      48.725  27.372  27.472  1.00  0.00    -0.206 F 
ATOM     72  C   UNL A   1      51.002  25.788  29.806  1.00  0.00     0.006 A 
ENDBRANCH  44  65
BRANCH  56  73
ATOM     73  C   UNL A   1      44.817  32.271  31.301  1.00  0.00     0.057 A 
ATOM     74  C   UNL A   1      45.208  33.364  30.519  1.00  0.00     0.134 A 
ATOM     75  C   UNL A   1      44.794  32.438  32.691  1.00  0.00     0.134 A 
ATOM     76  F   UNL A   1      45.261  33.261  29.183  1.00  0.00    -0.206 F 
ATOM     77  C   UNL A   1      45.575  34.578  31.102  1.00  0.00     0.040 A 
ATOM     78  C   UNL A   1      45.141  33.651  33.283  1.00  0.00     0.040 A 
ATOM     79  F   UNL A   1      44.422  31.428  33.492  1.00  0.00    -0.206 F 
ATOM     80  C   UNL A   1      45.534  34.726  32.487  1.00  0.00     0.006 A 
ENDBRANCH  56  73
ENDBRANCH  30  31
ENDBRANCH  22  25
ENDBRANCH  20  21
ENDBRANCH  19  20
ENDBRANCH   1  19
TORSDOF 13
ENDMDL
MODEL 2
REMARK VINA RESULT:     -11.1      1.460      6.635
REMARK SMILES C/C(=C/C[NH+]1C[C@@H](C)[C@H](C)C1)C(=O)NCCCCNC(=O)c1ccc(-c2c3nc(c(-c4c(F)cccc4F)c4ccc([nH]4)c(-c4c(F)cccc4F)c4nc(c(-c5c(F)cccc5F)c5ccc2[nH]5)C=C4)C=C3)cc1
REMARK SMILES IDX 16 1 15 2 14 3 12 4 13 5 2 7 1 8 3 9 4 10 5 11 6 12 11 13
REMARK SMILES IDX 7 15 9 16 8 17 10 18 17 19 18 20 19 21 20 22 21 24 22 25
REMARK SMILES IDX 23 26 75 27 24 28 74 29 25 30 26 31 27 32 68 33 28 34 73 35
REMARK SMILES IDX 67 36 69 37 29 38 72 39 66 40 65 41 30 43 56 44 39 45 55 46
REMARK SMILES IDX 40 47 43 48 54 49 70 50 41 51 42 52 53 54 71 55 44 56 31 57
REMARK SMILES IDX 32 58 37 59 33 60 34 61 36 62 38 63 35 64 57 65 58 66 63 67
REMARK SMILES IDX 59 68 60 69 62 70 64 71 61 72 45 73 46 74 51 75 47 76 48 77
REMARK SMILES IDX 50 78 52 79 49 80
REMARK H PARENT 14 6 5 14 19 23 69 42 43 53
REMARK Flexibility Score: inf
ROOT
ATOM      1  C   UNL A   1      36.796  20.912  25.301  1.00  0.00     0.023 C 
ENDROOT
BRANCH   1   2
ATOM      2  C   UNL A   1      37.003  22.401  25.004  1.00  0.00     0.116 C 
BRANCH   2   3
ATOM      3  N   UNL A   1      36.129  22.836  23.941  1.00  0.00    -0.352 N 
ATOM      4  C   UNL A   1      34.806  22.758  23.692  1.00  0.00     0.246 C 
ATOM      5  O   UNL A   1      34.464  23.247  22.607  1.00  0.00    -0.270 OA
ATOM      6  H   UNL A   1      36.617  23.300  23.223  1.00  0.00     0.163 HD
BRANCH   4   7
ATOM      7  C   UNL A   1      33.722  22.233  24.608  1.00  0.00     0.015 C 
ATOM      8  C   UNL A   1      33.308  23.332  25.582  1.00  0.00     0.050 C 
ATOM      9  C   UNL A   1      33.046  21.072  24.727  1.00  0.00     0.042 C 
BRANCH   9  10
ATOM     10  C   UNL A   1      33.056  19.766  24.009  1.00  0.00     0.291 C 
BRANCH  10  11
ATOM     11  N   UNL A   1      33.446  18.608  24.814  1.00  0.00    -0.331 N 
ATOM     12  C   UNL A   1      32.436  17.587  25.095  1.00  0.00     0.266 C 
ATOM     13  C   UNL A   1      34.665  17.926  24.367  1.00  0.00     0.266 C 
ATOM     14  H   UNL A   1      33.612  19.099  25.692  1.00  0.00     0.348 HD
ATOM     15  C   UNL A   1      33.269  16.455  25.681  1.00  0.00     0.049 C 
ATOM     16  C   UNL A   1      34.483  16.450  24.751  1.00  0.00     0.049 C 
ATOM     17  C   UNL A   1      32.509  15.137  25.711  1.00  0.00     0.014 C 
ATOM     18  C   UNL A   1      35.723  15.831  25.377  1.00  0.00     0.014 C 
ENDBRANCH  10  11
ENDBRANCH   9  10
ENDBRANCH   4   7
ENDBRANCH   2   3
ENDBRANCH   1   2
BRANCH   1  19
ATOM     19  C   UNL A   1      37.977  20.016  24.932  1.00  0.00     0.023 C 
BRANCH  19  20
ATOM     20  C   UNL A   1      39.235  20.283  25.748  1.00  0.00     0.116 C 
BRANCH  20  21
ATOM     21  N   UNL A   1      40.142  19.144  25.829  1.00  0.00    -0.352 N 
ATOM     22  C   UNL A   1      41.485  19.166  26.128  1.00  0.00     0.251 C 
ATOM     23  H   UNL A   1      39.749  18.260  25.649  1.00  0.00     0.163 HD
ATOM     24  O   UNL A   1      42.164  18.147  26.099  1.00  0.00    -0.269 OA
BRANCH  22  25
ATOM     25  C   UNL A   1      42.106  20.469  26.430  1.00  0.00     0.039 A 
ATOM     26  C   UNL A   1      42.546  21.269  25.374  1.00  0.00     0.014 A 
ATOM     27  C   UNL A   1      42.144  20.934  27.747  1.00  0.00     0.014 A 
ATOM     28  C   UNL A   1      42.946  22.580  25.632  1.00  0.00     0.010 A 
ATOM     29  C   UNL A   1      42.477  22.259  27.991  1.00  0.00     0.010 A 
ATOM     30  C   UNL A   1      42.871  23.097  26.935  1.00  0.00    -0.014 A 
BRANCH  30  31
ATOM     31  C   UNL A   1      43.195  24.513  27.232  1.00  0.00     0.031 A 
ATOM     32  C   UNL A   1      44.624  24.970  27.184  1.00  0.00     0.074 A 
ATOM     33  C   UNL A   1      42.224  25.356  27.632  1.00  0.00     0.049 A 
ATOM     34  N   UNL A   1      45.140  26.113  27.555  1.00  0.00    -0.248 NA
ATOM     35  C   UNL A   1      45.609  23.997  26.685  1.00  0.00     0.031 C 
ATOM     36  C   UNL A   1      40.804  25.021  27.759  1.00  0.00     0.029 A 
ATOM     37  N   UNL A   1      42.290  26.669  28.026  1.00  0.00    -0.354 N 
ATOM     38  C   UNL A   1      46.509  25.985  27.364  1.00  0.00     0.074 A 
ATOM     39  C   UNL A   1      46.748  24.643  26.880  1.00  0.00     0.031 C 
ATOM     40  C   UNL A   1      40.133  26.104  28.184  1.00  0.00     0.029 A 
ATOM     41  C   UNL A   1      41.077  27.197  28.393  1.00  0.00     0.049 A 
ATOM     42  H   UNL A   1      43.130  27.183  28.043  1.00  0.00     0.167 HD
ATOM     43  C   UNL A   1      47.478  26.911  27.556  1.00  0.00     0.037 A 
ATOM     44  C   UNL A   1      40.766  28.422  28.855  1.00  0.00     0.037 A 
ATOM     45  C   UNL A   1      47.234  28.257  27.995  1.00  0.00     0.049 A 
ATOM     46  C   UNL A   1      41.858  29.442  29.029  1.00  0.00     0.074 A 
ATOM     47  C   UNL A   1      48.145  29.282  28.183  1.00  0.00     0.029 A 
ATOM     48  N   UNL A   1      45.983  28.770  28.299  1.00  0.00    -0.354 N 
ATOM     49  N   UNL A   1      43.145  29.318  28.814  1.00  0.00    -0.248 NA
ATOM     50  C   UNL A   1      41.453  30.772  29.506  1.00  0.00     0.031 C 
ATOM     51  C   UNL A   1      47.445  30.413  28.615  1.00  0.00     0.029 A 
ATOM     52  C   UNL A   1      46.097  30.099  28.670  1.00  0.00     0.049 A 
ATOM     53  H   UNL A   1      45.139  28.264  28.259  1.00  0.00     0.167 HD
ATOM     54  C   UNL A   1      43.698  30.560  29.097  1.00  0.00     0.074 A 
ATOM     55  C   UNL A   1      42.607  31.424  29.496  1.00  0.00     0.031 C 
ATOM     56  C   UNL A   1      44.994  30.949  29.033  1.00  0.00     0.037 A 
BRANCH  43  57
ATOM     57  C   UNL A   1      48.889  26.492  27.277  1.00  0.00     0.057 A 
ATOM     58  C   UNL A   1      49.458  26.628  26.005  1.00  0.00     0.134 A 
ATOM     59  C   UNL A   1      49.693  25.963  28.294  1.00  0.00     0.134 A 
ATOM     60  F   UNL A   1      48.731  27.112  24.985  1.00  0.00    -0.206 F 
ATOM     61  C   UNL A   1      50.771  26.233  25.746  1.00  0.00     0.040 A 
ATOM     62  C   UNL A   1      51.016  25.586  28.054  1.00  0.00     0.040 A 
ATOM     63  F   UNL A   1      49.210  25.809  29.535  1.00  0.00    -0.206 F 
ATOM     64  C   UNL A   1      51.556  25.716  26.775  1.00  0.00     0.006 A 
ENDBRANCH  43  57
BRANCH  44  65
ATOM     65  C   UNL A   1      39.357  28.772  29.158  1.00  0.00     0.057 A 
ATOM     66  C   UNL A   1      38.527  29.321  28.173  1.00  0.00     0.134 A 
ATOM     67  C   UNL A   1      38.813  28.589  30.434  1.00  0.00     0.134 A 
ATOM     68  F   UNL A   1      39.000  29.537  26.937  1.00  0.00    -0.206 F 
ATOM     69  C   UNL A   1      37.212  29.696  28.451  1.00  0.00     0.040 A 
ATOM     70  C   UNL A   1      37.493  28.940  30.721  1.00  0.00     0.040 A 
ATOM     71  F   UNL A   1      39.557  28.061  31.418  1.00  0.00    -0.206 F 
ATOM     72  C   UNL A   1      36.690  29.502  29.729  1.00  0.00     0.006 A 
ENDBRANCH  44  65
BRANCH  56  73
ATOM     73  C   UNL A   1      45.296  32.382  29.344  1.00  0.00     0.057 A 
ATOM     74  C   UNL A   1      45.263  33.373  28.357  1.00  0.00     0.134 A 
ATOM     75  C   UNL A   1      45.570  32.779  30.659  1.00  0.00     0.134 A 
ATOM     76  F   UNL A   1      45.017  33.052  27.078  1.00  0.00    -0.206 F 
ATOM     77  C   UNL A   1      45.507  34.712  28.666  1.00  0.00     0.040 A 
ATOM     78  C   UNL A   1      45.798  34.116  30.982  1.00  0.00     0.040 A 
ATOM     79  F   UNL A   1      45.610  31.874  31.649  1.00  0.00    -0.206 F 
ATOM     80  C   UNL A   1      45.768  35.087  29.983  1.00  0.00     0.006 A 
ENDBRANCH  56  73
ENDBRANCH  30  31
ENDBRANCH  22  25
ENDBRANCH  20  21
ENDBRANCH  19  20
ENDBRANCH   1  19
TORSDOF 13
ENDMDL
MODEL 3
REMARK VINA RESULT:     -11.0      5.807     10.410
REMARK SMILES C/C(=C/C[NH+]1C[C@@H](C)[C@H](C)C1)C(=O)NCCCCNC(=O)c1ccc(-c2c3nc(c(-c4c(F)cccc4F)c4ccc([nH]4)c(-c4c(F)cccc4F)c4nc(c(-c5c(F)cccc5F)c5ccc2[nH]5)C=C4)C=C3)cc1
REMARK SMILES IDX 16 1 15 2 14 3 12 4 13 5 2 7 1 8 3 9 4 10 5 11 6 12 11 13
REMARK SMILES IDX 7 15 9 16 8 17 10 18 17 19 18 20 19 21 20 22 21 24 22 25
REMARK SMILES IDX 23 26 75 27 24 28 74 29 25 30 26 31 27 32 68 33 28 34 73 35
REMARK SMILES IDX 67 36 69 37 29 38 72 39 66 40 65 41 30 43 56 44 39 45 55 46
REMARK SMILES IDX 40 47 43 48 54 49 70 50 41 51 42 52 53 54 71 55 44 56 31 57
REMARK SMILES IDX 32 58 37 59 33 60 34 61 36 62 38 63 35 64 57 65 58 66 63 67
REMARK SMILES IDX 59 68 60 69 62 70 64 71 61 72 45 73 46 74 51 75 47 76 48 77
REMARK SMILES IDX 50 78 52 79 49 80
REMARK H PARENT 14 6 5 14 19 23 69 42 43 53
REMARK Flexibility Score: inf
ROOT
ATOM      1  C   UNL A   1      31.861  30.478  26.861  1.00  0.00     0.023 C 
ENDROOT
BRANCH   1   2
ATOM      2  C   UNL A   1      31.401  29.598  25.692  1.00  0.00     0.116 C 
BRANCH   2   3
ATOM      3  N   UNL A   1      32.353  29.652  24.609  1.00  0.00    -0.352 N 
ATOM      4  C   UNL A   1      32.547  28.963  23.466  1.00  0.00     0.246 C 
ATOM      5  O   UNL A   1      33.537  29.325  22.817  1.00  0.00    -0.270 OA
ATOM      6  H   UNL A   1      33.023  30.361  24.735  1.00  0.00     0.163 HD
BRANCH   4   7
ATOM      7  C   UNL A   1      31.660  27.892  22.870  1.00  0.00     0.015 C 
ATOM      8  C   UNL A   1      32.511  26.682  22.497  1.00  0.00     0.050 C 
ATOM      9  C   UNL A   1      30.337  27.760  22.638  1.00  0.00     0.042 C 
BRANCH   9  10
ATOM     10  C   UNL A   1      29.136  28.614  22.862  1.00  0.00     0.291 C 
BRANCH  10  11
ATOM     11  N   UNL A   1      29.266  30.008  22.436  1.00  0.00    -0.331 N 
ATOM     12  C   UNL A   1      28.495  30.452  21.274  1.00  0.00     0.266 C 
ATOM     13  C   UNL A   1      29.090  31.000  23.502  1.00  0.00     0.266 C 
ATOM     14  H   UNL A   1      30.241  29.971  22.139  1.00  0.00     0.348 HD
ATOM     15  C   UNL A   1      28.667  31.964  21.326  1.00  0.00     0.049 C 
ATOM     16  C   UNL A   1      28.500  32.243  22.821  1.00  0.00     0.049 C 
ATOM     17  C   UNL A   1      27.659  32.688  20.446  1.00  0.00     0.014 C 
ATOM     18  C   UNL A   1      29.148  33.543  23.270  1.00  0.00     0.014 C 
ENDBRANCH  10  11
ENDBRANCH   9  10
ENDBRANCH   4   7
ENDBRANCH   2   3
ENDBRANCH   1   2
BRANCH   1  19
ATOM     19  C   UNL A   1      31.721  31.981  26.623  1.00  0.00     0.023 C 
BRANCH  19  20
ATOM     20  C   UNL A   1      32.807  32.817  27.288  1.00  0.00     0.116 C 
BRANCH  20  21
ATOM     21  N   UNL A   1      32.400  34.182  27.594  1.00  0.00    -0.352 N 
ATOM     22  C   UNL A   1      32.948  35.026  28.533  1.00  0.00     0.251 C 
ATOM     23  H   UNL A   1      31.649  34.542  27.070  1.00  0.00     0.163 HD
ATOM     24  O   UNL A   1      32.475  36.135  28.750  1.00  0.00    -0.269 OA
BRANCH  22  25
ATOM     25  C   UNL A   1      34.093  34.535  29.320  1.00  0.00     0.039 A 
ATOM     26  C   UNL A   1      33.852  33.887  30.533  1.00  0.00     0.014 A 
ATOM     27  C   UNL A   1      35.386  34.621  28.798  1.00  0.00     0.014 A 
ATOM     28  C   UNL A   1      34.903  33.243  31.185  1.00  0.00     0.010 A 
ATOM     29  C   UNL A   1      36.416  33.922  29.412  1.00  0.00     0.010 A 
ATOM     30  C   UNL A   1      36.182  33.218  30.605  1.00  0.00    -0.014 A 
BRANCH  30  31
ATOM     31  C   UNL A   1      37.301  32.462  31.218  1.00  0.00     0.031 A 
ATOM     32  C   UNL A   1      37.874  32.923  32.527  1.00  0.00     0.074 A 
ATOM     33  C   UNL A   1      37.857  31.429  30.558  1.00  0.00     0.049 A 
ATOM     34  N   UNL A   1      38.943  32.506  33.154  1.00  0.00    -0.248 NA
ATOM     35  C   UNL A   1      37.170  34.026  33.201  1.00  0.00     0.031 C 
ATOM     36  C   UNL A   1      37.417  30.912  29.260  1.00  0.00     0.029 A 
ATOM     37  N   UNL A   1      38.930  30.638  30.883  1.00  0.00    -0.354 N 
ATOM     38  C   UNL A   1      39.056  33.313  34.278  1.00  0.00     0.074 A 
ATOM     39  C   UNL A   1      37.970  34.268  34.228  1.00  0.00     0.031 C 
ATOM     40  C   UNL A   1      38.203  29.880  28.909  1.00  0.00     0.029 A 
ATOM     41  C   UNL A   1      39.221  29.686  29.936  1.00  0.00     0.049 A 
ATOM     42  H   UNL A   1      39.442  30.743  31.717  1.00  0.00     0.167 HD
ATOM     43  C   UNL A   1      39.972  33.251  35.274  1.00  0.00     0.037 A 
ATOM     44  C   UNL A   1      40.205  28.769  29.899  1.00  0.00     0.037 A 
ATOM     45  C   UNL A   1      41.023  32.274  35.344  1.00  0.00     0.049 A 
ATOM     46  C   UNL A   1      41.190  28.701  31.033  1.00  0.00     0.074 A 
ATOM     47  C   UNL A   1      41.979  32.103  36.332  1.00  0.00     0.029 A 
ATOM     48  N   UNL A   1      41.247  31.290  34.394  1.00  0.00    -0.354 N 
ATOM     49  N   UNL A   1      41.267  29.450  32.106  1.00  0.00    -0.248 NA
ATOM     50  C   UNL A   1      42.223  27.658  30.953  1.00  0.00     0.031 C 
ATOM     51  C   UNL A   1      42.790  31.023  35.971  1.00  0.00     0.029 A 
ATOM     52  C   UNL A   1      42.323  30.506  34.773  1.00  0.00     0.049 A 
ATOM     53  H   UNL A   1      40.720  31.168  33.571  1.00  0.00     0.167 HD
ATOM     54  C   UNL A   1      42.332  28.950  32.843  1.00  0.00     0.074 A 
ATOM     55  C   UNL A   1      42.870  27.831  32.097  1.00  0.00     0.031 C 
ATOM     56  C   UNL A   1      42.821  29.378  34.031  1.00  0.00     0.037 A 
BRANCH  43  57
ATOM     57  C   UNL A   1      39.861  34.265  36.369  1.00  0.00     0.057 A 
ATOM     58  C   UNL A   1      40.519  35.499  36.297  1.00  0.00     0.134 A 
ATOM     59  C   UNL A   1      39.075  34.015  37.501  1.00  0.00     0.134 A 
ATOM     60  F   UNL A   1      41.301  35.791  35.247  1.00  0.00    -0.206 F 
ATOM     61  C   UNL A   1      40.418  36.442  37.322  1.00  0.00     0.040 A 
ATOM     62  C   UNL A   1      38.946  34.959  38.521  1.00  0.00     0.040 A 
ATOM     63  F   UNL A   1      38.417  32.854  37.630  1.00  0.00    -0.206 F 
ATOM     64  C   UNL A   1      39.625  36.174  38.436  1.00  0.00     0.006 A 
ENDBRANCH  43  57
BRANCH  44  65
ATOM     65  C   UNL A   1      40.296  27.815  28.767  1.00  0.00     0.057 A 
ATOM     66  C   UNL A   1      41.027  28.136  27.617  1.00  0.00     0.134 A 
ATOM     67  C   UNL A   1      39.644  26.578  28.795  1.00  0.00     0.134 A 
ATOM     68  F   UNL A   1      41.656  29.316  27.526  1.00  0.00    -0.206 F 
ATOM     69  C   UNL A   1      41.088  27.270  26.525  1.00  0.00     0.040 A 
ATOM     70  C   UNL A   1      39.713  25.693  27.718  1.00  0.00     0.040 A 
ATOM     71  F   UNL A   1      38.932  26.211  29.872  1.00  0.00    -0.206 F 
ATOM     72  C   UNL A   1      40.432  26.041  26.575  1.00  0.00     0.006 A 
ENDBRANCH  44  65
BRANCH  56  73
ATOM     73  C   UNL A   1      43.955  28.603  34.625  1.00  0.00     0.057 A 
ATOM     74  C   UNL A   1      43.738  27.485  35.439  1.00  0.00     0.134 A 
ATOM     75  C   UNL A   1      45.281  28.951  34.335  1.00  0.00     0.134 A 
ATOM     76  F   UNL A   1      42.492  27.110  35.761  1.00  0.00    -0.206 F 
ATOM     77  C   UNL A   1      44.804  26.746  35.955  1.00  0.00     0.040 A 
ATOM     78  C   UNL A   1      46.352  28.210  34.831  1.00  0.00     0.040 A 
ATOM     79  F   UNL A   1      45.552  30.010  33.557  1.00  0.00    -0.206 F 
ATOM     80  C   UNL A   1      46.115  27.104  35.645  1.00  0.00     0.006 A 
ENDBRANCH  56  73
ENDBRANCH  30  31
ENDBRANCH  22  25
ENDBRANCH  20  21
ENDBRANCH  19  20
ENDBRANCH   1  19
TORSDOF 13
ENDMDL
