MODEL 1
REMARK VINA RESULT:     -11.4      0.000      0.000
REMARK SMILES CC1(C)C[C@](CC(=O)NCCCCNC(=O)c2ccc(-c3c4nc(c(-c5c(F)cccc5F)c5ccc([nH]5)c(-c5c(F)cccc5F)c5nc(c(-c6c(F)cccc6F)c6ccc3[nH]6)C=C5)C=C4)cc2)([NH+]2CCCC2)C(C)(C)O1
REMARK SMILES IDX 11 1 10 2 9 3 7 4 8 5 6 7 5 8 1 9 2 10 3 11 4 12 79 13 76 14
REMARK SMILES IDX 77 15 78 16 71 17 72 18 75 19 73 21 74 22 12 23 13 24 14 25
REMARK SMILES IDX 15 26 16 28 17 29 18 30 70 31 19 32 69 33 20 34 21 35 22 36
REMARK SMILES IDX 63 37 23 38 68 39 62 40 64 41 24 42 67 43 61 44 60 45 25 47
REMARK SMILES IDX 51 48 34 49 50 50 35 51 38 52 49 53 65 54 36 55 37 56 48 58
REMARK SMILES IDX 66 59 39 60 26 61 27 62 32 63 28 64 29 65 31 66 33 67 30 68
REMARK SMILES IDX 52 69 53 70 58 71 54 72 55 73 57 74 59 75 56 76 40 77 41 78
REMARK SMILES IDX 46 79 42 80 43 81 45 82 47 83 44 84
REMARK H PARENT 9 6 71 20 14 27 64 46 38 57
REMARK Flexibility Score: inf
ROOT
ATOM      1  C   UNL A   1      31.854  27.695  27.017  1.00  0.00     0.023 C 
ENDROOT
BRANCH   1   2
ATOM      2  C   UNL A   1      30.934  26.931  26.074  1.00  0.00     0.116 C 
BRANCH   2   3
ATOM      3  N   UNL A   1      30.622  25.615  26.564  1.00  0.00    -0.356 N 
ATOM      4  C   UNL A   1      31.380  24.498  26.661  1.00  0.00     0.226 C 
ATOM      5  O   UNL A   1      30.895  23.588  27.348  1.00  0.00    -0.275 OA
ATOM      6  H   UNL A   1      29.698  25.509  26.886  1.00  0.00     0.163 HD
BRANCH   4   7
ATOM      7  C   UNL A   1      32.772  24.329  26.049  1.00  0.00     0.171 C 
BRANCH   7   8
ATOM      8  C   UNL A   1      33.098  23.716  24.620  1.00  0.00     0.138 C 
ATOM      9  C   UNL A   1      32.317  20.123  24.505  1.00  0.00     0.042 C 
ATOM     10  C   UNL A   1      32.592  21.412  23.708  1.00  0.00     0.070 C 
ATOM     11  C   UNL A   1      32.102  21.151  22.282  1.00  0.00     0.042 C 
ATOM     12  C   UNL A   1      31.974  22.633  24.393  1.00  0.00     0.107 C 
ATOM     13  O   UNL A   1      34.001  21.640  23.651  1.00  0.00    -0.363 OA
ATOM     14  C   UNL A   1      34.378  22.744  24.528  1.00  0.00     0.118 C 
ATOM     15  C   UNL A   1      34.823  22.019  25.827  1.00  0.00     0.049 C 
ATOM     16  C   UNL A   1      35.601  23.348  23.816  1.00  0.00     0.049 C 
BRANCH   8  17
ATOM     17  N   UNL A   1      32.910  24.720  23.529  1.00  0.00    -0.327 N 
ATOM     18  C   UNL A   1      31.674  24.807  22.761  1.00  0.00     0.263 C 
ATOM     19  C   UNL A   1      33.522  26.042  23.584  1.00  0.00     0.263 C 
ATOM     20  H   UNL A   1      33.543  24.101  23.021  1.00  0.00     0.348 HD
ATOM     21  C   UNL A   1      31.771  26.096  21.967  1.00  0.00     0.067 C 
ATOM     22  C   UNL A   1      32.566  26.994  22.880  1.00  0.00     0.067 C 
ENDBRANCH   8  17
ENDBRANCH   7   8
ENDBRANCH   4   7
ENDBRANCH   2   3
ENDBRANCH   1   2
BRANCH   1  23
ATOM     23  C   UNL A   1      32.367  29.025  26.507  1.00  0.00     0.023 C 
BRANCH  23  24
ATOM     24  C   UNL A   1      33.762  29.382  26.985  1.00  0.00     0.116 C 
BRANCH  24  25
ATOM     25  N   UNL A   1      33.831  30.553  27.856  1.00  0.00    -0.352 N 
ATOM     26  C   UNL A   1      34.883  30.994  28.634  1.00  0.00     0.251 C 
ATOM     27  H   UNL A   1      33.015  31.103  27.893  1.00  0.00     0.163 HD
ATOM     28  O   UNL A   1      34.771  31.973  29.351  1.00  0.00    -0.269 OA
BRANCH  26  29
ATOM     29  C   UNL A   1      36.135  30.209  28.618  1.00  0.00     0.039 A 
ATOM     30  C   UNL A   1      36.985  30.302  27.515  1.00  0.00     0.014 A 
ATOM     31  C   UNL A   1      36.528  29.519  29.762  1.00  0.00     0.014 A 
ATOM     32  C   UNL A   1      38.283  29.798  27.613  1.00  0.00     0.010 A 
ATOM     33  C   UNL A   1      37.858  29.165  29.910  1.00  0.00     0.010 A 
ATOM     34  C   UNL A   1      38.751  29.287  28.835  1.00  0.00    -0.014 A 
BRANCH  34  35
ATOM     35  C   UNL A   1      40.157  28.843  29.022  1.00  0.00     0.031 A 
ATOM     36  C   UNL A   1      41.154  29.792  29.634  1.00  0.00     0.074 A 
ATOM     37  C   UNL A   1      40.563  27.644  28.555  1.00  0.00     0.049 A 
ATOM     38  N   UNL A   1      42.452  29.672  29.748  1.00  0.00    -0.248 NA
ATOM     39  C   UNL A   1      40.630  31.077  30.125  1.00  0.00     0.031 C 
ATOM     40  C   UNL A   1      39.723  26.664  27.863  1.00  0.00     0.029 A 
ATOM     41  N   UNL A   1      41.800  27.048  28.591  1.00  0.00    -0.354 N 
ATOM     42  C   UNL A   1      42.893  30.883  30.266  1.00  0.00     0.074 A 
ATOM     43  C   UNL A   1      41.742  31.749  30.371  1.00  0.00     0.031 C 
ATOM     44  C   UNL A   1      40.455  25.572  27.583  1.00  0.00     0.029 A 
ATOM     45  C   UNL A   1      41.823  25.789  28.041  1.00  0.00     0.049 A 
ATOM     46  H   UNL A   1      42.596  27.483  28.972  1.00  0.00     0.167 HD
ATOM     47  C   UNL A   1      44.139  31.233  30.662  1.00  0.00     0.037 A 
ATOM     48  C   UNL A   1      42.834  24.907  27.931  1.00  0.00     0.037 A 
ATOM     49  C   UNL A   1      45.262  30.338  30.649  1.00  0.00     0.049 A 
ATOM     50  C   UNL A   1      44.190  25.280  28.466  1.00  0.00     0.074 A 
ATOM     51  C   UNL A   1      46.545  30.554  31.115  1.00  0.00     0.029 A 
ATOM     52  N   UNL A   1      45.222  29.040  30.162  1.00  0.00    -0.354 N 
ATOM     53  N   UNL A   1      44.580  26.406  29.013  1.00  0.00    -0.248 NA
ATOM     54  C   UNL A   1      45.242  24.257  28.378  1.00  0.00     0.031 C 
ATOM     55  C   UNL A   1      47.288  29.390  30.896  1.00  0.00     0.029 A 
ATOM     56  C   UNL A   1      46.459  28.441  30.321  1.00  0.00     0.049 A 
ATOM     57  H   UNL A   1      44.431  28.610  29.763  1.00  0.00     0.167 HD
ATOM     58  C   UNL A   1      45.910  26.217  29.363  1.00  0.00     0.074 A 
ATOM     59  C   UNL A   1      46.257  24.866  28.975  1.00  0.00     0.031 C 
ATOM     60  C   UNL A   1      46.770  27.085  29.950  1.00  0.00     0.037 A 
BRANCH  47  61
ATOM     61  C   UNL A   1      44.330  32.630  31.176  1.00  0.00     0.057 A 
ATOM     62  C   UNL A   1      44.168  32.948  32.532  1.00  0.00     0.134 A 
ATOM     63  C   UNL A   1      44.678  33.671  30.307  1.00  0.00     0.134 A 
ATOM     64  F   UNL A   1      43.817  32.001  33.414  1.00  0.00    -0.206 F 
ATOM     65  C   UNL A   1      44.305  34.256  32.997  1.00  0.00     0.040 A 
ATOM     66  C   UNL A   1      44.848  34.978  30.766  1.00  0.00     0.040 A 
ATOM     67  F   UNL A   1      44.853  33.436  28.997  1.00  0.00    -0.206 F 
ATOM     68  C   UNL A   1      44.650  35.275  32.113  1.00  0.00     0.006 A 
ENDBRANCH  47  61
BRANCH  48  69
ATOM     69  C   UNL A   1      42.594  23.563  27.346  1.00  0.00     0.057 A 
ATOM     70  C   UNL A   1      42.720  23.351  25.967  1.00  0.00     0.134 A 
ATOM     71  C   UNL A   1      42.231  22.468  28.137  1.00  0.00     0.134 A 
ATOM     72  F   UNL A   1      43.051  24.366  25.156  1.00  0.00    -0.206 F 
ATOM     73  C   UNL A   1      42.472  22.103  25.393  1.00  0.00     0.040 A 
ATOM     74  C   UNL A   1      42.000  21.209  27.578  1.00  0.00     0.040 A 
ATOM     75  F   UNL A   1      42.103  22.604  29.464  1.00  0.00    -0.206 F 
ATOM     76  C   UNL A   1      42.114  21.025  26.201  1.00  0.00     0.006 A 
ENDBRANCH  48  69
BRANCH  60  77
ATOM     77  C   UNL A   1      48.150  26.585  30.251  1.00  0.00     0.057 A 
ATOM     78  C   UNL A   1      49.206  26.748  29.347  1.00  0.00     0.134 A 
ATOM     79  C   UNL A   1      48.432  25.983  31.483  1.00  0.00     0.134 A 
ATOM     80  F   UNL A   1      48.993  27.309  28.147  1.00  0.00    -0.206 F 
ATOM     81  C   UNL A   1      50.495  26.312  29.653  1.00  0.00     0.040 A 
ATOM     82  C   UNL A   1      49.722  25.563  31.808  1.00  0.00     0.040 A 
ATOM     83  F   UNL A   1      47.463  25.809  32.394  1.00  0.00    -0.206 F 
ATOM     84  C   UNL A   1      50.757  25.724  30.889  1.00  0.00     0.006 A 
ENDBRANCH  60  77
ENDBRANCH  34  35
ENDBRANCH  26  29
ENDBRANCH  24  25
ENDBRANCH  23  24
ENDBRANCH   1  23
TORSDOF 13
ENDMDL
MODEL 2
REMARK VINA RESULT:     -11.4      2.120      7.473
REMARK SMILES CC1(C)C[C@](CC(=O)NCCCCNC(=O)c2ccc(-c3c4nc(c(-c5c(F)cccc5F)c5ccc([nH]5)c(-c5c(F)cccc5F)c5nc(c(-c6c(F)cccc6F)c6ccc3[nH]6)C=C5)C=C4)cc2)([NH+]2CCCC2)C(C)(C)O1
REMARK SMILES IDX 11 1 10 2 9 3 7 4 8 5 6 7 5 8 1 9 2 10 3 11 4 12 79 13 76 14
REMARK SMILES IDX 77 15 78 16 71 17 72 18 75 19 73 21 74 22 12 23 13 24 14 25
REMARK SMILES IDX 15 26 16 28 17 29 18 30 70 31 19 32 69 33 20 34 21 35 22 36
REMARK SMILES IDX 63 37 23 38 68 39 62 40 64 41 24 42 67 43 61 44 60 45 25 47
REMARK SMILES IDX 51 48 34 49 50 50 35 51 38 52 49 53 65 54 36 55 37 56 48 58
REMARK SMILES IDX 66 59 39 60 26 61 27 62 32 63 28 64 29 65 31 66 33 67 30 68
REMARK SMILES IDX 52 69 53 70 58 71 54 72 55 73 57 74 59 75 56 76 40 77 41 78
REMARK SMILES IDX 46 79 42 80 43 81 45 82 47 83 44 84
REMARK H PARENT 9 6 71 20 14 27 64 46 38 57
REMARK Flexibility Score: inf
ROOT
ATOM      1  C   UNL A   1      37.040  22.069  24.244  1.00  0.00     0.023 C 
ENDROOT
BRANCH   1   2
ATOM      2  C   UNL A   1      35.654  22.571  24.627  1.00  0.00     0.116 C 
BRANCH   2   3
ATOM      3  N   UNL A   1      34.800  22.738  23.482  1.00  0.00    -0.356 N 
ATOM      4  C   UNL A   1      34.105  23.812  23.037  1.00  0.00     0.226 C 
ATOM      5  O   UNL A   1      33.653  23.710  21.889  1.00  0.00    -0.275 OA
ATOM      6  H   UNL A   1      34.704  21.933  22.924  1.00  0.00     0.163 HD
BRANCH   4   7
ATOM      7  C   UNL A   1      33.914  25.114  23.818  1.00  0.00     0.171 C 
BRANCH   7   8
ATOM      8  C   UNL A   1      32.571  25.596  24.517  1.00  0.00     0.138 C 
ATOM      9  C   UNL A   1      30.715  27.932  22.366  1.00  0.00     0.042 C 
ATOM     10  C   UNL A   1      30.674  26.977  23.572  1.00  0.00     0.070 C 
ATOM     11  C   UNL A   1      29.196  26.691  23.847  1.00  0.00     0.042 C 
ATOM     12  C   UNL A   1      31.541  25.738  23.332  1.00  0.00     0.107 C 
ATOM     13  O   UNL A   1      31.211  27.639  24.718  1.00  0.00    -0.363 OA
ATOM     14  C   UNL A   1      32.538  27.120  25.038  1.00  0.00     0.118 C 
ATOM     15  C   UNL A   1      33.485  28.136  24.344  1.00  0.00     0.049 C 
ATOM     16  C   UNL A   1      32.614  27.286  26.565  1.00  0.00     0.049 C 
BRANCH   8  17
ATOM     17  N   UNL A   1      32.004  24.545  25.415  1.00  0.00    -0.327 N 
ATOM     18  C   UNL A   1      30.986  23.607  24.961  1.00  0.00     0.263 C 
ATOM     19  C   UNL A   1      32.803  23.905  26.453  1.00  0.00     0.263 C 
ATOM     20  H   UNL A   1      31.522  25.340  25.835  1.00  0.00     0.348 HD
ATOM     21  C   UNL A   1      30.882  22.552  26.047  1.00  0.00     0.067 C 
ATOM     22  C   UNL A   1      32.291  22.476  26.577  1.00  0.00     0.067 C 
ENDBRANCH   8  17
ENDBRANCH   7   8
ENDBRANCH   4   7
ENDBRANCH   2   3
ENDBRANCH   1   2
BRANCH   1  23
ATOM     23  C   UNL A   1      37.512  20.820  24.959  1.00  0.00     0.023 C 
BRANCH  23  24
ATOM     24  C   UNL A   1      38.823  20.984  25.704  1.00  0.00     0.116 C 
BRANCH  24  25
ATOM     25  N   UNL A   1      39.717  19.831  25.632  1.00  0.00    -0.352 N 
ATOM     26  C   UNL A   1      41.045  19.739  26.000  1.00  0.00     0.251 C 
ATOM     27  H   UNL A   1      39.318  19.006  25.271  1.00  0.00     0.163 HD
ATOM     28  O   UNL A   1      41.676  18.711  25.833  1.00  0.00    -0.269 OA
BRANCH  26  29
ATOM     29  C   UNL A   1      41.698  20.946  26.549  1.00  0.00     0.039 A 
ATOM     30  C   UNL A   1      42.220  21.897  25.673  1.00  0.00     0.014 A 
ATOM     31  C   UNL A   1      41.640  21.195  27.918  1.00  0.00     0.014 A 
ATOM     32  C   UNL A   1      42.576  23.154  26.166  1.00  0.00     0.010 A 
ATOM     33  C   UNL A   1      41.843  22.486  28.374  1.00  0.00     0.010 A 
ATOM     34  C   UNL A   1      42.326  23.480  27.510  1.00  0.00    -0.014 A 
BRANCH  34  35
ATOM     35  C   UNL A   1      42.582  24.838  28.056  1.00  0.00     0.031 A 
ATOM     36  C   UNL A   1      43.978  25.209  28.487  1.00  0.00     0.074 A 
ATOM     37  C   UNL A   1      41.561  25.695  28.265  1.00  0.00     0.049 A 
ATOM     38  N   UNL A   1      44.394  26.270  29.126  1.00  0.00    -0.248 NA
ATOM     39  C   UNL A   1      45.037  24.221  28.218  1.00  0.00     0.031 C 
ATOM     40  C   UNL A   1      40.149  25.432  27.977  1.00  0.00     0.029 A 
ATOM     41  N   UNL A   1      41.559  26.969  28.777  1.00  0.00    -0.354 N 
ATOM     42  C   UNL A   1      45.741  26.046  29.383  1.00  0.00     0.074 A 
ATOM     43  C   UNL A   1      46.053  24.721  28.900  1.00  0.00     0.031 C 
ATOM     44  C   UNL A   1      39.426  26.525  28.271  1.00  0.00     0.029 A 
ATOM     45  C   UNL A   1      40.315  27.553  28.803  1.00  0.00     0.049 A 
ATOM     46  H   UNL A   1      42.372  27.421  29.098  1.00  0.00     0.167 HD
ATOM     47  C   UNL A   1      46.652  26.884  29.930  1.00  0.00     0.037 A 
ATOM     48  C   UNL A   1      39.940  28.783  29.201  1.00  0.00     0.037 A 
ATOM     49  C   UNL A   1      46.361  28.235  30.318  1.00  0.00     0.049 A 
ATOM     50  C   UNL A   1      40.986  29.733  29.717  1.00  0.00     0.074 A 
ATOM     51  C   UNL A   1      47.226  29.203  30.794  1.00  0.00     0.029 A 
ATOM     52  N   UNL A   1      45.104  28.817  30.248  1.00  0.00    -0.354 N 
ATOM     53  N   UNL A   1      42.269  29.531  29.894  1.00  0.00    -0.248 NA
ATOM     54  C   UNL A   1      40.534  31.084  30.079  1.00  0.00     0.031 C 
ATOM     55  C   UNL A   1      46.488  30.368  31.026  1.00  0.00     0.029 A 
ATOM     56  C   UNL A   1      45.171  30.134  30.667  1.00  0.00     0.049 A 
ATOM     57  H   UNL A   1      44.286  28.360  29.944  1.00  0.00     0.167 HD
ATOM     58  C   UNL A   1      42.783  30.735  30.357  1.00  0.00     0.074 A 
ATOM     59  C   UNL A   1      41.675  31.665  30.423  1.00  0.00     0.031 C 
ATOM     60  C   UNL A   1      44.057  31.045  30.698  1.00  0.00     0.037 A 
BRANCH  47  61
ATOM     61  C   UNL A   1      48.049  26.364  30.101  1.00  0.00     0.057 A 
ATOM     62  C   UNL A   1      49.005  26.461  29.079  1.00  0.00     0.134 A 
ATOM     63  C   UNL A   1      48.446  25.758  31.299  1.00  0.00     0.134 A 
ATOM     64  F   UNL A   1      48.683  27.014  27.900  1.00  0.00    -0.206 F 
ATOM     65  C   UNL A   1      50.289  25.937  29.227  1.00  0.00     0.040 A 
ATOM     66  C   UNL A   1      49.738  25.258  31.470  1.00  0.00     0.040 A 
ATOM     67  F   UNL A   1      47.584  25.635  32.320  1.00  0.00    -0.206 F 
ATOM     68  C   UNL A   1      50.660  25.337  30.428  1.00  0.00     0.006 A 
ENDBRANCH  47  61
BRANCH  48  69
ATOM     69  C   UNL A   1      38.525  29.212  29.071  1.00  0.00     0.057 A 
ATOM     70  C   UNL A   1      38.023  29.661  27.842  1.00  0.00     0.134 A 
ATOM     71  C   UNL A   1      37.644  29.191  30.158  1.00  0.00     0.134 A 
ATOM     72  F   UNL A   1      38.824  29.718  26.768  1.00  0.00    -0.206 F 
ATOM     73  C   UNL A   1      36.704  30.095  27.704  1.00  0.00     0.040 A 
ATOM     74  C   UNL A   1      36.316  29.603  30.028  1.00  0.00     0.040 A 
ATOM     75  F   UNL A   1      38.060  28.763  31.358  1.00  0.00    -0.206 F 
ATOM     76  C   UNL A   1      35.844  30.062  28.800  1.00  0.00     0.006 A 
ENDBRANCH  48  69
BRANCH  60  77
ATOM     77  C   UNL A   1      44.329  32.454  31.128  1.00  0.00     0.057 A 
ATOM     78  C   UNL A   1      44.641  33.459  30.205  1.00  0.00     0.134 A 
ATOM     79  C   UNL A   1      44.222  32.816  32.477  1.00  0.00     0.134 A 
ATOM     80  F   UNL A   1      44.766  33.169  28.901  1.00  0.00    -0.206 F 
ATOM     81  C   UNL A   1      44.855  34.776  30.612  1.00  0.00     0.040 A 
ATOM     82  C   UNL A   1      44.413  34.134  32.892  1.00  0.00     0.040 A 
ATOM     83  F   UNL A   1      43.916  31.899  33.407  1.00  0.00    -0.206 F 
ATOM     84  C   UNL A   1      44.735  35.118  31.958  1.00  0.00     0.006 A 
ENDBRANCH  60  77
ENDBRANCH  34  35
ENDBRANCH  26  29
ENDBRANCH  24  25
ENDBRANCH  23  24
ENDBRANCH   1  23
TORSDOF 13
ENDMDL
MODEL 3
REMARK VINA RESULT:     -11.4      2.674      7.684
REMARK SMILES CC1(C)C[C@](CC(=O)NCCCCNC(=O)c2ccc(-c3c4nc(c(-c5c(F)cccc5F)c5ccc([nH]5)c(-c5c(F)cccc5F)c5nc(c(-c6c(F)cccc6F)c6ccc3[nH]6)C=C5)C=C4)cc2)([NH+]2CCCC2)C(C)(C)O1
REMARK SMILES IDX 11 1 10 2 9 3 7 4 8 5 6 7 5 8 1 9 2 10 3 11 4 12 79 13 76 14
REMARK SMILES IDX 77 15 78 16 71 17 72 18 75 19 73 21 74 22 12 23 13 24 14 25
REMARK SMILES IDX 15 26 16 28 17 29 18 30 70 31 19 32 69 33 20 34 21 35 22 36
REMARK SMILES IDX 63 37 23 38 68 39 62 40 64 41 24 42 67 43 61 44 60 45 25 47
REMARK SMILES IDX 51 48 34 49 50 50 35 51 38 52 49 53 65 54 36 55 37 56 48 58
REMARK SMILES IDX 66 59 39 60 26 61 27 62 32 63 28 64 29 65 31 66 33 67 30 68
REMARK SMILES IDX 52 69 53 70 58 71 54 72 55 73 57 74 59 75 56 76 40 77 41 78
REMARK SMILES IDX 46 79 42 80 43 81 45 82 47 83 44 84
REMARK H PARENT 9 6 71 20 14 27 64 46 38 57
REMARK Flexibility Score: inf
ROOT
ATOM      1  C   UNL A   1      37.489  21.416  24.668  1.00  0.00     0.023 C 
ENDROOT
BRANCH   1   2
ATOM      2  C   UNL A   1      37.733  22.582  25.616  1.00  0.00     0.116 C 
BRANCH   2   3
ATOM      3  N   UNL A   1      36.587  22.864  26.439  1.00  0.00    -0.356 N 
ATOM      4  C   UNL A   1      35.382  23.399  26.135  1.00  0.00     0.226 C 
ATOM      5  O   UNL A   1      34.519  23.293  27.017  1.00  0.00    -0.275 OA
ATOM      6  H   UNL A   1      36.699  22.624  27.388  1.00  0.00     0.163 HD
BRANCH   4   7
ATOM      7  C   UNL A   1      35.023  24.042  24.794  1.00  0.00     0.171 C 
BRANCH   7   8
ATOM      8  C   UNL A   1      33.561  24.416  24.298  1.00  0.00     0.138 C 
ATOM      9  C   UNL A   1      33.495  27.746  22.738  1.00  0.00     0.042 C 
ATOM     10  C   UNL A   1      32.788  26.391  22.920  1.00  0.00     0.070 C 
ATOM     11  C   UNL A   1      31.748  26.292  21.802  1.00  0.00     0.042 C 
ATOM     12  C   UNL A   1      33.795  25.240  22.974  1.00  0.00     0.107 C 
ATOM     13  O   UNL A   1      32.090  26.386  24.167  1.00  0.00    -0.363 OA
ATOM     14  C   UNL A   1      32.781  25.545  25.140  1.00  0.00     0.118 C 
ATOM     15  C   UNL A   1      33.640  26.567  25.934  1.00  0.00     0.049 C 
ATOM     16  C   UNL A   1      31.634  25.023  26.021  1.00  0.00     0.049 C 
BRANCH   8  17
ATOM     17  N   UNL A   1      32.789  23.205  23.883  1.00  0.00    -0.327 N 
ATOM     18  C   UNL A   1      32.770  22.734  22.504  1.00  0.00     0.263 C 
ATOM     19  C   UNL A   1      32.610  22.063  24.771  1.00  0.00     0.263 C 
ATOM     20  H   UNL A   1      31.989  23.827  24.004  1.00  0.00     0.348 HD
ATOM     21  C   UNL A   1      32.126  21.361  22.545  1.00  0.00     0.067 C 
ATOM     22  C   UNL A   1      32.560  20.826  23.886  1.00  0.00     0.067 C 
ENDBRANCH   8  17
ENDBRANCH   7   8
ENDBRANCH   4   7
ENDBRANCH   2   3
ENDBRANCH   1   2
BRANCH   1  23
ATOM     23  C   UNL A   1      38.146  20.106  25.050  1.00  0.00     0.023 C 
BRANCH  23  24
ATOM     24  C   UNL A   1      39.429  20.257  25.845  1.00  0.00     0.116 C 
BRANCH  24  25
ATOM     25  N   UNL A   1      40.309  19.092  25.819  1.00  0.00    -0.352 N 
ATOM     26  C   UNL A   1      41.663  19.022  26.078  1.00  0.00     0.251 C 
ATOM     27  H   UNL A   1      39.876  18.239  25.585  1.00  0.00     0.163 HD
ATOM     28  O   UNL A   1      42.273  17.973  25.967  1.00  0.00    -0.269 OA
BRANCH  26  29
ATOM     29  C   UNL A   1      42.367  20.270  26.436  1.00  0.00     0.039 A 
ATOM     30  C   UNL A   1      42.976  21.023  25.431  1.00  0.00     0.014 A 
ATOM     31  C   UNL A   1      42.277  20.761  27.736  1.00  0.00     0.014 A 
ATOM     32  C   UNL A   1      43.388  22.327  25.712  1.00  0.00     0.010 A 
ATOM     33  C   UNL A   1      42.539  22.101  27.968  1.00  0.00     0.010 A 
ATOM     34  C   UNL A   1      43.111  22.899  26.965  1.00  0.00    -0.014 A 
BRANCH  34  35
ATOM     35  C   UNL A   1      43.427  24.317  27.276  1.00  0.00     0.031 A 
ATOM     36  C   UNL A   1      44.851  24.798  27.157  1.00  0.00     0.074 A 
ATOM     37  C   UNL A   1      42.475  25.140  27.761  1.00  0.00     0.049 A 
ATOM     38  N   UNL A   1      45.374  25.939  27.522  1.00  0.00    -0.248 NA
ATOM     39  C   UNL A   1      45.829  23.841  26.614  1.00  0.00     0.031 C 
ATOM     40  C   UNL A   1      41.076  24.780  28.009  1.00  0.00     0.029 A 
ATOM     41  N   UNL A   1      42.545  26.458  28.137  1.00  0.00    -0.354 N 
ATOM     42  C   UNL A   1      46.740  25.808  27.306  1.00  0.00     0.074 A 
ATOM     43  C   UNL A   1      46.974  24.457  26.853  1.00  0.00     0.031 C 
ATOM     44  C   UNL A   1      40.413  25.862  28.451  1.00  0.00     0.029 A 
ATOM     45  C   UNL A   1      41.343  26.981  28.551  1.00  0.00     0.049 A 
ATOM     46  H   UNL A   1      43.379  26.980  28.114  1.00  0.00     0.167 HD
ATOM     47  C   UNL A   1      47.712  26.742  27.430  1.00  0.00     0.037 A 
ATOM     48  C   UNL A   1      41.030  28.226  28.956  1.00  0.00     0.037 A 
ATOM     49  C   UNL A   1      47.464  28.111  27.785  1.00  0.00     0.049 A 
ATOM     50  C   UNL A   1      42.108  29.274  28.994  1.00  0.00     0.074 A 
ATOM     51  C   UNL A   1      48.357  29.164  27.847  1.00  0.00     0.029 A 
ATOM     52  N   UNL A   1      46.216  28.620  28.115  1.00  0.00    -0.354 N 
ATOM     53  N   UNL A   1      43.385  29.154  28.724  1.00  0.00    -0.248 NA
ATOM     54  C   UNL A   1      41.699  30.632  29.381  1.00  0.00     0.031 C 
ATOM     55  C   UNL A   1      47.652  30.309  28.230  1.00  0.00     0.029 A 
ATOM     56  C   UNL A   1      46.316  29.974  28.376  1.00  0.00     0.049 A 
ATOM     57  H   UNL A   1      45.384  28.095  28.156  1.00  0.00     0.167 HD
ATOM     58  C   UNL A   1      43.926  30.424  28.878  1.00  0.00     0.074 A 
ATOM     59  C   UNL A   1      42.837  31.300  29.255  1.00  0.00     0.031 C 
ATOM     60  C   UNL A   1      45.210  30.828  28.724  1.00  0.00     0.037 A 
BRANCH  47  61
ATOM     61  C   UNL A   1      49.120  26.311  27.140  1.00  0.00     0.057 A 
ATOM     62  C   UNL A   1      49.982  25.870  28.154  1.00  0.00     0.134 A 
ATOM     63  C   UNL A   1      49.622  26.340  25.833  1.00  0.00     0.134 A 
ATOM     64  F   UNL A   1      49.569  25.837  29.429  1.00  0.00    -0.206 F 
ATOM     65  C   UNL A   1      51.303  25.511  27.885  1.00  0.00     0.040 A 
ATOM     66  C   UNL A   1      50.933  25.953  25.547  1.00  0.00     0.040 A 
ATOM     67  F   UNL A   1      48.851  26.747  24.814  1.00  0.00    -0.206 F 
ATOM     68  C   UNL A   1      51.781  25.548  26.577  1.00  0.00     0.006 A 
ENDBRANCH  47  61
BRANCH  48  69
ATOM     69  C   UNL A   1      39.626  28.569  29.298  1.00  0.00     0.057 A 
ATOM     70  C   UNL A   1      38.762  29.093  28.328  1.00  0.00     0.134 A 
ATOM     71  C   UNL A   1      39.116  28.392  30.588  1.00  0.00     0.134 A 
ATOM     72  F   UNL A   1      39.198  29.300  27.077  1.00  0.00    -0.206 F 
ATOM     73  C   UNL A   1      37.447  29.449  28.634  1.00  0.00     0.040 A 
ATOM     74  C   UNL A   1      37.796  28.724  30.903  1.00  0.00     0.040 A 
ATOM     75  F   UNL A   1      39.890  27.886  31.559  1.00  0.00    -0.206 F 
ATOM     76  C   UNL A   1      36.959  29.260  29.926  1.00  0.00     0.006 A 
ENDBRANCH  48  69
BRANCH  60  77
ATOM     77  C   UNL A   1      45.497  32.286  28.917  1.00  0.00     0.057 A 
ATOM     78  C   UNL A   1      45.873  32.806  30.160  1.00  0.00     0.134 A 
ATOM     79  C   UNL A   1      45.448  33.167  27.829  1.00  0.00     0.134 A 
ATOM     80  F   UNL A   1      45.928  32.012  31.241  1.00  0.00    -0.206 F 
ATOM     81  C   UNL A   1      46.174  34.159  30.320  1.00  0.00     0.040 A 
ATOM     82  C   UNL A   1      45.768  34.517  27.972  1.00  0.00     0.040 A 
ATOM     83  F   UNL A   1      45.104  32.726  26.610  1.00  0.00    -0.206 F 
ATOM     84  C   UNL A   1      46.129  35.017  29.223  1.00  0.00     0.006 A 
ENDBRANCH  60  77
ENDBRANCH  34  35
ENDBRANCH  26  29
ENDBRANCH  24  25
ENDBRANCH  23  24
ENDBRANCH   1  23
TORSDOF 13
ENDMDL
