MODEL 1
REMARK VINA RESULT:     -12.3      0.000      0.000
REMARK SMILES O=C(NCCCCNC(=O)c1cc(Cl)ncc1-c1cccc(C(F)(F)F)c1)c1ccc(-c2c3nc(c(-c4c(F)cccc4F)c4ccc([nH]4)c(-c4c(F)cccc4F)c4nc(c(-c5c(F)cccc5F)c5ccc2[nH]5)C=C4)C=C3)cc1
REMARK SMILES IDX 5 1 4 2 3 3 1 4 2 5 28 7 29 8 81 9 30 10 80 11 31 12 32 13
REMARK SMILES IDX 33 14 74 15 34 16 79 17 73 18 75 19 35 20 78 21 72 22 71 23
REMARK SMILES IDX 36 25 62 26 45 27 61 28 46 29 49 30 60 31 76 32 47 33 48 34
REMARK SMILES IDX 59 36 77 37 50 38 37 39 38 40 43 41 39 42 40 43 42 44 44 45
REMARK SMILES IDX 41 46 63 47 64 48 69 49 65 50 66 51 68 52 70 53 67 54 51 55
REMARK SMILES IDX 52 56 57 57 53 58 54 59 56 60 58 61 55 62 6 63 7 64 8 65
REMARK SMILES IDX 9 66 10 68 11 69 12 70 17 71 13 72 16 73 14 74 15 75 18 76
REMARK SMILES IDX 19 77 27 78 20 79 22 80 21 81 23 82 24 83 25 84 26 85
REMARK H PARENT 3 6 75 24 49 35 8 67
REMARK Flexibility Score: inf
ROOT
ATOM      1  C   UNL A   1      37.712  19.911  24.683  1.00  0.00     0.023 C 
ENDROOT
BRANCH   1   2
ATOM      2  C   UNL A   1      38.809  20.284  25.673  1.00  0.00     0.116 C 
BRANCH   2   3
ATOM      3  N   UNL A   1      39.911  19.335  25.694  1.00  0.00    -0.352 N 
ATOM      4  O   UNL A   1      42.047  18.634  25.888  1.00  0.00    -0.269 OA
ATOM      5  C   UNL A   1      41.225  19.531  26.049  1.00  0.00     0.251 C 
ATOM      6  H   UNL A   1      39.683  18.418  25.414  1.00  0.00     0.163 HD
BRANCH   5   7
ATOM      7  C   UNL A   1      41.656  20.837  26.595  1.00  0.00     0.039 A 
ATOM      8  C   UNL A   1      41.610  21.086  27.966  1.00  0.00     0.014 A 
ATOM      9  C   UNL A   1      42.109  21.826  25.717  1.00  0.00     0.014 A 
ATOM     10  C   UNL A   1      41.862  22.368  28.444  1.00  0.00     0.010 A 
ATOM     11  C   UNL A   1      42.449  23.090  26.209  1.00  0.00     0.010 A 
ATOM     12  C   UNL A   1      42.295  23.381  27.573  1.00  0.00    -0.014 A 
BRANCH  12  13
ATOM     13  C   UNL A   1      42.642  24.714  28.128  1.00  0.00     0.031 A 
ATOM     14  C   UNL A   1      44.061  25.078  28.465  1.00  0.00     0.074 A 
ATOM     15  C   UNL A   1      41.655  25.614  28.300  1.00  0.00     0.049 A 
ATOM     16  N   UNL A   1      44.529  26.205  28.938  1.00  0.00    -0.248 NA
ATOM     17  C   UNL A   1      45.086  24.045  28.254  1.00  0.00     0.031 C 
ATOM     18  C   UNL A   1      40.236  25.371  28.023  1.00  0.00     0.029 A 
ATOM     19  N   UNL A   1      41.689  26.915  28.731  1.00  0.00    -0.354 N 
ATOM     20  C   UNL A   1      45.896  26.013  29.101  1.00  0.00     0.074 A 
ATOM     21  C   UNL A   1      46.179  24.653  28.695  1.00  0.00     0.031 C 
ATOM     22  C   UNL A   1      39.544  26.495  28.250  1.00  0.00     0.029 A 
ATOM     23  C   UNL A   1      40.457  27.520  28.743  1.00  0.00     0.049 A 
ATOM     24  H   UNL A   1      42.518  27.372  29.004  1.00  0.00     0.167 HD
ATOM     25  C   UNL A   1      46.826  26.895  29.541  1.00  0.00     0.037 A 
ATOM     26  C   UNL A   1      40.093  28.757  29.126  1.00  0.00     0.037 A 
ATOM     27  C   UNL A   1      46.541  28.255  29.924  1.00  0.00     0.049 A 
ATOM     28  C   UNL A   1      41.142  29.707  29.619  1.00  0.00     0.074 A 
ATOM     29  C   UNL A   1      47.425  29.237  30.339  1.00  0.00     0.029 A 
ATOM     30  N   UNL A   1      45.276  28.824  29.945  1.00  0.00    -0.354 N 
ATOM     31  N   UNL A   1      42.435  29.522  29.730  1.00  0.00    -0.248 NA
ATOM     32  C   UNL A   1      40.684  31.037  30.043  1.00  0.00     0.031 C 
ATOM     33  C   UNL A   1      46.690  30.384  30.654  1.00  0.00     0.029 A 
ATOM     34  C   UNL A   1      45.353  30.134  30.390  1.00  0.00     0.049 A 
ATOM     35  H   UNL A   1      44.446  28.364  29.683  1.00  0.00     0.167 HD
ATOM     36  C   UNL A   1      42.947  30.713  30.225  1.00  0.00     0.074 A 
ATOM     37  C   UNL A   1      41.827  31.620  30.371  1.00  0.00     0.031 C 
ATOM     38  C   UNL A   1      44.229  31.023  30.535  1.00  0.00     0.037 A 
BRANCH  25  39
ATOM     39  C   UNL A   1      48.245  26.416  29.649  1.00  0.00     0.057 A 
ATOM     40  C   UNL A   1      49.168  26.586  28.611  1.00  0.00     0.134 A 
ATOM     41  C   UNL A   1      48.709  25.829  30.835  1.00  0.00     0.134 A 
ATOM     42  F   UNL A   1      48.787  27.134  27.446  1.00  0.00    -0.206 F 
ATOM     43  C   UNL A   1      50.496  26.175  28.739  1.00  0.00     0.040 A 
ATOM     44  C   UNL A   1      50.040  25.435  30.983  1.00  0.00     0.040 A 
ATOM     45  F   UNL A   1      47.880  25.644  31.873  1.00  0.00    -0.206 F 
ATOM     46  C   UNL A   1      50.938  25.604  29.931  1.00  0.00     0.006 A 
ENDBRANCH  25  39
BRANCH  26  47
ATOM     47  C   UNL A   1      38.666  29.154  29.061  1.00  0.00     0.057 A 
ATOM     48  C   UNL A   1      37.846  29.099  30.192  1.00  0.00     0.134 A 
ATOM     49  C   UNL A   1      38.096  29.623  27.870  1.00  0.00     0.134 A 
ATOM     50  F   UNL A   1      38.330  28.644  31.357  1.00  0.00    -0.206 F 
ATOM     51  C   UNL A   1      36.505  29.486  30.140  1.00  0.00     0.040 A 
ATOM     52  C   UNL A   1      36.767  30.039  27.811  1.00  0.00     0.040 A 
ATOM     53  F   UNL A   1      38.836  29.709  26.755  1.00  0.00    -0.206 F 
ATOM     54  C   UNL A   1      35.965  29.965  28.948  1.00  0.00     0.006 A 
ENDBRANCH  26  47
BRANCH  38  55
ATOM     55  C   UNL A   1      44.487  32.410  31.043  1.00  0.00     0.057 A 
ATOM     56  C   UNL A   1      44.748  33.477  30.175  1.00  0.00     0.134 A 
ATOM     57  C   UNL A   1      44.451  32.686  32.416  1.00  0.00     0.134 A 
ATOM     58  F   UNL A   1      44.811  33.276  28.849  1.00  0.00    -0.206 F 
ATOM     59  C   UNL A   1      44.986  34.766  30.654  1.00  0.00     0.040 A 
ATOM     60  C   UNL A   1      44.664  33.975  32.907  1.00  0.00     0.040 A 
ATOM     61  F   UNL A   1      44.201  31.709  33.301  1.00  0.00    -0.206 F 
ATOM     62  C   UNL A   1      44.939  35.018  32.025  1.00  0.00     0.006 A 
ENDBRANCH  38  55
ENDBRANCH  12  13
ENDBRANCH   5   7
ENDBRANCH   2   3
ENDBRANCH   1   2
BRANCH   1  63
ATOM     63  C   UNL A   1      36.295  20.303  25.094  1.00  0.00     0.023 C 
BRANCH  63  64
ATOM     64  C   UNL A   1      35.999  21.799  25.088  1.00  0.00     0.116 C 
BRANCH  64  65
ATOM     65  N   UNL A   1      35.650  22.307  23.770  1.00  0.00    -0.352 N 
ATOM     66  C   UNL A   1      34.468  22.855  23.331  1.00  0.00     0.252 C 
ATOM     67  H   UNL A   1      36.363  22.250  23.094  1.00  0.00     0.163 HD
ATOM     68  O   UNL A   1      34.352  23.237  22.172  1.00  0.00    -0.269 OA
BRANCH  66  69
ATOM     69  C   UNL A   1      33.344  22.993  24.276  1.00  0.00     0.052 A 
ATOM     70  C   UNL A   1      33.138  24.252  24.849  1.00  0.00     0.055 A 
ATOM     71  C   UNL A   1      32.496  21.914  24.569  1.00  0.00     0.013 A 
ATOM     72  C   UNL A   1      32.130  24.370  25.778  1.00  0.00     0.129 A 
ATOM     73  C   UNL A   1      31.510  22.174  25.522  1.00  0.00     0.122 A 
ATOM     74  Cl  UNL A   1      31.854  25.852  26.593  1.00  0.00    -0.062 Cl
ATOM     75  N   UNL A   1      31.319  23.363  26.143  1.00  0.00    -0.244 NA
BRANCH  71  76
ATOM     76  C   UNL A   1      32.573  20.587  23.938  1.00  0.00    -0.015 A 
ATOM     77  C   UNL A   1      32.121  20.409  22.618  1.00  0.00     0.009 A 
ATOM     78  C   UNL A   1      33.074  19.466  24.620  1.00  0.00     0.021 A 
ATOM     79  C   UNL A   1      32.163  19.160  21.998  1.00  0.00     0.001 A 
ATOM     80  C   UNL A   1      33.131  18.200  24.005  1.00  0.00     0.056 A 
ATOM     81  C   UNL A   1      32.665  18.060  22.689  1.00  0.00     0.013 A 
BRANCH  80  82
ATOM     82  C   UNL A   1      33.677  16.998  24.734  1.00  0.00     0.416 C 
ATOM     83  F   UNL A   1      33.214  16.913  26.011  1.00  0.00    -0.166 F 
ATOM     84  F   UNL A   1      33.341  15.823  24.136  1.00  0.00    -0.166 F 
ATOM     85  F   UNL A   1      35.037  16.992  24.832  1.00  0.00    -0.166 F 
ENDBRANCH  80  82
ENDBRANCH  71  76
ENDBRANCH  66  69
ENDBRANCH  64  65
ENDBRANCH  63  64
ENDBRANCH   1  63
TORSDOF 13
ENDMDL
MODEL 2
REMARK VINA RESULT:     -12.2      0.241      6.251
REMARK SMILES O=C(NCCCCNC(=O)c1cc(Cl)ncc1-c1cccc(C(F)(F)F)c1)c1ccc(-c2c3nc(c(-c4c(F)cccc4F)c4ccc([nH]4)c(-c4c(F)cccc4F)c4nc(c(-c5c(F)cccc5F)c5ccc2[nH]5)C=C4)C=C3)cc1
REMARK SMILES IDX 5 1 4 2 3 3 1 4 2 5 28 7 29 8 81 9 30 10 80 11 31 12 32 13
REMARK SMILES IDX 33 14 74 15 34 16 79 17 73 18 75 19 35 20 78 21 72 22 71 23
REMARK SMILES IDX 36 25 62 26 45 27 61 28 46 29 49 30 60 31 76 32 47 33 48 34
REMARK SMILES IDX 59 36 77 37 50 38 37 39 38 40 43 41 39 42 40 43 42 44 44 45
REMARK SMILES IDX 41 46 63 47 64 48 69 49 65 50 66 51 68 52 70 53 67 54 51 55
REMARK SMILES IDX 52 56 57 57 53 58 54 59 56 60 58 61 55 62 6 63 7 64 8 65
REMARK SMILES IDX 9 66 10 68 11 69 12 70 17 71 13 72 16 73 14 74 15 75 18 76
REMARK SMILES IDX 19 77 27 78 20 79 22 80 21 81 23 82 24 83 25 84 26 85
REMARK H PARENT 3 6 75 24 49 35 8 67
REMARK Flexibility Score: inf
ROOT
ATOM      1  C   UNL A   1      37.741  19.941  24.695  1.00  0.00     0.023 C 
ENDROOT
BRANCH   1   2
ATOM      2  C   UNL A   1      38.810  20.286  25.724  1.00  0.00     0.116 C 
BRANCH   2   3
ATOM      3  N   UNL A   1      39.914  19.339  25.745  1.00  0.00    -0.352 N 
ATOM      4  O   UNL A   1      42.053  18.642  25.926  1.00  0.00    -0.269 OA
ATOM      5  C   UNL A   1      41.231  19.540  26.085  1.00  0.00     0.251 C 
ATOM      6  H   UNL A   1      39.685  18.419  25.476  1.00  0.00     0.163 HD
BRANCH   5   7
ATOM      7  C   UNL A   1      41.665  20.852  26.614  1.00  0.00     0.039 A 
ATOM      8  C   UNL A   1      41.622  21.119  27.982  1.00  0.00     0.014 A 
ATOM      9  C   UNL A   1      42.118  21.829  25.723  1.00  0.00     0.014 A 
ATOM     10  C   UNL A   1      41.877  22.406  28.443  1.00  0.00     0.010 A 
ATOM     11  C   UNL A   1      42.461  23.098  26.198  1.00  0.00     0.010 A 
ATOM     12  C   UNL A   1      42.310  23.407  27.559  1.00  0.00    -0.014 A 
BRANCH  12  13
ATOM     13  C   UNL A   1      42.660  24.747  28.096  1.00  0.00     0.031 A 
ATOM     14  C   UNL A   1      41.608  25.793  28.337  1.00  0.00     0.074 A 
ATOM     15  C   UNL A   1      43.948  25.003  28.395  1.00  0.00     0.049 A 
ATOM     16  N   UNL A   1      41.748  27.003  28.819  1.00  0.00    -0.248 NA
ATOM     17  C   UNL A   1      40.223  25.444  27.986  1.00  0.00     0.031 C 
ATOM     18  C   UNL A   1      45.060  24.071  28.189  1.00  0.00     0.029 A 
ATOM     19  N   UNL A   1      44.540  26.109  28.947  1.00  0.00    -0.354 N 
ATOM     20  C   UNL A   1      40.478  27.566  28.811  1.00  0.00     0.074 A 
ATOM     21  C   UNL A   1      39.582  26.574  28.256  1.00  0.00     0.031 C 
ATOM     22  C   UNL A   1      46.190  24.627  28.648  1.00  0.00     0.029 A 
ATOM     23  C   UNL A   1      45.895  25.973  29.124  1.00  0.00     0.049 A 
ATOM     24  H   UNL A   1      44.042  26.922  29.193  1.00  0.00     0.167 HD
ATOM     25  C   UNL A   1      40.097  28.796  29.234  1.00  0.00     0.037 A 
ATOM     26  C   UNL A   1      46.806  26.840  29.599  1.00  0.00     0.037 A 
ATOM     27  C   UNL A   1      40.991  29.773  29.804  1.00  0.00     0.049 A 
ATOM     28  C   UNL A   1      46.358  28.197  30.050  1.00  0.00     0.074 A 
ATOM     29  C   UNL A   1      40.689  31.029  30.305  1.00  0.00     0.029 A 
ATOM     30  N   UNL A   1      42.361  29.607  29.946  1.00  0.00    -0.354 N 
ATOM     31  N   UNL A   1      45.148  28.701  30.071  1.00  0.00    -0.248 NA
ATOM     32  C   UNL A   1      47.400  29.109  30.540  1.00  0.00     0.031 C 
ATOM     33  C   UNL A   1      41.882  31.639  30.706  1.00  0.00     0.029 A 
ATOM     34  C   UNL A   1      42.921  30.746  30.501  1.00  0.00     0.049 A 
ATOM     35  H   UNL A   1      42.860  28.798  29.688  1.00  0.00     0.167 HD
ATOM     36  C   UNL A   1      45.280  29.982  30.586  1.00  0.00     0.074 A 
ATOM     37  C   UNL A   1      46.685  30.170  30.885  1.00  0.00     0.031 C 
ATOM     38  C   UNL A   1      44.322  30.920  30.788  1.00  0.00     0.037 A 
BRANCH  25  39
ATOM     39  C   UNL A   1      38.650  29.169  29.085  1.00  0.00     0.057 A 
ATOM     40  C   UNL A   1      37.763  29.148  30.167  1.00  0.00     0.134 A 
ATOM     41  C   UNL A   1      38.153  29.612  27.851  1.00  0.00     0.134 A 
ATOM     42  F   UNL A   1      38.171  28.726  31.373  1.00  0.00    -0.206 F 
ATOM     43  C   UNL A   1      36.428  29.537  30.025  1.00  0.00     0.040 A 
ATOM     44  C   UNL A   1      36.829  30.025  27.702  1.00  0.00     0.040 A 
ATOM     45  F   UNL A   1      38.953  29.666  26.775  1.00  0.00    -0.206 F 
ATOM     46  C   UNL A   1      35.960  29.985  28.791  1.00  0.00     0.006 A 
ENDBRANCH  25  39
BRANCH  26  47
ATOM     47  C   UNL A   1      48.234  26.442  29.661  1.00  0.00     0.057 A 
ATOM     48  C   UNL A   1      49.107  26.706  28.602  1.00  0.00     0.134 A 
ATOM     49  C   UNL A   1      48.763  25.811  30.795  1.00  0.00     0.134 A 
ATOM     50  F   UNL A   1      48.655  27.294  27.484  1.00  0.00    -0.206 F 
ATOM     51  C   UNL A   1      50.455  26.348  28.661  1.00  0.00     0.040 A 
ATOM     52  C   UNL A   1      50.112  25.472  30.879  1.00  0.00     0.040 A 
ATOM     53  F   UNL A   1      47.977  25.542  31.848  1.00  0.00    -0.206 F 
ATOM     54  C   UNL A   1      50.962  25.735  29.806  1.00  0.00     0.006 A 
ENDBRANCH  26  47
BRANCH  38  55
ATOM     55  C   UNL A   1      44.765  32.225  31.380  1.00  0.00     0.057 A 
ATOM     56  C   UNL A   1      45.141  33.308  30.576  1.00  0.00     0.134 A 
ATOM     57  C   UNL A   1      44.794  32.406  32.768  1.00  0.00     0.134 A 
ATOM     58  F   UNL A   1      45.150  33.193  29.239  1.00  0.00    -0.206 F 
ATOM     59  C   UNL A   1      45.553  34.520  31.133  1.00  0.00     0.040 A 
ATOM     60  C   UNL A   1      45.180  33.621  33.337  1.00  0.00     0.040 A 
ATOM     61  F   UNL A   1      44.440  31.410  33.594  1.00  0.00    -0.206 F 
ATOM     62  C   UNL A   1      45.567  34.680  32.518  1.00  0.00     0.006 A 
ENDBRANCH  38  55
ENDBRANCH  12  13
ENDBRANCH   5   7
ENDBRANCH   2   3
ENDBRANCH   1   2
BRANCH   1  63
ATOM     63  C   UNL A   1      36.304  20.245  25.113  1.00  0.00     0.023 C 
BRANCH  63  64
ATOM     64  C   UNL A   1      35.928  21.723  25.146  1.00  0.00     0.116 C 
BRANCH  64  65
ATOM     65  N   UNL A   1      35.613  22.262  23.832  1.00  0.00    -0.352 N 
ATOM     66  C   UNL A   1      34.449  22.837  23.381  1.00  0.00     0.252 C 
ATOM     67  H   UNL A   1      36.338  22.206  23.169  1.00  0.00     0.163 HD
ATOM     68  O   UNL A   1      34.361  23.242  22.227  1.00  0.00    -0.269 OA
BRANCH  66  69
ATOM     69  C   UNL A   1      33.308  22.974  24.306  1.00  0.00     0.052 A 
ATOM     70  C   UNL A   1      33.099  24.230  24.885  1.00  0.00     0.055 A 
ATOM     71  C   UNL A   1      32.449  21.898  24.576  1.00  0.00     0.013 A 
ATOM     72  C   UNL A   1      32.075  24.347  25.796  1.00  0.00     0.129 A 
ATOM     73  C   UNL A   1      31.448  22.157  25.513  1.00  0.00     0.122 A 
ATOM     74  Cl  UNL A   1      31.793  25.825  26.617  1.00  0.00    -0.062 Cl
ATOM     75  N   UNL A   1      31.252  23.342  26.139  1.00  0.00    -0.244 NA
BRANCH  71  76
ATOM     76  C   UNL A   1      32.530  20.575  23.937  1.00  0.00    -0.015 A 
ATOM     77  C   UNL A   1      32.097  20.408  22.609  1.00  0.00     0.009 A 
ATOM     78  C   UNL A   1      33.016  19.447  24.618  1.00  0.00     0.021 A 
ATOM     79  C   UNL A   1      32.143  19.163  21.981  1.00  0.00     0.001 A 
ATOM     80  C   UNL A   1      33.077  18.186  23.995  1.00  0.00     0.056 A 
ATOM     81  C   UNL A   1      32.630  18.057  22.672  1.00  0.00     0.013 A 
BRANCH  80  82
ATOM     82  C   UNL A   1      33.608  16.976  24.723  1.00  0.00     0.416 C 
ATOM     83  F   UNL A   1      34.968  16.916  24.704  1.00  0.00    -0.166 F 
ATOM     84  F   UNL A   1      33.251  16.954  26.037  1.00  0.00    -0.166 F 
ATOM     85  F   UNL A   1      33.178  15.793  24.200  1.00  0.00    -0.166 F 
ENDBRANCH  80  82
ENDBRANCH  71  76
ENDBRANCH  66  69
ENDBRANCH  64  65
ENDBRANCH  63  64
ENDBRANCH   1  63
TORSDOF 13
ENDMDL
MODEL 3
REMARK VINA RESULT:     -12.2      5.250      9.927
REMARK SMILES O=C(NCCCCNC(=O)c1cc(Cl)ncc1-c1cccc(C(F)(F)F)c1)c1ccc(-c2c3nc(c(-c4c(F)cccc4F)c4ccc([nH]4)c(-c4c(F)cccc4F)c4nc(c(-c5c(F)cccc5F)c5ccc2[nH]5)C=C4)C=C3)cc1
REMARK SMILES IDX 5 1 4 2 3 3 1 4 2 5 28 7 29 8 81 9 30 10 80 11 31 12 32 13
REMARK SMILES IDX 33 14 74 15 34 16 79 17 73 18 75 19 35 20 78 21 72 22 71 23
REMARK SMILES IDX 36 25 62 26 45 27 61 28 46 29 49 30 60 31 76 32 47 33 48 34
REMARK SMILES IDX 59 36 77 37 50 38 37 39 38 40 43 41 39 42 40 43 42 44 44 45
REMARK SMILES IDX 41 46 63 47 64 48 69 49 65 50 66 51 68 52 70 53 67 54 51 55
REMARK SMILES IDX 52 56 57 57 53 58 54 59 56 60 58 61 55 62 6 63 7 64 8 65
REMARK SMILES IDX 9 66 10 68 11 69 12 70 17 71 13 72 16 73 14 74 15 75 18 76
REMARK SMILES IDX 19 77 27 78 20 79 22 80 21 81 23 82 24 83 25 84 26 85
REMARK H PARENT 3 6 75 24 49 35 8 67
REMARK Flexibility Score: inf
ROOT
ATOM      1  C   UNL A   1      31.309  31.634  26.506  1.00  0.00     0.023 C 
ENDROOT
BRANCH   1   2
ATOM      2  C   UNL A   1      32.605  32.318  26.920  1.00  0.00     0.116 C 
BRANCH   2   3
ATOM      3  N   UNL A   1      32.414  33.688  27.369  1.00  0.00    -0.352 N 
ATOM      4  O   UNL A   1      32.714  35.514  28.661  1.00  0.00    -0.269 OA
ATOM      5  C   UNL A   1      33.098  34.397  28.329  1.00  0.00     0.251 C 
ATOM      6  H   UNL A   1      31.688  34.181  26.920  1.00  0.00     0.163 HD
BRANCH   5   7
ATOM      7  C   UNL A   1      34.279  33.797  28.988  1.00  0.00     0.039 A 
ATOM      8  C   UNL A   1      35.568  34.228  28.671  1.00  0.00     0.014 A 
ATOM      9  C   UNL A   1      34.091  32.785  29.934  1.00  0.00     0.014 A 
ATOM     10  C   UNL A   1      36.668  33.544  29.175  1.00  0.00     0.010 A 
ATOM     11  C   UNL A   1      35.200  32.157  30.510  1.00  0.00     0.010 A 
ATOM     12  C   UNL A   1      36.498  32.509  30.109  1.00  0.00    -0.014 A 
BRANCH  12  13
ATOM     13  C   UNL A   1      37.697  31.858  30.696  1.00  0.00     0.031 A 
ATOM     14  C   UNL A   1      38.180  32.206  32.076  1.00  0.00     0.074 A 
ATOM     15  C   UNL A   1      38.336  30.918  29.974  1.00  0.00     0.049 A 
ATOM     16  N   UNL A   1      39.197  31.715  32.738  1.00  0.00    -0.248 NA
ATOM     17  C   UNL A   1      37.434  33.243  32.806  1.00  0.00     0.031 C 
ATOM     18  C   UNL A   1      37.969  30.508  28.616  1.00  0.00     0.029 A 
ATOM     19  N   UNL A   1      39.413  30.128  30.279  1.00  0.00    -0.354 N 
ATOM     20  C   UNL A   1      39.228  32.393  33.951  1.00  0.00     0.074 A 
ATOM     21  C   UNL A   1      38.140  33.346  33.925  1.00  0.00     0.031 C 
ATOM     22  C   UNL A   1      38.778  29.514  28.223  1.00  0.00     0.029 A 
ATOM     23  C   UNL A   1      39.756  29.258  29.274  1.00  0.00     0.049 A 
ATOM     24  H   UNL A   1      39.894  30.178  31.138  1.00  0.00     0.167 HD
ATOM     25  C   UNL A   1      40.082  32.228  34.990  1.00  0.00     0.037 A 
ATOM     26  C   UNL A   1      40.758  28.364  29.194  1.00  0.00     0.037 A 
ATOM     27  C   UNL A   1      41.152  31.262  35.017  1.00  0.00     0.049 A 
ATOM     28  C   UNL A   1      41.694  28.211  30.354  1.00  0.00     0.074 A 
ATOM     29  C   UNL A   1      42.041  30.990  36.044  1.00  0.00     0.029 A 
ATOM     30  N   UNL A   1      41.483  30.415  33.970  1.00  0.00    -0.354 N 
ATOM     31  N   UNL A   1      41.686  28.833  31.508  1.00  0.00    -0.248 NA
ATOM     32  C   UNL A   1      42.781  27.235  30.202  1.00  0.00     0.031 C 
ATOM     33  C   UNL A   1      42.936  30.011  35.600  1.00  0.00     0.029 A 
ATOM     34  C   UNL A   1      42.577  29.639  34.315  1.00  0.00     0.049 A 
ATOM     35  H   UNL A   1      41.009  30.373  33.108  1.00  0.00     0.167 HD
ATOM     36  C   UNL A   1      42.757  28.317  32.224  1.00  0.00     0.074 A 
ATOM     37  C   UNL A   1      43.378  27.315  31.382  1.00  0.00     0.031 C 
ATOM     38  C   UNL A   1      43.187  28.649  33.465  1.00  0.00     0.037 A 
BRANCH  25  39
ATOM     39  C   UNL A   1      39.910  33.121  36.184  1.00  0.00     0.057 A 
ATOM     40  C   UNL A   1      40.588  34.340  36.304  1.00  0.00     0.134 A 
ATOM     41  C   UNL A   1      39.007  32.782  37.202  1.00  0.00     0.134 A 
ATOM     42  F   UNL A   1      41.473  34.721  35.370  1.00  0.00    -0.206 F 
ATOM     43  C   UNL A   1      40.389  35.182  37.401  1.00  0.00     0.040 A 
ATOM     44  C   UNL A   1      38.782  33.626  38.290  1.00  0.00     0.040 A 
ATOM     45  F   UNL A   1      38.318  31.633  37.145  1.00  0.00    -0.206 F 
ATOM     46  C   UNL A   1      39.477  34.829  38.394  1.00  0.00     0.006 A 
ENDBRANCH  25  39
BRANCH  26  47
ATOM     47  C   UNL A   1      40.922  27.555  27.962  1.00  0.00     0.057 A 
ATOM     48  C   UNL A   1      41.698  28.012  26.892  1.00  0.00     0.134 A 
ATOM     49  C   UNL A   1      40.325  26.294  27.837  1.00  0.00     0.134 A 
ATOM     50  F   UNL A   1      42.280  29.219  26.947  1.00  0.00    -0.206 F 
ATOM     51  C   UNL A   1      41.868  27.248  25.736  1.00  0.00     0.040 A 
ATOM     52  C   UNL A   1      40.509  25.508  26.700  1.00  0.00     0.040 A 
ATOM     53  F   UNL A   1      39.578  25.797  28.834  1.00  0.00    -0.206 F 
ATOM     54  C   UNL A   1      41.278  25.989  25.642  1.00  0.00     0.006 A 
ENDBRANCH  26  47
BRANCH  38  55
ATOM     55  C   UNL A   1      44.377  27.903  33.992  1.00  0.00     0.057 A 
ATOM     56  C   UNL A   1      44.244  26.679  34.658  1.00  0.00     0.134 A 
ATOM     57  C   UNL A   1      45.672  28.404  33.808  1.00  0.00     0.134 A 
ATOM     58  F   UNL A   1      43.029  26.153  34.879  1.00  0.00    -0.206 F 
ATOM     59  C   UNL A   1      45.355  25.989  35.145  1.00  0.00     0.040 A 
ATOM     60  C   UNL A   1      46.793  27.712  34.269  1.00  0.00     0.040 A 
ATOM     61  F   UNL A   1      45.869  29.568  33.173  1.00  0.00    -0.206 F 
ATOM     62  C   UNL A   1      46.636  26.504  34.946  1.00  0.00     0.006 A 
ENDBRANCH  38  55
ENDBRANCH  12  13
ENDBRANCH   5   7
ENDBRANCH   2   3
ENDBRANCH   1   2
BRANCH   1  63
ATOM     63  C   UNL A   1      31.451  30.539  25.451  1.00  0.00     0.023 C 
BRANCH  63  64
ATOM     64  C   UNL A   1      32.246  29.311  25.882  1.00  0.00     0.116 C 
BRANCH  64  65
ATOM     65  N   UNL A   1      31.429  28.305  26.544  1.00  0.00    -0.352 N 
ATOM     66  C   UNL A   1      31.120  27.028  26.141  1.00  0.00     0.252 C 
ATOM     67  H   UNL A   1      31.040  28.578  27.406  1.00  0.00     0.163 HD
ATOM     68  O   UNL A   1      30.409  26.310  26.835  1.00  0.00    -0.269 OA
BRANCH  66  69
ATOM     69  C   UNL A   1      31.666  26.524  24.867  1.00  0.00     0.052 A 
ATOM     70  C   UNL A   1      32.850  25.781  24.924  1.00  0.00     0.055 A 
ATOM     71  C   UNL A   1      31.012  26.754  23.647  1.00  0.00     0.013 A 
ATOM     72  C   UNL A   1      33.396  25.362  23.733  1.00  0.00     0.129 A 
ATOM     73  C   UNL A   1      31.672  26.268  22.517  1.00  0.00     0.122 A 
ATOM     74  Cl  UNL A   1      34.886  24.516  23.698  1.00  0.00    -0.062 Cl
ATOM     75  N   UNL A   1      32.849  25.598  22.528  1.00  0.00    -0.244 NA
BRANCH  71  76
ATOM     76  C   UNL A   1      29.714  27.433  23.501  1.00  0.00    -0.015 A 
ATOM     77  C   UNL A   1      28.529  26.766  23.858  1.00  0.00     0.009 A 
ATOM     78  C   UNL A   1      29.609  28.739  22.995  1.00  0.00     0.021 A 
ATOM     79  C   UNL A   1      27.282  27.375  23.715  1.00  0.00     0.001 A 
ATOM     80  C   UNL A   1      28.359  29.371  22.853  1.00  0.00     0.056 A 
ATOM     81  C   UNL A   1      27.198  28.671  23.213  1.00  0.00     0.013 A 
BRANCH  80  82
ATOM     82  C   UNL A   1      28.247  30.777  22.319  1.00  0.00     0.416 C 
ATOM     83  F   UNL A   1      27.591  31.606  23.177  1.00  0.00    -0.166 F 
ATOM     84  F   UNL A   1      29.459  31.353  22.096  1.00  0.00    -0.166 F 
ATOM     85  F   UNL A   1      27.571  30.858  21.137  1.00  0.00    -0.166 F 
ENDBRANCH  80  82
ENDBRANCH  71  76
ENDBRANCH  66  69
ENDBRANCH  64  65
ENDBRANCH  63  64
ENDBRANCH   1  63
TORSDOF 13
ENDMDL
