MODEL 1
REMARK VINA RESULT:     -11.4      0.000      0.000
REMARK SMILES C[N@H+]([C@@H]1CCOC2(CCCC2)C1)C(C)(C)C(=O)NCCCCNC(=O)c1ccc(-c2c3nc(c(-c4c(F)cccc4F)c4ccc([nH]4)c(-c4c(F)cccc4F)c4nc(c(-c5c(F)cccc5F)c5ccc2[nH]5)C=C4)C=C3)cc1
REMARK SMILES IDX 20 1 19 2 18 3 16 4 17 5 13 7 14 8 15 9 2 10 1 11 3 13 4 14
REMARK SMILES IDX 12 15 5 16 7 17 6 18 8 19 11 20 9 21 10 22 21 23 22 24 23 25
REMARK SMILES IDX 24 26 25 28 26 29 27 30 79 31 28 32 78 33 29 34 30 35 31 36
REMARK SMILES IDX 72 37 32 38 77 39 71 40 73 41 33 42 76 43 70 44 69 45 34 47
REMARK SMILES IDX 60 48 43 49 59 50 44 51 47 52 58 53 74 54 45 55 46 56 57 58
REMARK SMILES IDX 75 59 48 60 35 61 36 62 41 63 37 64 38 65 40 66 42 67 39 68
REMARK SMILES IDX 61 69 62 70 67 71 63 72 64 73 66 74 68 75 65 76 49 77 50 78
REMARK SMILES IDX 55 79 51 80 52 81 54 82 56 83 53 84
REMARK H PARENT 18 6 2 12 23 27 73 46 47 57
REMARK Flexibility Score: inf
ROOT
ATOM      1  C   UNL A   1      32.233  29.056  27.610  1.00  0.00     0.023 C 
ENDROOT
BRANCH   1   2
ATOM      2  C   UNL A   1      32.507  27.811  26.768  1.00  0.00     0.116 C 
BRANCH   2   3
ATOM      3  N   UNL A   1      31.453  26.824  26.881  1.00  0.00    -0.351 N 
ATOM      4  C   UNL A   1      30.619  26.259  25.955  1.00  0.00     0.280 C 
ATOM      5  O   UNL A   1      29.759  25.510  26.432  1.00  0.00    -0.268 OA
ATOM      6  H   UNL A   1      31.308  26.498  27.798  1.00  0.00     0.163 HD
BRANCH   4   7
ATOM      7  C   UNL A   1      30.707  26.594  24.417  1.00  0.00     0.171 C 
ATOM      8  C   UNL A   1      30.702  28.107  24.112  1.00  0.00     0.090 C 
ATOM      9  C   UNL A   1      29.410  26.015  23.782  1.00  0.00     0.090 C 
BRANCH   7  10
ATOM     10  N   UNL A   1      31.962  26.028  23.758  1.00  0.00    -0.323 N 
ATOM     11  C   UNL A   1      32.675  27.046  22.969  1.00  0.00     0.333 C 
ATOM     12  H   UNL A   1      32.495  25.758  24.585  1.00  0.00     0.349 HD
BRANCH  10  13
ATOM     13  C   UNL A   1      31.886  24.732  23.011  1.00  0.00     0.189 C 
ATOM     14  C   UNL A   1      31.056  23.579  23.614  1.00  0.00     0.093 C 
ATOM     15  C   UNL A   1      33.282  24.098  22.737  1.00  0.00     0.100 C 
ATOM     16  C   UNL A   1      31.735  22.886  24.791  1.00  0.00     0.167 C 
ATOM     17  C   UNL A   1      33.929  23.492  23.990  1.00  0.00     0.074 C 
ATOM     18  O   UNL A   1      33.067  22.468  24.506  1.00  0.00    -0.375 OA
ATOM     19  C   UNL A   1      35.265  22.788  23.635  1.00  0.00     0.036 C 
ATOM     20  C   UNL A   1      34.320  24.531  25.064  1.00  0.00     0.036 C 
ATOM     21  C   UNL A   1      36.360  23.565  24.355  1.00  0.00     0.003 C 
ATOM     22  C   UNL A   1      35.668  24.077  25.601  1.00  0.00     0.003 C 
ENDBRANCH  10  13
ENDBRANCH   7  10
ENDBRANCH   4   7
ENDBRANCH   2   3
ENDBRANCH   1   2
BRANCH   1  23
ATOM     23  C   UNL A   1      32.057  30.345  26.812  1.00  0.00     0.023 C 
BRANCH  23  24
ATOM     24  C   UNL A   1      33.108  31.417  27.073  1.00  0.00     0.116 C 
BRANCH  24  25
ATOM     25  N   UNL A   1      32.545  32.726  27.387  1.00  0.00    -0.352 N 
ATOM     26  C   UNL A   1      33.078  33.716  28.178  1.00  0.00     0.251 C 
ATOM     27  H   UNL A   1      31.672  32.927  26.978  1.00  0.00     0.163 HD
ATOM     28  O   UNL A   1      32.455  34.744  28.413  1.00  0.00    -0.269 OA
BRANCH  26  29
ATOM     29  C   UNL A   1      34.404  33.488  28.780  1.00  0.00     0.039 A 
ATOM     30  C   UNL A   1      34.487  32.786  29.983  1.00  0.00     0.014 A 
ATOM     31  C   UNL A   1      35.556  33.869  28.089  1.00  0.00     0.014 A 
ATOM     32  C   UNL A   1      35.737  32.380  30.450  1.00  0.00     0.010 A 
ATOM     33  C   UNL A   1      36.791  33.394  28.512  1.00  0.00     0.010 A 
ATOM     34  C   UNL A   1      36.890  32.638  29.690  1.00  0.00    -0.014 A 
BRANCH  34  35
ATOM     35  C   UNL A   1      38.217  32.119  30.102  1.00  0.00     0.031 A 
ATOM     36  C   UNL A   1      38.696  30.797  29.573  1.00  0.00     0.074 A 
ATOM     37  C   UNL A   1      38.947  32.794  31.011  1.00  0.00     0.049 A 
ATOM     38  N   UNL A   1      39.772  30.124  29.885  1.00  0.00    -0.248 NA
ATOM     39  C   UNL A   1      37.830  30.130  28.588  1.00  0.00     0.031 C 
ATOM     40  C   UNL A   1      38.564  34.063  31.636  1.00  0.00     0.029 A 
ATOM     41  N   UNL A   1      40.160  32.498  31.578  1.00  0.00    -0.354 N 
ATOM     42  C   UNL A   1      39.704  28.949  29.149  1.00  0.00     0.074 A 
ATOM     43  C   UNL A   1      38.454  28.974  28.422  1.00  0.00     0.031 C 
ATOM     44  C   UNL A   1      39.538  34.448  32.478  1.00  0.00     0.029 A 
ATOM     45  C   UNL A   1      40.591  33.439  32.482  1.00  0.00     0.049 A 
ATOM     46  H   UNL A   1      40.675  31.689  31.358  1.00  0.00     0.167 HD
ATOM     47  C   UNL A   1      40.614  27.950  29.064  1.00  0.00     0.037 A 
ATOM     48  C   UNL A   1      41.707  33.478  33.233  1.00  0.00     0.037 A 
ATOM     49  C   UNL A   1      41.869  27.943  29.766  1.00  0.00     0.049 A 
ATOM     50  C   UNL A   1      42.700  32.354  33.127  1.00  0.00     0.074 A 
ATOM     51  C   UNL A   1      42.887  27.008  29.704  1.00  0.00     0.029 A 
ATOM     52  N   UNL A   1      42.277  28.922  30.660  1.00  0.00    -0.354 N 
ATOM     53  N   UNL A   1      42.653  31.278  32.381  1.00  0.00    -0.248 NA
ATOM     54  C   UNL A   1      43.901  32.450  33.969  1.00  0.00     0.031 C 
ATOM     55  C   UNL A   1      43.896  27.404  30.589  1.00  0.00     0.029 A 
ATOM     56  C   UNL A   1      43.524  28.606  31.170  1.00  0.00     0.049 A 
ATOM     57  H   UNL A   1      41.756  29.724  30.897  1.00  0.00     0.167 HD
ATOM     58  C   UNL A   1      43.827  30.583  32.639  1.00  0.00     0.074 A 
ATOM     59  C   UNL A   1      44.571  31.365  33.604  1.00  0.00     0.031 C 
ATOM     60  C   UNL A   1      44.252  29.404  32.123  1.00  0.00     0.037 A 
BRANCH  47  61
ATOM     61  C   UNL A   1      40.279  26.792  28.172  1.00  0.00     0.057 A 
ATOM     62  C   UNL A   1      40.817  26.677  26.883  1.00  0.00     0.134 A 
ATOM     63  C   UNL A   1      39.421  25.776  28.608  1.00  0.00     0.134 A 
ATOM     64  F   UNL A   1      41.634  27.625  26.400  1.00  0.00    -0.206 F 
ATOM     65  C   UNL A   1      40.487  25.609  26.047  1.00  0.00     0.040 A 
ATOM     66  C   UNL A   1      39.106  24.688  27.790  1.00  0.00     0.040 A 
ATOM     67  F   UNL A   1      38.874  25.823  29.831  1.00  0.00    -0.206 F 
ATOM     68  C   UNL A   1      39.632  24.608  26.503  1.00  0.00     0.006 A 
ENDBRANCH  47  61
BRANCH  48  69
ATOM     69  C   UNL A   1      41.965  34.635  34.126  1.00  0.00     0.057 A 
ATOM     70  C   UNL A   1      42.573  35.797  33.638  1.00  0.00     0.134 A 
ATOM     71  C   UNL A   1      41.621  34.608  35.483  1.00  0.00     0.134 A 
ATOM     72  F   UNL A   1      42.942  35.874  32.351  1.00  0.00    -0.206 F 
ATOM     73  C   UNL A   1      42.844  36.885  34.468  1.00  0.00     0.040 A 
ATOM     74  C   UNL A   1      41.865  35.698  36.319  1.00  0.00     0.040 A 
ATOM     75  F   UNL A   1      41.029  33.526  36.010  1.00  0.00    -0.206 F 
ATOM     76  C   UNL A   1      42.486  36.839  35.814  1.00  0.00     0.006 A 
ENDBRANCH  48  69
BRANCH  60  77
ATOM     77  C   UNL A   1      45.595  28.906  32.566  1.00  0.00     0.057 A 
ATOM     78  C   UNL A   1      45.740  28.052  33.665  1.00  0.00     0.134 A 
ATOM     79  C   UNL A   1      46.752  29.251  31.854  1.00  0.00     0.134 A 
ATOM     80  F   UNL A   1      44.672  27.697  34.395  1.00  0.00    -0.206 F 
ATOM     81  C   UNL A   1      46.991  27.570  34.052  1.00  0.00     0.040 A 
ATOM     82  C   UNL A   1      48.004  28.756  32.217  1.00  0.00     0.040 A 
ATOM     83  F   UNL A   1      46.679  30.061  30.787  1.00  0.00    -0.206 F 
ATOM     84  C   UNL A   1      48.126  27.917  33.322  1.00  0.00     0.006 A 
ENDBRANCH  60  77
ENDBRANCH  34  35
ENDBRANCH  26  29
ENDBRANCH  24  25
ENDBRANCH  23  24
ENDBRANCH   1  23
TORSDOF 13
ENDMDL
MODEL 2
REMARK VINA RESULT:     -11.2      3.213      8.330
REMARK SMILES C[N@H+]([C@@H]1CCOC2(CCCC2)C1)C(C)(C)C(=O)NCCCCNC(=O)c1ccc(-c2c3nc(c(-c4c(F)cccc4F)c4ccc([nH]4)c(-c4c(F)cccc4F)c4nc(c(-c5c(F)cccc5F)c5ccc2[nH]5)C=C4)C=C3)cc1
REMARK SMILES IDX 20 1 19 2 18 3 16 4 17 5 13 7 14 8 15 9 2 10 1 11 3 13 4 14
REMARK SMILES IDX 12 15 5 16 7 17 6 18 8 19 11 20 9 21 10 22 21 23 22 24 23 25
REMARK SMILES IDX 24 26 25 28 26 29 27 30 79 31 28 32 78 33 29 34 30 35 31 36
REMARK SMILES IDX 72 37 32 38 77 39 71 40 73 41 33 42 76 43 70 44 69 45 34 47
REMARK SMILES IDX 60 48 43 49 59 50 44 51 47 52 58 53 74 54 45 55 46 56 57 58
REMARK SMILES IDX 75 59 48 60 35 61 36 62 41 63 37 64 38 65 40 66 42 67 39 68
REMARK SMILES IDX 61 69 62 70 67 71 63 72 64 73 66 74 68 75 65 76 49 77 50 78
REMARK SMILES IDX 55 79 51 80 52 81 54 82 56 83 53 84
REMARK H PARENT 18 6 2 12 23 27 73 46 47 57
REMARK Flexibility Score: inf
ROOT
ATOM      1  C   UNL A   1      37.070  21.978  23.964  1.00  0.00     0.023 C 
ENDROOT
BRANCH   1   2
ATOM      2  C   UNL A   1      36.043  23.068  24.263  1.00  0.00     0.116 C 
BRANCH   2   3
ATOM      3  N   UNL A   1      35.247  23.412  23.103  1.00  0.00    -0.351 N 
ATOM      4  C   UNL A   1      33.937  23.181  22.784  1.00  0.00     0.280 C 
ATOM      5  O   UNL A   1      33.617  23.540  21.645  1.00  0.00    -0.268 OA
ATOM      6  H   UNL A   1      35.744  23.906  22.411  1.00  0.00     0.163 HD
BRANCH   4   7
ATOM      7  C   UNL A   1      32.941  22.453  23.766  1.00  0.00     0.171 C 
ATOM      8  C   UNL A   1      33.536  21.192  24.428  1.00  0.00     0.090 C 
ATOM      9  C   UNL A   1      31.756  21.966  22.884  1.00  0.00     0.090 C 
BRANCH   7  10
ATOM     10  N   UNL A   1      32.468  23.353  24.906  1.00  0.00    -0.323 N 
ATOM     11  C   UNL A   1      32.649  22.715  26.220  1.00  0.00     0.333 C 
ATOM     12  H   UNL A   1      33.101  24.143  24.786  1.00  0.00     0.349 HD
BRANCH  10  13
ATOM     13  C   UNL A   1      31.130  24.018  24.816  1.00  0.00     0.189 C 
ATOM     14  C   UNL A   1      30.687  24.609  23.461  1.00  0.00     0.093 C 
ATOM     15  C   UNL A   1      30.961  25.196  25.822  1.00  0.00     0.100 C 
ATOM     16  C   UNL A   1      31.387  25.917  23.105  1.00  0.00     0.167 C 
ATOM     17  C   UNL A   1      31.760  26.447  25.430  1.00  0.00     0.074 C 
ATOM     18  O   UNL A   1      31.314  26.893  24.141  1.00  0.00    -0.375 OA
ATOM     19  C   UNL A   1      31.471  27.614  26.410  1.00  0.00     0.036 C 
ATOM     20  C   UNL A   1      33.292  26.264  25.495  1.00  0.00     0.036 C 
ATOM     21  C   UNL A   1      32.787  27.908  27.120  1.00  0.00     0.003 C 
ATOM     22  C   UNL A   1      33.833  27.558  26.082  1.00  0.00     0.003 C 
ENDBRANCH  10  13
ENDBRANCH   7  10
ENDBRANCH   4   7
ENDBRANCH   2   3
ENDBRANCH   1   2
BRANCH   1  23
ATOM     23  C   UNL A   1      37.379  21.048  25.134  1.00  0.00     0.023 C 
BRANCH  23  24
ATOM     24  C   UNL A   1      38.757  21.229  25.759  1.00  0.00     0.116 C 
BRANCH  24  25
ATOM     25  N   UNL A   1      39.602  20.045  25.669  1.00  0.00    -0.352 N 
ATOM     26  C   UNL A   1      40.926  19.913  26.017  1.00  0.00     0.251 C 
ATOM     27  H   UNL A   1      39.169  19.234  25.315  1.00  0.00     0.163 HD
ATOM     28  O   UNL A   1      41.533  18.868  25.817  1.00  0.00    -0.269 OA
BRANCH  26  29
ATOM     29  C   UNL A   1      41.614  21.082  26.593  1.00  0.00     0.039 A 
ATOM     30  C   UNL A   1      42.155  22.039  25.733  1.00  0.00     0.014 A 
ATOM     31  C   UNL A   1      41.613  21.277  27.976  1.00  0.00     0.014 A 
ATOM     32  C   UNL A   1      42.615  23.245  26.260  1.00  0.00     0.010 A 
ATOM     33  C   UNL A   1      41.995  22.510  28.489  1.00  0.00     0.010 A 
ATOM     34  C   UNL A   1      42.490  23.507  27.635  1.00  0.00    -0.014 A 
BRANCH  34  35
ATOM     35  C   UNL A   1      42.863  24.823  28.206  1.00  0.00     0.031 A 
ATOM     36  C   UNL A   1      41.806  25.869  28.418  1.00  0.00     0.074 A 
ATOM     37  C   UNL A   1      44.157  25.103  28.454  1.00  0.00     0.049 A 
ATOM     38  N   UNL A   1      41.938  27.110  28.808  1.00  0.00    -0.248 NA
ATOM     39  C   UNL A   1      40.421  25.475  28.116  1.00  0.00     0.031 C 
ATOM     40  C   UNL A   1      45.281  24.187  28.241  1.00  0.00     0.029 A 
ATOM     41  N   UNL A   1      44.748  26.247  28.927  1.00  0.00    -0.354 N 
ATOM     42  C   UNL A   1      40.659  27.648  28.782  1.00  0.00     0.074 A 
ATOM     43  C   UNL A   1      39.775  26.619  28.281  1.00  0.00     0.031 C 
ATOM     44  C   UNL A   1      46.420  24.797  28.609  1.00  0.00     0.029 A 
ATOM     45  C   UNL A   1      46.114  26.154  29.046  1.00  0.00     0.049 A 
ATOM     46  H   UNL A   1      44.242  27.058  29.161  1.00  0.00     0.167 HD
ATOM     47  C   UNL A   1      40.252  28.880  29.167  1.00  0.00     0.037 A 
ATOM     48  C   UNL A   1      47.016  27.065  29.456  1.00  0.00     0.037 A 
ATOM     49  C   UNL A   1      41.130  29.890  29.692  1.00  0.00     0.049 A 
ATOM     50  C   UNL A   1      46.541  28.430  29.872  1.00  0.00     0.074 A 
ATOM     51  C   UNL A   1      40.810  31.150  30.166  1.00  0.00     0.029 A 
ATOM     52  N   UNL A   1      42.505  29.753  29.813  1.00  0.00    -0.354 N 
ATOM     53  N   UNL A   1      45.320  28.906  29.902  1.00  0.00    -0.248 NA
ATOM     54  C   UNL A   1      47.569  29.383  30.311  1.00  0.00     0.031 C 
ATOM     55  C   UNL A   1      41.998  31.789  30.541  1.00  0.00     0.029 A 
ATOM     56  C   UNL A   1      43.051  30.912  30.338  1.00  0.00     0.049 A 
ATOM     57  H   UNL A   1      43.017  28.950  29.562  1.00  0.00     0.167 HD
ATOM     58  C   UNL A   1      45.428  30.202  30.388  1.00  0.00     0.074 A 
ATOM     59  C   UNL A   1      46.834  30.433  30.651  1.00  0.00     0.031 C 
ATOM     60  C   UNL A   1      44.452  31.118  30.600  1.00  0.00     0.037 A 
BRANCH  47  61
ATOM     61  C   UNL A   1      38.790  29.191  29.039  1.00  0.00     0.057 A 
ATOM     62  C   UNL A   1      37.923  29.115  30.138  1.00  0.00     0.134 A 
ATOM     63  C   UNL A   1      38.244  29.578  27.810  1.00  0.00     0.134 A 
ATOM     64  F   UNL A   1      38.381  28.734  31.340  1.00  0.00    -0.206 F 
ATOM     65  C   UNL A   1      36.559  29.383  30.011  1.00  0.00     0.040 A 
ATOM     66  C   UNL A   1      36.887  29.876  27.677  1.00  0.00     0.040 A 
ATOM     67  F   UNL A   1      39.019  29.673  26.719  1.00  0.00    -0.206 F 
ATOM     68  C   UNL A   1      36.039  29.770  28.778  1.00  0.00     0.006 A 
ENDBRANCH  47  61
BRANCH  48  69
ATOM     69  C   UNL A   1      48.455  26.710  29.525  1.00  0.00     0.057 A 
ATOM     70  C   UNL A   1      48.983  26.073  30.654  1.00  0.00     0.134 A 
ATOM     71  C   UNL A   1      49.337  27.003  28.478  1.00  0.00     0.134 A 
ATOM     72  F   UNL A   1      48.191  25.784  31.697  1.00  0.00    -0.206 F 
ATOM     73  C   UNL A   1      50.338  25.752  30.747  1.00  0.00     0.040 A 
ATOM     74  C   UNL A   1      50.690  26.668  28.548  1.00  0.00     0.040 A 
ATOM     75  F   UNL A   1      48.891  27.607  27.366  1.00  0.00    -0.206 F 
ATOM     76  C   UNL A   1      51.196  26.046  29.689  1.00  0.00     0.006 A 
ENDBRANCH  48  69
BRANCH  60  77
ATOM     77  C   UNL A   1      44.866  32.440  31.173  1.00  0.00     0.057 A 
ATOM     78  C   UNL A   1      44.955  32.650  32.554  1.00  0.00     0.134 A 
ATOM     79  C   UNL A   1      45.223  33.501  30.331  1.00  0.00     0.134 A 
ATOM     80  F   UNL A   1      44.614  31.677  33.413  1.00  0.00    -0.206 F 
ATOM     81  C   UNL A   1      45.369  33.875  33.079  1.00  0.00     0.040 A 
ATOM     82  C   UNL A   1      45.662  34.722  30.843  1.00  0.00     0.040 A 
ATOM     83  F   UNL A   1      45.166  33.361  28.997  1.00  0.00    -0.206 F 
ATOM     84  C   UNL A   1      45.731  34.912  32.221  1.00  0.00     0.006 A 
ENDBRANCH  60  77
ENDBRANCH  34  35
ENDBRANCH  26  29
ENDBRANCH  24  25
ENDBRANCH  23  24
ENDBRANCH   1  23
TORSDOF 13
ENDMDL
MODEL 3
REMARK VINA RESULT:     -11.2      2.151      7.118
REMARK SMILES C[N@H+]([C@@H]1CCOC2(CCCC2)C1)C(C)(C)C(=O)NCCCCNC(=O)c1ccc(-c2c3nc(c(-c4c(F)cccc4F)c4ccc([nH]4)c(-c4c(F)cccc4F)c4nc(c(-c5c(F)cccc5F)c5ccc2[nH]5)C=C4)C=C3)cc1
REMARK SMILES IDX 20 1 19 2 18 3 16 4 17 5 13 7 14 8 15 9 2 10 1 11 3 13 4 14
REMARK SMILES IDX 12 15 5 16 7 17 6 18 8 19 11 20 9 21 10 22 21 23 22 24 23 25
REMARK SMILES IDX 24 26 25 28 26 29 27 30 79 31 28 32 78 33 29 34 30 35 31 36
REMARK SMILES IDX 72 37 32 38 77 39 71 40 73 41 33 42 76 43 70 44 69 45 34 47
REMARK SMILES IDX 60 48 43 49 59 50 44 51 47 52 58 53 74 54 45 55 46 56 57 58
REMARK SMILES IDX 75 59 48 60 35 61 36 62 41 63 37 64 38 65 40 66 42 67 39 68
REMARK SMILES IDX 61 69 62 70 67 71 63 72 64 73 66 74 68 75 65 76 49 77 50 78
REMARK SMILES IDX 55 79 51 80 52 81 54 82 56 83 53 84
REMARK H PARENT 18 6 2 12 23 27 73 46 47 57
REMARK Flexibility Score: inf
ROOT
ATOM      1  C   UNL A   1      31.804  30.675  26.351  1.00  0.00     0.023 C 
ENDROOT
BRANCH   1   2
ATOM      2  C   UNL A   1      33.224  30.116  26.422  1.00  0.00     0.116 C 
BRANCH   2   3
ATOM      3  N   UNL A   1      33.712  29.680  25.129  1.00  0.00    -0.351 N 
ATOM      4  C   UNL A   1      33.696  28.463  24.502  1.00  0.00     0.280 C 
ATOM      5  O   UNL A   1      34.300  28.436  23.424  1.00  0.00    -0.268 OA
ATOM      6  H   UNL A   1      34.136  30.394  24.601  1.00  0.00     0.163 HD
BRANCH   4   7
ATOM      7  C   UNL A   1      33.022  27.189  25.141  1.00  0.00     0.171 C 
ATOM      8  C   UNL A   1      33.444  26.932  26.603  1.00  0.00     0.090 C 
ATOM      9  C   UNL A   1      33.542  25.977  24.316  1.00  0.00     0.090 C 
BRANCH   7  10
ATOM     10  N   UNL A   1      31.497  27.262  25.141  1.00  0.00    -0.323 N 
ATOM     11  C   UNL A   1      30.936  27.018  26.480  1.00  0.00     0.333 C 
ATOM     12  H   UNL A   1      31.363  28.231  24.852  1.00  0.00     0.349 HD
BRANCH  10  13
ATOM     13  C   UNL A   1      30.720  26.523  24.096  1.00  0.00     0.189 C 
ATOM     14  C   UNL A   1      31.344  26.352  22.695  1.00  0.00     0.093 C 
ATOM     15  C   UNL A   1      29.318  27.144  23.818  1.00  0.00     0.100 C 
ATOM     16  C   UNL A   1      31.313  27.623  21.851  1.00  0.00     0.167 C 
ATOM     17  C   UNL A   1      29.383  28.461  23.032  1.00  0.00     0.074 C 
ATOM     18  O   UNL A   1      30.019  28.213  21.770  1.00  0.00    -0.375 OA
ATOM     19  C   UNL A   1      27.958  28.974  22.700  1.00  0.00     0.036 C 
ATOM     20  C   UNL A   1      30.037  29.626  23.806  1.00  0.00     0.036 C 
ATOM     21  C   UNL A   1      27.796  30.293  23.445  1.00  0.00     0.003 C 
ATOM     22  C   UNL A   1      29.202  30.854  23.477  1.00  0.00     0.003 C 
ENDBRANCH  10  13
ENDBRANCH   7  10
ENDBRANCH   4   7
ENDBRANCH   2   3
ENDBRANCH   1   2
BRANCH   1  23
ATOM     23  C   UNL A   1      31.566  31.930  27.185  1.00  0.00     0.023 C 
BRANCH  23  24
ATOM     24  C   UNL A   1      32.773  32.847  27.336  1.00  0.00     0.116 C 
BRANCH  24  25
ATOM     25  N   UNL A   1      32.425  34.238  27.599  1.00  0.00    -0.352 N 
ATOM     26  C   UNL A   1      33.020  35.116  28.473  1.00  0.00     0.251 C 
ATOM     27  H   UNL A   1      31.667  34.595  27.082  1.00  0.00     0.163 HD
ATOM     28  O   UNL A   1      32.571  36.243  28.644  1.00  0.00    -0.269 OA
BRANCH  26  29
ATOM     29  C   UNL A   1      34.188  34.650  29.241  1.00  0.00     0.039 A 
ATOM     30  C   UNL A   1      33.983  34.062  30.491  1.00  0.00     0.014 A 
ATOM     31  C   UNL A   1      35.460  34.693  28.666  1.00  0.00     0.014 A 
ATOM     32  C   UNL A   1      35.050  33.428  31.128  1.00  0.00     0.010 A 
ATOM     33  C   UNL A   1      36.499  33.991  29.264  1.00  0.00     0.010 A 
ATOM     34  C   UNL A   1      36.300  33.345  30.494  1.00  0.00    -0.014 A 
BRANCH  34  35
ATOM     35  C   UNL A   1      37.419  32.579  31.092  1.00  0.00     0.031 A 
ATOM     36  C   UNL A   1      37.997  33.012  32.410  1.00  0.00     0.074 A 
ATOM     37  C   UNL A   1      37.966  31.552  30.414  1.00  0.00     0.049 A 
ATOM     38  N   UNL A   1      39.035  32.543  33.050  1.00  0.00    -0.248 NA
ATOM     39  C   UNL A   1      37.338  34.146  33.076  1.00  0.00     0.031 C 
ATOM     40  C   UNL A   1      37.526  31.069  29.102  1.00  0.00     0.029 A 
ATOM     41  N   UNL A   1      39.023  30.736  30.729  1.00  0.00    -0.354 N 
ATOM     42  C   UNL A   1      39.164  33.334  34.184  1.00  0.00     0.074 A 
ATOM     43  C   UNL A   1      38.136  34.349  34.113  1.00  0.00     0.031 C 
ATOM     44  C   UNL A   1      38.289  30.024  28.741  1.00  0.00     0.029 A 
ATOM     45  C   UNL A   1      39.293  29.788  29.772  1.00  0.00     0.049 A 
ATOM     46  H   UNL A   1      39.538  30.819  31.563  1.00  0.00     0.167 HD
ATOM     47  C   UNL A   1      40.042  33.210  35.207  1.00  0.00     0.037 A 
ATOM     48  C   UNL A   1      40.248  28.840  29.730  1.00  0.00     0.037 A 
ATOM     49  C   UNL A   1      41.043  32.181  35.287  1.00  0.00     0.049 A 
ATOM     50  C   UNL A   1      41.216  28.726  30.875  1.00  0.00     0.074 A 
ATOM     51  C   UNL A   1      41.944  31.932  36.308  1.00  0.00     0.029 A 
ATOM     52  N   UNL A   1      41.276  31.229  34.306  1.00  0.00    -0.354 N 
ATOM     53  N   UNL A   1      41.288  29.441  31.970  1.00  0.00    -0.248 NA
ATOM     54  C   UNL A   1      42.236  27.673  30.776  1.00  0.00     0.031 C 
ATOM     55  C   UNL A   1      42.745  30.850  35.927  1.00  0.00     0.029 A 
ATOM     56  C   UNL A   1      42.316  30.401  34.688  1.00  0.00     0.049 A 
ATOM     57  H   UNL A   1      40.774  31.154  33.461  1.00  0.00     0.167 HD
ATOM     58  C   UNL A   1      42.340  28.910  32.705  1.00  0.00     0.074 A 
ATOM     59  C   UNL A   1      42.870  27.804  31.934  1.00  0.00     0.031 C 
ATOM     60  C   UNL A   1      42.823  29.300  33.909  1.00  0.00     0.037 A 
BRANCH  47  61
ATOM     61  C   UNL A   1      39.944  34.211  36.320  1.00  0.00     0.057 A 
ATOM     62  C   UNL A   1      39.150  33.977  37.452  1.00  0.00     0.134 A 
ATOM     63  C   UNL A   1      40.656  35.414  36.267  1.00  0.00     0.134 A 
ATOM     64  F   UNL A   1      38.430  32.850  37.555  1.00  0.00    -0.206 F 
ATOM     65  C   UNL A   1      39.043  34.919  38.475  1.00  0.00     0.040 A 
ATOM     66  C   UNL A   1      40.579  36.352  37.298  1.00  0.00     0.040 A 
ATOM     67  F   UNL A   1      41.436  35.699  35.214  1.00  0.00    -0.206 F 
ATOM     68  C   UNL A   1      39.764  36.109  38.402  1.00  0.00     0.006 A 
ENDBRANCH  47  61
BRANCH  48  69
ATOM     69  C   UNL A   1      40.317  27.902  28.582  1.00  0.00     0.057 A 
ATOM     70  C   UNL A   1      39.657  26.668  28.623  1.00  0.00     0.134 A 
ATOM     71  C   UNL A   1      41.046  28.206  27.427  1.00  0.00     0.134 A 
ATOM     72  F   UNL A   1      38.959  26.314  29.712  1.00  0.00    -0.206 F 
ATOM     73  C   UNL A   1      39.730  25.764  27.563  1.00  0.00     0.040 A 
ATOM     74  C   UNL A   1      41.109  27.320  26.350  1.00  0.00     0.040 A 
ATOM     75  F   UNL A   1      41.695  29.375  27.323  1.00  0.00    -0.206 F 
ATOM     76  C   UNL A   1      40.455  26.091  26.419  1.00  0.00     0.006 A 
ENDBRANCH  48  69
BRANCH  60  77
ATOM     77  C   UNL A   1      43.958  28.506  34.482  1.00  0.00     0.057 A 
ATOM     78  C   UNL A   1      45.292  28.893  34.305  1.00  0.00     0.134 A 
ATOM     79  C   UNL A   1      43.710  27.367  35.259  1.00  0.00     0.134 A 
ATOM     80  F   UNL A   1      45.595  29.967  33.560  1.00  0.00    -0.206 F 
ATOM     81  C   UNL A   1      46.341  28.164  34.867  1.00  0.00     0.040 A 
ATOM     82  C   UNL A   1      44.749  26.645  35.846  1.00  0.00     0.040 A 
ATOM     83  F   UNL A   1      42.453  26.948  35.472  1.00  0.00    -0.206 F 
ATOM     84  C   UNL A   1      46.070  27.041  35.646  1.00  0.00     0.006 A 
ENDBRANCH  60  77
ENDBRANCH  34  35
ENDBRANCH  26  29
ENDBRANCH  24  25
ENDBRANCH  23  24
ENDBRANCH   1  23
TORSDOF 13
ENDMDL
