MODEL 1
REMARK VINA RESULT:     -10.3      0.000      0.000
REMARK SMILES COC(=O)C[C@H](NC(=O)N(C)C[C@@H]1CCC[N@H+]1C)C(=O)NCCCCNC(=O)c1ccc(-c2c3nc(c(-c4c(F)cccc4F)c4ccc([nH]4)c(-c4c(F)cccc4F)c4nc(c(-c5c(F)cccc5F)c5ccc2[nH]5)C=C4)C=C3)cc1
REMARK SMILES IDX 22 1 21 2 19 3 20 4 6 6 5 7 3 8 4 9 2 10 1 11 7 12 8 13 9 15
REMARK SMILES IDX 10 16 11 17 12 18 13 19 14 20 17 21 15 22 16 23 18 24 23 26
REMARK SMILES IDX 24 27 25 28 26 29 27 30 28 32 29 33 30 34 82 35 31 36 81 37
REMARK SMILES IDX 32 38 33 39 34 40 75 41 35 42 80 43 74 44 76 45 36 46 79 47
REMARK SMILES IDX 73 48 72 49 37 51 63 52 46 53 62 54 47 55 50 56 61 57 77 58
REMARK SMILES IDX 48 59 49 60 60 62 78 63 51 64 38 65 39 66 44 67 40 68 41 69
REMARK SMILES IDX 43 70 45 71 42 72 64 73 65 74 70 75 66 76 67 77 69 78 71 79
REMARK SMILES IDX 68 80 52 81 53 82 58 83 54 84 55 85 57 86 59 87 56 88
REMARK H PARENT 21 5 7 14 17 25 26 31 76 50 50 61
REMARK Flexibility Score: inf
ROOT
ATOM      1  C   UNL A   1      31.721  29.668  27.079  1.00  0.00     0.116 C 
ENDROOT
BRANCH   1   2
ATOM      2  N   UNL A   1      33.101  29.299  27.318  1.00  0.00    -0.354 N 
ATOM      3  C   UNL A   1      33.931  28.539  26.553  1.00  0.00     0.243 C 
ATOM      4  O   UNL A   1      35.146  28.657  26.742  1.00  0.00    -0.273 OA
ATOM      5  H   UNL A   1      33.493  29.646  28.152  1.00  0.00     0.163 HD
BRANCH   3   6
ATOM      6  C   UNL A   1      33.406  27.659  25.404  1.00  0.00     0.184 C 
BRANCH   6   7
ATOM      7  C   UNL A   1      33.549  26.175  25.812  1.00  0.00     0.157 C 
BRANCH   7   8
ATOM      8  C   UNL A   1      32.355  25.518  26.447  1.00  0.00     0.308 C 
ATOM      9  O   UNL A   1      31.356  26.123  26.824  1.00  0.00    -0.252 OA
BRANCH   8  10
ATOM     10  O   UNL A   1      32.540  24.176  26.550  1.00  0.00    -0.469 OA
ATOM     11  C   UNL A   1      31.366  23.434  26.893  1.00  0.00     0.282 C 
ENDBRANCH   8  10
ENDBRANCH   7   8
ENDBRANCH   6   7
BRANCH   6  12
ATOM     12  N   UNL A   1      33.957  28.040  24.102  1.00  0.00    -0.326 N 
ATOM     13  C   UNL A   1      33.575  27.958  22.815  1.00  0.00     0.318 C 
ATOM     14  H   UNL A   1      34.840  28.467  24.193  1.00  0.00     0.166 HD
ATOM     15  O   UNL A   1      34.429  28.361  22.014  1.00  0.00    -0.249 OA
BRANCH  13  16
ATOM     16  N   UNL A   1      32.344  27.539  22.392  1.00  0.00    -0.322 N 
ATOM     17  C   UNL A   1      31.056  28.175  22.615  1.00  0.00     0.149 C 
BRANCH  16  18
ATOM     18  C   UNL A   1      32.275  26.234  21.698  1.00  0.00     0.185 C 
BRANCH  18  19
ATOM     19  C   UNL A   1      32.366  24.933  22.550  1.00  0.00     0.203 C 
ATOM     20  C   UNL A   1      33.354  23.895  22.026  1.00  0.00     0.073 C 
ATOM     21  N   UNL A   1      31.139  24.123  22.738  1.00  0.00    -0.333 N 
ATOM     22  C   UNL A   1      32.905  22.566  22.615  1.00  0.00     0.068 C 
ATOM     23  C   UNL A   1      31.616  22.873  23.352  1.00  0.00     0.262 C 
ATOM     24  C   UNL A   1      30.163  24.763  23.617  1.00  0.00     0.333 C 
ATOM     25  H   UNL A   1      30.657  23.990  21.849  1.00  0.00     0.348 HD
ENDBRANCH  18  19
ENDBRANCH  16  18
ENDBRANCH  13  16
ENDBRANCH   6  12
ENDBRANCH   3   6
ENDBRANCH   1   2
BRANCH   1  26
ATOM     26  C   UNL A   1      31.535  30.766  26.043  1.00  0.00     0.023 C 
BRANCH  26  27
ATOM     27  C   UNL A   1      31.351  32.170  26.603  1.00  0.00     0.023 C 
BRANCH  27  28
ATOM     28  C   UNL A   1      32.598  32.760  27.235  1.00  0.00     0.116 C 
BRANCH  28  29
ATOM     29  N   UNL A   1      32.408  34.152  27.615  1.00  0.00    -0.352 N 
ATOM     30  C   UNL A   1      33.030  34.880  28.596  1.00  0.00     0.251 C 
ATOM     31  H   UNL A   1      31.734  34.642  27.090  1.00  0.00     0.163 HD
ATOM     32  O   UNL A   1      32.581  35.975  28.929  1.00  0.00    -0.269 OA
BRANCH  30  33
ATOM     33  C   UNL A   1      34.232  34.340  29.263  1.00  0.00     0.039 A 
ATOM     34  C   UNL A   1      34.083  33.598  30.436  1.00  0.00     0.014 A 
ATOM     35  C   UNL A   1      35.505  34.571  28.735  1.00  0.00     0.014 A 
ATOM     36  C   UNL A   1      35.208  33.046  31.050  1.00  0.00     0.010 A 
ATOM     37  C   UNL A   1      36.609  33.934  29.285  1.00  0.00     0.010 A 
ATOM     38  C   UNL A   1      36.476  33.182  30.462  1.00  0.00    -0.014 A 
BRANCH  38  39
ATOM     39  C   UNL A   1      37.682  32.576  31.078  1.00  0.00     0.031 A 
ATOM     40  C   UNL A   1      38.315  31.361  30.455  1.00  0.00     0.074 A 
ATOM     41  C   UNL A   1      38.173  33.085  32.224  1.00  0.00     0.049 A 
ATOM     42  N   UNL A   1      39.338  30.659  30.867  1.00  0.00    -0.248 NA
ATOM     43  C   UNL A   1      37.694  30.849  29.222  1.00  0.00     0.031 C 
ATOM     44  C   UNL A   1      37.617  34.228  32.952  1.00  0.00     0.029 A 
ATOM     45  N   UNL A   1      39.251  32.704  32.981  1.00  0.00    -0.354 N 
ATOM     46  C   UNL A   1      39.474  29.619  29.955  1.00  0.00     0.074 A 
ATOM     47  C   UNL A   1      38.387  29.741  29.008  1.00  0.00     0.031 C 
ATOM     48  C   UNL A   1      38.377  34.476  34.030  1.00  0.00     0.029 A 
ATOM     49  C   UNL A   1      39.449  33.487  34.092  1.00  0.00     0.049 A 
ATOM     50  H   UNL A   1      39.829  31.941  32.748  1.00  0.00     0.167 HD
ATOM     51  C   UNL A   1      40.432  28.664  29.893  1.00  0.00     0.037 A 
ATOM     52  C   UNL A   1      40.388  33.411  35.053  1.00  0.00     0.037 A 
ATOM     53  C   UNL A   1      41.524  28.562  30.825  1.00  0.00     0.049 A 
ATOM     54  C   UNL A   1      41.437  32.337  34.968  1.00  0.00     0.074 A 
ATOM     55  C   UNL A   1      42.580  27.668  30.820  1.00  0.00     0.029 A 
ATOM     56  N   UNL A   1      41.696  29.381  31.931  1.00  0.00    -0.354 N 
ATOM     57  N   UNL A   1      41.595  31.405  34.060  1.00  0.00    -0.248 NA
ATOM     58  C   UNL A   1      42.443  32.310  36.038  1.00  0.00     0.031 C 
ATOM     59  C   UNL A   1      43.364  27.914  31.952  1.00  0.00     0.029 A 
ATOM     60  C   UNL A   1      42.829  28.998  32.629  1.00  0.00     0.049 A 
ATOM     61  H   UNL A   1      41.101  30.124  32.182  1.00  0.00     0.167 HD
ATOM     62  C   UNL A   1      42.736  30.702  34.430  1.00  0.00     0.074 A 
ATOM     63  C   UNL A   1      43.236  31.328  35.637  1.00  0.00     0.031 C 
ATOM     64  C   UNL A   1      43.316  29.637  33.826  1.00  0.00     0.037 A 
BRANCH  51  65
ATOM     65  C   UNL A   1      40.340  27.661  28.779  1.00  0.00     0.057 A 
ATOM     66  C   UNL A   1      39.561  26.500  28.890  1.00  0.00     0.134 A 
ATOM     67  C   UNL A   1      41.019  27.867  27.573  1.00  0.00     0.134 A 
ATOM     68  F   UNL A   1      38.894  26.233  30.023  1.00  0.00    -0.206 F 
ATOM     69  C   UNL A   1      39.488  25.566  27.854  1.00  0.00     0.040 A 
ATOM     70  C   UNL A   1      40.929  26.957  26.518  1.00  0.00     0.040 A 
ATOM     71  F   UNL A   1      41.779  28.959  27.395  1.00  0.00    -0.206 F 
ATOM     72  C   UNL A   1      40.168  25.798  26.660  1.00  0.00     0.006 A 
ENDBRANCH  51  65
BRANCH  52  73
ATOM     73  C   UNL A   1      40.400  34.399  36.163  1.00  0.00     0.057 A 
ATOM     74  C   UNL A   1      39.674  34.172  37.339  1.00  0.00     0.134 A 
ATOM     75  C   UNL A   1      41.123  35.595  36.074  1.00  0.00     0.134 A 
ATOM     76  F   UNL A   1      38.949  33.053  37.479  1.00  0.00    -0.206 F 
ATOM     77  C   UNL A   1      39.647  35.107  38.374  1.00  0.00     0.040 A 
ATOM     78  C   UNL A   1      41.127  36.526  37.113  1.00  0.00     0.040 A 
ATOM     79  F   UNL A   1      41.846  35.869  34.978  1.00  0.00    -0.206 F 
ATOM     80  C   UNL A   1      40.379  36.288  38.265  1.00  0.00     0.006 A 
ENDBRANCH  52  73
BRANCH  64  81
ATOM     81  C   UNL A   1      44.583  29.109  34.436  1.00  0.00     0.057 A 
ATOM     82  C   UNL A   1      44.576  28.086  35.393  1.00  0.00     0.134 A 
ATOM     83  C   UNL A   1      45.827  29.611  34.036  1.00  0.00     0.134 A 
ATOM     84  F   UNL A   1      43.417  27.569  35.828  1.00  0.00    -0.206 F 
ATOM     85  C   UNL A   1      45.761  27.602  35.951  1.00  0.00     0.040 A 
ATOM     86  C   UNL A   1      47.020  29.114  34.563  1.00  0.00     0.040 A 
ATOM     87  F   UNL A   1      45.906  30.584  33.115  1.00  0.00    -0.206 F 
ATOM     88  C   UNL A   1      46.988  28.112  35.530  1.00  0.00     0.006 A 
ENDBRANCH  64  81
ENDBRANCH  38  39
ENDBRANCH  30  33
ENDBRANCH  28  29
ENDBRANCH  27  28
ENDBRANCH  26  27
ENDBRANCH   1  26
TORSDOF 18
ENDMDL
MODEL 2
REMARK VINA RESULT:     -10.3      1.254      2.233
REMARK SMILES COC(=O)C[C@H](NC(=O)N(C)C[C@@H]1CCC[N@H+]1C)C(=O)NCCCCNC(=O)c1ccc(-c2c3nc(c(-c4c(F)cccc4F)c4ccc([nH]4)c(-c4c(F)cccc4F)c4nc(c(-c5c(F)cccc5F)c5ccc2[nH]5)C=C4)C=C3)cc1
REMARK SMILES IDX 22 1 21 2 19 3 20 4 6 6 5 7 3 8 4 9 2 10 1 11 7 12 8 13 9 15
REMARK SMILES IDX 10 16 11 17 12 18 13 19 14 20 17 21 15 22 16 23 18 24 23 26
REMARK SMILES IDX 24 27 25 28 26 29 27 30 28 32 29 33 30 34 82 35 31 36 81 37
REMARK SMILES IDX 32 38 33 39 34 40 75 41 35 42 80 43 74 44 76 45 36 46 79 47
REMARK SMILES IDX 73 48 72 49 37 51 63 52 46 53 62 54 47 55 50 56 61 57 77 58
REMARK SMILES IDX 48 59 49 60 60 62 78 63 51 64 38 65 39 66 44 67 40 68 41 69
REMARK SMILES IDX 43 70 45 71 42 72 64 73 65 74 70 75 66 76 67 77 69 78 71 79
REMARK SMILES IDX 68 80 52 81 53 82 58 83 54 84 55 85 57 86 59 87 56 88
REMARK H PARENT 21 5 7 14 17 25 26 31 76 50 50 61
REMARK Flexibility Score: inf
ROOT
ATOM      1  C   UNL A   1      32.892  30.052  25.958  1.00  0.00     0.116 C 
ENDROOT
BRANCH   1   2
ATOM      2  N   UNL A   1      33.376  29.593  24.673  1.00  0.00    -0.354 N 
ATOM      3  C   UNL A   1      33.638  28.323  24.259  1.00  0.00     0.243 C 
ATOM      4  O   UNL A   1      33.677  28.119  23.040  1.00  0.00    -0.273 OA
ATOM      5  H   UNL A   1      33.539  30.298  24.005  1.00  0.00     0.163 HD
BRANCH   3   6
ATOM      6  C   UNL A   1      33.754  27.149  25.247  1.00  0.00     0.184 C 
BRANCH   6   7
ATOM      7  C   UNL A   1      34.177  25.884  24.465  1.00  0.00     0.157 C 
BRANCH   7   8
ATOM      8  C   UNL A   1      34.646  24.704  25.270  1.00  0.00     0.308 C 
ATOM      9  O   UNL A   1      34.088  24.298  26.285  1.00  0.00    -0.252 OA
BRANCH   8  10
ATOM     10  O   UNL A   1      35.765  24.161  24.724  1.00  0.00    -0.469 OA
ATOM     11  C   UNL A   1      35.522  23.126  23.767  1.00  0.00     0.282 C 
ENDBRANCH   8  10
ENDBRANCH   7   8
ENDBRANCH   6   7
BRANCH   6  12
ATOM     12  N   UNL A   1      32.582  27.024  26.117  1.00  0.00    -0.326 N 
ATOM     13  C   UNL A   1      31.254  26.885  25.956  1.00  0.00     0.318 C 
ATOM     14  H   UNL A   1      32.833  27.048  27.068  1.00  0.00     0.166 HD
ATOM     15  O   UNL A   1      30.620  26.891  27.019  1.00  0.00    -0.249 OA
BRANCH  13  16
ATOM     16  N   UNL A   1      30.630  26.685  24.756  1.00  0.00    -0.322 N 
ATOM     17  C   UNL A   1      30.318  27.671  23.733  1.00  0.00     0.149 C 
BRANCH  16  18
ATOM     18  C   UNL A   1      30.120  25.325  24.476  1.00  0.00     0.185 C 
BRANCH  18  19
ATOM     19  C   UNL A   1      31.095  24.119  24.628  1.00  0.00     0.203 C 
ATOM     20  C   UNL A   1      31.545  23.494  23.312  1.00  0.00     0.073 C 
ATOM     21  N   UNL A   1      30.641  22.934  25.394  1.00  0.00    -0.333 N 
ATOM     22  C   UNL A   1      31.990  22.081  23.660  1.00  0.00     0.068 C 
ATOM     23  C   UNL A   1      31.668  21.913  25.132  1.00  0.00     0.262 C 
ATOM     24  C   UNL A   1      30.548  23.184  26.830  1.00  0.00     0.333 C 
ATOM     25  H   UNL A   1      29.701  22.659  25.106  1.00  0.00     0.348 HD
ENDBRANCH  18  19
ENDBRANCH  16  18
ENDBRANCH  13  16
ENDBRANCH   6  12
ENDBRANCH   3   6
ENDBRANCH   1   2
BRANCH   1  26
ATOM     26  C   UNL A   1      31.512  30.688  25.919  1.00  0.00     0.023 C 
BRANCH  26  27
ATOM     27  C   UNL A   1      31.379  32.011  26.662  1.00  0.00     0.023 C 
BRANCH  27  28
ATOM     28  C   UNL A   1      32.698  32.611  27.111  1.00  0.00     0.116 C 
BRANCH  28  29
ATOM     29  N   UNL A   1      32.549  33.996  27.533  1.00  0.00    -0.352 N 
ATOM     30  C   UNL A   1      33.158  34.663  28.565  1.00  0.00     0.251 C 
ATOM     31  H   UNL A   1      31.918  34.532  26.999  1.00  0.00     0.163 HD
ATOM     32  O   UNL A   1      32.740  35.763  28.919  1.00  0.00    -0.269 OA
BRANCH  30  33
ATOM     33  C   UNL A   1      34.307  34.049  29.260  1.00  0.00     0.039 A 
ATOM     34  C   UNL A   1      34.073  33.078  30.234  1.00  0.00     0.014 A 
ATOM     35  C   UNL A   1      35.615  34.438  28.956  1.00  0.00     0.014 A 
ATOM     36  C   UNL A   1      35.154  32.460  30.866  1.00  0.00     0.010 A 
ATOM     37  C   UNL A   1      36.687  33.749  29.506  1.00  0.00     0.010 A 
ATOM     38  C   UNL A   1      36.470  32.767  30.483  1.00  0.00    -0.014 A 
BRANCH  38  39
ATOM     39  C   UNL A   1      37.633  32.100  31.117  1.00  0.00     0.031 A 
ATOM     40  C   UNL A   1      38.372  31.016  30.379  1.00  0.00     0.074 A 
ATOM     41  C   UNL A   1      37.991  32.432  32.372  1.00  0.00     0.049 A 
ATOM     42  N   UNL A   1      39.378  30.283  30.778  1.00  0.00    -0.248 NA
ATOM     43  C   UNL A   1      37.894  30.692  29.025  1.00  0.00     0.031 C 
ATOM     44  C   UNL A   1      37.321  33.429  33.210  1.00  0.00     0.029 A 
ATOM     45  N   UNL A   1      39.005  31.961  33.166  1.00  0.00    -0.354 N 
ATOM     46  C   UNL A   1      39.643  29.405  29.734  1.00  0.00     0.074 A 
ATOM     47  C   UNL A   1      38.649  29.651  28.711  1.00  0.00     0.031 C 
ATOM     48  C   UNL A   1      37.963  33.520  34.385  1.00  0.00     0.029 A 
ATOM     49  C   UNL A   1      39.062  32.560  34.401  1.00  0.00     0.049 A 
ATOM     50  H   UNL A   1      39.633  31.259  32.877  1.00  0.00     0.167 HD
ATOM     51  C   UNL A   1      40.640  28.496  29.621  1.00  0.00     0.037 A 
ATOM     52  C   UNL A   1      39.906  32.355  35.429  1.00  0.00     0.037 A 
ATOM     53  C   UNL A   1      41.640  28.272  30.632  1.00  0.00     0.049 A 
ATOM     54  C   UNL A   1      41.001  31.334  35.284  1.00  0.00     0.074 A 
ATOM     55  C   UNL A   1      42.727  27.417  30.595  1.00  0.00     0.029 A 
ATOM     56  N   UNL A   1      41.671  28.908  31.864  1.00  0.00    -0.354 N 
ATOM     57  N   UNL A   1      41.284  30.563  34.262  1.00  0.00    -0.248 NA
ATOM     58  C   UNL A   1      41.899  31.161  36.433  1.00  0.00     0.031 C 
ATOM     59  C   UNL A   1      43.387  27.498  31.825  1.00  0.00     0.029 A 
ATOM     60  C   UNL A   1      42.746  28.446  32.606  1.00  0.00     0.049 A 
ATOM     61  H   UNL A   1      41.026  29.587  32.166  1.00  0.00     0.167 HD
ATOM     62  C   UNL A   1      42.410  29.838  34.632  1.00  0.00     0.074 A 
ATOM     63  C   UNL A   1      42.765  30.275  35.966  1.00  0.00     0.031 C 
ATOM     64  C   UNL A   1      43.089  28.898  33.931  1.00  0.00     0.037 A 
BRANCH  51  65
ATOM     65  C   UNL A   1      40.697  27.682  28.360  1.00  0.00     0.057 A 
ATOM     66  C   UNL A   1      41.433  28.098  27.242  1.00  0.00     0.134 A 
ATOM     67  C   UNL A   1      40.026  26.457  28.269  1.00  0.00     0.134 A 
ATOM     68  F   UNL A   1      42.089  29.268  27.256  1.00  0.00    -0.206 F 
ATOM     69  C   UNL A   1      41.474  27.341  26.069  1.00  0.00     0.040 A 
ATOM     70  C   UNL A   1      40.085  25.674  27.113  1.00  0.00     0.040 A 
ATOM     71  F   UNL A   1      39.307  25.993  29.303  1.00  0.00    -0.206 F 
ATOM     72  C   UNL A   1      40.804  26.121  26.006  1.00  0.00     0.006 A 
ENDBRANCH  51  65
BRANCH  52  73
ATOM     73  C   UNL A   1      39.771  33.153  36.675  1.00  0.00     0.057 A 
ATOM     74  C   UNL A   1      38.880  32.768  37.685  1.00  0.00     0.134 A 
ATOM     75  C   UNL A   1      40.515  34.320  36.884  1.00  0.00     0.134 A 
ATOM     76  F   UNL A   1      38.128  31.668  37.537  1.00  0.00    -0.206 F 
ATOM     77  C   UNL A   1      38.716  33.527  38.844  1.00  0.00     0.040 A 
ATOM     78  C   UNL A   1      40.382  35.074  38.050  1.00  0.00     0.040 A 
ATOM     79  F   UNL A   1      41.392  34.739  35.959  1.00  0.00    -0.206 F 
ATOM     80  C   UNL A   1      39.472  34.683  39.032  1.00  0.00     0.006 A 
ENDBRANCH  52  73
BRANCH  64  81
ATOM     81  C   UNL A   1      44.310  28.310  34.577  1.00  0.00     0.057 A 
ATOM     82  C   UNL A   1      45.574  28.900  34.452  1.00  0.00     0.134 A 
ATOM     83  C   UNL A   1      44.213  27.153  35.360  1.00  0.00     0.134 A 
ATOM     84  F   UNL A   1      45.738  30.004  33.706  1.00  0.00    -0.206 F 
ATOM     85  C   UNL A   1      46.702  28.345  35.059  1.00  0.00     0.040 A 
ATOM     86  C   UNL A   1      45.327  26.605  35.997  1.00  0.00     0.040 A 
ATOM     87  F   UNL A   1      43.030  26.542  35.530  1.00  0.00    -0.206 F 
ATOM     88  C   UNL A   1      46.578  27.198  35.840  1.00  0.00     0.006 A 
ENDBRANCH  64  81
ENDBRANCH  38  39
ENDBRANCH  30  33
ENDBRANCH  28  29
ENDBRANCH  27  28
ENDBRANCH  26  27
ENDBRANCH   1  26
TORSDOF 18
ENDMDL
MODEL 3
REMARK VINA RESULT:     -10.3      1.443      2.426
REMARK SMILES COC(=O)C[C@H](NC(=O)N(C)C[C@@H]1CCC[N@H+]1C)C(=O)NCCCCNC(=O)c1ccc(-c2c3nc(c(-c4c(F)cccc4F)c4ccc([nH]4)c(-c4c(F)cccc4F)c4nc(c(-c5c(F)cccc5F)c5ccc2[nH]5)C=C4)C=C3)cc1
REMARK SMILES IDX 22 1 21 2 19 3 20 4 6 6 5 7 3 8 4 9 2 10 1 11 7 12 8 13 9 15
REMARK SMILES IDX 10 16 11 17 12 18 13 19 14 20 17 21 15 22 16 23 18 24 23 26
REMARK SMILES IDX 24 27 25 28 26 29 27 30 28 32 29 33 30 34 82 35 31 36 81 37
REMARK SMILES IDX 32 38 33 39 34 40 75 41 35 42 80 43 74 44 76 45 36 46 79 47
REMARK SMILES IDX 73 48 72 49 37 51 63 52 46 53 62 54 47 55 50 56 61 57 77 58
REMARK SMILES IDX 48 59 49 60 60 62 78 63 51 64 38 65 39 66 44 67 40 68 41 69
REMARK SMILES IDX 43 70 45 71 42 72 64 73 65 74 70 75 66 76 67 77 69 78 71 79
REMARK SMILES IDX 68 80 52 81 53 82 58 83 54 84 55 85 57 86 59 87 56 88
REMARK H PARENT 21 5 7 14 17 25 26 31 76 50 50 61
REMARK Flexibility Score: inf
ROOT
ATOM      1  C   UNL A   1      32.360  29.805  25.582  1.00  0.00     0.116 C 
ENDROOT
BRANCH   1   2
ATOM      2  N   UNL A   1      31.725  29.676  24.288  1.00  0.00    -0.354 N 
ATOM      3  C   UNL A   1      31.378  28.547  23.611  1.00  0.00     0.243 C 
ATOM      4  O   UNL A   1      30.527  28.656  22.721  1.00  0.00    -0.273 OA
ATOM      5  H   UNL A   1      31.514  30.524  23.833  1.00  0.00     0.163 HD
BRANCH   3   6
ATOM      6  C   UNL A   1      31.914  27.160  24.007  1.00  0.00     0.184 C 
BRANCH   6   7
ATOM      7  C   UNL A   1      33.421  27.096  23.666  1.00  0.00     0.157 C 
BRANCH   7   8
ATOM      8  C   UNL A   1      33.799  27.141  22.211  1.00  0.00     0.308 C 
ATOM      9  O   UNL A   1      34.126  28.163  21.617  1.00  0.00    -0.252 OA
BRANCH   8  10
ATOM     10  O   UNL A   1      33.722  25.904  21.654  1.00  0.00    -0.469 OA
ATOM     11  C   UNL A   1      32.697  25.754  20.668  1.00  0.00     0.282 C 
ENDBRANCH   8  10
ENDBRANCH   7   8
ENDBRANCH   6   7
BRANCH   6  12
ATOM     12  N   UNL A   1      31.080  26.066  23.505  1.00  0.00    -0.326 N 
ATOM     13  C   UNL A   1      30.682  24.858  23.943  1.00  0.00     0.318 C 
ATOM     14  H   UNL A   1      30.714  26.268  22.613  1.00  0.00     0.166 HD
ATOM     15  O   UNL A   1      30.011  24.225  23.118  1.00  0.00    -0.249 OA
BRANCH  13  16
ATOM     16  N   UNL A   1      30.918  24.366  25.197  1.00  0.00    -0.322 N 
ATOM     17  C   UNL A   1      30.601  24.982  26.475  1.00  0.00     0.149 C 
BRANCH  16  18
ATOM     18  C   UNL A   1      31.668  23.095  25.295  1.00  0.00     0.185 C 
BRANCH  18  19
ATOM     19  C   UNL A   1      33.204  23.115  25.035  1.00  0.00     0.203 C 
ATOM     20  C   UNL A   1      34.001  23.995  25.992  1.00  0.00     0.073 C 
ATOM     21  N   UNL A   1      33.692  23.577  23.714  1.00  0.00    -0.333 N 
ATOM     22  C   UNL A   1      35.300  24.317  25.269  1.00  0.00     0.068 C 
ATOM     23  C   UNL A   1      35.147  23.713  23.888  1.00  0.00     0.262 C 
ATOM     24  C   UNL A   1      33.410  22.629  22.639  1.00  0.00     0.333 C 
ATOM     25  H   UNL A   1      33.226  24.442  23.441  1.00  0.00     0.348 HD
ENDBRANCH  18  19
ENDBRANCH  16  18
ENDBRANCH  13  16
ENDBRANCH   6  12
ENDBRANCH   3   6
ENDBRANCH   1   2
BRANCH   1  26
ATOM     26  C   UNL A   1      31.474  30.409  26.660  1.00  0.00     0.023 C 
BRANCH  26  27
ATOM     27  C   UNL A   1      31.417  31.930  26.685  1.00  0.00     0.023 C 
BRANCH  27  28
ATOM     28  C   UNL A   1      32.743  32.601  26.995  1.00  0.00     0.116 C 
BRANCH  28  29
ATOM     29  N   UNL A   1      32.564  33.972  27.449  1.00  0.00    -0.352 N 
ATOM     30  C   UNL A   1      33.145  34.622  28.507  1.00  0.00     0.251 C 
ATOM     31  H   UNL A   1      31.935  34.512  26.918  1.00  0.00     0.163 HD
ATOM     32  O   UNL A   1      32.705  35.706  28.882  1.00  0.00    -0.269 OA
BRANCH  30  33
ATOM     33  C   UNL A   1      34.292  34.009  29.207  1.00  0.00     0.039 A 
ATOM     34  C   UNL A   1      34.058  32.994  30.136  1.00  0.00     0.014 A 
ATOM     35  C   UNL A   1      35.597  34.440  28.952  1.00  0.00     0.014 A 
ATOM     36  C   UNL A   1      35.138  32.377  30.770  1.00  0.00     0.010 A 
ATOM     37  C   UNL A   1      36.672  33.755  29.501  1.00  0.00     0.010 A 
ATOM     38  C   UNL A   1      36.455  32.731  30.434  1.00  0.00    -0.014 A 
BRANCH  38  39
ATOM     39  C   UNL A   1      37.619  32.067  31.070  1.00  0.00     0.031 A 
ATOM     40  C   UNL A   1      38.356  30.978  30.338  1.00  0.00     0.074 A 
ATOM     41  C   UNL A   1      37.978  32.405  32.323  1.00  0.00     0.049 A 
ATOM     42  N   UNL A   1      39.362  30.246  30.740  1.00  0.00    -0.248 NA
ATOM     43  C   UNL A   1      37.877  30.646  28.986  1.00  0.00     0.031 C 
ATOM     44  C   UNL A   1      37.309  33.408  33.155  1.00  0.00     0.029 A 
ATOM     45  N   UNL A   1      38.992  31.939  33.119  1.00  0.00    -0.354 N 
ATOM     46  C   UNL A   1      39.625  29.362  29.701  1.00  0.00     0.074 A 
ATOM     47  C   UNL A   1      38.631  29.602  28.678  1.00  0.00     0.031 C 
ATOM     48  C   UNL A   1      37.953  33.506  34.329  1.00  0.00     0.029 A 
ATOM     49  C   UNL A   1      39.052  32.545  34.350  1.00  0.00     0.049 A 
ATOM     50  H   UNL A   1      39.620  31.235  32.833  1.00  0.00     0.167 HD
ATOM     51  C   UNL A   1      40.622  28.452  29.593  1.00  0.00     0.037 A 
ATOM     52  C   UNL A   1      39.897  32.346  35.378  1.00  0.00     0.037 A 
ATOM     53  C   UNL A   1      41.623  28.234  30.604  1.00  0.00     0.049 A 
ATOM     54  C   UNL A   1      40.991  31.323  35.238  1.00  0.00     0.074 A 
ATOM     55  C   UNL A   1      42.709  27.377  30.571  1.00  0.00     0.029 A 
ATOM     56  N   UNL A   1      41.655  28.876  31.832  1.00  0.00    -0.354 N 
ATOM     57  N   UNL A   1      41.272  30.546  34.220  1.00  0.00    -0.248 NA
ATOM     58  C   UNL A   1      41.890  31.157  36.387  1.00  0.00     0.031 C 
ATOM     59  C   UNL A   1      43.370  27.465  31.799  1.00  0.00     0.029 A 
ATOM     60  C   UNL A   1      42.731  28.419  32.575  1.00  0.00     0.049 A 
ATOM     61  H   UNL A   1      41.011  29.558  32.131  1.00  0.00     0.167 HD
ATOM     62  C   UNL A   1      42.398  29.823  34.593  1.00  0.00     0.074 A 
ATOM     63  C   UNL A   1      42.755  30.267  35.924  1.00  0.00     0.031 C 
ATOM     64  C   UNL A   1      43.076  28.878  33.897  1.00  0.00     0.037 A 
BRANCH  51  65
ATOM     65  C   UNL A   1      40.677  27.630  28.336  1.00  0.00     0.057 A 
ATOM     66  C   UNL A   1      40.005  26.404  28.223  1.00  0.00     0.134 A 
ATOM     67  C   UNL A   1      41.390  28.078  27.219  1.00  0.00     0.134 A 
ATOM     68  F   UNL A   1      39.312  25.909  29.260  1.00  0.00    -0.206 F 
ATOM     69  C   UNL A   1      40.068  25.640  27.056  1.00  0.00     0.040 A 
ATOM     70  C   UNL A   1      41.436  27.338  26.035  1.00  0.00     0.040 A 
ATOM     71  F   UNL A   1      42.052  29.245  27.255  1.00  0.00    -0.206 F 
ATOM     72  C   UNL A   1      40.779  26.111  25.955  1.00  0.00     0.006 A 
ENDBRANCH  51  65
BRANCH  52  73
ATOM     73  C   UNL A   1      39.763  33.151  36.619  1.00  0.00     0.057 A 
ATOM     74  C   UNL A   1      38.901  32.754  37.648  1.00  0.00     0.134 A 
ATOM     75  C   UNL A   1      40.481  34.339  36.805  1.00  0.00     0.134 A 
ATOM     76  F   UNL A   1      38.174  31.634  37.524  1.00  0.00    -0.206 F 
ATOM     77  C   UNL A   1      38.738  33.518  38.804  1.00  0.00     0.040 A 
ATOM     78  C   UNL A   1      40.349  35.099  37.967  1.00  0.00     0.040 A 
ATOM     79  F   UNL A   1      41.331  34.771  35.861  1.00  0.00    -0.206 F 
ATOM     80  C   UNL A   1      39.468  34.694  38.968  1.00  0.00     0.006 A 
ENDBRANCH  52  73
BRANCH  64  81
ATOM     81  C   UNL A   1      44.297  28.293  34.545  1.00  0.00     0.057 A 
ATOM     82  C   UNL A   1      44.244  27.123  35.313  1.00  0.00     0.134 A 
ATOM     83  C   UNL A   1      45.551  28.894  34.371  1.00  0.00     0.134 A 
ATOM     84  F   UNL A   1      43.072  26.504  35.528  1.00  0.00    -0.206 F 
ATOM     85  C   UNL A   1      45.388  26.587  35.908  1.00  0.00     0.040 A 
ATOM     86  C   UNL A   1      46.706  28.352  34.935  1.00  0.00     0.040 A 
ATOM     87  F   UNL A   1      45.675  30.011  33.638  1.00  0.00    -0.206 F 
ATOM     88  C   UNL A   1      46.624  27.200  35.713  1.00  0.00     0.006 A 
ENDBRANCH  64  81
ENDBRANCH  38  39
ENDBRANCH  30  33
ENDBRANCH  28  29
ENDBRANCH  27  28
ENDBRANCH  26  27
ENDBRANCH   1  26
TORSDOF 18
ENDMDL
