MODEL 1
REMARK VINA RESULT:     -11.8      0.000      0.000
REMARK SMILES COCC1CCN(C(=O)NC[C@H]2CC[C@H](C(=O)NCCCCNC(=O)c3ccc(-c4c5nc(c(-c6c(F)cccc6F)c6ccc([nH]6)c(-c6c(F)cccc6F)c6nc(c(-c7c(F)cccc7F)c7ccc4[nH]7)C=C6)C=C5)cc3)O2)CC1
REMARK SMILES IDX 19 1 18 2 16 3 17 4 15 6 12 7 13 8 80 9 14 10 11 11 10 12
REMARK SMILES IDX 4 13 5 14 82 15 6 16 81 17 7 18 8 19 9 20 3 22 2 23 1 24
REMARK SMILES IDX 20 25 21 26 22 27 23 28 24 29 25 31 26 32 27 33 79 34 28 35
REMARK SMILES IDX 78 36 29 37 30 38 31 39 72 40 32 41 77 42 71 43 73 44 33 45
REMARK SMILES IDX 76 46 70 47 69 48 34 50 60 51 43 52 59 53 44 54 47 55 58 56
REMARK SMILES IDX 74 57 45 58 46 59 57 61 75 62 48 63 35 64 36 65 41 66 37 67
REMARK SMILES IDX 38 68 40 69 42 70 39 71 61 72 62 73 67 74 63 75 64 76 66 77
REMARK SMILES IDX 68 78 65 79 49 80 50 81 55 82 51 83 52 84 54 85 56 86 53 87
REMARK H PARENT 18 5 10 21 23 30 73 49 47 60
REMARK Flexibility Score: inf
ROOT
ATOM      1  C   UNL A   1      35.846  21.084  25.085  1.00  0.00     0.116 C 
ENDROOT
BRANCH   1   2
ATOM      2  N   UNL A   1      35.206  19.789  25.059  1.00  0.00    -0.354 N 
ATOM      3  C   UNL A   1      33.950  19.436  24.664  1.00  0.00     0.249 C 
ATOM      4  O   UNL A   1      33.654  18.239  24.757  1.00  0.00    -0.272 OA
ATOM      5  H   UNL A   1      35.764  19.043  25.377  1.00  0.00     0.163 HD
BRANCH   3   6
ATOM      6  C   UNL A   1      32.887  20.469  24.194  1.00  0.00     0.207 C 
ATOM      7  C   UNL A   1      32.929  22.804  23.930  1.00  0.00     0.138 C 
ATOM      8  C   UNL A   1      32.489  22.527  25.358  1.00  0.00     0.037 C 
ATOM      9  O   UNL A   1      33.302  21.543  23.350  1.00  0.00    -0.363 OA
ATOM     10  C   UNL A   1      32.107  21.069  25.351  1.00  0.00     0.045 C 
BRANCH   7  11
ATOM     11  C   UNL A   1      31.831  23.527  23.126  1.00  0.00     0.149 C 
BRANCH  11  12
ATOM     12  N   UNL A   1      32.433  24.332  22.068  1.00  0.00    -0.335 N 
ATOM     13  C   UNL A   1      33.491  28.568  24.911  1.00  0.00     0.018 C 
ATOM     14  C   UNL A   1      34.106  28.623  23.506  1.00  0.00     0.027 C 
ATOM     15  C   UNL A   1      32.982  27.153  25.210  1.00  0.00     0.027 C 
ATOM     16  C   UNL A   1      33.339  27.882  22.413  1.00  0.00     0.121 C 
ATOM     17  C   UNL A   1      32.108  26.593  24.089  1.00  0.00     0.121 C 
ATOM     18  N   UNL A   1      32.827  26.570  22.821  1.00  0.00    -0.325 N 
ATOM     19  C   UNL A   1      32.849  25.590  21.873  1.00  0.00     0.317 C 
ATOM     20  O   UNL A   1      33.276  25.798  20.730  1.00  0.00    -0.249 OA
ATOM     21  H   UNL A   1      32.574  23.790  21.258  1.00  0.00     0.165 HD
BRANCH  13  22
ATOM     22  C   UNL A   1      32.456  29.679  25.191  1.00  0.00     0.163 C 
BRANCH  22  23
ATOM     23  O   UNL A   1      32.341  30.006  26.569  1.00  0.00    -0.384 OA
ATOM     24  C   UNL A   1      33.588  30.201  27.217  1.00  0.00     0.194 C 
ENDBRANCH  22  23
ENDBRANCH  13  22
ENDBRANCH  11  12
ENDBRANCH   7  11
ENDBRANCH   3   6
ENDBRANCH   1   2
BRANCH   1  25
ATOM     25  C   UNL A   1      37.299  21.004  24.615  1.00  0.00     0.023 C 
BRANCH  25  26
ATOM     26  C   UNL A   1      38.037  19.717  24.971  1.00  0.00     0.023 C 
BRANCH  26  27
ATOM     27  C   UNL A   1      39.131  19.874  26.016  1.00  0.00     0.116 C 
BRANCH  27  28
ATOM     28  N   UNL A   1      40.225  18.927  25.874  1.00  0.00    -0.352 N 
ATOM     29  C   UNL A   1      41.574  19.159  25.995  1.00  0.00     0.251 C 
ATOM     30  H   UNL A   1      39.967  18.000  25.664  1.00  0.00     0.163 HD
ATOM     31  O   UNL A   1      42.383  18.268  25.755  1.00  0.00    -0.269 OA
BRANCH  29  32
ATOM     32  C   UNL A   1      42.044  20.505  26.379  1.00  0.00     0.039 A 
ATOM     33  C   UNL A   1      42.282  21.447  25.375  1.00  0.00     0.014 A 
ATOM     34  C   UNL A   1      42.218  20.846  27.722  1.00  0.00     0.014 A 
ATOM     35  C   UNL A   1      42.646  22.747  25.727  1.00  0.00     0.010 A 
ATOM     36  C   UNL A   1      42.486  22.163  28.073  1.00  0.00     0.010 A 
ATOM     37  C   UNL A   1      42.725  23.121  27.078  1.00  0.00    -0.014 A 
BRANCH  37  38
ATOM     38  C   UNL A   1      43.100  24.502  27.466  1.00  0.00     0.031 A 
ATOM     39  C   UNL A   1      44.538  24.936  27.400  1.00  0.00     0.074 A 
ATOM     40  C   UNL A   1      42.156  25.348  27.918  1.00  0.00     0.049 A 
ATOM     41  N   UNL A   1      45.067  26.096  27.696  1.00  0.00    -0.248 NA
ATOM     42  C   UNL A   1      45.520  23.921  26.981  1.00  0.00     0.031 C 
ATOM     43  C   UNL A   1      40.740  25.021  28.099  1.00  0.00     0.029 A 
ATOM     44  N   UNL A   1      42.246  26.659  28.310  1.00  0.00    -0.354 N 
ATOM     45  C   UNL A   1      46.436  25.943  27.516  1.00  0.00     0.074 A 
ATOM     46  C   UNL A   1      46.664  24.563  27.152  1.00  0.00     0.031 C 
ATOM     47  C   UNL A   1      40.089  26.112  28.533  1.00  0.00     0.029 A 
ATOM     48  C   UNL A   1      41.043  27.207  28.683  1.00  0.00     0.049 A 
ATOM     49  H   UNL A   1      43.094  27.160  28.322  1.00  0.00     0.167 HD
ATOM     50  C   UNL A   1      47.413  26.876  27.611  1.00  0.00     0.037 A 
ATOM     51  C   UNL A   1      40.744  28.455  29.088  1.00  0.00     0.037 A 
ATOM     52  C   UNL A   1      47.175  28.256  27.939  1.00  0.00     0.049 A 
ATOM     53  C   UNL A   1      41.837  29.486  29.143  1.00  0.00     0.074 A 
ATOM     54  C   UNL A   1      48.081  29.300  27.992  1.00  0.00     0.029 A 
ATOM     55  N   UNL A   1      45.936  28.783  28.270  1.00  0.00    -0.354 N 
ATOM     56  N   UNL A   1      43.114  29.352  28.882  1.00  0.00    -0.248 NA
ATOM     57  C   UNL A   1      41.441  30.847  29.530  1.00  0.00     0.031 C 
ATOM     58  C   UNL A   1      47.397  30.452  28.395  1.00  0.00     0.029 A 
ATOM     59  C   UNL A   1      46.055  30.135  28.544  1.00  0.00     0.049 A 
ATOM     60  H   UNL A   1      45.095  28.272  28.304  1.00  0.00     0.167 HD
ATOM     61  C   UNL A   1      43.671  30.613  29.044  1.00  0.00     0.074 A 
ATOM     62  C   UNL A   1      42.587  31.503  29.410  1.00  0.00     0.031 C 
ATOM     63  C   UNL A   1      44.962  31.004  28.904  1.00  0.00     0.037 A 
BRANCH  50  64
ATOM     64  C   UNL A   1      48.822  26.427  27.350  1.00  0.00     0.057 A 
ATOM     65  C   UNL A   1      49.368  26.412  26.059  1.00  0.00     0.134 A 
ATOM     66  C   UNL A   1      49.646  26.010  28.403  1.00  0.00     0.134 A 
ATOM     67  F   UNL A   1      48.627  26.784  25.003  1.00  0.00    -0.206 F 
ATOM     68  C   UNL A   1      50.669  25.965  25.820  1.00  0.00     0.040 A 
ATOM     69  C   UNL A   1      50.959  25.589  28.180  1.00  0.00     0.040 A 
ATOM     70  F   UNL A   1      49.190  26.001  29.664  1.00  0.00    -0.206 F 
ATOM     71  C   UNL A   1      51.470  25.558  26.883  1.00  0.00     0.006 A 
ENDBRANCH  50  64
BRANCH  51  72
ATOM     72  C   UNL A   1      39.342  28.809  29.422  1.00  0.00     0.057 A 
ATOM     73  C   UNL A   1      38.841  28.638  30.717  1.00  0.00     0.134 A 
ATOM     74  C   UNL A   1      38.473  29.333  28.458  1.00  0.00     0.134 A 
ATOM     75  F   UNL A   1      39.623  28.127  31.680  1.00  0.00    -0.206 F 
ATOM     76  C   UNL A   1      37.520  28.954  31.039  1.00  0.00     0.040 A 
ATOM     77  C   UNL A   1      37.157  29.677  28.772  1.00  0.00     0.040 A 
ATOM     78  F   UNL A   1      38.894  29.532  27.201  1.00  0.00    -0.206 F 
ATOM     79  C   UNL A   1      36.674  29.480  30.065  1.00  0.00     0.006 A 
ENDBRANCH  51  72
BRANCH  63  80
ATOM     80  C   UNL A   1      45.262  32.459  29.112  1.00  0.00     0.057 A 
ATOM     81  C   UNL A   1      45.115  33.402  28.087  1.00  0.00     0.134 A 
ATOM     82  C   UNL A   1      45.683  32.926  30.364  1.00  0.00     0.134 A 
ATOM     83  F   UNL A   1      44.726  33.018  26.861  1.00  0.00    -0.206 F 
ATOM     84  C   UNL A   1      45.406  34.751  28.290  1.00  0.00     0.040 A 
ATOM     85  C   UNL A   1      45.949  34.277  30.588  1.00  0.00     0.040 A 
ATOM     86  F   UNL A   1      45.834  32.077  31.393  1.00  0.00    -0.206 F 
ATOM     87  C   UNL A   1      45.818  35.193  29.546  1.00  0.00     0.006 A 
ENDBRANCH  63  80
ENDBRANCH  37  38
ENDBRANCH  29  32
ENDBRANCH  27  28
ENDBRANCH  26  27
ENDBRANCH  25  26
ENDBRANCH   1  25
TORSDOF 15
ENDMDL
MODEL 2
REMARK VINA RESULT:     -11.6      4.531     10.091
REMARK SMILES COCC1CCN(C(=O)NC[C@H]2CC[C@H](C(=O)NCCCCNC(=O)c3ccc(-c4c5nc(c(-c6c(F)cccc6F)c6ccc([nH]6)c(-c6c(F)cccc6F)c6nc(c(-c7c(F)cccc7F)c7ccc4[nH]7)C=C6)C=C5)cc3)O2)CC1
REMARK SMILES IDX 19 1 18 2 16 3 17 4 15 6 12 7 13 8 80 9 14 10 11 11 10 12
REMARK SMILES IDX 4 13 5 14 82 15 6 16 81 17 7 18 8 19 9 20 3 22 2 23 1 24
REMARK SMILES IDX 20 25 21 26 22 27 23 28 24 29 25 31 26 32 27 33 79 34 28 35
REMARK SMILES IDX 78 36 29 37 30 38 31 39 72 40 32 41 77 42 71 43 73 44 33 45
REMARK SMILES IDX 76 46 70 47 69 48 34 50 60 51 43 52 59 53 44 54 47 55 58 56
REMARK SMILES IDX 74 57 45 58 46 59 57 61 75 62 48 63 35 64 36 65 41 66 37 67
REMARK SMILES IDX 38 68 40 69 42 70 39 71 61 72 62 73 67 74 63 75 64 76 66 77
REMARK SMILES IDX 68 78 65 79 49 80 50 81 55 82 51 83 52 84 54 85 56 86 53 87
REMARK H PARENT 18 5 10 21 23 30 73 49 47 60
REMARK Flexibility Score: inf
ROOT
ATOM      1  C   UNL A   1      32.973  29.954  25.958  1.00  0.00     0.116 C 
ENDROOT
BRANCH   1   2
ATOM      2  N   UNL A   1      33.396  29.708  24.599  1.00  0.00    -0.354 N 
ATOM      3  C   UNL A   1      33.312  28.577  23.843  1.00  0.00     0.249 C 
ATOM      4  O   UNL A   1      33.768  28.640  22.696  1.00  0.00    -0.272 OA
ATOM      5  H   UNL A   1      33.810  30.477  24.147  1.00  0.00     0.163 HD
BRANCH   3   6
ATOM      6  C   UNL A   1      32.755  27.231  24.389  1.00  0.00     0.207 C 
ATOM      7  C   UNL A   1      31.246  26.702  26.111  1.00  0.00     0.138 C 
ATOM      8  C   UNL A   1      32.632  26.745  26.733  1.00  0.00     0.037 C 
ATOM      9  O   UNL A   1      31.377  27.159  24.755  1.00  0.00    -0.363 OA
ATOM     10  C   UNL A   1      33.569  26.694  25.554  1.00  0.00     0.045 C 
BRANCH   7  11
ATOM     11  C   UNL A   1      30.620  25.297  26.209  1.00  0.00     0.149 C 
BRANCH  11  12
ATOM     12  N   UNL A   1      30.376  24.763  24.874  1.00  0.00    -0.335 N 
ATOM     13  C   UNL A   1      33.478  20.589  25.196  1.00  0.00     0.018 C 
ATOM     14  C   UNL A   1      32.605  20.588  23.933  1.00  0.00     0.027 C 
ATOM     15  C   UNL A   1      32.989  21.664  26.175  1.00  0.00     0.027 C 
ATOM     16  C   UNL A   1      32.236  21.963  23.377  1.00  0.00     0.121 C 
ATOM     17  C   UNL A   1      32.800  23.025  25.508  1.00  0.00     0.121 C 
ATOM     18  N   UNL A   1      31.856  22.943  24.399  1.00  0.00    -0.325 N 
ATOM     19  C   UNL A   1      30.859  23.811  24.066  1.00  0.00     0.317 C 
ATOM     20  O   UNL A   1      30.306  23.773  22.959  1.00  0.00    -0.249 OA
ATOM     21  H   UNL A   1      29.637  25.246  24.437  1.00  0.00     0.165 HD
BRANCH  13  22
ATOM     22  C   UNL A   1      34.994  20.639  24.915  1.00  0.00     0.163 C 
BRANCH  22  23
ATOM     23  O   UNL A   1      35.745  21.207  25.980  1.00  0.00    -0.384 OA
ATOM     24  C   UNL A   1      36.635  22.232  25.570  1.00  0.00     0.194 C 
ENDBRANCH  22  23
ENDBRANCH  13  22
ENDBRANCH  11  12
ENDBRANCH   7  11
ENDBRANCH   3   6
ENDBRANCH   1   2
BRANCH   1  25
ATOM     25  C   UNL A   1      31.528  30.455  26.017  1.00  0.00     0.023 C 
BRANCH  25  26
ATOM     26  C   UNL A   1      31.350  31.897  26.483  1.00  0.00     0.023 C 
BRANCH  26  27
ATOM     27  C   UNL A   1      32.575  32.514  27.138  1.00  0.00     0.116 C 
BRANCH  27  28
ATOM     28  N   UNL A   1      32.386  33.890  27.571  1.00  0.00    -0.352 N 
ATOM     29  C   UNL A   1      33.116  34.602  28.491  1.00  0.00     0.251 C 
ATOM     30  H   UNL A   1      31.638  34.373  27.150  1.00  0.00     0.163 HD
ATOM     31  O   UNL A   1      32.772  35.734  28.818  1.00  0.00    -0.269 OA
BRANCH  29  32
ATOM     32  C   UNL A   1      34.298  33.976  29.117  1.00  0.00     0.039 A 
ATOM     33  C   UNL A   1      34.104  32.983  30.080  1.00  0.00     0.014 A 
ATOM     34  C   UNL A   1      35.589  34.342  28.731  1.00  0.00     0.014 A 
ATOM     35  C   UNL A   1      35.210  32.325  30.619  1.00  0.00     0.010 A 
ATOM     36  C   UNL A   1      36.682  33.621  29.196  1.00  0.00     0.010 A 
ATOM     37  C   UNL A   1      36.505  32.621  30.162  1.00  0.00    -0.014 A 
BRANCH  37  38
ATOM     38  C   UNL A   1      37.687  31.921  30.718  1.00  0.00     0.031 A 
ATOM     39  C   UNL A   1      38.182  32.262  32.096  1.00  0.00     0.074 A 
ATOM     40  C   UNL A   1      38.341  31.015  29.966  1.00  0.00     0.049 A 
ATOM     41  N   UNL A   1      39.196  31.764  32.758  1.00  0.00    -0.248 NA
ATOM     42  C   UNL A   1      37.464  33.328  32.815  1.00  0.00     0.031 C 
ATOM     43  C   UNL A   1      38.004  30.655  28.587  1.00  0.00     0.029 A 
ATOM     44  N   UNL A   1      39.429  30.233  30.257  1.00  0.00    -0.354 N 
ATOM     45  C   UNL A   1      39.245  32.467  33.955  1.00  0.00     0.074 A 
ATOM     46  C   UNL A   1      38.205  33.469  33.902  1.00  0.00     0.031 C 
ATOM     47  C   UNL A   1      38.846  29.698  28.166  1.00  0.00     0.029 A 
ATOM     48  C   UNL A   1      39.794  29.394  29.233  1.00  0.00     0.049 A 
ATOM     49  H   UNL A   1      39.902  30.268  31.120  1.00  0.00     0.167 HD
ATOM     50  C   UNL A   1      40.061  32.274  35.018  1.00  0.00     0.037 A 
ATOM     51  C   UNL A   1      40.776  28.475  29.169  1.00  0.00     0.037 A 
ATOM     52  C   UNL A   1      41.071  31.251  35.079  1.00  0.00     0.049 A 
ATOM     53  C   UNL A   1      41.640  28.246  30.378  1.00  0.00     0.074 A 
ATOM     54  C   UNL A   1      41.903  30.921  36.133  1.00  0.00     0.029 A 
ATOM     55  N   UNL A   1      41.384  30.392  34.036  1.00  0.00    -0.354 N 
ATOM     56  N   UNL A   1      41.619  28.855  31.538  1.00  0.00    -0.248 NA
ATOM     57  C   UNL A   1      42.654  27.187  30.273  1.00  0.00     0.031 C 
ATOM     58  C   UNL A   1      42.749  29.887  35.715  1.00  0.00     0.029 A 
ATOM     59  C   UNL A   1      42.408  29.541  34.416  1.00  0.00     0.049 A 
ATOM     60  H   UNL A   1      40.943  30.387  33.156  1.00  0.00     0.167 HD
ATOM     61  C   UNL A   1      42.592  28.237  32.312  1.00  0.00     0.074 A 
ATOM     62  C   UNL A   1      43.173  27.193  31.492  1.00  0.00     0.031 C 
ATOM     63  C   UNL A   1      42.972  28.506  33.586  1.00  0.00     0.037 A 
BRANCH  50  64
ATOM     64  C   UNL A   1      39.883  33.186  36.198  1.00  0.00     0.057 A 
ATOM     65  C   UNL A   1      38.974  32.899  37.226  1.00  0.00     0.134 A 
ATOM     66  C   UNL A   1      40.635  34.362  36.312  1.00  0.00     0.134 A 
ATOM     67  F   UNL A   1      38.211  31.797  37.171  1.00  0.00    -0.206 F 
ATOM     68  C   UNL A   1      38.793  33.767  38.305  1.00  0.00     0.040 A 
ATOM     69  C   UNL A   1      40.484  35.222  37.401  1.00  0.00     0.040 A 
ATOM     70  F   UNL A   1      41.526  34.697  35.367  1.00  0.00    -0.206 F 
ATOM     71  C   UNL A   1      39.553  34.929  38.397  1.00  0.00     0.006 A 
ENDBRANCH  50  64
BRANCH  51  72
ATOM     72  C   UNL A   1      40.957  27.670  27.936  1.00  0.00     0.057 A 
ATOM     73  C   UNL A   1      40.320  26.434  27.780  1.00  0.00     0.134 A 
ATOM     74  C   UNL A   1      41.764  28.117  26.884  1.00  0.00     0.134 A 
ATOM     75  F   UNL A   1      39.545  25.945  28.760  1.00  0.00    -0.206 F 
ATOM     76  C   UNL A   1      40.495  25.660  26.631  1.00  0.00     0.040 A 
ATOM     77  C   UNL A   1      41.929  27.365  25.719  1.00  0.00     0.040 A 
ATOM     78  F   UNL A   1      42.393  29.298  26.967  1.00  0.00    -0.206 F 
ATOM     79  C   UNL A   1      41.298  26.129  25.594  1.00  0.00     0.006 A 
ENDBRANCH  51  72
BRANCH  63  80
ATOM     80  C   UNL A   1      44.040  27.636  34.178  1.00  0.00     0.057 A 
ATOM     81  C   UNL A   1      43.747  26.409  34.785  1.00  0.00     0.134 A 
ATOM     82  C   UNL A   1      45.386  28.022  34.118  1.00  0.00     0.134 A 
ATOM     83  F   UNL A   1      42.478  25.986  34.885  1.00  0.00    -0.206 F 
ATOM     84  C   UNL A   1      44.750  25.612  35.340  1.00  0.00     0.040 A 
ATOM     85  C   UNL A   1      46.400  27.222  34.644  1.00  0.00     0.040 A 
ATOM     86  F   UNL A   1      45.737  29.182  33.540  1.00  0.00    -0.206 F 
ATOM     87  C   UNL A   1      46.081  26.016  35.265  1.00  0.00     0.006 A 
ENDBRANCH  63  80
ENDBRANCH  37  38
ENDBRANCH  29  32
ENDBRANCH  27  28
ENDBRANCH  26  27
ENDBRANCH  25  26
ENDBRANCH   1  25
TORSDOF 15
ENDMDL
MODEL 3
REMARK VINA RESULT:     -11.6      4.604     10.217
REMARK SMILES COCC1CCN(C(=O)NC[C@H]2CC[C@H](C(=O)NCCCCNC(=O)c3ccc(-c4c5nc(c(-c6c(F)cccc6F)c6ccc([nH]6)c(-c6c(F)cccc6F)c6nc(c(-c7c(F)cccc7F)c7ccc4[nH]7)C=C6)C=C5)cc3)O2)CC1
REMARK SMILES IDX 19 1 18 2 16 3 17 4 15 6 12 7 13 8 80 9 14 10 11 11 10 12
REMARK SMILES IDX 4 13 5 14 82 15 6 16 81 17 7 18 8 19 9 20 3 22 2 23 1 24
REMARK SMILES IDX 20 25 21 26 22 27 23 28 24 29 25 31 26 32 27 33 79 34 28 35
REMARK SMILES IDX 78 36 29 37 30 38 31 39 72 40 32 41 77 42 71 43 73 44 33 45
REMARK SMILES IDX 76 46 70 47 69 48 34 50 60 51 43 52 59 53 44 54 47 55 58 56
REMARK SMILES IDX 74 57 45 58 46 59 57 61 75 62 48 63 35 64 36 65 41 66 37 67
REMARK SMILES IDX 38 68 40 69 42 70 39 71 61 72 62 73 67 74 63 75 64 76 66 77
REMARK SMILES IDX 68 78 65 79 49 80 50 81 55 82 51 83 52 84 54 85 56 86 53 87
REMARK H PARENT 18 5 10 21 23 30 73 49 47 60
REMARK Flexibility Score: inf
ROOT
ATOM      1  C   UNL A   1      31.642  29.894  25.285  1.00  0.00     0.116 C 
ENDROOT
BRANCH   1   2
ATOM      2  N   UNL A   1      30.658  30.440  24.378  1.00  0.00    -0.354 N 
ATOM      3  C   UNL A   1      29.802  29.810  23.525  1.00  0.00     0.249 C 
ATOM      4  O   UNL A   1      29.063  30.532  22.847  1.00  0.00    -0.272 OA
ATOM      5  H   UNL A   1      30.596  31.422  24.376  1.00  0.00     0.163 HD
BRANCH   3   6
ATOM      6  C   UNL A   1      29.788  28.268  23.324  1.00  0.00     0.207 C 
ATOM      7  C   UNL A   1      30.927  26.503  24.377  1.00  0.00     0.138 C 
ATOM      8  C   UNL A   1      31.796  26.963  23.218  1.00  0.00     0.037 C 
ATOM      9  O   UNL A   1      29.831  27.427  24.476  1.00  0.00    -0.363 OA
ATOM     10  C   UNL A   1      30.870  27.794  22.368  1.00  0.00     0.045 C 
BRANCH   7  11
ATOM     11  C   UNL A   1      30.464  25.045  24.198  1.00  0.00     0.149 C 
BRANCH  11  12
ATOM     12  N   UNL A   1      30.274  24.415  25.500  1.00  0.00    -0.335 N 
ATOM     13  C   UNL A   1      35.173  22.799  26.231  1.00  0.00     0.018 C 
ATOM     14  C   UNL A   1      34.294  22.622  27.477  1.00  0.00     0.027 C 
ATOM     15  C   UNL A   1      34.457  23.679  25.200  1.00  0.00     0.027 C 
ATOM     16  C   UNL A   1      32.809  22.373  27.216  1.00  0.00     0.121 C 
ATOM     17  C   UNL A   1      33.024  23.225  24.932  1.00  0.00     0.121 C 
ATOM     18  N   UNL A   1      32.235  23.212  26.159  1.00  0.00    -0.325 N 
ATOM     19  C   UNL A   1      30.954  23.637  26.350  1.00  0.00     0.317 C 
ATOM     20  O   UNL A   1      30.310  23.328  27.362  1.00  0.00    -0.249 OA
ATOM     21  H   UNL A   1      29.381  24.624  25.859  1.00  0.00     0.165 HD
BRANCH  13  22
ATOM     22  C   UNL A   1      35.722  21.477  25.654  1.00  0.00     0.163 C 
BRANCH  22  23
ATOM     23  O   UNL A   1      37.047  21.590  25.152  1.00  0.00    -0.384 OA
ATOM     24  C   UNL A   1      37.695  20.343  24.961  1.00  0.00     0.194 C 
ENDBRANCH  22  23
ENDBRANCH  13  22
ENDBRANCH  11  12
ENDBRANCH   7  11
ENDBRANCH   3   6
ENDBRANCH   1   2
BRANCH   1  25
ATOM     25  C   UNL A   1      31.591  30.579  26.651  1.00  0.00     0.023 C 
BRANCH  25  26
ATOM     26  C   UNL A   1      31.419  32.094  26.623  1.00  0.00     0.023 C 
BRANCH  26  27
ATOM     27  C   UNL A   1      32.640  32.885  27.063  1.00  0.00     0.116 C 
BRANCH  27  28
ATOM     28  N   UNL A   1      32.331  34.201  27.600  1.00  0.00    -0.352 N 
ATOM     29  C   UNL A   1      32.993  34.898  28.582  1.00  0.00     0.251 C 
ATOM     30  H   UNL A   1      31.546  34.651  27.211  1.00  0.00     0.163 HD
ATOM     31  O   UNL A   1      32.552  35.967  28.992  1.00  0.00    -0.269 OA
BRANCH  29  32
ATOM     32  C   UNL A   1      34.222  34.328  29.170  1.00  0.00     0.039 A 
ATOM     33  C   UNL A   1      34.111  33.490  30.282  1.00  0.00     0.014 A 
ATOM     34  C   UNL A   1      35.472  34.592  28.607  1.00  0.00     0.014 A 
ATOM     35  C   UNL A   1      35.254  32.878  30.797  1.00  0.00     0.010 A 
ATOM     36  C   UNL A   1      36.594  33.908  29.060  1.00  0.00     0.010 A 
ATOM     37  C   UNL A   1      36.499  33.062  30.174  1.00  0.00    -0.014 A 
BRANCH  37  38
ATOM     38  C   UNL A   1      37.720  32.409  30.704  1.00  0.00     0.031 A 
ATOM     39  C   UNL A   1      38.361  32.924  31.962  1.00  0.00     0.074 A 
ATOM     40  C   UNL A   1      38.275  31.384  30.029  1.00  0.00     0.049 A 
ATOM     41  N   UNL A   1      39.429  32.492  32.584  1.00  0.00    -0.248 NA
ATOM     42  C   UNL A   1      37.742  34.105  32.588  1.00  0.00     0.031 C 
ATOM     43  C   UNL A   1      37.790  30.844  28.757  1.00  0.00     0.029 A 
ATOM     44  N   UNL A   1      39.372  30.614  30.320  1.00  0.00    -0.354 N 
ATOM     45  C   UNL A   1      39.615  33.355  33.656  1.00  0.00     0.074 A 
ATOM     46  C   UNL A   1      38.594  34.374  33.563  1.00  0.00     0.031 C 
ATOM     47  C   UNL A   1      38.565  29.808  28.397  1.00  0.00     0.029 A 
ATOM     48  C   UNL A   1      39.613  29.627  29.397  1.00  0.00     0.049 A 
ATOM     49  H   UNL A   1      39.933  30.756  31.117  1.00  0.00     0.167 HD
ATOM     50  C   UNL A   1      40.533  33.288  34.649  1.00  0.00     0.037 A 
ATOM     51  C   UNL A   1      40.565  28.677  29.368  1.00  0.00     0.037 A 
ATOM     52  C   UNL A   1      41.524  32.251  34.755  1.00  0.00     0.049 A 
ATOM     53  C   UNL A   1      41.546  28.592  30.505  1.00  0.00     0.074 A 
ATOM     54  C   UNL A   1      42.456  32.046  35.758  1.00  0.00     0.029 A 
ATOM     55  N   UNL A   1      41.711  31.242  33.822  1.00  0.00    -0.354 N 
ATOM     56  N   UNL A   1      41.657  29.360  31.561  1.00  0.00    -0.248 NA
ATOM     57  C   UNL A   1      42.523  27.495  30.453  1.00  0.00     0.031 C 
ATOM     58  C   UNL A   1      43.233  30.935  35.410  1.00  0.00     0.029 A 
ATOM     59  C   UNL A   1      42.753  30.420  34.216  1.00  0.00     0.049 A 
ATOM     60  H   UNL A   1      41.181  31.127  33.000  1.00  0.00     0.167 HD
ATOM     61  C   UNL A   1      42.693  28.826  32.315  1.00  0.00     0.074 A 
ATOM     62  C   UNL A   1      43.167  27.657  31.600  1.00  0.00     0.031 C 
ATOM     63  C   UNL A   1      43.208  29.259  33.492  1.00  0.00     0.037 A 
BRANCH  50  64
ATOM     64  C   UNL A   1      40.496  34.363  35.696  1.00  0.00     0.057 A 
ATOM     65  C   UNL A   1      39.653  34.281  36.813  1.00  0.00     0.134 A 
ATOM     66  C   UNL A   1      41.318  35.492  35.591  1.00  0.00     0.134 A 
ATOM     67  F   UNL A   1      38.828  33.234  36.967  1.00  0.00    -0.206 F 
ATOM     68  C   UNL A   1      39.602  35.299  37.768  1.00  0.00     0.040 A 
ATOM     69  C   UNL A   1      41.298  36.502  36.555  1.00  0.00     0.040 A 
ATOM     70  F   UNL A   1      42.152  35.634  34.550  1.00  0.00    -0.206 F 
ATOM     71  C   UNL A   1      40.430  36.411  37.642  1.00  0.00     0.006 A 
ENDBRANCH  50  64
BRANCH  51  72
ATOM     72  C   UNL A   1      40.602  27.699  28.253  1.00  0.00     0.057 A 
ATOM     73  C   UNL A   1      39.904  26.488  28.329  1.00  0.00     0.134 A 
ATOM     74  C   UNL A   1      41.330  27.952  27.084  1.00  0.00     0.134 A 
ATOM     75  F   UNL A   1      39.201  26.183  29.430  1.00  0.00    -0.206 F 
ATOM     76  C   UNL A   1      39.944  25.554  27.292  1.00  0.00     0.040 A 
ATOM     77  C   UNL A   1      41.358  27.038  26.030  1.00  0.00     0.040 A 
ATOM     78  F   UNL A   1      42.011  29.098  26.944  1.00  0.00    -0.206 F 
ATOM     79  C   UNL A   1      40.669  25.830  26.135  1.00  0.00     0.006 A 
ENDBRANCH  51  72
BRANCH  63  80
ATOM     80  C   UNL A   1      44.316  28.446  34.094  1.00  0.00     0.057 A 
ATOM     81  C   UNL A   1      45.664  28.731  33.847  1.00  0.00     0.134 A 
ATOM     82  C   UNL A   1      44.027  27.377  34.951  1.00  0.00     0.134 A 
ATOM     83  F   UNL A   1      46.008  29.735  33.026  1.00  0.00    -0.206 F 
ATOM     84  C   UNL A   1      46.686  27.961  34.406  1.00  0.00     0.040 A 
ATOM     85  C   UNL A   1      45.040  26.618  35.539  1.00  0.00     0.040 A 
ATOM     86  F   UNL A   1      42.755  27.057  35.239  1.00  0.00    -0.206 F 
ATOM     87  C   UNL A   1      46.374  26.905  35.259  1.00  0.00     0.006 A 
ENDBRANCH  63  80
ENDBRANCH  37  38
ENDBRANCH  29  32
ENDBRANCH  27  28
ENDBRANCH  26  27
ENDBRANCH  25  26
ENDBRANCH   1  25
TORSDOF 15
ENDMDL
