MODEL 1
REMARK VINA RESULT:     -11.0      0.000      0.000
REMARK SMILES C[C@@](NC(=O)c1cc(Br)c[nH]1)(C(=O)NCCCCNC(=O)c1ccc(-c2c3nc(c(-c4c(F)cccc4F)c4ccc([nH]4)c(-c4c(F)cccc4F)c4nc(c(-c5c(F)cccc5F)c5ccc2[nH]5)C=C4)C=C3)cc1)C(F)(F)F
REMARK SMILES IDX 16 1 15 2 14 3 12 4 13 5 2 7 1 8 3 9 4 10 5 12 6 13 7 14
REMARK SMILES IDX 11 15 8 16 10 17 9 19 76 20 77 21 78 22 79 23 17 24 18 25
REMARK SMILES IDX 19 26 20 27 21 29 22 30 23 31 75 32 24 33 74 34 25 35 26 36
REMARK SMILES IDX 27 37 68 38 28 39 73 40 67 41 69 42 29 43 72 44 66 45 65 46
REMARK SMILES IDX 30 48 56 49 39 50 55 51 40 52 43 53 54 54 70 55 41 56 42 57
REMARK SMILES IDX 53 59 71 60 44 61 31 62 32 63 37 64 33 65 34 66 36 67 38 68
REMARK SMILES IDX 35 69 57 70 58 71 63 72 59 73 60 74 62 75 64 76 61 77 45 78
REMARK SMILES IDX 46 79 51 80 47 81 48 82 50 83 52 84 49 85
REMARK H PARENT 14 6 3 11 11 18 19 28 69 47 43 58
REMARK Flexibility Score: inf
ROOT
ATOM      1  C   UNL A   1      36.662  20.229  25.005  1.00  0.00     0.023 C 
ENDROOT
BRANCH   1   2
ATOM      2  C   UNL A   1      36.411  21.725  24.836  1.00  0.00     0.116 C 
BRANCH   2   3
ATOM      3  N   UNL A   1      35.753  22.285  26.004  1.00  0.00    -0.354 N 
ATOM      4  C   UNL A   1      34.431  22.480  26.280  1.00  0.00     0.254 C 
ATOM      5  O   UNL A   1      34.175  22.985  27.376  1.00  0.00    -0.272 OA
ATOM      6  H   UNL A   1      36.365  22.571  26.719  1.00  0.00     0.163 HD
BRANCH   4   7
ATOM      7  C   UNL A   1      33.329  22.202  25.244  1.00  0.00     0.212 C 
ATOM      8  C   UNL A   1      32.027  22.840  25.778  1.00  0.00     0.056 C 
BRANCH   7   9
ATOM      9  N   UNL A   1      33.608  22.777  23.892  1.00  0.00    -0.329 N 
ATOM     10  C   UNL A   1      33.857  24.064  23.484  1.00  0.00     0.268 C 
ATOM     11  H   UNL A   1      33.614  22.115  23.164  1.00  0.00     0.165 HD
ATOM     12  O   UNL A   1      34.390  24.198  22.383  1.00  0.00    -0.268 OA
BRANCH  10  13
ATOM     13  C   UNL A   1      33.338  25.183  24.230  1.00  0.00     0.105 A 
ATOM     14  C   UNL A   1      34.024  25.910  25.197  1.00  0.00     0.049 A 
ATOM     15  N   UNL A   1      32.064  25.714  24.183  1.00  0.00    -0.356 N 
ATOM     16  C   UNL A   1      33.201  26.974  25.596  1.00  0.00     0.036 A 
ATOM     17  C   UNL A   1      31.997  26.847  24.956  1.00  0.00     0.098 A 
ATOM     18  H   UNL A   1      31.315  25.337  23.670  1.00  0.00     0.166 HD
ATOM     19  Br  UNL A   1      33.720  28.325  26.781  1.00  0.00    -0.049 Br
ENDBRANCH  10  13
ENDBRANCH   7   9
BRANCH   7  20
ATOM     20  C   UNL A   1      33.087  20.679  25.180  1.00  0.00     0.420 C 
ATOM     21  F   UNL A   1      33.501  20.022  26.284  1.00  0.00    -0.168 F 
ATOM     22  F   UNL A   1      31.752  20.433  25.067  1.00  0.00    -0.168 F 
ATOM     23  F   UNL A   1      33.670  20.105  24.101  1.00  0.00    -0.168 F 
ENDBRANCH   7  20
ENDBRANCH   4   7
ENDBRANCH   2   3
ENDBRANCH   1   2
BRANCH   1  24
ATOM     24  C   UNL A   1      38.096  19.786  24.704  1.00  0.00     0.023 C 
BRANCH  24  25
ATOM     25  C   UNL A   1      39.106  20.063  25.814  1.00  0.00     0.116 C 
BRANCH  25  26
ATOM     26  N   UNL A   1      40.154  19.057  25.878  1.00  0.00    -0.352 N 
ATOM     27  C   UNL A   1      41.504  19.224  26.071  1.00  0.00     0.251 C 
ATOM     28  H   UNL A   1      39.854  18.125  25.767  1.00  0.00     0.163 HD
ATOM     29  O   UNL A   1      42.271  18.276  25.934  1.00  0.00    -0.269 OA
BRANCH  27  30
ATOM     30  C   UNL A   1      42.032  20.559  26.416  1.00  0.00     0.039 A 
ATOM     31  C   UNL A   1      42.359  21.442  25.385  1.00  0.00     0.014 A 
ATOM     32  C   UNL A   1      42.184  20.941  27.752  1.00  0.00     0.014 A 
ATOM     33  C   UNL A   1      42.775  22.738  25.694  1.00  0.00     0.010 A 
ATOM     34  C   UNL A   1      42.537  22.252  28.057  1.00  0.00     0.010 A 
ATOM     35  C   UNL A   1      42.834  23.163  27.031  1.00  0.00    -0.014 A 
BRANCH  35  36
ATOM     36  C   UNL A   1      43.196  24.560  27.376  1.00  0.00     0.031 A 
ATOM     37  C   UNL A   1      44.631  25.001  27.335  1.00  0.00     0.074 A 
ATOM     38  C   UNL A   1      42.238  25.414  27.787  1.00  0.00     0.049 A 
ATOM     39  N   UNL A   1      45.149  26.159  27.657  1.00  0.00    -0.248 NA
ATOM     40  C   UNL A   1      45.617  24.001  26.899  1.00  0.00     0.031 C 
ATOM     41  C   UNL A   1      40.816  25.093  27.917  1.00  0.00     0.029 A 
ATOM     42  N   UNL A   1      42.319  26.725  28.182  1.00  0.00    -0.354 N 
ATOM     43  C   UNL A   1      46.520  26.022  27.478  1.00  0.00     0.074 A 
ATOM     44  C   UNL A   1      46.757  24.656  27.064  1.00  0.00     0.031 C 
ATOM     45  C   UNL A   1      40.156  26.183  28.342  1.00  0.00     0.029 A 
ATOM     46  C   UNL A   1      41.111  27.268  28.544  1.00  0.00     0.049 A 
ATOM     47  H   UNL A   1      43.165  27.229  28.206  1.00  0.00     0.167 HD
ATOM     48  C   UNL A   1      47.490  26.955  27.625  1.00  0.00     0.037 A 
ATOM     49  C   UNL A   1      40.808  28.501  28.991  1.00  0.00     0.037 A 
ATOM     50  C   UNL A   1      47.249  28.321  28.010  1.00  0.00     0.049 A 
ATOM     51  C   UNL A   1      41.902  29.521  29.141  1.00  0.00     0.074 A 
ATOM     52  C   UNL A   1      48.159  29.358  28.121  1.00  0.00     0.029 A 
ATOM     53  N   UNL A   1      46.008  28.838  28.348  1.00  0.00    -0.354 N 
ATOM     54  N   UNL A   1      43.184  29.397  28.901  1.00  0.00    -0.248 NA
ATOM     55  C   UNL A   1      41.505  30.853  29.617  1.00  0.00     0.031 C 
ATOM     56  C   UNL A   1      47.472  30.495  28.562  1.00  0.00     0.029 A 
ATOM     57  C   UNL A   1      46.130  30.176  28.686  1.00  0.00     0.049 A 
ATOM     58  H   UNL A   1      45.165  28.330  28.347  1.00  0.00     0.167 HD
ATOM     59  C   UNL A   1      43.744  30.638  29.172  1.00  0.00     0.074 A 
ATOM     60  C   UNL A   1      42.658  31.505  29.584  1.00  0.00     0.031 C 
ATOM     61  C   UNL A   1      45.040  31.026  29.088  1.00  0.00     0.037 A 
BRANCH  48  62
ATOM     62  C   UNL A   1      48.902  26.526  27.362  1.00  0.00     0.057 A 
ATOM     63  C   UNL A   1      49.710  25.990  28.374  1.00  0.00     0.134 A 
ATOM     64  C   UNL A   1      49.454  26.625  26.078  1.00  0.00     0.134 A 
ATOM     65  F   UNL A   1      49.246  25.880  29.627  1.00  0.00    -0.206 F 
ATOM     66  C   UNL A   1      51.024  25.592  28.124  1.00  0.00     0.040 A 
ATOM     67  C   UNL A   1      50.758  26.207  25.811  1.00  0.00     0.040 A 
ATOM     68  F   UNL A   1      48.732  27.125  25.064  1.00  0.00    -0.206 F 
ATOM     69  C   UNL A   1      51.549  25.695  26.838  1.00  0.00     0.006 A 
ENDBRANCH  48  62
BRANCH  49  70
ATOM     70  C   UNL A   1      39.401  28.851  29.302  1.00  0.00     0.057 A 
ATOM     71  C   UNL A   1      38.892  28.705  30.598  1.00  0.00     0.134 A 
ATOM     72  C   UNL A   1      38.531  29.335  28.317  1.00  0.00     0.134 A 
ATOM     73  F   UNL A   1      39.674  28.229  31.579  1.00  0.00    -0.206 F 
ATOM     74  C   UNL A   1      37.566  29.012  30.902  1.00  0.00     0.040 A 
ATOM     75  C   UNL A   1      37.207  29.667  28.612  1.00  0.00     0.040 A 
ATOM     76  F   UNL A   1      38.960  29.503  27.059  1.00  0.00    -0.206 F 
ATOM     77  C   UNL A   1      36.720  29.500  29.907  1.00  0.00     0.006 A 
ENDBRANCH  49  70
BRANCH  61  78
ATOM     78  C   UNL A   1      45.350  32.455  29.417  1.00  0.00     0.057 A 
ATOM     79  C   UNL A   1      45.294  33.464  28.449  1.00  0.00     0.134 A 
ATOM     80  C   UNL A   1      45.672  32.830  30.728  1.00  0.00     0.134 A 
ATOM     81  F   UNL A   1      45.004  33.167  27.173  1.00  0.00    -0.206 F 
ATOM     82  C   UNL A   1      45.563  34.795  28.768  1.00  0.00     0.040 A 
ATOM     83  C   UNL A   1      45.922  34.161  31.064  1.00  0.00     0.040 A 
ATOM     84  F   UNL A   1      45.736  31.912  31.703  1.00  0.00    -0.206 F 
ATOM     85  C   UNL A   1      45.873  35.147  30.082  1.00  0.00     0.006 A 
ENDBRANCH  61  78
ENDBRANCH  35  36
ENDBRANCH  27  30
ENDBRANCH  25  26
ENDBRANCH  24  25
ENDBRANCH   1  24
TORSDOF 14
ENDMDL
MODEL 2
REMARK VINA RESULT:     -11.0      1.768      6.525
REMARK SMILES C[C@@](NC(=O)c1cc(Br)c[nH]1)(C(=O)NCCCCNC(=O)c1ccc(-c2c3nc(c(-c4c(F)cccc4F)c4ccc([nH]4)c(-c4c(F)cccc4F)c4nc(c(-c5c(F)cccc5F)c5ccc2[nH]5)C=C4)C=C3)cc1)C(F)(F)F
REMARK SMILES IDX 16 1 15 2 14 3 12 4 13 5 2 7 1 8 3 9 4 10 5 12 6 13 7 14
REMARK SMILES IDX 11 15 8 16 10 17 9 19 76 20 77 21 78 22 79 23 17 24 18 25
REMARK SMILES IDX 19 26 20 27 21 29 22 30 23 31 75 32 24 33 74 34 25 35 26 36
REMARK SMILES IDX 27 37 68 38 28 39 73 40 67 41 69 42 29 43 72 44 66 45 65 46
REMARK SMILES IDX 30 48 56 49 39 50 55 51 40 52 43 53 54 54 70 55 41 56 42 57
REMARK SMILES IDX 53 59 71 60 44 61 31 62 32 63 37 64 33 65 34 66 36 67 38 68
REMARK SMILES IDX 35 69 57 70 58 71 63 72 59 73 60 74 62 75 64 76 61 77 45 78
REMARK SMILES IDX 46 79 51 80 47 81 48 82 50 83 52 84 49 85
REMARK H PARENT 14 6 3 11 11 18 19 28 69 47 43 58
REMARK Flexibility Score: inf
ROOT
ATOM      1  C   UNL A   1      36.300  21.426  24.736  1.00  0.00     0.023 C 
ENDROOT
BRANCH   1   2
ATOM      2  C   UNL A   1      34.950  21.178  25.404  1.00  0.00     0.116 C 
BRANCH   2   3
ATOM      3  N   UNL A   1      33.971  20.690  24.447  1.00  0.00    -0.354 N 
ATOM      4  C   UNL A   1      32.920  21.316  23.843  1.00  0.00     0.254 C 
ATOM      5  O   UNL A   1      32.256  20.628  23.063  1.00  0.00    -0.272 OA
ATOM      6  H   UNL A   1      34.086  19.747  24.192  1.00  0.00     0.163 HD
BRANCH   4   7
ATOM      7  C   UNL A   1      32.509  22.755  24.199  1.00  0.00     0.212 C 
ATOM      8  C   UNL A   1      31.155  23.030  23.506  1.00  0.00     0.056 C 
BRANCH   7   9
ATOM      9  N   UNL A   1      32.338  22.992  25.665  1.00  0.00    -0.329 N 
ATOM     10  C   UNL A   1      31.527  23.855  26.359  1.00  0.00     0.268 C 
ATOM     11  H   UNL A   1      32.910  22.430  26.235  1.00  0.00     0.165 HD
ATOM     12  O   UNL A   1      31.341  23.598  27.548  1.00  0.00    -0.268 OA
BRANCH  10  13
ATOM     13  C   UNL A   1      31.089  25.091  25.761  1.00  0.00     0.105 A 
ATOM     14  C   UNL A   1      31.804  26.283  25.730  1.00  0.00     0.049 A 
ATOM     15  N   UNL A   1      29.874  25.357  25.162  1.00  0.00    -0.356 N 
ATOM     16  C   UNL A   1      31.071  27.202  24.964  1.00  0.00     0.036 A 
ATOM     17  C   UNL A   1      29.885  26.615  24.611  1.00  0.00     0.098 A 
ATOM     18  H   UNL A   1      29.111  24.736  25.133  1.00  0.00     0.166 HD
ATOM     19  Br  UNL A   1      31.671  28.914  24.507  1.00  0.00    -0.049 Br
ENDBRANCH  10  13
ENDBRANCH   7   9
BRANCH   7  20
ATOM     20  C   UNL A   1      33.534  23.727  23.577  1.00  0.00     0.420 C 
ATOM     21  F   UNL A   1      34.316  23.155  22.637  1.00  0.00    -0.168 F 
ATOM     22  F   UNL A   1      32.878  24.748  22.958  1.00  0.00    -0.168 F 
ATOM     23  F   UNL A   1      34.337  24.301  24.505  1.00  0.00    -0.168 F 
ENDBRANCH   7  20
ENDBRANCH   4   7
ENDBRANCH   2   3
ENDBRANCH   1   2
BRANCH   1  24
ATOM     24  C   UNL A   1      37.325  20.307  24.941  1.00  0.00     0.023 C 
BRANCH  24  25
ATOM     25  C   UNL A   1      38.625  20.735  25.615  1.00  0.00     0.116 C 
BRANCH  25  26
ATOM     26  N   UNL A   1      39.614  19.669  25.646  1.00  0.00    -0.352 N 
ATOM     27  C   UNL A   1      40.941  19.729  26.000  1.00  0.00     0.251 C 
ATOM     28  H   UNL A   1      39.288  18.780  25.376  1.00  0.00     0.163 HD
ATOM     29  O   UNL A   1      41.675  18.764  25.812  1.00  0.00    -0.269 OA
BRANCH  27  30
ATOM     30  C   UNL A   1      41.485  20.972  26.581  1.00  0.00     0.039 A 
ATOM     31  C   UNL A   1      42.043  21.927  25.728  1.00  0.00     0.014 A 
ATOM     32  C   UNL A   1      41.428  21.199  27.958  1.00  0.00     0.014 A 
ATOM     33  C   UNL A   1      42.482  23.145  26.250  1.00  0.00     0.010 A 
ATOM     34  C   UNL A   1      41.806  22.437  28.469  1.00  0.00     0.010 A 
ATOM     35  C   UNL A   1      42.335  23.422  27.620  1.00  0.00    -0.014 A 
BRANCH  35  36
ATOM     36  C   UNL A   1      42.721  24.741  28.180  1.00  0.00     0.031 A 
ATOM     37  C   UNL A   1      41.683  25.805  28.391  1.00  0.00     0.074 A 
ATOM     38  C   UNL A   1      44.017  25.000  28.439  1.00  0.00     0.049 A 
ATOM     39  N   UNL A   1      41.835  27.035  28.813  1.00  0.00    -0.248 NA
ATOM     40  C   UNL A   1      40.294  25.449  28.060  1.00  0.00     0.031 C 
ATOM     41  C   UNL A   1      45.126  24.067  28.230  1.00  0.00     0.029 A 
ATOM     42  N   UNL A   1      44.623  26.131  28.924  1.00  0.00    -0.354 N 
ATOM     43  C   UNL A   1      40.568  27.603  28.783  1.00  0.00     0.074 A 
ATOM     44  C   UNL A   1      39.667  26.600  28.259  1.00  0.00     0.031 C 
ATOM     45  C   UNL A   1      46.273  24.657  28.604  1.00  0.00     0.029 A 
ATOM     46  C   UNL A   1      45.985  26.017  29.048  1.00  0.00     0.049 A 
ATOM     47  H   UNL A   1      44.126  26.949  29.161  1.00  0.00     0.167 HD
ATOM     48  C   UNL A   1      40.186  28.842  29.176  1.00  0.00     0.037 A 
ATOM     49  C   UNL A   1      46.901  26.910  29.469  1.00  0.00     0.037 A 
ATOM     50  C   UNL A   1      41.078  29.829  29.723  1.00  0.00     0.049 A 
ATOM     51  C   UNL A   1      46.451  28.277  29.906  1.00  0.00     0.074 A 
ATOM     52  C   UNL A   1      40.775  31.087  30.213  1.00  0.00     0.029 A 
ATOM     53  N   UNL A   1      42.449  29.668  29.853  1.00  0.00    -0.354 N 
ATOM     54  N   UNL A   1      45.240  28.776  29.937  1.00  0.00    -0.248 NA
ATOM     55  C   UNL A   1      47.495  29.200  30.370  1.00  0.00     0.031 C 
ATOM     56  C   UNL A   1      41.969  31.703  30.604  1.00  0.00     0.029 A 
ATOM     57  C   UNL A   1      43.010  30.812  30.397  1.00  0.00     0.049 A 
ATOM     58  H   UNL A   1      42.950  28.861  29.596  1.00  0.00     0.167 HD
ATOM     59  C   UNL A   1      45.371  30.060  30.448  1.00  0.00     0.074 A 
ATOM     60  C   UNL A   1      46.780  30.259  30.723  1.00  0.00     0.031 C 
ATOM     61  C   UNL A   1      44.412  30.992  30.669  1.00  0.00     0.037 A 
BRANCH  48  62
ATOM     62  C   UNL A   1      38.735  29.192  29.031  1.00  0.00     0.057 A 
ATOM     63  C   UNL A   1      38.194  29.599  27.804  1.00  0.00     0.134 A 
ATOM     64  C   UNL A   1      37.863  29.098  30.123  1.00  0.00     0.134 A 
ATOM     65  F   UNL A   1      38.978  29.721  26.723  1.00  0.00    -0.206 F 
ATOM     66  C   UNL A   1      36.844  29.924  27.675  1.00  0.00     0.040 A 
ATOM     67  C   UNL A   1      36.506  29.397  30.000  1.00  0.00     0.040 A 
ATOM     68  F   UNL A   1      38.316  28.710  31.325  1.00  0.00    -0.206 F 
ATOM     69  C   UNL A   1      35.994  29.818  28.774  1.00  0.00     0.006 A 
ENDBRANCH  48  62
BRANCH  49  70
ATOM     70  C   UNL A   1      48.333  26.531  29.527  1.00  0.00     0.057 A 
ATOM     71  C   UNL A   1      48.870  25.916  30.664  1.00  0.00     0.134 A 
ATOM     72  C   UNL A   1      49.200  26.777  28.455  1.00  0.00     0.134 A 
ATOM     73  F   UNL A   1      48.091  25.672  31.729  1.00  0.00    -0.206 F 
ATOM     74  C   UNL A   1      50.219  25.570  30.741  1.00  0.00     0.040 A 
ATOM     75  C   UNL A   1      50.548  26.417  28.509  1.00  0.00     0.040 A 
ATOM     76  F   UNL A   1      48.745  27.357  27.336  1.00  0.00    -0.206 F 
ATOM     77  C   UNL A   1      51.062  25.817  29.658  1.00  0.00     0.006 A 
ENDBRANCH  49  70
BRANCH  61  78
ATOM     78  C   UNL A   1      44.849  32.297  31.264  1.00  0.00     0.057 A 
ATOM     79  C   UNL A   1      45.235  33.379  30.465  1.00  0.00     0.134 A 
ATOM     80  C   UNL A   1      44.846  32.482  32.653  1.00  0.00     0.134 A 
ATOM     81  F   UNL A   1      45.271  33.260  29.129  1.00  0.00    -0.206 F 
ATOM     82  C   UNL A   1      45.620  34.597  31.027  1.00  0.00     0.040 A 
ATOM     83  C   UNL A   1      45.208  33.703  33.225  1.00  0.00     0.040 A 
ATOM     84  F   UNL A   1      44.480  31.487  33.473  1.00  0.00    -0.206 F 
ATOM     85  C   UNL A   1      45.601  34.762  32.412  1.00  0.00     0.006 A 
ENDBRANCH  61  78
ENDBRANCH  35  36
ENDBRANCH  27  30
ENDBRANCH  25  26
ENDBRANCH  24  25
ENDBRANCH   1  24
TORSDOF 14
ENDMDL
MODEL 3
REMARK VINA RESULT:     -10.9      5.222      9.912
REMARK SMILES C[C@@](NC(=O)c1cc(Br)c[nH]1)(C(=O)NCCCCNC(=O)c1ccc(-c2c3nc(c(-c4c(F)cccc4F)c4ccc([nH]4)c(-c4c(F)cccc4F)c4nc(c(-c5c(F)cccc5F)c5ccc2[nH]5)C=C4)C=C3)cc1)C(F)(F)F
REMARK SMILES IDX 16 1 15 2 14 3 12 4 13 5 2 7 1 8 3 9 4 10 5 12 6 13 7 14
REMARK SMILES IDX 11 15 8 16 10 17 9 19 76 20 77 21 78 22 79 23 17 24 18 25
REMARK SMILES IDX 19 26 20 27 21 29 22 30 23 31 75 32 24 33 74 34 25 35 26 36
REMARK SMILES IDX 27 37 68 38 28 39 73 40 67 41 69 42 29 43 72 44 66 45 65 46
REMARK SMILES IDX 30 48 56 49 39 50 55 51 40 52 43 53 54 54 70 55 41 56 42 57
REMARK SMILES IDX 53 59 71 60 44 61 31 62 32 63 37 64 33 65 34 66 36 67 38 68
REMARK SMILES IDX 35 69 57 70 58 71 63 72 59 73 60 74 62 75 64 76 61 77 45 78
REMARK SMILES IDX 46 79 51 80 47 81 48 82 50 83 52 84 49 85
REMARK H PARENT 14 6 3 11 11 18 19 28 69 47 43 58
REMARK Flexibility Score: inf
ROOT
ATOM      1  C   UNL A   1      30.968  31.178  25.552  1.00  0.00     0.023 C 
ENDROOT
BRANCH   1   2
ATOM      2  C   UNL A   1      31.845  29.993  25.948  1.00  0.00     0.116 C 
BRANCH   2   3
ATOM      3  N   UNL A   1      32.863  29.733  24.944  1.00  0.00    -0.354 N 
ATOM      4  C   UNL A   1      33.246  28.573  24.336  1.00  0.00     0.254 C 
ATOM      5  O   UNL A   1      34.157  28.670  23.509  1.00  0.00    -0.272 OA
ATOM      6  H   UNL A   1      33.361  30.530  24.653  1.00  0.00     0.163 HD
BRANCH   4   7
ATOM      7  C   UNL A   1      32.666  27.207  24.740  1.00  0.00     0.212 C 
ATOM      8  C   UNL A   1      31.484  27.476  25.698  1.00  0.00     0.056 C 
BRANCH   7   9
ATOM      9  N   UNL A   1      32.157  26.400  23.588  1.00  0.00    -0.329 N 
ATOM     10  C   UNL A   1      31.517  26.767  22.431  1.00  0.00     0.268 C 
ATOM     11  H   UNL A   1      32.307  25.431  23.676  1.00  0.00     0.165 HD
ATOM     12  O   UNL A   1      31.525  25.946  21.514  1.00  0.00    -0.268 OA
BRANCH  10  13
ATOM     13  C   UNL A   1      30.721  27.968  22.383  1.00  0.00     0.105 A 
ATOM     14  C   UNL A   1      29.433  28.116  22.886  1.00  0.00     0.049 A 
ATOM     15  N   UNL A   1      31.042  29.173  21.789  1.00  0.00    -0.356 N 
ATOM     16  C   UNL A   1      29.065  29.462  22.731  1.00  0.00     0.036 A 
ATOM     17  C   UNL A   1      30.071  30.106  22.062  1.00  0.00     0.098 A 
ATOM     18  H   UNL A   1      31.848  29.339  21.251  1.00  0.00     0.166 HD
ATOM     19  Br  UNL A   1      27.474  30.203  23.376  1.00  0.00    -0.049 Br
ENDBRANCH  10  13
ENDBRANCH   7   9
BRANCH   7  20
ATOM     20  C   UNL A   1      33.732  26.440  25.551  1.00  0.00     0.420 C 
ATOM     21  F   UNL A   1      34.481  27.237  26.342  1.00  0.00    -0.168 F 
ATOM     22  F   UNL A   1      33.121  25.546  26.377  1.00  0.00    -0.168 F 
ATOM     23  F   UNL A   1      34.565  25.719  24.763  1.00  0.00    -0.168 F 
ENDBRANCH   7  20
ENDBRANCH   4   7
ENDBRANCH   2   3
ENDBRANCH   1   2
BRANCH   1  24
ATOM     24  C   UNL A   1      31.042  32.371  26.510  1.00  0.00     0.023 C 
BRANCH  24  25
ATOM     25  C   UNL A   1      32.453  32.814  26.886  1.00  0.00     0.116 C 
BRANCH  25  26
ATOM     26  N   UNL A   1      32.477  34.125  27.515  1.00  0.00    -0.352 N 
ATOM     27  C   UNL A   1      33.298  34.593  28.512  1.00  0.00     0.251 C 
ATOM     28  H   UNL A   1      31.810  34.768  27.179  1.00  0.00     0.163 HD
ATOM     29  O   UNL A   1      33.075  35.676  29.042  1.00  0.00    -0.269 OA
BRANCH  27  30
ATOM     30  C   UNL A   1      34.438  33.769  28.963  1.00  0.00     0.039 A 
ATOM     31  C   UNL A   1      35.736  34.233  28.739  1.00  0.00     0.014 A 
ATOM     32  C   UNL A   1      34.223  32.554  29.618  1.00  0.00     0.014 A 
ATOM     33  C   UNL A   1      36.821  33.510  29.237  1.00  0.00     0.010 A 
ATOM     34  C   UNL A   1      35.301  31.868  30.169  1.00  0.00     0.010 A 
ATOM     35  C   UNL A   1      36.610  32.341  29.985  1.00  0.00    -0.014 A 
BRANCH  35  36
ATOM     36  C   UNL A   1      37.746  31.603  30.590  1.00  0.00     0.031 A 
ATOM     37  C   UNL A   1      38.183  31.907  31.994  1.00  0.00     0.074 A 
ATOM     38  C   UNL A   1      38.424  30.703  29.852  1.00  0.00     0.049 A 
ATOM     39  N   UNL A   1      39.187  31.412  32.673  1.00  0.00    -0.248 NA
ATOM     40  C   UNL A   1      37.405  32.920  32.723  1.00  0.00     0.031 C 
ATOM     41  C   UNL A   1      38.129  30.354  28.461  1.00  0.00     0.029 A 
ATOM     42  N   UNL A   1      39.509  29.925  30.166  1.00  0.00    -0.354 N 
ATOM     43  C   UNL A   1      39.171  32.064  33.900  1.00  0.00     0.074 A 
ATOM     44  C   UNL A   1      38.087  33.021  33.855  1.00  0.00     0.031 C 
ATOM     45  C   UNL A   1      38.999  29.417  28.049  1.00  0.00     0.029 A 
ATOM     46  C   UNL A   1      39.931  29.123  29.134  1.00  0.00     0.049 A 
ATOM     47  H   UNL A   1      39.946  29.940  31.049  1.00  0.00     0.167 HD
ATOM     48  C   UNL A   1      39.973  31.867  34.973  1.00  0.00     0.037 A 
ATOM     49  C   UNL A   1      40.955  28.252  29.068  1.00  0.00     0.037 A 
ATOM     50  C   UNL A   1      41.033  30.895  35.025  1.00  0.00     0.049 A 
ATOM     51  C   UNL A   1      41.827  28.047  30.275  1.00  0.00     0.074 A 
ATOM     52  C   UNL A   1      41.856  30.575  36.091  1.00  0.00     0.029 A 
ATOM     53  N   UNL A   1      41.415  30.087  33.966  1.00  0.00    -0.354 N 
ATOM     54  N   UNL A   1      41.756  28.620  31.451  1.00  0.00    -0.248 NA
ATOM     55  C   UNL A   1      42.918  27.071  30.145  1.00  0.00     0.031 C 
ATOM     56  C   UNL A   1      42.763  29.598  35.663  1.00  0.00     0.029 A 
ATOM     57  C   UNL A   1      42.476  29.281  34.345  1.00  0.00     0.049 A 
ATOM     58  H   UNL A   1      40.995  30.086  33.076  1.00  0.00     0.167 HD
ATOM     59  C   UNL A   1      42.774  28.057  32.210  1.00  0.00     0.074 A 
ATOM     60  C   UNL A   1      43.441  27.089  31.363  1.00  0.00     0.031 C 
ATOM     61  C   UNL A   1      43.125  28.319  33.493  1.00  0.00     0.037 A 
BRANCH  48  62
ATOM     62  C   UNL A   1      39.727  32.721  36.181  1.00  0.00     0.057 A 
ATOM     63  C   UNL A   1      38.778  32.370  37.151  1.00  0.00     0.134 A 
ATOM     64  C   UNL A   1      40.464  33.893  36.391  1.00  0.00     0.134 A 
ATOM     65  F   UNL A   1      38.031  31.266  37.002  1.00  0.00    -0.206 F 
ATOM     66  C   UNL A   1      38.553  33.168  38.273  1.00  0.00     0.040 A 
ATOM     67  C   UNL A   1      40.264  34.686  37.521  1.00  0.00     0.040 A 
ATOM     68  F   UNL A   1      41.391  34.283  35.504  1.00  0.00    -0.206 F 
ATOM     69  C   UNL A   1      39.302  34.328  38.463  1.00  0.00     0.006 A 
ENDBRANCH  48  62
BRANCH  49  70
ATOM     70  C   UNL A   1      41.194  27.483  27.822  1.00  0.00     0.057 A 
ATOM     71  C   UNL A   1      41.978  28.011  26.790  1.00  0.00     0.134 A 
ATOM     72  C   UNL A   1      40.647  26.209  27.632  1.00  0.00     0.134 A 
ATOM     73  F   UNL A   1      42.514  29.235  26.909  1.00  0.00    -0.206 F 
ATOM     74  C   UNL A   1      42.197  27.308  25.605  1.00  0.00     0.040 A 
ATOM     75  C   UNL A   1      40.876  25.484  26.460  1.00  0.00     0.040 A 
ATOM     76  F   UNL A   1      39.893  25.645  28.586  1.00  0.00    -0.206 F 
ATOM     77  C   UNL A   1      41.649  26.037  25.440  1.00  0.00     0.006 A 
ENDBRANCH  49  70
BRANCH  61  78
ATOM     78  C   UNL A   1      44.259  27.525  34.068  1.00  0.00     0.057 A 
ATOM     79  C   UNL A   1      45.581  27.985  34.016  1.00  0.00     0.134 A 
ATOM     80  C   UNL A   1      44.020  26.306  34.714  1.00  0.00     0.134 A 
ATOM     81  F   UNL A   1      45.876  29.139  33.399  1.00  0.00    -0.206 F 
ATOM     82  C   UNL A   1      46.629  27.250  34.572  1.00  0.00     0.040 A 
ATOM     83  C   UNL A   1      45.057  25.573  35.293  1.00  0.00     0.040 A 
ATOM     84  F   UNL A   1      42.776  25.815  34.803  1.00  0.00    -0.206 F 
ATOM     85  C   UNL A   1      46.366  26.042  35.218  1.00  0.00     0.006 A 
ENDBRANCH  61  78
ENDBRANCH  35  36
ENDBRANCH  27  30
ENDBRANCH  25  26
ENDBRANCH  24  25
ENDBRANCH   1  24
TORSDOF 14
ENDMDL
