MODEL 1
REMARK VINA RESULT:     -11.3      0.000      0.000
REMARK SMILES O=C(CC1CC1)NCc1ccc(C(=O)NCCCCNC(=O)c2ccc(-c3c4nc(c(-c5c(F)cccc5F)c5ccc([nH]5)c(-c5c(F)cccc5F)c5nc(c(-c6c(F)cccc6F)c6ccc3[nH]6)C=C5)C=C4)cc2)o1
REMARK SMILES IDX 16 1 15 2 13 3 14 4 12 6 9 7 10 8 77 9 11 10 8 11 7 12 1 13
REMARK SMILES IDX 2 14 3 16 4 17 5 18 6 19 17 20 18 21 19 22 20 23 21 24 22 26
REMARK SMILES IDX 23 27 24 28 76 29 25 30 75 31 26 32 27 33 28 34 69 35 29 36
REMARK SMILES IDX 74 37 68 38 70 39 30 40 73 41 67 42 66 43 31 45 57 46 40 47
REMARK SMILES IDX 56 48 41 49 44 50 55 51 71 52 42 53 43 54 54 56 72 57 45 58
REMARK SMILES IDX 32 59 33 60 38 61 34 62 35 63 37 64 39 65 36 66 58 67 59 68
REMARK SMILES IDX 64 69 60 70 61 71 63 72 65 73 62 74 46 75 47 76 52 77 48 78
REMARK SMILES IDX 49 79 51 80 53 81 50 82
REMARK H PARENT 15 5 7 15 20 25 70 44 44 55
REMARK Flexibility Score: inf
ROOT
ATOM      1  C   UNL A   1      31.836  29.680  27.251  1.00  0.00     0.116 C 
ENDROOT
BRANCH   1   2
ATOM      2  N   UNL A   1      33.231  29.542  27.610  1.00  0.00    -0.349 N 
ATOM      3  C   UNL A   1      34.238  28.813  27.016  1.00  0.00     0.286 C 
ATOM      4  O   UNL A   1      35.360  28.953  27.507  1.00  0.00    -0.266 OA
ATOM      5  H   UNL A   1      33.505  30.052  28.406  1.00  0.00     0.163 HD
BRANCH   3   6
ATOM      6  C   UNL A   1      33.971  27.957  25.875  1.00  0.00     0.191 A 
ATOM      7  C   UNL A   1      33.478  27.632  23.741  1.00  0.00     0.124 A 
ATOM      8  C   UNL A   1      33.555  26.382  24.314  1.00  0.00     0.048 A 
ATOM      9  O   UNL A   1      33.728  28.587  24.675  1.00  0.00    -0.454 OA
ATOM     10  C   UNL A   1      33.921  26.589  25.662  1.00  0.00     0.056 A 
BRANCH   7  11
ATOM     11  C   UNL A   1      33.231  28.095  22.353  1.00  0.00     0.191 C 
BRANCH  11  12
ATOM     12  N   UNL A   1      32.217  29.122  22.430  1.00  0.00    -0.349 N 
ATOM     13  O   UNL A   1      30.414  27.712  22.358  1.00  0.00    -0.275 OA
ATOM     14  C   UNL A   1      30.874  28.850  22.370  1.00  0.00     0.220 C 
ATOM     15  H   UNL A   1      32.504  30.059  22.531  1.00  0.00     0.163 HD
BRANCH  14  16
ATOM     16  C   UNL A   1      29.999  30.079  22.211  1.00  0.00     0.103 C 
BRANCH  16  17
ATOM     17  C   UNL A   1      29.045  30.407  23.325  1.00  0.00    -0.002 C 
ATOM     18  C   UNL A   1      28.094  31.582  23.338  1.00  0.00     0.004 C 
ATOM     19  C   UNL A   1      27.561  30.194  23.129  1.00  0.00     0.004 C 
ENDBRANCH  16  17
ENDBRANCH  14  16
ENDBRANCH  11  12
ENDBRANCH   7  11
ENDBRANCH   3   6
ENDBRANCH   1   2
BRANCH   1  20
ATOM     20  C   UNL A   1      31.655  30.709  26.136  1.00  0.00     0.023 C 
BRANCH  20  21
ATOM     21  C   UNL A   1      31.403  32.134  26.642  1.00  0.00     0.023 C 
BRANCH  21  22
ATOM     22  C   UNL A   1      32.619  32.826  27.251  1.00  0.00     0.116 C 
BRANCH  22  23
ATOM     23  N   UNL A   1      32.369  34.210  27.626  1.00  0.00    -0.352 N 
ATOM     24  C   UNL A   1      33.019  34.972  28.570  1.00  0.00     0.251 C 
ATOM     25  H   UNL A   1      31.641  34.660  27.141  1.00  0.00     0.163 HD
ATOM     26  O   UNL A   1      32.626  36.095  28.840  1.00  0.00    -0.269 OA
BRANCH  24  27
ATOM     27  C   UNL A   1      34.176  34.393  29.284  1.00  0.00     0.039 A 
ATOM     28  C   UNL A   1      33.945  33.672  30.459  1.00  0.00     0.014 A 
ATOM     29  C   UNL A   1      35.471  34.529  28.778  1.00  0.00     0.014 A 
ATOM     30  C   UNL A   1      35.008  33.024  31.088  1.00  0.00     0.010 A 
ATOM     31  C   UNL A   1      36.518  33.828  29.369  1.00  0.00     0.010 A 
ATOM     32  C   UNL A   1      36.295  33.066  30.525  1.00  0.00    -0.014 A 
BRANCH  32  33
ATOM     33  C   UNL A   1      37.420  32.309  31.128  1.00  0.00     0.031 A 
ATOM     34  C   UNL A   1      37.920  32.664  32.499  1.00  0.00     0.074 A 
ATOM     35  C   UNL A   1      38.038  31.353  30.408  1.00  0.00     0.049 A 
ATOM     36  N   UNL A   1      38.935  32.171  33.161  1.00  0.00    -0.248 NA
ATOM     37  C   UNL A   1      37.201  33.735  33.208  1.00  0.00     0.031 C 
ATOM     38  C   UNL A   1      37.679  30.952  29.045  1.00  0.00     0.029 A 
ATOM     39  N   UNL A   1      39.107  30.551  30.718  1.00  0.00    -0.354 N 
ATOM     40  C   UNL A   1      38.986  32.879  34.354  1.00  0.00     0.074 A 
ATOM     41  C   UNL A   1      37.933  33.870  34.305  1.00  0.00     0.031 C 
ATOM     42  C   UNL A   1      38.499  29.968  28.647  1.00  0.00     0.029 A 
ATOM     43  C   UNL A   1      39.461  29.690  29.708  1.00  0.00     0.049 A 
ATOM     44  H   UNL A   1      39.575  30.588  31.584  1.00  0.00     0.167 HD
ATOM     45  C   UNL A   1      39.821  32.705  35.407  1.00  0.00     0.037 A 
ATOM     46  C   UNL A   1      40.454  28.783  29.644  1.00  0.00     0.037 A 
ATOM     47  C   UNL A   1      40.850  31.701  35.465  1.00  0.00     0.049 A 
ATOM     48  C   UNL A   1      41.365  28.605  30.827  1.00  0.00     0.074 A 
ATOM     49  C   UNL A   1      41.706  31.402  36.511  1.00  0.00     0.029 A 
ATOM     50  N   UNL A   1      41.163  30.831  34.431  1.00  0.00    -0.354 N 
ATOM     51  N   UNL A   1      41.357  29.235  31.977  1.00  0.00    -0.248 NA
ATOM     52  C   UNL A   1      42.417  27.586  30.706  1.00  0.00     0.031 C 
ATOM     53  C   UNL A   1      42.561  30.377  36.096  1.00  0.00     0.029 A 
ATOM     54  C   UNL A   1      42.211  30.007  34.808  1.00  0.00     0.049 A 
ATOM     55  H   UNL A   1      40.707  30.803  33.559  1.00  0.00     0.167 HD
ATOM     56  C   UNL A   1      42.382  28.672  32.726  1.00  0.00     0.074 A 
ATOM     57  C   UNL A   1      42.982  27.641  31.903  1.00  0.00     0.031 C 
ATOM     58  C   UNL A   1      42.790  28.981  33.980  1.00  0.00     0.037 A 
BRANCH  45  59
ATOM     59  C   UNL A   1      39.647  33.619  36.584  1.00  0.00     0.057 A 
ATOM     60  C   UNL A   1      40.333  34.838  36.678  1.00  0.00     0.134 A 
ATOM     61  C   UNL A   1      38.764  33.292  37.620  1.00  0.00     0.134 A 
ATOM     62  F   UNL A   1      41.204  35.203  35.726  1.00  0.00    -0.206 F 
ATOM     63  C   UNL A   1      40.167  35.685  37.774  1.00  0.00     0.040 A 
ATOM     64  C   UNL A   1      38.569  34.144  38.708  1.00  0.00     0.040 A 
ATOM     65  F   UNL A   1      38.072  32.143  37.589  1.00  0.00    -0.206 F 
ATOM     66  C   UNL A   1      39.278  35.342  38.790  1.00  0.00     0.006 A 
ENDBRANCH  45  59
BRANCH  46  67
ATOM     67  C   UNL A   1      40.625  27.953  28.426  1.00  0.00     0.057 A 
ATOM     68  C   UNL A   1      40.011  26.701  28.316  1.00  0.00     0.134 A 
ATOM     69  C   UNL A   1      41.409  28.385  27.349  1.00  0.00     0.134 A 
ATOM     70  F   UNL A   1      39.262  26.226  29.323  1.00  0.00    -0.206 F 
ATOM     71  C   UNL A   1      40.183  25.897  27.188  1.00  0.00     0.040 A 
ATOM     72  C   UNL A   1      41.571  27.602  26.205  1.00  0.00     0.040 A 
ATOM     73  F   UNL A   1      42.017  29.579  27.389  1.00  0.00    -0.206 F 
ATOM     74  C   UNL A   1      40.963  26.350  26.125  1.00  0.00     0.006 A 
ENDBRANCH  46  67
BRANCH  58  75
ATOM     75  C   UNL A   1      43.915  28.172  34.554  1.00  0.00     0.057 A 
ATOM     76  C   UNL A   1      45.250  28.582  34.446  1.00  0.00     0.134 A 
ATOM     77  C   UNL A   1      43.655  26.989  35.257  1.00  0.00     0.134 A 
ATOM     78  F   UNL A   1      45.565  29.699  33.773  1.00  0.00    -0.206 F 
ATOM     79  C   UNL A   1      46.289  27.832  34.999  1.00  0.00     0.040 A 
ATOM     80  C   UNL A   1      44.683  26.244  35.836  1.00  0.00     0.040 A 
ATOM     81  F   UNL A   1      42.398  26.545  35.403  1.00  0.00    -0.206 F 
ATOM     82  C   UNL A   1      46.006  26.663  35.704  1.00  0.00     0.006 A 
ENDBRANCH  58  75
ENDBRANCH  32  33
ENDBRANCH  24  27
ENDBRANCH  22  23
ENDBRANCH  21  22
ENDBRANCH  20  21
ENDBRANCH   1  20
TORSDOF 15
ENDMDL
MODEL 2
REMARK VINA RESULT:     -11.2      1.225      6.424
REMARK SMILES O=C(CC1CC1)NCc1ccc(C(=O)NCCCCNC(=O)c2ccc(-c3c4nc(c(-c5c(F)cccc5F)c5ccc([nH]5)c(-c5c(F)cccc5F)c5nc(c(-c6c(F)cccc6F)c6ccc3[nH]6)C=C5)C=C4)cc2)o1
REMARK SMILES IDX 16 1 15 2 13 3 14 4 12 6 9 7 10 8 77 9 11 10 8 11 7 12 1 13
REMARK SMILES IDX 2 14 3 16 4 17 5 18 6 19 17 20 18 21 19 22 20 23 21 24 22 26
REMARK SMILES IDX 23 27 24 28 76 29 25 30 75 31 26 32 27 33 28 34 69 35 29 36
REMARK SMILES IDX 74 37 68 38 70 39 30 40 73 41 67 42 66 43 31 45 57 46 40 47
REMARK SMILES IDX 56 48 41 49 44 50 55 51 71 52 42 53 43 54 54 56 72 57 45 58
REMARK SMILES IDX 32 59 33 60 38 61 34 62 35 63 37 64 39 65 36 66 58 67 59 68
REMARK SMILES IDX 64 69 60 70 61 71 63 72 65 73 62 74 46 75 47 76 52 77 48 78
REMARK SMILES IDX 49 79 51 80 53 81 50 82
REMARK H PARENT 15 5 7 15 20 25 70 44 44 55
REMARK Flexibility Score: inf
ROOT
ATOM      1  C   UNL A   1      32.962  29.852  26.617  1.00  0.00     0.116 C 
ENDROOT
BRANCH   1   2
ATOM      2  N   UNL A   1      33.702  29.212  25.550  1.00  0.00    -0.349 N 
ATOM      3  C   UNL A   1      33.380  28.127  24.766  1.00  0.00     0.286 C 
ATOM      4  O   UNL A   1      34.184  27.855  23.873  1.00  0.00    -0.266 OA
ATOM      5  H   UNL A   1      34.577  29.619  25.354  1.00  0.00     0.163 HD
BRANCH   3   6
ATOM      6  C   UNL A   1      32.154  27.381  24.984  1.00  0.00     0.191 A 
ATOM      7  C   UNL A   1      30.070  26.838  24.467  1.00  0.00     0.124 A 
ATOM      8  C   UNL A   1      30.385  26.125  25.602  1.00  0.00     0.048 A 
ATOM      9  O   UNL A   1      31.132  27.598  24.088  1.00  0.00    -0.454 OA
ATOM     10  C   UNL A   1      31.730  26.433  25.901  1.00  0.00     0.056 A 
BRANCH   7  11
ATOM     11  C   UNL A   1      28.864  26.887  23.604  1.00  0.00     0.191 C 
BRANCH  11  12
ATOM     12  N   UNL A   1      28.744  28.248  23.133  1.00  0.00    -0.349 N 
ATOM     13  O   UNL A   1      26.497  28.460  23.515  1.00  0.00    -0.275 OA
ATOM     14  C   UNL A   1      27.547  28.915  23.073  1.00  0.00     0.220 C 
ATOM     15  H   UNL A   1      29.560  28.718  22.841  1.00  0.00     0.163 HD
BRANCH  14  16
ATOM     16  C   UNL A   1      27.605  30.227  22.314  1.00  0.00     0.103 C 
BRANCH  16  17
ATOM     17  C   UNL A   1      27.764  31.490  23.113  1.00  0.00    -0.002 C 
ATOM     18  C   UNL A   1      29.007  31.885  23.877  1.00  0.00     0.004 C 
ATOM     19  C   UNL A   1      28.660  32.595  22.599  1.00  0.00     0.004 C 
ENDBRANCH  16  17
ENDBRANCH  14  16
ENDBRANCH  11  12
ENDBRANCH   7  11
ENDBRANCH   3   6
ENDBRANCH   1   2
BRANCH   1  20
ATOM     20  C   UNL A   1      31.839  30.725  26.060  1.00  0.00     0.023 C 
BRANCH  20  21
ATOM     21  C   UNL A   1      31.516  31.947  26.926  1.00  0.00     0.023 C 
BRANCH  21  22
ATOM     22  C   UNL A   1      32.718  32.810  27.298  1.00  0.00     0.116 C 
BRANCH  22  23
ATOM     23  N   UNL A   1      32.369  34.190  27.602  1.00  0.00    -0.352 N 
ATOM     24  C   UNL A   1      32.952  35.041  28.513  1.00  0.00     0.251 C 
ATOM     25  H   UNL A   1      31.617  34.563  27.088  1.00  0.00     0.163 HD
ATOM     26  O   UNL A   1      32.478  36.145  28.724  1.00  0.00    -0.269 OA
BRANCH  24  27
ATOM     27  C   UNL A   1      34.138  34.579  29.266  1.00  0.00     0.039 A 
ATOM     28  C   UNL A   1      33.952  34.039  30.540  1.00  0.00     0.014 A 
ATOM     29  C   UNL A   1      35.414  34.646  28.702  1.00  0.00     0.014 A 
ATOM     30  C   UNL A   1      35.041  33.496  31.223  1.00  0.00     0.010 A 
ATOM     31  C   UNL A   1      36.486  34.045  29.354  1.00  0.00     0.010 A 
ATOM     32  C   UNL A   1      36.308  33.461  30.617  1.00  0.00    -0.014 A 
BRANCH  32  33
ATOM     33  C   UNL A   1      37.460  32.807  31.287  1.00  0.00     0.031 A 
ATOM     34  C   UNL A   1      38.123  31.616  30.657  1.00  0.00     0.074 A 
ATOM     35  C   UNL A   1      37.859  33.244  32.497  1.00  0.00     0.049 A 
ATOM     36  N   UNL A   1      39.090  30.867  31.123  1.00  0.00    -0.248 NA
ATOM     37  C   UNL A   1      37.612  31.192  29.344  1.00  0.00     0.031 C 
ATOM     38  C   UNL A   1      37.261  34.359  33.236  1.00  0.00     0.029 A 
ATOM     39  N   UNL A   1      38.855  32.794  33.326  1.00  0.00    -0.354 N 
ATOM     40  C   UNL A   1      39.293  29.879  30.169  1.00  0.00     0.074 A 
ATOM     41  C   UNL A   1      38.316  30.091  29.123  1.00  0.00     0.031 C 
ATOM     42  C   UNL A   1      37.916  34.518  34.397  1.00  0.00     0.029 A 
ATOM     43  C   UNL A   1      38.955  33.498  34.501  1.00  0.00     0.049 A 
ATOM     44  H   UNL A   1      39.444  32.038  33.099  1.00  0.00     0.167 HD
ATOM     45  C   UNL A   1      40.224  28.895  30.155  1.00  0.00     0.037 A 
ATOM     46  C   UNL A   1      39.787  33.336  35.547  1.00  0.00     0.037 A 
ATOM     47  C   UNL A   1      41.213  28.703  31.182  1.00  0.00     0.049 A 
ATOM     48  C   UNL A   1      40.815  32.240  35.505  1.00  0.00     0.074 A 
ATOM     49  C   UNL A   1      42.240  27.776  31.228  1.00  0.00     0.029 A 
ATOM     50  N   UNL A   1      41.297  29.452  32.346  1.00  0.00    -0.354 N 
ATOM     51  N   UNL A   1      41.040  31.355  34.564  1.00  0.00    -0.248 NA
ATOM     52  C   UNL A   1      41.709  32.125  36.666  1.00  0.00     0.031 C 
ATOM     53  C   UNL A   1      42.922  27.940  32.438  1.00  0.00     0.029 A 
ATOM     54  C   UNL A   1      42.347  28.997  33.125  1.00  0.00     0.049 A 
ATOM     55  H   UNL A   1      40.699  30.198  32.582  1.00  0.00     0.167 HD
ATOM     56  C   UNL A   1      42.117  30.597  35.006  1.00  0.00     0.074 A 
ATOM     57  C   UNL A   1      42.506  31.135  36.293  1.00  0.00     0.031 C 
ATOM     58  C   UNL A   1      42.727  29.549  34.401  1.00  0.00     0.037 A 
BRANCH  45  59
ATOM     59  C   UNL A   1      40.219  27.957  28.983  1.00  0.00     0.057 A 
ATOM     60  C   UNL A   1      40.936  28.237  27.812  1.00  0.00     0.134 A 
ATOM     61  C   UNL A   1      39.515  26.748  29.038  1.00  0.00     0.134 A 
ATOM     62  F   UNL A   1      41.619  29.385  27.691  1.00  0.00    -0.206 F 
ATOM     63  C   UNL A   1      40.929  27.361  26.726  1.00  0.00     0.040 A 
ATOM     64  C   UNL A   1      39.523  25.851  27.968  1.00  0.00     0.040 A 
ATOM     65  F   UNL A   1      38.813  26.416  30.131  1.00  0.00    -0.206 F 
ATOM     66  C   UNL A   1      40.227  26.160  26.805  1.00  0.00     0.006 A 
ENDBRANCH  45  59
BRANCH  46  67
ATOM     67  C   UNL A   1      39.702  34.250  36.713  1.00  0.00     0.057 A 
ATOM     68  C   UNL A   1      38.964  33.901  37.849  1.00  0.00     0.134 A 
ATOM     69  C   UNL A   1      40.350  35.491  36.720  1.00  0.00     0.134 A 
ATOM     70  F   UNL A   1      38.308  32.731  37.893  1.00  0.00    -0.206 F 
ATOM     71  C   UNL A   1      38.854  34.760  38.943  1.00  0.00     0.040 A 
ATOM     72  C   UNL A   1      40.268  36.350  37.816  1.00  0.00     0.040 A 
ATOM     73  F   UNL A   1      41.081  35.880  35.665  1.00  0.00    -0.206 F 
ATOM     74  C   UNL A   1      39.512  35.988  38.930  1.00  0.00     0.006 A 
ENDBRANCH  46  67
BRANCH  58  75
ATOM     75  C   UNL A   1      43.901  28.938  35.106  1.00  0.00     0.057 A 
ATOM     76  C   UNL A   1      45.209  29.393  34.893  1.00  0.00     0.134 A 
ATOM     77  C   UNL A   1      43.716  27.911  36.039  1.00  0.00     0.134 A 
ATOM     78  F   UNL A   1      45.453  30.365  34.001  1.00  0.00    -0.206 F 
ATOM     79  C   UNL A   1      46.294  28.832  35.568  1.00  0.00     0.040 A 
ATOM     80  C   UNL A   1      44.789  27.359  36.739  1.00  0.00     0.040 A 
ATOM     81  F   UNL A   1      42.488  27.435  36.295  1.00  0.00    -0.206 F 
ATOM     82  C   UNL A   1      46.084  27.816  36.500  1.00  0.00     0.006 A 
ENDBRANCH  58  75
ENDBRANCH  32  33
ENDBRANCH  24  27
ENDBRANCH  22  23
ENDBRANCH  21  22
ENDBRANCH  20  21
ENDBRANCH   1  20
TORSDOF 15
ENDMDL
MODEL 3
REMARK VINA RESULT:     -10.9      1.239      2.228
REMARK SMILES O=C(CC1CC1)NCc1ccc(C(=O)NCCCCNC(=O)c2ccc(-c3c4nc(c(-c5c(F)cccc5F)c5ccc([nH]5)c(-c5c(F)cccc5F)c5nc(c(-c6c(F)cccc6F)c6ccc3[nH]6)C=C5)C=C4)cc2)o1
REMARK SMILES IDX 16 1 15 2 13 3 14 4 12 6 9 7 10 8 77 9 11 10 8 11 7 12 1 13
REMARK SMILES IDX 2 14 3 16 4 17 5 18 6 19 17 20 18 21 19 22 20 23 21 24 22 26
REMARK SMILES IDX 23 27 24 28 76 29 25 30 75 31 26 32 27 33 28 34 69 35 29 36
REMARK SMILES IDX 74 37 68 38 70 39 30 40 73 41 67 42 66 43 31 45 57 46 40 47
REMARK SMILES IDX 56 48 41 49 44 50 55 51 71 52 42 53 43 54 54 56 72 57 45 58
REMARK SMILES IDX 32 59 33 60 38 61 34 62 35 63 37 64 39 65 36 66 58 67 59 68
REMARK SMILES IDX 64 69 60 70 61 71 63 72 65 73 62 74 46 75 47 76 52 77 48 78
REMARK SMILES IDX 49 79 51 80 53 81 50 82
REMARK H PARENT 15 5 7 15 20 25 70 44 44 55
REMARK Flexibility Score: inf
ROOT
ATOM      1  C   UNL A   1      32.732  29.883  26.675  1.00  0.00     0.116 C 
ENDROOT
BRANCH   1   2
ATOM      2  N   UNL A   1      33.546  29.264  25.651  1.00  0.00    -0.349 N 
ATOM      3  C   UNL A   1      33.322  28.136  24.893  1.00  0.00     0.286 C 
ATOM      4  O   UNL A   1      34.170  27.892  24.032  1.00  0.00    -0.266 OA
ATOM      5  H   UNL A   1      34.396  29.724  25.465  1.00  0.00     0.163 HD
BRANCH   3   6
ATOM      6  C   UNL A   1      32.144  27.313  25.102  1.00  0.00     0.191 A 
ATOM      7  C   UNL A   1      30.074  26.695  24.619  1.00  0.00     0.124 A 
ATOM      8  C   UNL A   1      30.465  25.928  25.693  1.00  0.00     0.048 A 
ATOM      9  O   UNL A   1      31.081  27.533  24.256  1.00  0.00    -0.454 OA
ATOM     10  C   UNL A   1      31.803  26.286  25.967  1.00  0.00     0.056 A 
BRANCH   7  11
ATOM     11  C   UNL A   1      28.836  26.736  23.802  1.00  0.00     0.191 C 
BRANCH  11  12
ATOM     12  N   UNL A   1      28.814  28.022  23.143  1.00  0.00    -0.349 N 
ATOM     13  O   UNL A   1      26.606  28.481  23.540  1.00  0.00    -0.275 OA
ATOM     14  C   UNL A   1      27.675  28.776  23.014  1.00  0.00     0.220 C 
ATOM     15  H   UNL A   1      29.655  28.373  22.769  1.00  0.00     0.163 HD
BRANCH  14  16
ATOM     16  C   UNL A   1      27.817  29.957  22.074  1.00  0.00     0.103 C 
BRANCH  16  17
ATOM     17  C   UNL A   1      28.703  31.093  22.506  1.00  0.00    -0.002 C 
ATOM     18  C   UNL A   1      28.708  32.474  21.893  1.00  0.00     0.004 C 
ATOM     19  C   UNL A   1      28.109  32.265  23.255  1.00  0.00     0.004 C 
ENDBRANCH  16  17
ENDBRANCH  14  16
ENDBRANCH  11  12
ENDBRANCH   7  11
ENDBRANCH   3   6
ENDBRANCH   1   2
BRANCH   1  20
ATOM     20  C   UNL A   1      31.655  30.774  26.057  1.00  0.00     0.023 C 
BRANCH  20  21
ATOM     21  C   UNL A   1      31.385  32.059  26.848  1.00  0.00     0.023 C 
BRANCH  21  22
ATOM     22  C   UNL A   1      32.631  32.849  27.240  1.00  0.00     0.116 C 
BRANCH  22  23
ATOM     23  N   UNL A   1      32.348  34.225  27.618  1.00  0.00    -0.352 N 
ATOM     24  C   UNL A   1      33.001  35.012  28.539  1.00  0.00     0.251 C 
ATOM     25  H   UNL A   1      31.589  34.649  27.154  1.00  0.00     0.163 HD
ATOM     26  O   UNL A   1      32.580  36.122  28.818  1.00  0.00    -0.269 OA
BRANCH  24  27
ATOM     27  C   UNL A   1      34.198  34.474  29.218  1.00  0.00     0.039 A 
ATOM     28  C   UNL A   1      34.034  33.810  30.436  1.00  0.00     0.014 A 
ATOM     29  C   UNL A   1      35.464  34.593  28.639  1.00  0.00     0.014 A 
ATOM     30  C   UNL A   1      35.134  33.198  31.039  1.00  0.00     0.010 A 
ATOM     31  C   UNL A   1      36.546  33.927  29.207  1.00  0.00     0.010 A 
ATOM     32  C   UNL A   1      36.389  33.220  30.408  1.00  0.00    -0.014 A 
BRANCH  32  33
ATOM     33  C   UNL A   1      37.550  32.500  30.987  1.00  0.00     0.031 A 
ATOM     34  C   UNL A   1      38.209  33.009  32.237  1.00  0.00     0.074 A 
ATOM     35  C   UNL A   1      38.056  31.430  30.342  1.00  0.00     0.049 A 
ATOM     36  N   UNL A   1      39.275  32.561  32.849  1.00  0.00    -0.248 NA
ATOM     37  C   UNL A   1      37.605  34.194  32.866  1.00  0.00     0.031 C 
ATOM     38  C   UNL A   1      37.537  30.870  29.092  1.00  0.00     0.029 A 
ATOM     39  N   UNL A   1      39.127  30.628  30.645  1.00  0.00    -0.354 N 
ATOM     40  C   UNL A   1      39.478  33.418  33.924  1.00  0.00     0.074 A 
ATOM     41  C   UNL A   1      38.457  34.440  33.851  1.00  0.00     0.031 C 
ATOM     42  C   UNL A   1      38.278  29.805  28.747  1.00  0.00     0.029 A 
ATOM     43  C   UNL A   1      39.342  29.627  29.729  1.00  0.00     0.049 A 
ATOM     44  H   UNL A   1      39.689  30.758  31.443  1.00  0.00     0.167 HD
ATOM     45  C   UNL A   1      40.418  33.346  34.897  1.00  0.00     0.037 A 
ATOM     46  C   UNL A   1      40.293  28.676  29.685  1.00  0.00     0.037 A 
ATOM     47  C   UNL A   1      41.416  32.313  34.983  1.00  0.00     0.049 A 
ATOM     48  C   UNL A   1      41.323  28.614  30.779  1.00  0.00     0.074 A 
ATOM     49  C   UNL A   1      42.372  32.116  35.964  1.00  0.00     0.029 A 
ATOM     50  N   UNL A   1      41.587  31.301  34.049  1.00  0.00    -0.354 N 
ATOM     51  N   UNL A   1      41.461  29.390  31.827  1.00  0.00    -0.248 NA
ATOM     52  C   UNL A   1      42.324  27.542  30.688  1.00  0.00     0.031 C 
ATOM     53  C   UNL A   1      43.145  31.008  35.604  1.00  0.00     0.029 A 
ATOM     54  C   UNL A   1      42.644  30.488  34.422  1.00  0.00     0.049 A 
ATOM     55  H   UNL A   1      41.037  31.180  33.241  1.00  0.00     0.167 HD
ATOM     56  C   UNL A   1      42.544  28.884  32.534  1.00  0.00     0.074 A 
ATOM     57  C   UNL A   1      43.018  27.728  31.801  1.00  0.00     0.031 C 
ATOM     58  C   UNL A   1      43.097  29.337  33.685  1.00  0.00     0.037 A 
BRANCH  45  59
ATOM     59  C   UNL A   1      40.403  34.414  35.951  1.00  0.00     0.057 A 
ATOM     60  C   UNL A   1      39.655  34.277  37.128  1.00  0.00     0.134 A 
ATOM     61  C   UNL A   1      41.166  35.578  35.801  1.00  0.00     0.134 A 
ATOM     62  F   UNL A   1      38.892  33.192  37.326  1.00  0.00    -0.206 F 
ATOM     63  C   UNL A   1      39.645  35.272  38.106  1.00  0.00     0.040 A 
ATOM     64  C   UNL A   1      41.186  36.568  36.785  1.00  0.00     0.040 A 
ATOM     65  F   UNL A   1      41.909  35.770  34.701  1.00  0.00    -0.206 F 
ATOM     66  C   UNL A   1      40.419  36.419  37.938  1.00  0.00     0.006 A 
ENDBRANCH  45  59
BRANCH  46  67
ATOM     67  C   UNL A   1      40.304  27.685  28.580  1.00  0.00     0.057 A 
ATOM     68  C   UNL A   1      41.000  27.939  27.393  1.00  0.00     0.134 A 
ATOM     69  C   UNL A   1      39.618  26.469  28.680  1.00  0.00     0.134 A 
ATOM     70  F   UNL A   1      41.662  29.095  27.233  1.00  0.00    -0.206 F 
ATOM     71  C   UNL A   1      40.999  27.029  26.335  1.00  0.00     0.040 A 
ATOM     72  C   UNL A   1      39.627  25.539  27.639  1.00  0.00     0.040 A 
ATOM     73  F   UNL A   1      38.940  26.163  29.794  1.00  0.00    -0.206 F 
ATOM     74  C   UNL A   1      40.313  25.822  26.458  1.00  0.00     0.006 A 
ENDBRANCH  46  67
BRANCH  58  75
ATOM     75  C   UNL A   1      44.253  28.560  34.242  1.00  0.00     0.057 A 
ATOM     76  C   UNL A   1      44.065  27.464  35.093  1.00  0.00     0.134 A 
ATOM     77  C   UNL A   1      45.568  28.890  33.891  1.00  0.00     0.134 A 
ATOM     78  F   UNL A   1      42.830  27.107  35.478  1.00  0.00    -0.206 F 
ATOM     79  C   UNL A   1      45.146  26.735  35.591  1.00  0.00     0.040 A 
ATOM     80  C   UNL A   1      46.655  28.154  34.362  1.00  0.00     0.040 A 
ATOM     81  F   UNL A   1      45.816  29.925  33.073  1.00  0.00    -0.206 F 
ATOM     82  C   UNL A   1      46.446  27.076  35.219  1.00  0.00     0.006 A 
ENDBRANCH  58  75
ENDBRANCH  32  33
ENDBRANCH  24  27
ENDBRANCH  22  23
ENDBRANCH  21  22
ENDBRANCH  20  21
ENDBRANCH   1  20
TORSDOF 15
ENDMDL
