MODEL 1
REMARK VINA RESULT:     -11.4      0.000      0.000
REMARK SMILES O=C(NCc1ccsc1)NC[C@H]1CC[C@@H](C(=O)NCCCCNC(=O)c2ccc(-c3c4nc(c(-c5c(F)cccc5F)c5ccc([nH]5)c(-c5c(F)cccc5F)c5nc(c(-c6c(F)cccc6F)c6ccc3[nH]6)C=C5)C=C4)cc2)CC1
REMARK SMILES IDX 19 1 18 2 16 3 17 4 15 6 12 7 13 8 81 9 14 10 80 11 11 12
REMARK SMILES IDX 10 13 1 14 2 15 3 16 4 19 5 20 6 21 9 22 7 23 8 24 20 25
REMARK SMILES IDX 21 26 22 27 23 28 24 29 25 31 26 32 27 33 79 34 28 35 78 36
REMARK SMILES IDX 29 37 30 38 31 39 72 40 32 41 77 42 71 43 73 44 33 45 76 46
REMARK SMILES IDX 70 47 69 48 34 50 60 51 43 52 59 53 44 54 47 55 58 56 74 57
REMARK SMILES IDX 45 58 46 59 57 61 75 62 48 63 35 64 36 65 41 66 37 67 38 68
REMARK SMILES IDX 40 69 42 70 39 71 61 72 62 73 67 74 63 75 64 76 66 77 68 78
REMARK SMILES IDX 65 79 49 80 50 81 55 82 51 83 52 84 54 85 56 86 53 87
REMARK H PARENT 18 5 3 17 10 18 23 30 73 49 47 60
REMARK Flexibility Score: inf
ROOT
ATOM      1  C   UNL A   1      34.646  31.837  28.240  1.00  0.00     0.116 C 
ENDROOT
BRANCH   1   2
ATOM      2  N   UNL A   1      33.518  31.680  27.357  1.00  0.00    -0.356 N 
ATOM      3  C   UNL A   1      32.714  30.623  27.087  1.00  0.00     0.223 C 
ATOM      4  O   UNL A   1      31.739  30.868  26.365  1.00  0.00    -0.275 OA
ATOM      5  H   UNL A   1      33.288  32.496  26.855  1.00  0.00     0.163 HD
BRANCH   3   6
ATOM      6  C   UNL A   1      32.940  29.181  27.578  1.00  0.00     0.078 C 
ATOM      7  C   UNL A   1      32.631  26.720  25.841  1.00  0.00     0.008 C 
ATOM      8  C   UNL A   1      33.975  27.469  25.897  1.00  0.00     0.006 C 
ATOM      9  C   UNL A   1      31.423  27.475  26.419  1.00  0.00     0.006 C 
ATOM     10  C   UNL A   1      34.168  28.432  27.067  1.00  0.00     0.014 C 
ATOM     11  C   UNL A   1      31.689  28.317  27.650  1.00  0.00     0.014 C 
BRANCH   7  12
ATOM     12  C   UNL A   1      32.271  26.329  24.390  1.00  0.00     0.121 C 
BRANCH  12  13
ATOM     13  N   UNL A   1      31.300  27.193  23.763  1.00  0.00    -0.338 N 
ATOM     14  O   UNL A   1      32.841  28.168  22.391  1.00  0.00    -0.249 OA
ATOM     15  C   UNL A   1      31.679  28.040  22.767  1.00  0.00     0.315 C 
ATOM     16  N   UNL A   1      30.716  28.777  22.175  1.00  0.00    -0.334 N 
ATOM     17  H   UNL A   1      31.034  29.348  21.439  1.00  0.00     0.165 HD
ATOM     18  H   UNL A   1      30.362  27.169  24.057  1.00  0.00     0.165 HD
BRANCH  16  19
ATOM     19  C   UNL A   1      29.301  28.873  22.439  1.00  0.00     0.154 C 
BRANCH  19  20
ATOM     20  C   UNL A   1      28.902  30.311  22.350  1.00  0.00    -0.018 A 
ATOM     21  C   UNL A   1      28.896  31.231  23.453  1.00  0.00     0.017 A 
ATOM     22  C   UNL A   1      28.494  30.943  21.189  1.00  0.00     0.070 A 
ATOM     23  C   UNL A   1      28.493  32.497  23.089  1.00  0.00     0.065 A 
ATOM     24  S   UNL A   1      28.111  32.592  21.428  1.00  0.00    -0.152 S 
ENDBRANCH  19  20
ENDBRANCH  16  19
ENDBRANCH  12  13
ENDBRANCH   7  12
ENDBRANCH   3   6
ENDBRANCH   1   2
BRANCH   1  25
ATOM     25  C   UNL A   1      34.469  32.959  29.260  1.00  0.00     0.023 C 
BRANCH  25  26
ATOM     26  C   UNL A   1      33.497  34.058  28.850  1.00  0.00     0.023 C 
BRANCH  26  27
ATOM     27  C   UNL A   1      33.724  35.416  29.508  1.00  0.00     0.116 C 
BRANCH  27  28
ATOM     28  N   UNL A   1      32.659  35.861  30.397  1.00  0.00    -0.352 N 
ATOM     29  C   UNL A   1      32.622  35.768  31.775  1.00  0.00     0.251 C 
ATOM     30  H   UNL A   1      31.877  36.276  29.967  1.00  0.00     0.163 HD
ATOM     31  O   UNL A   1      31.665  36.172  32.415  1.00  0.00    -0.269 OA
BRANCH  29  32
ATOM     32  C   UNL A   1      33.752  35.108  32.459  1.00  0.00     0.039 A 
ATOM     33  C   UNL A   1      33.591  33.796  32.911  1.00  0.00     0.014 A 
ATOM     34  C   UNL A   1      34.996  35.740  32.528  1.00  0.00     0.014 A 
ATOM     35  C   UNL A   1      34.708  33.078  33.338  1.00  0.00     0.010 A 
ATOM     36  C   UNL A   1      36.117  34.998  32.877  1.00  0.00     0.010 A 
ATOM     37  C   UNL A   1      35.987  33.655  33.269  1.00  0.00    -0.014 A 
BRANCH  37  38
ATOM     38  C   UNL A   1      37.208  32.870  33.578  1.00  0.00     0.031 A 
ATOM     39  C   UNL A   1      37.971  33.138  34.843  1.00  0.00     0.074 A 
ATOM     40  C   UNL A   1      37.682  31.986  32.677  1.00  0.00     0.049 A 
ATOM     41  N   UNL A   1      39.114  32.640  35.241  1.00  0.00    -0.248 NA
ATOM     42  C   UNL A   1      37.391  34.126  35.766  1.00  0.00     0.031 C 
ATOM     43  C   UNL A   1      37.072  31.683  31.380  1.00  0.00     0.029 A 
ATOM     44  N   UNL A   1      38.798  31.189  32.710  1.00  0.00    -0.354 N 
ATOM     45  C   UNL A   1      39.402  33.274  36.442  1.00  0.00     0.074 A 
ATOM     46  C   UNL A   1      38.340  34.227  36.684  1.00  0.00     0.031 C 
ATOM     47  C   UNL A   1      37.806  30.748  30.755  1.00  0.00     0.029 A 
ATOM     48  C   UNL A   1      38.955  30.411  31.589  1.00  0.00     0.049 A 
ATOM     49  H   UNL A   1      39.429  31.176  33.467  1.00  0.00     0.167 HD
ATOM     50  C   UNL A   1      40.444  33.065  37.281  1.00  0.00     0.037 A 
ATOM     51  C   UNL A   1      39.916  29.524  31.271  1.00  0.00     0.037 A 
ATOM     52  C   UNL A   1      41.473  32.083  37.064  1.00  0.00     0.049 A 
ATOM     53  C   UNL A   1      41.040  29.277  32.239  1.00  0.00     0.074 A 
ATOM     54  C   UNL A   1      42.528  31.743  37.891  1.00  0.00     0.029 A 
ATOM     55  N   UNL A   1      41.567  31.277  35.940  1.00  0.00    -0.354 N 
ATOM     56  N   UNL A   1      41.264  29.838  33.402  1.00  0.00    -0.248 NA
ATOM     57  C   UNL A   1      42.040  28.271  31.852  1.00  0.00     0.031 C 
ATOM     58  C   UNL A   1      43.277  30.747  37.255  1.00  0.00     0.029 A 
ATOM     59  C   UNL A   1      42.668  30.446  36.047  1.00  0.00     0.049 A 
ATOM     60  H   UNL A   1      40.943  31.295  35.178  1.00  0.00     0.167 HD
ATOM     61  C   UNL A   1      42.413  29.236  33.897  1.00  0.00     0.074 A 
ATOM     62  C   UNL A   1      42.834  28.260  32.913  1.00  0.00     0.031 C 
ATOM     63  C   UNL A   1      43.063  29.472  35.062  1.00  0.00     0.037 A 
BRANCH  50  64
ATOM     64  C   UNL A   1      40.508  33.909  38.518  1.00  0.00     0.057 A 
ATOM     65  C   UNL A   1      39.812  33.563  39.683  1.00  0.00     0.134 A 
ATOM     66  C   UNL A   1      41.285  35.074  38.550  1.00  0.00     0.134 A 
ATOM     67  F   UNL A   1      39.037  32.467  39.711  1.00  0.00    -0.206 F 
ATOM     68  C   UNL A   1      39.862  34.359  40.827  1.00  0.00     0.040 A 
ATOM     69  C   UNL A   1      41.363  35.866  39.696  1.00  0.00     0.040 A 
ATOM     70  F   UNL A   1      41.979  35.461  37.469  1.00  0.00    -0.206 F 
ATOM     71  C   UNL A   1      40.644  35.512  40.837  1.00  0.00     0.006 A 
ENDBRANCH  50  64
BRANCH  51  72
ATOM     72  C   UNL A   1      39.844  28.774  29.992  1.00  0.00     0.057 A 
ATOM     73  C   UNL A   1      39.189  27.538  29.924  1.00  0.00     0.134 A 
ATOM     74  C   UNL A   1      40.426  29.265  28.818  1.00  0.00     0.134 A 
ATOM     75  F   UNL A   1      38.629  27.009  31.021  1.00  0.00    -0.206 F 
ATOM     76  C   UNL A   1      39.132  26.807  28.736  1.00  0.00     0.040 A 
ATOM     77  C   UNL A   1      40.359  28.553  27.620  1.00  0.00     0.040 A 
ATOM     78  F   UNL A   1      41.060  30.446  28.820  1.00  0.00    -0.206 F 
ATOM     79  C   UNL A   1      39.716  27.317  27.578  1.00  0.00     0.006 A 
ENDBRANCH  51  72
BRANCH  63  80
ATOM     80  C   UNL A   1      44.275  28.640  35.351  1.00  0.00     0.057 A 
ATOM     81  C   UNL A   1      45.557  29.049  34.967  1.00  0.00     0.134 A 
ATOM     82  C   UNL A   1      44.161  27.436  36.057  1.00  0.00     0.134 A 
ATOM     83  F   UNL A   1      45.730  30.186  34.276  1.00  0.00    -0.206 F 
ATOM     84  C   UNL A   1      46.685  28.280  35.263  1.00  0.00     0.040 A 
ATOM     85  C   UNL A   1      45.281  26.670  36.376  1.00  0.00     0.040 A 
ATOM     86  F   UNL A   1      42.959  26.994  36.459  1.00  0.00    -0.206 F 
ATOM     87  C   UNL A   1      46.548  27.090  35.975  1.00  0.00     0.006 A 
ENDBRANCH  63  80
ENDBRANCH  37  38
ENDBRANCH  29  32
ENDBRANCH  27  28
ENDBRANCH  26  27
ENDBRANCH  25  26
ENDBRANCH   1  25
TORSDOF 15
ENDMDL
MODEL 2
REMARK VINA RESULT:     -11.4      4.498      6.446
REMARK SMILES O=C(NCc1ccsc1)NC[C@H]1CC[C@@H](C(=O)NCCCCNC(=O)c2ccc(-c3c4nc(c(-c5c(F)cccc5F)c5ccc([nH]5)c(-c5c(F)cccc5F)c5nc(c(-c6c(F)cccc6F)c6ccc3[nH]6)C=C5)C=C4)cc2)CC1
REMARK SMILES IDX 19 1 18 2 16 3 17 4 15 6 12 7 13 8 81 9 14 10 80 11 11 12
REMARK SMILES IDX 10 13 1 14 2 15 3 16 4 19 5 20 6 21 9 22 7 23 8 24 20 25
REMARK SMILES IDX 21 26 22 27 23 28 24 29 25 31 26 32 27 33 79 34 28 35 78 36
REMARK SMILES IDX 29 37 30 38 31 39 72 40 32 41 77 42 71 43 73 44 33 45 76 46
REMARK SMILES IDX 70 47 69 48 34 50 60 51 43 52 59 53 44 54 47 55 58 56 74 57
REMARK SMILES IDX 45 58 46 59 57 61 75 62 48 63 35 64 36 65 41 66 37 67 38 68
REMARK SMILES IDX 40 69 42 70 39 71 61 72 62 73 67 74 63 75 64 76 66 77 68 78
REMARK SMILES IDX 65 79 49 80 50 81 55 82 51 83 52 84 54 85 56 86 53 87
REMARK H PARENT 18 5 3 17 10 18 23 30 73 49 47 60
REMARK Flexibility Score: inf
ROOT
ATOM      1  C   UNL A   1      31.196  26.843  25.799  1.00  0.00     0.116 C 
ENDROOT
BRANCH   1   2
ATOM      2  N   UNL A   1      30.573  25.724  26.460  1.00  0.00    -0.356 N 
ATOM      3  C   UNL A   1      30.815  24.392  26.415  1.00  0.00     0.223 C 
ATOM      4  O   UNL A   1      30.173  23.707  27.221  1.00  0.00    -0.275 OA
ATOM      5  H   UNL A   1      29.832  25.975  27.057  1.00  0.00     0.163 HD
BRANCH   3   6
ATOM      6  C   UNL A   1      31.782  23.692  25.442  1.00  0.00     0.078 C 
ATOM      7  C   UNL A   1      33.259  25.093  23.200  1.00  0.00     0.008 C 
ATOM      8  C   UNL A   1      33.865  25.036  24.614  1.00  0.00     0.006 C 
ATOM      9  C   UNL A   1      31.770  24.720  23.097  1.00  0.00     0.006 C 
ATOM     10  C   UNL A   1      33.273  23.997  25.566  1.00  0.00     0.014 C 
ATOM     11  C   UNL A   1      31.300  23.600  24.001  1.00  0.00     0.014 C 
BRANCH   7  12
ATOM     12  C   UNL A   1      33.418  26.501  22.582  1.00  0.00     0.121 C 
BRANCH  12  13
ATOM     13  N   UNL A   1      32.322  27.398  22.853  1.00  0.00    -0.338 N 
ATOM     14  O   UNL A   1      33.681  29.213  23.105  1.00  0.00    -0.249 OA
ATOM     15  C   UNL A   1      32.557  28.722  23.066  1.00  0.00     0.315 C 
ATOM     16  N   UNL A   1      31.487  29.524  23.251  1.00  0.00    -0.334 N 
ATOM     17  H   UNL A   1      31.706  30.477  23.366  1.00  0.00     0.165 HD
ATOM     18  H   UNL A   1      31.401  27.052  22.882  1.00  0.00     0.165 HD
BRANCH  16  19
ATOM     19  C   UNL A   1      30.078  29.223  23.308  1.00  0.00     0.154 C 
BRANCH  19  20
ATOM     20  C   UNL A   1      29.323  30.405  22.793  1.00  0.00    -0.018 A 
ATOM     21  C   UNL A   1      28.884  31.514  23.595  1.00  0.00     0.017 A 
ATOM     22  C   UNL A   1      28.955  30.588  21.471  1.00  0.00     0.070 A 
ATOM     23  C   UNL A   1      28.217  32.470  22.862  1.00  0.00     0.065 A 
ATOM     24  S   UNL A   1      28.103  32.047  21.212  1.00  0.00    -0.152 S 
ENDBRANCH  19  20
ENDBRANCH  16  19
ENDBRANCH  12  13
ENDBRANCH   7  12
ENDBRANCH   3   6
ENDBRANCH   1   2
BRANCH   1  25
ATOM     25  C   UNL A   1      31.576  27.976  26.749  1.00  0.00     0.023 C 
BRANCH  25  26
ATOM     26  C   UNL A   1      33.044  28.011  27.159  1.00  0.00     0.023 C 
BRANCH  26  27
ATOM     27  C   UNL A   1      33.828  29.233  26.691  1.00  0.00     0.116 C 
BRANCH  27  28
ATOM     28  N   UNL A   1      33.754  30.393  27.570  1.00  0.00    -0.352 N 
ATOM     29  C   UNL A   1      34.743  30.880  28.403  1.00  0.00     0.251 C 
ATOM     30  H   UNL A   1      32.902  30.886  27.570  1.00  0.00     0.163 HD
ATOM     31  O   UNL A   1      34.560  31.861  29.103  1.00  0.00    -0.269 OA
BRANCH  29  32
ATOM     32  C   UNL A   1      36.020  30.141  28.472  1.00  0.00     0.039 A 
ATOM     33  C   UNL A   1      36.921  30.254  27.410  1.00  0.00     0.014 A 
ATOM     34  C   UNL A   1      36.371  29.454  29.636  1.00  0.00     0.014 A 
ATOM     35  C   UNL A   1      38.218  29.765  27.560  1.00  0.00     0.010 A 
ATOM     36  C   UNL A   1      37.685  29.041  29.812  1.00  0.00     0.010 A 
ATOM     37  C   UNL A   1      38.626  29.207  28.783  1.00  0.00    -0.014 A 
BRANCH  37  38
ATOM     38  C   UNL A   1      40.037  28.811  29.021  1.00  0.00     0.031 A 
ATOM     39  C   UNL A   1      40.995  29.788  29.641  1.00  0.00     0.074 A 
ATOM     40  C   UNL A   1      40.477  27.611  28.593  1.00  0.00     0.049 A 
ATOM     41  N   UNL A   1      42.284  29.673  29.830  1.00  0.00    -0.248 NA
ATOM     42  C   UNL A   1      40.435  31.079  30.069  1.00  0.00     0.031 C 
ATOM     43  C   UNL A   1      39.664  26.599  27.915  1.00  0.00     0.029 A 
ATOM     44  N   UNL A   1      41.726  27.045  28.652  1.00  0.00    -0.354 N 
ATOM     45  C   UNL A   1      42.693  30.885  30.371  1.00  0.00     0.074 A 
ATOM     46  C   UNL A   1      41.525  31.737  30.434  1.00  0.00     0.031 C 
ATOM     47  C   UNL A   1      40.427  25.527  27.646  1.00  0.00     0.029 A 
ATOM     48  C   UNL A   1      41.790  25.789  28.100  1.00  0.00     0.049 A 
ATOM     49  H   UNL A   1      42.504  27.498  29.052  1.00  0.00     0.167 HD
ATOM     50  C   UNL A   1      43.925  31.248  30.800  1.00  0.00     0.037 A 
ATOM     51  C   UNL A   1      42.829  24.943  27.975  1.00  0.00     0.037 A 
ATOM     52  C   UNL A   1      45.075  30.384  30.782  1.00  0.00     0.049 A 
ATOM     53  C   UNL A   1      44.178  25.352  28.500  1.00  0.00     0.074 A 
ATOM     54  C   UNL A   1      46.347  30.634  31.263  1.00  0.00     0.029 A 
ATOM     55  N   UNL A   1      45.086  29.100  30.263  1.00  0.00    -0.354 N 
ATOM     56  N   UNL A   1      44.534  26.477  29.068  1.00  0.00    -0.248 NA
ATOM     57  C   UNL A   1      45.266  24.372  28.368  1.00  0.00     0.031 C 
ATOM     58  C   UNL A   1      47.137  29.506  31.012  1.00  0.00     0.029 A 
ATOM     59  C   UNL A   1      46.346  28.545  30.403  1.00  0.00     0.049 A 
ATOM     60  H   UNL A   1      44.312  28.649  29.853  1.00  0.00     0.167 HD
ATOM     61  C   UNL A   1      45.878  26.332  29.387  1.00  0.00     0.074 A 
ATOM     62  C   UNL A   1      46.270  25.005  28.957  1.00  0.00     0.031 C 
ATOM     63  C   UNL A   1      46.713  27.218  29.979  1.00  0.00     0.037 A 
BRANCH  50  64
ATOM     64  C   UNL A   1      44.081  32.639  31.337  1.00  0.00     0.057 A 
ATOM     65  C   UNL A   1      44.387  33.721  30.503  1.00  0.00     0.134 A 
ATOM     66  C   UNL A   1      43.909  32.902  32.702  1.00  0.00     0.134 A 
ATOM     67  F   UNL A   1      44.580  33.532  29.188  1.00  0.00    -0.206 F 
ATOM     68  C   UNL A   1      44.548  35.011  31.009  1.00  0.00     0.040 A 
ATOM     69  C   UNL A   1      44.042  34.193  33.217  1.00  0.00     0.040 A 
ATOM     70  F   UNL A   1      43.612  31.911  33.556  1.00  0.00    -0.206 F 
ATOM     71  C   UNL A   1      44.369  35.250  32.370  1.00  0.00     0.006 A 
ENDBRANCH  50  64
BRANCH  51  72
ATOM     72  C   UNL A   1      42.633  23.607  27.360  1.00  0.00     0.057 A 
ATOM     73  C   UNL A   1      42.306  22.497  28.148  1.00  0.00     0.134 A 
ATOM     74  C   UNL A   1      42.770  23.405  25.983  1.00  0.00     0.134 A 
ATOM     75  F   UNL A   1      42.180  22.626  29.477  1.00  0.00    -0.206 F 
ATOM     76  C   UNL A   1      42.142  21.227  27.591  1.00  0.00     0.040 A 
ATOM     77  C   UNL A   1      42.589  22.146  25.410  1.00  0.00     0.040 A 
ATOM     78  F   UNL A   1      43.074  24.431  25.175  1.00  0.00    -0.206 F 
ATOM     79  C   UNL A   1      42.280  21.050  26.215  1.00  0.00     0.006 A 
ENDBRANCH  51  72
BRANCH  63  80
ATOM     80  C   UNL A   1      48.122  26.771  30.229  1.00  0.00     0.057 A 
ATOM     81  C   UNL A   1      49.154  27.056  29.328  1.00  0.00     0.134 A 
ATOM     82  C   UNL A   1      48.454  26.085  31.403  1.00  0.00     0.134 A 
ATOM     83  F   UNL A   1      48.896  27.699  28.178  1.00  0.00    -0.206 F 
ATOM     84  C   UNL A   1      50.469  26.659  29.579  1.00  0.00     0.040 A 
ATOM     85  C   UNL A   1      49.766  25.701  31.676  1.00  0.00     0.040 A 
ATOM     86  F   UNL A   1      47.510  25.789  32.309  1.00  0.00    -0.206 F 
ATOM     87  C   UNL A   1      50.778  25.985  30.760  1.00  0.00     0.006 A 
ENDBRANCH  63  80
ENDBRANCH  37  38
ENDBRANCH  29  32
ENDBRANCH  27  28
ENDBRANCH  26  27
ENDBRANCH  25  26
ENDBRANCH   1  25
TORSDOF 15
ENDMDL
MODEL 3
REMARK VINA RESULT:     -11.4      4.981      7.467
REMARK SMILES O=C(NCc1ccsc1)NC[C@H]1CC[C@@H](C(=O)NCCCCNC(=O)c2ccc(-c3c4nc(c(-c5c(F)cccc5F)c5ccc([nH]5)c(-c5c(F)cccc5F)c5nc(c(-c6c(F)cccc6F)c6ccc3[nH]6)C=C5)C=C4)cc2)CC1
REMARK SMILES IDX 19 1 18 2 16 3 17 4 15 6 12 7 13 8 81 9 14 10 80 11 11 12
REMARK SMILES IDX 10 13 1 14 2 15 3 16 4 19 5 20 6 21 9 22 7 23 8 24 20 25
REMARK SMILES IDX 21 26 22 27 23 28 24 29 25 31 26 32 27 33 79 34 28 35 78 36
REMARK SMILES IDX 29 37 30 38 31 39 72 40 32 41 77 42 71 43 73 44 33 45 76 46
REMARK SMILES IDX 70 47 69 48 34 50 60 51 43 52 59 53 44 54 47 55 58 56 74 57
REMARK SMILES IDX 45 58 46 59 57 61 75 62 48 63 35 64 36 65 41 66 37 67 38 68
REMARK SMILES IDX 40 69 42 70 39 71 61 72 62 73 67 74 63 75 64 76 66 77 68 78
REMARK SMILES IDX 65 79 49 80 50 81 55 82 51 83 52 84 54 85 56 86 53 87
REMARK H PARENT 18 5 3 17 10 18 23 30 73 49 47 60
REMARK Flexibility Score: inf
ROOT
ATOM      1  C   UNL A   1      32.326  28.955  24.518  1.00  0.00     0.116 C 
ENDROOT
BRANCH   1   2
ATOM      2  N   UNL A   1      31.589  29.472  23.393  1.00  0.00    -0.356 N 
ATOM      3  C   UNL A   1      30.684  28.903  22.560  1.00  0.00     0.223 C 
ATOM      4  O   UNL A   1      30.133  29.677  21.765  1.00  0.00    -0.275 OA
ATOM      5  H   UNL A   1      31.779  30.417  23.191  1.00  0.00     0.163 HD
BRANCH   3   6
ATOM      6  C   UNL A   1      30.327  27.406  22.516  1.00  0.00     0.078 C 
ATOM      7  C   UNL A   1      31.387  25.342  24.462  1.00  0.00     0.008 C 
ATOM      8  C   UNL A   1      30.111  26.138  24.791  1.00  0.00     0.006 C 
ATOM      9  C   UNL A   1      32.236  25.893  23.304  1.00  0.00     0.006 C 
ATOM     10  C   UNL A   1      29.432  26.848  23.621  1.00  0.00     0.014 C 
ATOM     11  C   UNL A   1      31.471  26.476  22.135  1.00  0.00     0.014 C 
BRANCH   7  12
ATOM     12  C   UNL A   1      32.312  25.238  25.695  1.00  0.00     0.121 C 
BRANCH  12  13
ATOM     13  N   UNL A   1      32.751  23.898  26.001  1.00  0.00    -0.338 N 
ATOM     14  O   UNL A   1      31.029  23.511  27.447  1.00  0.00    -0.249 OA
ATOM     15  C   UNL A   1      32.029  23.119  26.853  1.00  0.00     0.315 C 
ATOM     16  N   UNL A   1      32.453  21.853  27.051  1.00  0.00    -0.334 N 
ATOM     17  H   UNL A   1      31.880  21.319  27.647  1.00  0.00     0.165 HD
ATOM     18  H   UNL A   1      33.573  23.546  25.591  1.00  0.00     0.165 HD
BRANCH  16  19
ATOM     19  C   UNL A   1      33.602  21.148  26.538  1.00  0.00     0.154 C 
BRANCH  19  20
ATOM     20  C   UNL A   1      33.142  20.212  25.468  1.00  0.00    -0.018 A 
ATOM     21  C   UNL A   1      32.827  20.596  24.120  1.00  0.00     0.017 A 
ATOM     22  C   UNL A   1      32.968  18.850  25.638  1.00  0.00     0.070 A 
ATOM     23  C   UNL A   1      32.436  19.530  23.341  1.00  0.00     0.065 A 
ATOM     24  S   UNL A   1      32.435  18.064  24.216  1.00  0.00    -0.152 S 
ENDBRANCH  19  20
ENDBRANCH  16  19
ENDBRANCH  12  13
ENDBRANCH   7  12
ENDBRANCH   3   6
ENDBRANCH   1   2
BRANCH   1  25
ATOM     25  C   UNL A   1      31.622  29.168  25.856  1.00  0.00     0.023 C 
BRANCH  25  26
ATOM     26  C   UNL A   1      32.340  28.583  27.065  1.00  0.00     0.023 C 
BRANCH  26  27
ATOM     27  C   UNL A   1      33.745  29.120  27.319  1.00  0.00     0.116 C 
BRANCH  27  28
ATOM     28  N   UNL A   1      33.806  30.399  28.014  1.00  0.00    -0.352 N 
ATOM     29  C   UNL A   1      34.899  30.963  28.642  1.00  0.00     0.251 C 
ATOM     30  H   UNL A   1      32.972  30.922  28.038  1.00  0.00     0.163 HD
ATOM     31  O   UNL A   1      34.825  32.044  29.202  1.00  0.00    -0.269 OA
BRANCH  29  32
ATOM     32  C   UNL A   1      36.158  30.190  28.674  1.00  0.00     0.039 A 
ATOM     33  C   UNL A   1      37.003  30.237  27.564  1.00  0.00     0.014 A 
ATOM     34  C   UNL A   1      36.550  29.538  29.845  1.00  0.00     0.014 A 
ATOM     35  C   UNL A   1      38.293  29.716  27.666  1.00  0.00     0.010 A 
ATOM     36  C   UNL A   1      37.860  29.094  29.969  1.00  0.00     0.010 A 
ATOM     37  C   UNL A   1      38.750  29.193  28.886  1.00  0.00    -0.014 A 
BRANCH  37  38
ATOM     38  C   UNL A   1      40.160  28.766  29.067  1.00  0.00     0.031 A 
ATOM     39  C   UNL A   1      41.166  29.724  29.636  1.00  0.00     0.074 A 
ATOM     40  C   UNL A   1      40.553  27.553  28.630  1.00  0.00     0.049 A 
ATOM     41  N   UNL A   1      42.460  29.580  29.771  1.00  0.00    -0.248 NA
ATOM     42  C   UNL A   1      40.656  31.031  30.078  1.00  0.00     0.031 C 
ATOM     43  C   UNL A   1      39.687  26.555  27.996  1.00  0.00     0.029 A 
ATOM     44  N   UNL A   1      41.789  26.957  28.640  1.00  0.00    -0.354 N 
ATOM     45  C   UNL A   1      42.920  30.786  30.284  1.00  0.00     0.074 A 
ATOM     46  C   UNL A   1      41.776  31.665  30.391  1.00  0.00     0.031 C 
ATOM     47  C   UNL A   1      40.413  25.464  27.703  1.00  0.00     0.029 A 
ATOM     48  C   UNL A   1      41.800  25.696  28.096  1.00  0.00     0.049 A 
ATOM     49  H   UNL A   1      42.594  27.394  29.003  1.00  0.00     0.167 HD
ATOM     50  C   UNL A   1      44.177  31.123  30.656  1.00  0.00     0.037 A 
ATOM     51  C   UNL A   1      42.813  24.825  27.933  1.00  0.00     0.037 A 
ATOM     52  C   UNL A   1      45.305  30.231  30.596  1.00  0.00     0.049 A 
ATOM     53  C   UNL A   1      44.192  25.205  28.395  1.00  0.00     0.074 A 
ATOM     54  C   UNL A   1      46.602  30.454  31.020  1.00  0.00     0.029 A 
ATOM     55  N   UNL A   1      45.263  28.943  30.087  1.00  0.00    -0.354 N 
ATOM     56  N   UNL A   1      44.599  26.326  28.939  1.00  0.00    -0.248 NA
ATOM     57  C   UNL A   1      45.250  24.199  28.225  1.00  0.00     0.031 C 
ATOM     58  C   UNL A   1      47.354  29.306  30.744  1.00  0.00     0.029 A 
ATOM     59  C   UNL A   1      46.515  28.360  30.177  1.00  0.00     0.049 A 
ATOM     60  H   UNL A   1      44.462  28.508  29.715  1.00  0.00     0.167 HD
ATOM     61  C   UNL A   1      45.952  26.151  29.200  1.00  0.00     0.074 A 
ATOM     62  C   UNL A   1      46.294  24.813  28.764  1.00  0.00     0.031 C 
ATOM     63  C   UNL A   1      46.832  27.022  29.749  1.00  0.00     0.037 A 
BRANCH  50  64
ATOM     64  C   UNL A   1      44.389  32.513  31.175  1.00  0.00     0.057 A 
ATOM     65  C   UNL A   1      44.326  32.806  32.543  1.00  0.00     0.134 A 
ATOM     66  C   UNL A   1      44.673  33.568  30.300  1.00  0.00     0.134 A 
ATOM     67  F   UNL A   1      44.041  31.841  33.433  1.00  0.00    -0.206 F 
ATOM     68  C   UNL A   1      44.508  34.104  33.021  1.00  0.00     0.040 A 
ATOM     69  C   UNL A   1      44.882  34.866  30.768  1.00  0.00     0.040 A 
ATOM     70  F   UNL A   1      44.750  33.355  28.978  1.00  0.00    -0.206 F 
ATOM     71  C   UNL A   1      44.793  35.138  32.132  1.00  0.00     0.006 A 
ENDBRANCH  50  64
BRANCH  51  72
ATOM     72  C   UNL A   1      42.558  23.489  27.338  1.00  0.00     0.057 A 
ATOM     73  C   UNL A   1      42.168  22.411  28.140  1.00  0.00     0.134 A 
ATOM     74  C   UNL A   1      42.703  23.257  25.966  1.00  0.00     0.134 A 
ATOM     75  F   UNL A   1      42.032  22.569  29.465  1.00  0.00    -0.206 F 
ATOM     76  C   UNL A   1      41.949  21.141  27.602  1.00  0.00     0.040 A 
ATOM     77  C   UNL A   1      42.468  21.998  25.412  1.00  0.00     0.040 A 
ATOM     78  F   UNL A   1      43.068  24.253  25.146  1.00  0.00    -0.206 F 
ATOM     79  C   UNL A   1      42.096  20.934  26.232  1.00  0.00     0.006 A 
ENDBRANCH  51  72
BRANCH  63  80
ATOM     80  C   UNL A   1      48.239  26.543  29.941  1.00  0.00     0.057 A 
ATOM     81  C   UNL A   1      49.227  26.754  28.972  1.00  0.00     0.134 A 
ATOM     82  C   UNL A   1      48.618  25.901  31.126  1.00  0.00     0.134 A 
ATOM     83  F   UNL A   1      48.922  27.351  27.809  1.00  0.00    -0.206 F 
ATOM     84  C   UNL A   1      50.542  26.328  29.169  1.00  0.00     0.040 A 
ATOM     85  C   UNL A   1      49.933  25.490  31.344  1.00  0.00     0.040 A 
ATOM     86  F   UNL A   1      47.719  25.676  32.097  1.00  0.00    -0.206 F 
ATOM     87  C   UNL A   1      50.898  25.700  30.361  1.00  0.00     0.006 A 
ENDBRANCH  63  80
ENDBRANCH  37  38
ENDBRANCH  29  32
ENDBRANCH  27  28
ENDBRANCH  26  27
ENDBRANCH  25  26
ENDBRANCH   1  25
TORSDOF 15
ENDMDL
