MODEL 1
REMARK VINA RESULT:     -12.3      0.000      0.000
REMARK SMILES CC(C)(C)OC(=O)Nc1ccc(-c2cccc(Cl)c2C(=O)NCCCCNC(=O)c2ccc(-c3c4nc(c(-c5c(F)cccc5F)c5ccc([nH]5)c(-c5c(F)cccc5F)c5nc(c(-c6c(F)cccc6F)c6ccc3[nH]6)C=C5)C=C4)cc2)cc1
REMARK SMILES IDX 23 1 22 2 20 3 21 4 19 6 13 7 14 8 15 9 17 10 16 11 18 12
REMARK SMILES IDX 12 13 9 14 10 15 85 16 11 17 84 18 8 19 6 20 7 21 5 23 2 24
REMARK SMILES IDX 1 25 3 26 4 27 24 28 25 29 26 30 27 31 28 32 29 34 30 35
REMARK SMILES IDX 31 36 83 37 32 38 82 39 33 40 34 41 35 42 76 43 36 44 81 45
REMARK SMILES IDX 75 46 77 47 37 48 80 49 74 50 73 51 38 53 64 54 47 55 63 56
REMARK SMILES IDX 48 57 51 58 62 59 78 60 49 61 50 62 61 64 79 65 52 66 39 67
REMARK SMILES IDX 40 68 45 69 41 70 42 71 44 72 46 73 43 74 65 75 66 76 71 77
REMARK SMILES IDX 67 78 68 79 70 80 72 81 69 82 53 83 54 84 59 85 55 86 56 87
REMARK SMILES IDX 58 88 60 89 57 90
REMARK H PARENT 22 5 8 22 27 33 77 52 51 63
REMARK Flexibility Score: inf
ROOT
ATOM      1  C   UNL A   1      32.054  30.079  25.744  1.00  0.00     0.116 C 
ENDROOT
BRANCH   1   2
ATOM      2  N   UNL A   1      32.759  29.645  24.572  1.00  0.00    -0.352 N 
ATOM      3  C   UNL A   1      32.250  28.926  23.505  1.00  0.00     0.253 C 
ATOM      4  O   UNL A   1      32.811  29.086  22.420  1.00  0.00    -0.269 OA
ATOM      5  H   UNL A   1      33.713  29.886  24.522  1.00  0.00     0.163 HD
BRANCH   3   6
ATOM      6  C   UNL A   1      31.119  27.930  23.581  1.00  0.00     0.066 A 
ATOM      7  C   UNL A   1      31.208  26.586  24.046  1.00  0.00    -0.004 A 
ATOM      8  C   UNL A   1      30.015  25.837  24.220  1.00  0.00     0.009 A 
ATOM      9  C   UNL A   1      28.761  26.371  23.961  1.00  0.00     0.002 A 
ATOM     10  C   UNL A   1      29.825  28.439  23.291  1.00  0.00     0.054 A 
ATOM     11  C   UNL A   1      28.668  27.670  23.491  1.00  0.00     0.021 A 
ATOM     12  Cl  UNL A   1      29.542  30.012  22.608  1.00  0.00    -0.083 Cl
BRANCH   7  13
ATOM     13  C   UNL A   1      32.441  25.856  24.366  1.00  0.00    -0.017 A 
ATOM     14  C   UNL A   1      34.687  24.265  25.044  1.00  0.00     0.044 A 
ATOM     15  C   UNL A   1      33.864  24.783  26.045  1.00  0.00     0.027 A 
ATOM     16  C   UNL A   1      34.409  24.604  23.713  1.00  0.00     0.027 A 
ATOM     17  C   UNL A   1      32.774  25.594  25.713  1.00  0.00     0.011 A 
ATOM     18  C   UNL A   1      33.302  25.393  23.375  1.00  0.00     0.011 A 
BRANCH  14  19
ATOM     19  N   UNL A   1      35.701  23.379  25.452  1.00  0.00    -0.291 N 
ATOM     20  C   UNL A   1      35.867  22.034  25.229  1.00  0.00     0.412 C 
ATOM     21  O   UNL A   1      36.802  21.415  25.708  1.00  0.00    -0.224 OA
ATOM     22  H   UNL A   1      36.415  23.794  25.990  1.00  0.00     0.173 HD
BRANCH  20  23
ATOM     23  O   UNL A   1      34.937  21.508  24.408  1.00  0.00    -0.444 OA
BRANCH  23  24
ATOM     24  C   UNL A   1      33.864  20.672  24.887  1.00  0.00     0.106 C 
ATOM     25  C   UNL A   1      32.667  21.126  24.042  1.00  0.00     0.056 C 
ATOM     26  C   UNL A   1      33.593  20.964  26.363  1.00  0.00     0.056 C 
ATOM     27  C   UNL A   1      34.122  19.185  24.627  1.00  0.00     0.056 C 
ENDBRANCH  23  24
ENDBRANCH  20  23
ENDBRANCH  14  19
ENDBRANCH   7  13
ENDBRANCH   3   6
ENDBRANCH   1   2
BRANCH   1  28
ATOM     28  C   UNL A   1      32.303  29.370  27.064  1.00  0.00     0.023 C 
BRANCH  28  29
ATOM     29  C   UNL A   1      33.703  29.460  27.669  1.00  0.00     0.023 C 
BRANCH  29  30
ATOM     30  C   UNL A   1      34.479  30.759  27.448  1.00  0.00     0.116 C 
BRANCH  30  31
ATOM     31  N   UNL A   1      34.952  31.348  28.692  1.00  0.00    -0.352 N 
ATOM     32  C   UNL A   1      35.896  30.923  29.595  1.00  0.00     0.251 C 
ATOM     33  H   UNL A   1      34.520  32.201  28.928  1.00  0.00     0.163 HD
ATOM     34  O   UNL A   1      35.808  31.328  30.753  1.00  0.00    -0.269 OA
BRANCH  32  35
ATOM     35  C   UNL A   1      36.963  29.963  29.212  1.00  0.00     0.039 A 
ATOM     36  C   UNL A   1      37.524  30.064  27.936  1.00  0.00     0.014 A 
ATOM     37  C   UNL A   1      37.455  29.004  30.099  1.00  0.00     0.014 A 
ATOM     38  C   UNL A   1      38.680  29.348  27.626  1.00  0.00     0.010 A 
ATOM     39  C   UNL A   1      38.674  28.381  29.841  1.00  0.00     0.010 A 
ATOM     40  C   UNL A   1      39.326  28.595  28.622  1.00  0.00    -0.014 A 
BRANCH  40  41
ATOM     41  C   UNL A   1      40.742  28.184  28.444  1.00  0.00     0.031 A 
ATOM     42  C   UNL A   1      41.117  26.774  28.100  1.00  0.00     0.074 A 
ATOM     43  C   UNL A   1      41.699  29.105  28.681  1.00  0.00     0.049 A 
ATOM     44  N   UNL A   1      42.305  26.272  27.875  1.00  0.00    -0.248 NA
ATOM     45  C   UNL A   1      40.027  25.789  28.033  1.00  0.00     0.031 C 
ATOM     46  C   UNL A   1      41.453  30.480  29.135  1.00  0.00     0.029 A 
ATOM     47  N   UNL A   1      43.064  29.042  28.570  1.00  0.00    -0.354 N 
ATOM     48  C   UNL A   1      42.106  24.919  27.637  1.00  0.00     0.074 A 
ATOM     49  C   UNL A   1      40.693  24.664  27.814  1.00  0.00     0.031 C 
ATOM     50  C   UNL A   1      42.616  31.144  29.194  1.00  0.00     0.029 A 
ATOM     51  C   UNL A   1      43.694  30.236  28.831  1.00  0.00     0.049 A 
ATOM     52  H   UNL A   1      43.548  28.219  28.326  1.00  0.00     0.167 HD
ATOM     53  C   UNL A   1      43.018  23.984  27.277  1.00  0.00     0.037 A 
ATOM     54  C   UNL A   1      44.998  30.566  28.774  1.00  0.00     0.037 A 
ATOM     55  C   UNL A   1      44.422  24.257  27.110  1.00  0.00     0.049 A 
ATOM     56  C   UNL A   1      45.983  29.517  28.349  1.00  0.00     0.074 A 
ATOM     57  C   UNL A   1      45.426  23.400  26.693  1.00  0.00     0.029 A 
ATOM     58  N   UNL A   1      45.025  25.482  27.365  1.00  0.00    -0.354 N 
ATOM     59  N   UNL A   1      45.767  28.265  28.021  1.00  0.00    -0.248 NA
ATOM     60  C   UNL A   1      47.390  29.926  28.272  1.00  0.00     0.031 C 
ATOM     61  C   UNL A   1      46.642  24.090  26.750  1.00  0.00     0.029 A 
ATOM     62  C   UNL A   1      46.389  25.397  27.139  1.00  0.00     0.049 A 
ATOM     63  H   UNL A   1      44.552  26.293  27.664  1.00  0.00     0.167 HD
ATOM     64  C   UNL A   1      47.005  27.744  27.675  1.00  0.00     0.074 A 
ATOM     65  C   UNL A   1      47.961  28.825  27.807  1.00  0.00     0.031 C 
ATOM     66  C   UNL A   1      47.324  26.485  27.284  1.00  0.00     0.037 A 
BRANCH  53  67
ATOM     67  C   UNL A   1      42.519  22.585  27.041  1.00  0.00     0.057 A 
ATOM     68  C   UNL A   1      42.404  22.048  25.750  1.00  0.00     0.134 A 
ATOM     69  C   UNL A   1      42.173  21.754  28.114  1.00  0.00     0.134 A 
ATOM     70  F   UNL A   1      42.708  22.790  24.675  1.00  0.00    -0.206 F 
ATOM     71  C   UNL A   1      41.932  20.751  25.535  1.00  0.00     0.040 A 
ATOM     72  C   UNL A   1      41.730  20.444  27.913  1.00  0.00     0.040 A 
ATOM     73  F   UNL A   1      42.264  22.196  29.377  1.00  0.00    -0.206 F 
ATOM     74  C   UNL A   1      41.599  19.943  26.620  1.00  0.00     0.006 A 
ENDBRANCH  53  67
BRANCH  54  75
ATOM     75  C   UNL A   1      45.434  31.954  29.079  1.00  0.00     0.057 A 
ATOM     76  C   UNL A   1      45.439  32.947  28.092  1.00  0.00     0.134 A 
ATOM     77  C   UNL A   1      45.856  32.325  30.362  1.00  0.00     0.134 A 
ATOM     78  F   UNL A   1      45.057  32.655  26.839  1.00  0.00    -0.206 F 
ATOM     79  C   UNL A   1      45.873  34.247  28.360  1.00  0.00     0.040 A 
ATOM     80  C   UNL A   1      46.264  33.628  30.652  1.00  0.00     0.040 A 
ATOM     81  F   UNL A   1      45.861  31.428  31.359  1.00  0.00    -0.206 F 
ATOM     82  C   UNL A   1      46.283  34.591  29.646  1.00  0.00     0.006 A 
ENDBRANCH  54  75
BRANCH  66  83
ATOM     83  C   UNL A   1      48.764  26.230  26.944  1.00  0.00     0.057 A 
ATOM     84  C   UNL A   1      49.266  26.401  25.646  1.00  0.00     0.134 A 
ATOM     85  C   UNL A   1      49.663  25.808  27.932  1.00  0.00     0.134 A 
ATOM     86  F   UNL A   1      48.455  26.791  24.650  1.00  0.00    -0.206 F 
ATOM     87  C   UNL A   1      50.597  26.123  25.336  1.00  0.00     0.040 A 
ATOM     88  C   UNL A   1      51.005  25.561  27.642  1.00  0.00     0.040 A 
ATOM     89  F   UNL A   1      49.253  25.632  29.198  1.00  0.00    -0.206 F 
ATOM     90  C   UNL A   1      51.473  25.707  26.338  1.00  0.00     0.006 A 
ENDBRANCH  66  83
ENDBRANCH  40  41
ENDBRANCH  32  35
ENDBRANCH  30  31
ENDBRANCH  29  30
ENDBRANCH  28  29
ENDBRANCH   1  28
TORSDOF 15
ENDMDL
MODEL 2
REMARK VINA RESULT:     -12.3      3.789      7.758
REMARK SMILES CC(C)(C)OC(=O)Nc1ccc(-c2cccc(Cl)c2C(=O)NCCCCNC(=O)c2ccc(-c3c4nc(c(-c5c(F)cccc5F)c5ccc([nH]5)c(-c5c(F)cccc5F)c5nc(c(-c6c(F)cccc6F)c6ccc3[nH]6)C=C5)C=C4)cc2)cc1
REMARK SMILES IDX 23 1 22 2 20 3 21 4 19 6 13 7 14 8 15 9 17 10 16 11 18 12
REMARK SMILES IDX 12 13 9 14 10 15 85 16 11 17 84 18 8 19 6 20 7 21 5 23 2 24
REMARK SMILES IDX 1 25 3 26 4 27 24 28 25 29 26 30 27 31 28 32 29 34 30 35
REMARK SMILES IDX 31 36 83 37 32 38 82 39 33 40 34 41 35 42 76 43 36 44 81 45
REMARK SMILES IDX 75 46 77 47 37 48 80 49 74 50 73 51 38 53 64 54 47 55 63 56
REMARK SMILES IDX 48 57 51 58 62 59 78 60 49 61 50 62 61 64 79 65 52 66 39 67
REMARK SMILES IDX 40 68 45 69 41 70 42 71 44 72 46 73 43 74 65 75 66 76 71 77
REMARK SMILES IDX 67 78 68 79 70 80 72 81 69 82 53 83 54 84 59 85 55 86 56 87
REMARK SMILES IDX 58 88 60 89 57 90
REMARK H PARENT 22 5 8 22 27 33 77 52 51 63
REMARK Flexibility Score: inf
ROOT
ATOM      1  C   UNL A   1      32.394  29.314  24.782  1.00  0.00     0.116 C 
ENDROOT
BRANCH   1   2
ATOM      2  N   UNL A   1      32.665  28.297  23.807  1.00  0.00    -0.352 N 
ATOM      3  C   UNL A   1      31.789  27.781  22.868  1.00  0.00     0.253 C 
ATOM      4  O   UNL A   1      32.294  27.332  21.837  1.00  0.00    -0.269 OA
ATOM      5  H   UNL A   1      33.577  27.926  23.806  1.00  0.00     0.163 HD
BRANCH   3   6
ATOM      6  C   UNL A   1      30.294  27.669  23.035  1.00  0.00     0.066 A 
ATOM      7  C   UNL A   1      29.595  26.627  23.712  1.00  0.00    -0.004 A 
ATOM      8  C   UNL A   1      28.200  26.763  23.932  1.00  0.00     0.009 A 
ATOM      9  C   UNL A   1      27.491  27.882  23.519  1.00  0.00     0.002 A 
ATOM     10  C   UNL A   1      29.536  28.786  22.592  1.00  0.00     0.054 A 
ATOM     11  C   UNL A   1      28.159  28.889  22.844  1.00  0.00     0.021 A 
ATOM     12  Cl  UNL A   1      30.202  30.088  21.653  1.00  0.00    -0.083 Cl
BRANCH   7  13
ATOM     13  C   UNL A   1      30.176  25.376  24.215  1.00  0.00    -0.017 A 
ATOM     14  C   UNL A   1      31.505  23.035  25.104  1.00  0.00     0.044 A 
ATOM     15  C   UNL A   1      31.251  23.227  23.745  1.00  0.00     0.027 A 
ATOM     16  C   UNL A   1      31.032  23.993  26.011  1.00  0.00     0.027 A 
ATOM     17  C   UNL A   1      30.568  24.367  23.310  1.00  0.00     0.011 A 
ATOM     18  C   UNL A   1      30.373  25.150  25.575  1.00  0.00     0.011 A 
BRANCH  14  19
ATOM     19  N   UNL A   1      32.283  21.915  25.452  1.00  0.00    -0.291 N 
ATOM     20  C   UNL A   1      33.593  21.816  25.852  1.00  0.00     0.412 C 
ATOM     21  O   UNL A   1      34.116  20.737  26.071  1.00  0.00    -0.224 OA
ATOM     22  H   UNL A   1      31.806  21.054  25.399  1.00  0.00     0.173 HD
BRANCH  20  23
ATOM     23  O   UNL A   1      34.195  23.010  26.014  1.00  0.00    -0.444 OA
BRANCH  23  24
ATOM     24  C   UNL A   1      34.966  23.639  24.969  1.00  0.00     0.106 C 
ATOM     25  C   UNL A   1      36.373  23.716  25.575  1.00  0.00     0.056 C 
ATOM     26  C   UNL A   1      34.439  25.051  24.710  1.00  0.00     0.056 C 
ATOM     27  C   UNL A   1      35.017  22.795  23.693  1.00  0.00     0.056 C 
ENDBRANCH  23  24
ENDBRANCH  20  23
ENDBRANCH  14  19
ENDBRANCH   7  13
ENDBRANCH   3   6
ENDBRANCH   1   2
BRANCH   1  28
ATOM     28  C   UNL A   1      31.936  28.905  26.171  1.00  0.00     0.023 C 
BRANCH  28  29
ATOM     29  C   UNL A   1      32.028  29.946  27.287  1.00  0.00     0.023 C 
BRANCH  29  30
ATOM     30  C   UNL A   1      33.210  30.914  27.247  1.00  0.00     0.116 C 
BRANCH  30  31
ATOM     31  N   UNL A   1      32.793  32.308  27.249  1.00  0.00    -0.352 N 
ATOM     32  C   UNL A   1      33.191  33.372  28.022  1.00  0.00     0.251 C 
ATOM     33  H   UNL A   1      32.106  32.528  26.578  1.00  0.00     0.163 HD
ATOM     34  O   UNL A   1      32.409  34.313  28.152  1.00  0.00    -0.269 OA
BRANCH  32  35
ATOM     35  C   UNL A   1      34.499  33.377  28.726  1.00  0.00     0.039 A 
ATOM     36  C   UNL A   1      34.574  32.798  29.996  1.00  0.00     0.014 A 
ATOM     37  C   UNL A   1      35.657  33.894  28.143  1.00  0.00     0.014 A 
ATOM     38  C   UNL A   1      35.819  32.569  30.583  1.00  0.00     0.010 A 
ATOM     39  C   UNL A   1      36.904  33.560  28.665  1.00  0.00     0.010 A 
ATOM     40  C   UNL A   1      36.994  32.843  29.862  1.00  0.00    -0.014 A 
BRANCH  40  41
ATOM     41  C   UNL A   1      38.282  32.231  30.278  1.00  0.00     0.031 A 
ATOM     42  C   UNL A   1      39.187  32.895  31.272  1.00  0.00     0.074 A 
ATOM     43  C   UNL A   1      38.660  31.087  29.670  1.00  0.00     0.049 A 
ATOM     44  N   UNL A   1      40.322  32.467  31.762  1.00  0.00    -0.248 NA
ATOM     45  C   UNL A   1      38.788  34.225  31.755  1.00  0.00     0.031 C 
ATOM     46  C   UNL A   1      37.912  30.411  28.602  1.00  0.00     0.029 A 
ATOM     47  N   UNL A   1      39.753  30.280  29.858  1.00  0.00    -0.354 N 
ATOM     48  C   UNL A   1      40.771  33.469  32.610  1.00  0.00     0.074 A 
ATOM     49  C   UNL A   1      39.822  34.557  32.516  1.00  0.00     0.031 C 
ATOM     50  C   UNL A   1      38.528  29.265  28.283  1.00  0.00     0.029 A 
ATOM     51  C   UNL A   1      39.737  29.143  29.084  1.00  0.00     0.049 A 
ATOM     52  H   UNL A   1      40.479  30.494  30.488  1.00  0.00     0.167 HD
ATOM     53  C   UNL A   1      41.862  33.468  33.414  1.00  0.00     0.037 A 
ATOM     54  C   UNL A   1      40.599  28.110  29.034  1.00  0.00     0.037 A 
ATOM     55  C   UNL A   1      42.798  32.376  33.492  1.00  0.00     0.049 A 
ATOM     56  C   UNL A   1      41.785  28.123  29.953  1.00  0.00     0.074 A 
ATOM     57  C   UNL A   1      43.904  32.242  34.313  1.00  0.00     0.029 A 
ATOM     58  N   UNL A   1      42.744  31.231  32.708  1.00  0.00    -0.354 N 
ATOM     59  N   UNL A   1      42.140  29.030  30.831  1.00  0.00    -0.248 NA
ATOM     60  C   UNL A   1      42.683  26.965  29.886  1.00  0.00     0.031 C 
ATOM     61  C   UNL A   1      44.549  31.044  33.985  1.00  0.00     0.029 A 
ATOM     62  C   UNL A   1      43.810  30.398  33.007  1.00  0.00     0.049 A 
ATOM     63  H   UNL A   1      42.049  31.039  32.036  1.00  0.00     0.167 HD
ATOM     64  C   UNL A   1      43.288  28.542  31.439  1.00  0.00     0.074 A 
ATOM     65  C   UNL A   1      43.551  27.246  30.847  1.00  0.00     0.031 C 
ATOM     66  C   UNL A   1      44.056  29.114  32.399  1.00  0.00     0.037 A 
BRANCH  53  67
ATOM     67  C   UNL A   1      42.093  34.682  34.270  1.00  0.00     0.057 A 
ATOM     68  C   UNL A   1      41.614  34.764  35.586  1.00  0.00     0.134 A 
ATOM     69  C   UNL A   1      42.824  35.775  33.786  1.00  0.00     0.134 A 
ATOM     70  F   UNL A   1      40.898  33.759  36.112  1.00  0.00    -0.206 F 
ATOM     71  C   UNL A   1      41.824  35.897  36.374  1.00  0.00     0.040 A 
ATOM     72  C   UNL A   1      43.067  36.901  34.576  1.00  0.00     0.040 A 
ATOM     73  F   UNL A   1      43.319  35.766  32.539  1.00  0.00    -0.206 F 
ATOM     74  C   UNL A   1      42.558  36.968  35.870  1.00  0.00     0.006 A 
ENDBRANCH  53  67
BRANCH  54  75
ATOM     75  C   UNL A   1      40.344  26.965  28.120  1.00  0.00     0.057 A 
ATOM     76  C   UNL A   1      40.911  26.919  26.840  1.00  0.00     0.134 A 
ATOM     77  C   UNL A   1      39.529  25.891  28.498  1.00  0.00     0.134 A 
ATOM     78  F   UNL A   1      41.694  27.922  26.412  1.00  0.00    -0.206 F 
ATOM     79  C   UNL A   1      40.658  25.863  25.962  1.00  0.00     0.040 A 
ATOM     80  C   UNL A   1      39.291  24.814  27.642  1.00  0.00     0.040 A 
ATOM     81  F   UNL A   1      38.967  25.864  29.715  1.00  0.00    -0.206 F 
ATOM     82  C   UNL A   1      39.847  24.804  26.365  1.00  0.00     0.006 A 
ENDBRANCH  54  75
BRANCH  66  83
ATOM     83  C   UNL A   1      45.234  28.318  32.883  1.00  0.00     0.057 A 
ATOM     84  C   UNL A   1      46.507  28.447  32.311  1.00  0.00     0.134 A 
ATOM     85  C   UNL A   1      45.091  27.410  33.940  1.00  0.00     0.134 A 
ATOM     86  F   UNL A   1      46.709  29.289  31.286  1.00  0.00    -0.206 F 
ATOM     87  C   UNL A   1      47.583  27.672  32.744  1.00  0.00     0.040 A 
ATOM     88  C   UNL A   1      46.168  26.656  34.406  1.00  0.00     0.040 A 
ATOM     89  F   UNL A   1      43.902  27.243  34.541  1.00  0.00    -0.206 F 
ATOM     90  C   UNL A   1      47.416  26.777  33.799  1.00  0.00     0.006 A 
ENDBRANCH  66  83
ENDBRANCH  40  41
ENDBRANCH  32  35
ENDBRANCH  30  31
ENDBRANCH  29  30
ENDBRANCH  28  29
ENDBRANCH   1  28
TORSDOF 15
ENDMDL
MODEL 3
REMARK VINA RESULT:     -12.2      1.009      1.883
REMARK SMILES CC(C)(C)OC(=O)Nc1ccc(-c2cccc(Cl)c2C(=O)NCCCCNC(=O)c2ccc(-c3c4nc(c(-c5c(F)cccc5F)c5ccc([nH]5)c(-c5c(F)cccc5F)c5nc(c(-c6c(F)cccc6F)c6ccc3[nH]6)C=C5)C=C4)cc2)cc1
REMARK SMILES IDX 23 1 22 2 20 3 21 4 19 6 13 7 14 8 15 9 17 10 16 11 18 12
REMARK SMILES IDX 12 13 9 14 10 15 85 16 11 17 84 18 8 19 6 20 7 21 5 23 2 24
REMARK SMILES IDX 1 25 3 26 4 27 24 28 25 29 26 30 27 31 28 32 29 34 30 35
REMARK SMILES IDX 31 36 83 37 32 38 82 39 33 40 34 41 35 42 76 43 36 44 81 45
REMARK SMILES IDX 75 46 77 47 37 48 80 49 74 50 73 51 38 53 64 54 47 55 63 56
REMARK SMILES IDX 48 57 51 58 62 59 78 60 49 61 50 62 61 64 79 65 52 66 39 67
REMARK SMILES IDX 40 68 45 69 41 70 42 71 44 72 46 73 43 74 65 75 66 76 71 77
REMARK SMILES IDX 67 78 68 79 70 80 72 81 69 82 53 83 54 84 59 85 55 86 56 87
REMARK SMILES IDX 58 88 60 89 57 90
REMARK H PARENT 22 5 8 22 27 33 77 52 51 63
REMARK Flexibility Score: inf
ROOT
ATOM      1  C   UNL A   1      31.501  29.970  25.097  1.00  0.00     0.116 C 
ENDROOT
BRANCH   1   2
ATOM      2  N   UNL A   1      31.980  28.924  24.239  1.00  0.00    -0.352 N 
ATOM      3  C   UNL A   1      31.273  28.258  23.254  1.00  0.00     0.253 C 
ATOM      4  O   UNL A   1      31.934  27.796  22.322  1.00  0.00    -0.269 OA
ATOM      5  H   UNL A   1      32.917  28.650  24.366  1.00  0.00     0.163 HD
BRANCH   3   6
ATOM      6  C   UNL A   1      29.786  28.002  23.265  1.00  0.00     0.066 A 
ATOM      7  C   UNL A   1      29.127  26.880  23.847  1.00  0.00    -0.004 A 
ATOM      8  C   UNL A   1      27.710  26.879  23.927  1.00  0.00     0.009 A 
ATOM      9  C   UNL A   1      26.941  27.938  23.466  1.00  0.00     0.002 A 
ATOM     10  C   UNL A   1      28.972  29.055  22.769  1.00  0.00     0.054 A 
ATOM     11  C   UNL A   1      27.573  29.022  22.881  1.00  0.00     0.021 A 
ATOM     12  Cl  UNL A   1      29.600  30.440  21.928  1.00  0.00    -0.083 Cl
BRANCH   7  13
ATOM     13  C   UNL A   1      29.772  25.675  24.384  1.00  0.00    -0.017 A 
ATOM     14  C   UNL A   1      31.222  23.438  25.346  1.00  0.00     0.044 A 
ATOM     15  C   UNL A   1      31.031  23.615  23.975  1.00  0.00     0.027 A 
ATOM     16  C   UNL A   1      30.629  24.355  26.225  1.00  0.00     0.027 A 
ATOM     17  C   UNL A   1      30.288  24.702  23.502  1.00  0.00     0.011 A 
ATOM     18  C   UNL A   1      29.909  25.460  25.752  1.00  0.00     0.011 A 
BRANCH  14  19
ATOM     19  N   UNL A   1      32.063  22.379  25.738  1.00  0.00    -0.291 N 
ATOM     20  C   UNL A   1      33.397  22.359  26.061  1.00  0.00     0.412 C 
ATOM     21  O   UNL A   1      33.974  21.321  26.337  1.00  0.00    -0.224 OA
ATOM     22  H   UNL A   1      31.617  21.502  25.789  1.00  0.00     0.173 HD
BRANCH  20  23
ATOM     23  O   UNL A   1      33.962  23.582  26.083  1.00  0.00    -0.444 OA
BRANCH  23  24
ATOM     24  C   UNL A   1      34.802  24.068  25.017  1.00  0.00     0.106 C 
ATOM     25  C   UNL A   1      36.199  24.074  25.651  1.00  0.00     0.056 C 
ATOM     26  C   UNL A   1      34.400  25.496  24.644  1.00  0.00     0.056 C 
ATOM     27  C   UNL A   1      34.808  23.133  23.805  1.00  0.00     0.056 C 
ENDBRANCH  23  24
ENDBRANCH  20  23
ENDBRANCH  14  19
ENDBRANCH   7  13
ENDBRANCH   3   6
ENDBRANCH   1   2
BRANCH   1  28
ATOM     28  C   UNL A   1      31.918  29.979  26.557  1.00  0.00     0.023 C 
BRANCH  28  29
ATOM     29  C   UNL A   1      33.176  30.760  26.935  1.00  0.00     0.023 C 
BRANCH  29  30
ATOM     30  C   UNL A   1      34.100  30.137  27.981  1.00  0.00     0.116 C 
BRANCH  30  31
ATOM     31  N   UNL A   1      34.777  31.134  28.796  1.00  0.00    -0.352 N 
ATOM     32  C   UNL A   1      35.954  31.082  29.502  1.00  0.00     0.251 C 
ATOM     33  H   UNL A   1      34.310  32.000  28.850  1.00  0.00     0.163 HD
ATOM     34  O   UNL A   1      36.094  31.857  30.447  1.00  0.00    -0.269 OA
BRANCH  32  35
ATOM     35  C   UNL A   1      37.012  30.089  29.179  1.00  0.00     0.039 A 
ATOM     36  C   UNL A   1      37.538  30.073  27.884  1.00  0.00     0.014 A 
ATOM     37  C   UNL A   1      37.528  29.214  30.136  1.00  0.00     0.014 A 
ATOM     38  C   UNL A   1      38.686  29.330  27.609  1.00  0.00     0.010 A 
ATOM     39  C   UNL A   1      38.739  28.568  29.902  1.00  0.00     0.010 A 
ATOM     40  C   UNL A   1      39.359  28.670  28.652  1.00  0.00    -0.014 A 
BRANCH  40  41
ATOM     41  C   UNL A   1      40.770  28.241  28.474  1.00  0.00     0.031 A 
ATOM     42  C   UNL A   1      41.129  26.826  28.135  1.00  0.00     0.074 A 
ATOM     43  C   UNL A   1      41.738  29.153  28.707  1.00  0.00     0.049 A 
ATOM     44  N   UNL A   1      42.310  26.310  27.911  1.00  0.00    -0.248 NA
ATOM     45  C   UNL A   1      40.028  25.853  28.073  1.00  0.00     0.031 C 
ATOM     46  C   UNL A   1      41.508  30.532  29.155  1.00  0.00     0.029 A 
ATOM     47  N   UNL A   1      43.102  29.074  28.594  1.00  0.00    -0.354 N 
ATOM     48  C   UNL A   1      42.096  24.959  27.679  1.00  0.00     0.074 A 
ATOM     49  C   UNL A   1      40.680  24.720  27.858  1.00  0.00     0.031 C 
ATOM     50  C   UNL A   1      42.678  31.183  29.211  1.00  0.00     0.029 A 
ATOM     51  C   UNL A   1      43.745  30.262  28.850  1.00  0.00     0.049 A 
ATOM     52  H   UNL A   1      43.575  28.245  28.353  1.00  0.00     0.167 HD
ATOM     53  C   UNL A   1      42.997  24.011  27.322  1.00  0.00     0.037 A 
ATOM     54  C   UNL A   1      45.053  30.577  28.790  1.00  0.00     0.037 A 
ATOM     55  C   UNL A   1      44.404  24.268  27.152  1.00  0.00     0.049 A 
ATOM     56  C   UNL A   1      46.025  29.515  28.368  1.00  0.00     0.074 A 
ATOM     57  C   UNL A   1      45.397  23.398  26.737  1.00  0.00     0.029 A 
ATOM     58  N   UNL A   1      45.021  25.487  27.401  1.00  0.00    -0.354 N 
ATOM     59  N   UNL A   1      45.795  28.265  28.045  1.00  0.00    -0.248 NA
ATOM     60  C   UNL A   1      47.436  29.908  28.288  1.00  0.00     0.031 C 
ATOM     61  C   UNL A   1      46.621  24.075  26.790  1.00  0.00     0.029 A 
ATOM     62  C   UNL A   1      46.384  25.386  27.174  1.00  0.00     0.049 A 
ATOM     63  H   UNL A   1      44.557  26.304  27.697  1.00  0.00     0.167 HD
ATOM     64  C   UNL A   1      47.027  27.728  27.700  1.00  0.00     0.074 A 
ATOM     65  C   UNL A   1      47.995  28.799  27.827  1.00  0.00     0.031 C 
ATOM     66  C   UNL A   1      47.331  26.464  27.314  1.00  0.00     0.037 A 
BRANCH  53  67
ATOM     67  C   UNL A   1      42.482  22.618  27.093  1.00  0.00     0.057 A 
ATOM     68  C   UNL A   1      42.355  22.078  25.803  1.00  0.00     0.134 A 
ATOM     69  C   UNL A   1      42.133  21.793  28.169  1.00  0.00     0.134 A 
ATOM     70  F   UNL A   1      42.662  22.814  24.725  1.00  0.00    -0.206 F 
ATOM     71  C   UNL A   1      41.868  20.786  25.594  1.00  0.00     0.040 A 
ATOM     72  C   UNL A   1      41.674  20.488  27.974  1.00  0.00     0.040 A 
ATOM     73  F   UNL A   1      42.235  22.238  29.430  1.00  0.00    -0.206 F 
ATOM     74  C   UNL A   1      41.532  19.985  26.683  1.00  0.00     0.006 A 
ENDBRANCH  53  67
BRANCH  54  75
ATOM     75  C   UNL A   1      45.505  31.962  29.089  1.00  0.00     0.057 A 
ATOM     76  C   UNL A   1      45.928  32.325  30.374  1.00  0.00     0.134 A 
ATOM     77  C   UNL A   1      45.526  32.956  28.103  1.00  0.00     0.134 A 
ATOM     78  F   UNL A   1      45.921  31.422  31.366  1.00  0.00    -0.206 F 
ATOM     79  C   UNL A   1      46.328  33.628  30.674  1.00  0.00     0.040 A 
ATOM     80  C   UNL A   1      45.952  34.256  28.382  1.00  0.00     0.040 A 
ATOM     81  F   UNL A   1      45.149  32.673  26.848  1.00  0.00    -0.206 F 
ATOM     82  C   UNL A   1      46.344  34.598  29.674  1.00  0.00     0.006 A 
ENDBRANCH  54  75
BRANCH  66  83
ATOM     83  C   UNL A   1      48.768  26.191  26.973  1.00  0.00     0.057 A 
ATOM     84  C   UNL A   1      49.268  26.342  25.673  1.00  0.00     0.134 A 
ATOM     85  C   UNL A   1      49.665  25.773  27.965  1.00  0.00     0.134 A 
ATOM     86  F   UNL A   1      48.458  26.727  24.674  1.00  0.00    -0.206 F 
ATOM     87  C   UNL A   1      50.596  26.048  25.363  1.00  0.00     0.040 A 
ATOM     88  C   UNL A   1      51.004  25.510  27.674  1.00  0.00     0.040 A 
ATOM     89  F   UNL A   1      49.257  25.616  29.233  1.00  0.00    -0.206 F 
ATOM     90  C   UNL A   1      51.470  25.636  26.367  1.00  0.00     0.006 A 
ENDBRANCH  66  83
ENDBRANCH  40  41
ENDBRANCH  32  35
ENDBRANCH  30  31
ENDBRANCH  29  30
ENDBRANCH  28  29
ENDBRANCH   1  28
TORSDOF 15
ENDMDL
