MODEL 1
REMARK VINA RESULT:     -12.2      0.000      0.000
REMARK SMILES C[C@H](C(=O)NCCCCNC(=O)c1ccc(-c2c3nc(c(-c4c(F)cccc4F)c4ccc([nH]4)c(-c4c(F)cccc4F)c4nc(c(-c5c(F)cccc5F)c5ccc2[nH]5)C=C4)C=C3)cc1)c1ccc(-c2ccccc2)c(F)c1
REMARK SMILES IDX 7 1 6 2 5 3 3 4 4 5 2 7 1 8 67 9 68 10 79 11 69 12 77 13
REMARK SMILES IDX 70 14 78 15 71 16 72 17 76 18 73 19 75 20 74 21 8 22 9 23
REMARK SMILES IDX 10 24 11 25 12 27 13 28 14 29 66 30 15 31 65 32 16 33 17 34
REMARK SMILES IDX 18 35 59 36 19 37 64 38 58 39 60 40 20 41 63 42 57 43 56 44
REMARK SMILES IDX 21 46 47 47 30 48 46 49 31 50 34 51 45 52 61 53 32 54 33 55
REMARK SMILES IDX 44 57 62 58 35 59 22 60 23 61 28 62 24 63 25 64 27 65 29 66
REMARK SMILES IDX 26 67 48 68 49 69 54 70 50 71 51 72 53 73 55 74 52 75 36 76
REMARK SMILES IDX 37 77 42 78 38 79 39 80 41 81 43 82 40 83
REMARK H PARENT 5 6 10 26 60 45 34 56
REMARK Flexibility Score: inf
ROOT
ATOM      1  C   UNL A   1      31.707  27.973  27.173  1.00  0.00     0.023 C 
ENDROOT
BRANCH   1   2
ATOM      2  C   UNL A   1      32.300  26.658  26.673  1.00  0.00     0.116 C 
BRANCH   2   3
ATOM      3  N   UNL A   1      31.391  25.527  26.676  1.00  0.00    -0.356 N 
ATOM      4  C   UNL A   1      31.112  24.616  25.698  1.00  0.00     0.227 C 
ATOM      5  O   UNL A   1      30.559  23.575  26.080  1.00  0.00    -0.274 OA
ATOM      6  H   UNL A   1      30.898  25.394  27.518  1.00  0.00     0.163 HD
BRANCH   4   7
ATOM      7  C   UNL A   1      31.290  24.861  24.187  1.00  0.00     0.105 C 
ATOM      8  C   UNL A   1      30.903  23.540  23.501  1.00  0.00     0.023 C 
BRANCH   7   9
ATOM      9  C   UNL A   1      30.652  26.102  23.579  1.00  0.00    -0.033 A 
ATOM     10  C   UNL A   1      31.396  26.992  22.797  1.00  0.00     0.005 A 
ATOM     11  C   UNL A   1      29.297  26.407  23.769  1.00  0.00     0.044 A 
ATOM     12  C   UNL A   1      30.880  28.252  22.452  1.00  0.00     0.012 A 
ATOM     13  C   UNL A   1      28.772  27.637  23.370  1.00  0.00     0.131 A 
ATOM     14  C   UNL A   1      29.566  28.631  22.782  1.00  0.00     0.017 A 
ATOM     15  F   UNL A   1      27.469  27.850  23.613  1.00  0.00    -0.206 F 
BRANCH  14  16
ATOM     16  C   UNL A   1      29.081  30.021  22.584  1.00  0.00    -0.015 A 
ATOM     17  C   UNL A   1      28.583  30.468  21.347  1.00  0.00     0.009 A 
ATOM     18  C   UNL A   1      29.162  30.977  23.617  1.00  0.00     0.009 A 
ATOM     19  C   UNL A   1      28.197  31.799  21.150  1.00  0.00     0.001 A 
ATOM     20  C   UNL A   1      28.761  32.304  23.430  1.00  0.00     0.001 A 
ATOM     21  C   UNL A   1      28.283  32.716  22.193  1.00  0.00     0.000 A 
ENDBRANCH  14  16
ENDBRANCH   7   9
ENDBRANCH   4   7
ENDBRANCH   2   3
ENDBRANCH   1   2
BRANCH   1  22
ATOM     22  C   UNL A   1      31.396  29.040  26.124  1.00  0.00     0.023 C 
BRANCH  22  23
ATOM     23  C   UNL A   1      32.522  30.007  25.761  1.00  0.00     0.116 C 
BRANCH  23  24
ATOM     24  N   UNL A   1      32.351  31.342  26.309  1.00  0.00    -0.352 N 
ATOM     25  C   UNL A   1      33.097  32.054  27.220  1.00  0.00     0.251 C 
ATOM     26  H   UNL A   1      31.562  31.821  25.968  1.00  0.00     0.163 HD
ATOM     27  O   UNL A   1      32.688  33.150  27.595  1.00  0.00    -0.269 OA
BRANCH  25  28
ATOM     28  C   UNL A   1      34.360  31.520  27.792  1.00  0.00     0.039 A 
ATOM     29  C   UNL A   1      35.415  32.413  28.009  1.00  0.00     0.014 A 
ATOM     30  C   UNL A   1      34.541  30.167  28.085  1.00  0.00     0.014 A 
ATOM     31  C   UNL A   1      36.607  31.967  28.590  1.00  0.00     0.010 A 
ATOM     32  C   UNL A   1      35.696  29.738  28.746  1.00  0.00     0.010 A 
ATOM     33  C   UNL A   1      36.741  30.633  29.012  1.00  0.00    -0.014 A 
BRANCH  33  34
ATOM     34  C   UNL A   1      37.958  30.193  29.752  1.00  0.00     0.031 A 
ATOM     35  C   UNL A   1      38.226  30.657  31.160  1.00  0.00     0.074 A 
ATOM     36  C   UNL A   1      38.848  29.388  29.139  1.00  0.00     0.049 A 
ATOM     37  N   UNL A   1      39.223  30.353  31.954  1.00  0.00    -0.248 NA
ATOM     38  C   UNL A   1      37.264  31.604  31.745  1.00  0.00     0.031 C 
ATOM     39  C   UNL A   1      38.751  28.921  27.754  1.00  0.00     0.029 A 
ATOM     40  N   UNL A   1      40.009  28.814  29.598  1.00  0.00    -0.354 N 
ATOM     41  C   UNL A   1      39.005  31.063  33.129  1.00  0.00     0.074 A 
ATOM     42  C   UNL A   1      37.821  31.867  32.919  1.00  0.00     0.031 C 
ATOM     43  C   UNL A   1      39.785  28.108  27.489  1.00  0.00     0.029 A 
ATOM     44  C   UNL A   1      40.636  28.018  28.671  1.00  0.00     0.049 A 
ATOM     45  H   UNL A   1      40.357  28.959  30.508  1.00  0.00     0.167 HD
ATOM     46  C   UNL A   1      39.709  31.029  34.288  1.00  0.00     0.037 A 
ATOM     47  C   UNL A   1      41.768  27.293  28.758  1.00  0.00     0.037 A 
ATOM     48  C   UNL A   1      40.886  30.226  34.503  1.00  0.00     0.049 A 
ATOM     49  C   UNL A   1      42.523  27.263  30.057  1.00  0.00     0.074 A 
ATOM     50  C   UNL A   1      41.644  30.095  35.655  1.00  0.00     0.029 A 
ATOM     51  N   UNL A   1      41.479  29.419  33.544  1.00  0.00    -0.354 N 
ATOM     52  N   UNL A   1      42.260  27.883  31.183  1.00  0.00    -0.248 NA
ATOM     53  C   UNL A   1      43.726  26.421  30.103  1.00  0.00     0.031 C 
ATOM     54  C   UNL A   1      42.718  29.241  35.380  1.00  0.00     0.029 A 
ATOM     55  C   UNL A   1      42.601  28.799  34.073  1.00  0.00     0.049 A 
ATOM     56  H   UNL A   1      41.151  29.302  32.623  1.00  0.00     0.167 HD
ATOM     57  C   UNL A   1      43.251  27.491  32.074  1.00  0.00     0.074 A 
ATOM     58  C   UNL A   1      44.100  26.555  31.367  1.00  0.00     0.031 C 
ATOM     59  C   UNL A   1      43.444  27.875  33.359  1.00  0.00     0.037 A 
BRANCH  46  60
ATOM     60  C   UNL A   1      39.208  31.872  35.426  1.00  0.00     0.057 A 
ATOM     61  C   UNL A   1      39.603  33.208  35.579  1.00  0.00     0.134 A 
ATOM     62  C   UNL A   1      38.288  31.364  36.352  1.00  0.00     0.134 A 
ATOM     63  F   UNL A   1      40.489  33.756  34.733  1.00  0.00    -0.206 F 
ATOM     64  C   UNL A   1      39.122  34.000  36.623  1.00  0.00     0.040 A 
ATOM     65  C   UNL A   1      37.777  32.154  37.384  1.00  0.00     0.040 A 
ATOM     66  F   UNL A   1      37.859  30.095  36.261  1.00  0.00    -0.206 F 
ATOM     67  C   UNL A   1      38.199  33.474  37.525  1.00  0.00     0.006 A 
ENDBRANCH  46  60
BRANCH  47  68
ATOM     68  C   UNL A   1      42.248  26.515  27.587  1.00  0.00     0.057 A 
ATOM     69  C   UNL A   1      41.907  25.167  27.420  1.00  0.00     0.134 A 
ATOM     70  C   UNL A   1      43.075  27.094  26.617  1.00  0.00     0.134 A 
ATOM     71  F   UNL A   1      41.133  24.548  28.324  1.00  0.00    -0.206 F 
ATOM     72  C   UNL A   1      42.394  24.415  26.348  1.00  0.00     0.040 A 
ATOM     73  C   UNL A   1      43.546  26.363  25.525  1.00  0.00     0.040 A 
ATOM     74  F   UNL A   1      43.432  28.383  26.714  1.00  0.00    -0.206 F 
ATOM     75  C   UNL A   1      43.212  25.017  25.394  1.00  0.00     0.006 A 
ENDBRANCH  47  68
BRANCH  59  76
ATOM     76  C   UNL A   1      44.609  27.264  34.083  1.00  0.00     0.057 A 
ATOM     77  C   UNL A   1      45.872  27.871  34.101  1.00  0.00     0.134 A 
ATOM     78  C   UNL A   1      44.467  26.053  34.773  1.00  0.00     0.134 A 
ATOM     79  F   UNL A   1      46.080  29.026  33.450  1.00  0.00    -0.206 F 
ATOM     80  C   UNL A   1      46.960  27.275  34.742  1.00  0.00     0.040 A 
ATOM     81  C   UNL A   1      45.540  25.464  35.443  1.00  0.00     0.040 A 
ATOM     82  F   UNL A   1      43.283  25.423  34.808  1.00  0.00    -0.206 F 
ATOM     83  C   UNL A   1      46.794  26.069  35.418  1.00  0.00     0.006 A 
ENDBRANCH  59  76
ENDBRANCH  33  34
ENDBRANCH  25  28
ENDBRANCH  23  24
ENDBRANCH  22  23
ENDBRANCH   1  22
TORSDOF 13
ENDMDL
MODEL 2
REMARK VINA RESULT:     -12.1      3.531      5.712
REMARK SMILES C[C@H](C(=O)NCCCCNC(=O)c1ccc(-c2c3nc(c(-c4c(F)cccc4F)c4ccc([nH]4)c(-c4c(F)cccc4F)c4nc(c(-c5c(F)cccc5F)c5ccc2[nH]5)C=C4)C=C3)cc1)c1ccc(-c2ccccc2)c(F)c1
REMARK SMILES IDX 7 1 6 2 5 3 3 4 4 5 2 7 1 8 67 9 68 10 79 11 69 12 77 13
REMARK SMILES IDX 70 14 78 15 71 16 72 17 76 18 73 19 75 20 74 21 8 22 9 23
REMARK SMILES IDX 10 24 11 25 12 27 13 28 14 29 66 30 15 31 65 32 16 33 17 34
REMARK SMILES IDX 18 35 59 36 19 37 64 38 58 39 60 40 20 41 63 42 57 43 56 44
REMARK SMILES IDX 21 46 47 47 30 48 46 49 31 50 34 51 45 52 61 53 32 54 33 55
REMARK SMILES IDX 44 57 62 58 35 59 22 60 23 61 28 62 24 63 25 64 27 65 29 66
REMARK SMILES IDX 26 67 48 68 49 69 54 70 50 71 51 72 53 73 55 74 52 75 36 76
REMARK SMILES IDX 37 77 42 78 38 79 39 80 41 81 43 82 40 83
REMARK H PARENT 5 6 10 26 60 45 34 56
REMARK Flexibility Score: inf
ROOT
ATOM      1  C   UNL A   1      33.109  29.305  24.796  1.00  0.00     0.023 C 
ENDROOT
BRANCH   1   2
ATOM      2  C   UNL A   1      31.695  28.949  24.343  1.00  0.00     0.116 C 
BRANCH   2   3
ATOM      3  N   UNL A   1      31.608  28.230  23.086  1.00  0.00    -0.356 N 
ATOM      4  C   UNL A   1      31.237  26.942  22.828  1.00  0.00     0.227 C 
ATOM      5  O   UNL A   1      30.934  26.698  21.652  1.00  0.00    -0.274 OA
ATOM      6  H   UNL A   1      31.854  28.757  22.291  1.00  0.00     0.163 HD
BRANCH   4   7
ATOM      7  C   UNL A   1      31.322  25.781  23.838  1.00  0.00     0.105 C 
ATOM      8  C   UNL A   1      30.396  24.682  23.291  1.00  0.00     0.023 C 
BRANCH   7   9
ATOM      9  C   UNL A   1      32.702  25.295  24.261  1.00  0.00    -0.033 A 
ATOM     10  C   UNL A   1      33.797  25.379  23.395  1.00  0.00     0.005 A 
ATOM     11  C   UNL A   1      32.938  24.750  25.531  1.00  0.00     0.044 A 
ATOM     12  C   UNL A   1      34.997  24.707  23.686  1.00  0.00     0.012 A 
ATOM     13  C   UNL A   1      34.154  24.136  25.836  1.00  0.00     0.131 A 
ATOM     14  C   UNL A   1      35.187  24.017  24.896  1.00  0.00     0.017 A 
ATOM     15  F   UNL A   1      34.283  23.622  27.070  1.00  0.00    -0.206 F 
BRANCH  14  16
ATOM     16  C   UNL A   1      36.375  23.157  25.127  1.00  0.00    -0.015 A 
ATOM     17  C   UNL A   1      36.430  21.824  24.682  1.00  0.00     0.009 A 
ATOM     18  C   UNL A   1      37.481  23.623  25.867  1.00  0.00     0.009 A 
ATOM     19  C   UNL A   1      37.524  21.000  24.969  1.00  0.00     0.001 A 
ATOM     20  C   UNL A   1      38.585  22.809  26.141  1.00  0.00     0.001 A 
ATOM     21  C   UNL A   1      38.603  21.493  25.696  1.00  0.00     0.000 A 
ENDBRANCH  14  16
ENDBRANCH   7   9
ENDBRANCH   4   7
ENDBRANCH   2   3
ENDBRANCH   1   2
BRANCH   1  22
ATOM     22  C   UNL A   1      33.784  28.355  25.786  1.00  0.00     0.023 C 
BRANCH  22  23
ATOM     23  C   UNL A   1      33.469  28.557  27.266  1.00  0.00     0.116 C 
BRANCH  23  24
ATOM     24  N   UNL A   1      33.517  29.945  27.694  1.00  0.00    -0.352 N 
ATOM     25  C   UNL A   1      34.532  30.692  28.247  1.00  0.00     0.251 C 
ATOM     26  H   UNL A   1      32.674  30.438  27.566  1.00  0.00     0.163 HD
ATOM     27  O   UNL A   1      34.294  31.841  28.610  1.00  0.00    -0.269 OA
BRANCH  25  28
ATOM     28  C   UNL A   1      35.895  30.137  28.452  1.00  0.00     0.039 A 
ATOM     29  C   UNL A   1      36.787  30.165  27.374  1.00  0.00     0.014 A 
ATOM     30  C   UNL A   1      36.301  29.564  29.658  1.00  0.00     0.014 A 
ATOM     31  C   UNL A   1      38.097  29.700  27.532  1.00  0.00     0.010 A 
ATOM     32  C   UNL A   1      37.633  29.181  29.842  1.00  0.00     0.010 A 
ATOM     33  C   UNL A   1      38.549  29.249  28.783  1.00  0.00    -0.014 A 
BRANCH  33  34
ATOM     34  C   UNL A   1      39.980  28.881  28.983  1.00  0.00     0.031 A 
ATOM     35  C   UNL A   1      40.949  29.835  29.630  1.00  0.00     0.074 A 
ATOM     36  C   UNL A   1      40.420  27.682  28.549  1.00  0.00     0.049 A 
ATOM     37  N   UNL A   1      42.220  29.665  29.900  1.00  0.00    -0.248 NA
ATOM     38  C   UNL A   1      40.431  31.161  30.003  1.00  0.00     0.031 C 
ATOM     39  C   UNL A   1      39.608  26.690  27.841  1.00  0.00     0.029 A 
ATOM     40  N   UNL A   1      41.655  27.089  28.642  1.00  0.00    -0.354 N 
ATOM     41  C   UNL A   1      42.650  30.855  30.475  1.00  0.00     0.074 A 
ATOM     42  C   UNL A   1      41.524  31.762  30.453  1.00  0.00     0.031 C 
ATOM     43  C   UNL A   1      40.355  25.602  27.595  1.00  0.00     0.029 A 
ATOM     44  C   UNL A   1      41.705  25.828  28.099  1.00  0.00     0.049 A 
ATOM     45  H   UNL A   1      42.432  27.527  29.060  1.00  0.00     0.167 HD
ATOM     46  C   UNL A   1      43.863  31.157  31.002  1.00  0.00     0.037 A 
ATOM     47  C   UNL A   1      42.721  24.948  28.016  1.00  0.00     0.037 A 
ATOM     48  C   UNL A   1      44.986  30.255  31.030  1.00  0.00     0.049 A 
ATOM     49  C   UNL A   1      44.052  25.303  28.617  1.00  0.00     0.074 A 
ATOM     50  C   UNL A   1      46.243  30.457  31.577  1.00  0.00     0.029 A 
ATOM     51  N   UNL A   1      44.991  28.979  30.487  1.00  0.00    -0.354 N 
ATOM     52  N   UNL A   1      44.419  26.405  29.226  1.00  0.00    -0.248 NA
ATOM     53  C   UNL A   1      45.108  24.284  28.533  1.00  0.00     0.031 C 
ATOM     54  C   UNL A   1      47.019  29.320  31.327  1.00  0.00     0.029 A 
ATOM     55  C   UNL A   1      46.232  28.388  30.671  1.00  0.00     0.049 A 
ATOM     56  H   UNL A   1      44.225  28.555  30.037  1.00  0.00     0.167 HD
ATOM     57  C   UNL A   1      45.738  26.205  29.613  1.00  0.00     0.074 A 
ATOM     58  C   UNL A   1      46.095  24.864  29.199  1.00  0.00     0.031 C 
ATOM     59  C   UNL A   1      46.579  27.057  30.249  1.00  0.00     0.037 A 
BRANCH  46  60
ATOM     60  C   UNL A   1      44.032  32.519  31.614  1.00  0.00     0.057 A 
ATOM     61  C   UNL A   1      43.645  32.784  32.934  1.00  0.00     0.134 A 
ATOM     62  C   UNL A   1      44.628  33.564  30.896  1.00  0.00     0.134 A 
ATOM     63  F   UNL A   1      43.059  31.831  33.675  1.00  0.00    -0.206 F 
ATOM     64  C   UNL A   1      43.821  34.043  33.511  1.00  0.00     0.040 A 
ATOM     65  C   UNL A   1      44.836  34.820  31.471  1.00  0.00     0.040 A 
ATOM     66  F   UNL A   1      45.030  33.379  29.629  1.00  0.00    -0.206 F 
ATOM     67  C   UNL A   1      44.426  35.064  32.780  1.00  0.00     0.006 A 
ENDBRANCH  46  60
BRANCH  47  68
ATOM     68  C   UNL A   1      42.516  23.632  27.357  1.00  0.00     0.057 A 
ATOM     69  C   UNL A   1      42.133  22.502  28.090  1.00  0.00     0.134 A 
ATOM     70  C   UNL A   1      42.718  23.468  25.981  1.00  0.00     0.134 A 
ATOM     71  F   UNL A   1      41.943  22.590  29.416  1.00  0.00    -0.206 F 
ATOM     72  C   UNL A   1      41.986  21.252  27.486  1.00  0.00     0.040 A 
ATOM     73  C   UNL A   1      42.546  22.230  25.359  1.00  0.00     0.040 A 
ATOM     74  F   UNL A   1      43.077  24.512  25.220  1.00  0.00    -0.206 F 
ATOM     75  C   UNL A   1      42.188  21.116  26.115  1.00  0.00     0.006 A 
ENDBRANCH  47  68
BRANCH  59  76
ATOM     76  C   UNL A   1      47.960  26.549  30.549  1.00  0.00     0.057 A 
ATOM     77  C   UNL A   1      49.024  26.720  29.653  1.00  0.00     0.134 A 
ATOM     78  C   UNL A   1      48.232  25.881  31.750  1.00  0.00     0.134 A 
ATOM     79  F   UNL A   1      48.830  27.340  28.478  1.00  0.00    -0.206 F 
ATOM     80  C   UNL A   1      50.295  26.208  29.922  1.00  0.00     0.040 A 
ATOM     81  C   UNL A   1      49.505  25.393  32.044  1.00  0.00     0.040 A 
ATOM     82  F   UNL A   1      47.263  25.692  32.659  1.00  0.00    -0.206 F 
ATOM     83  C   UNL A   1      50.538  25.545  31.122  1.00  0.00     0.006 A 
ENDBRANCH  59  76
ENDBRANCH  33  34
ENDBRANCH  25  28
ENDBRANCH  23  24
ENDBRANCH  22  23
ENDBRANCH   1  22
TORSDOF 13
ENDMDL
MODEL 3
REMARK VINA RESULT:     -11.9      4.460      8.624
REMARK SMILES C[C@H](C(=O)NCCCCNC(=O)c1ccc(-c2c3nc(c(-c4c(F)cccc4F)c4ccc([nH]4)c(-c4c(F)cccc4F)c4nc(c(-c5c(F)cccc5F)c5ccc2[nH]5)C=C4)C=C3)cc1)c1ccc(-c2ccccc2)c(F)c1
REMARK SMILES IDX 7 1 6 2 5 3 3 4 4 5 2 7 1 8 67 9 68 10 79 11 69 12 77 13
REMARK SMILES IDX 70 14 78 15 71 16 72 17 76 18 73 19 75 20 74 21 8 22 9 23
REMARK SMILES IDX 10 24 11 25 12 27 13 28 14 29 66 30 15 31 65 32 16 33 17 34
REMARK SMILES IDX 18 35 59 36 19 37 64 38 58 39 60 40 20 41 63 42 57 43 56 44
REMARK SMILES IDX 21 46 47 47 30 48 46 49 31 50 34 51 45 52 61 53 32 54 33 55
REMARK SMILES IDX 44 57 62 58 35 59 22 60 23 61 28 62 24 63 25 64 27 65 29 66
REMARK SMILES IDX 26 67 48 68 49 69 54 70 50 71 51 72 53 73 55 74 52 75 36 76
REMARK SMILES IDX 37 77 42 78 38 79 39 80 41 81 43 82 40 83
REMARK H PARENT 5 6 10 26 60 45 34 56
REMARK Flexibility Score: inf
ROOT
ATOM      1  C   UNL A   1      32.430  29.375  27.116  1.00  0.00     0.023 C 
ENDROOT
BRANCH   1   2
ATOM      2  C   UNL A   1      32.039  30.065  25.811  1.00  0.00     0.116 C 
BRANCH   2   3
ATOM      3  N   UNL A   1      32.905  29.793  24.680  1.00  0.00    -0.356 N 
ATOM      4  C   UNL A   1      32.828  28.823  23.722  1.00  0.00     0.227 C 
ATOM      5  O   UNL A   1      33.498  29.028  22.700  1.00  0.00    -0.274 OA
ATOM      6  H   UNL A   1      33.670  30.406  24.587  1.00  0.00     0.163 HD
BRANCH   4   7
ATOM      7  C   UNL A   1      32.115  27.468  23.894  1.00  0.00     0.105 C 
ATOM      8  C   UNL A   1      31.225  27.303  22.650  1.00  0.00     0.023 C 
BRANCH   7   9
ATOM      9  C   UNL A   1      32.960  26.248  24.236  1.00  0.00    -0.033 A 
ATOM     10  C   UNL A   1      33.214  25.890  25.564  1.00  0.00     0.005 A 
ATOM     11  C   UNL A   1      33.514  25.429  23.242  1.00  0.00     0.044 A 
ATOM     12  C   UNL A   1      34.189  24.929  25.876  1.00  0.00     0.012 A 
ATOM     13  C   UNL A   1      34.438  24.433  23.562  1.00  0.00     0.131 A 
ATOM     14  C   UNL A   1      34.871  24.212  24.876  1.00  0.00     0.017 A 
ATOM     15  F   UNL A   1      34.933  23.713  22.543  1.00  0.00    -0.206 F 
BRANCH  14  16
ATOM     16  C   UNL A   1      36.026  23.334  25.194  1.00  0.00    -0.015 A 
ATOM     17  C   UNL A   1      37.196  23.828  25.797  1.00  0.00     0.009 A 
ATOM     18  C   UNL A   1      36.024  21.968  24.841  1.00  0.00     0.009 A 
ATOM     19  C   UNL A   1      38.307  23.007  26.025  1.00  0.00     0.001 A 
ATOM     20  C   UNL A   1      37.124  21.140  25.084  1.00  0.00     0.001 A 
ATOM     21  C   UNL A   1      38.269  21.662  25.671  1.00  0.00     0.000 A 
ENDBRANCH  14  16
ENDBRANCH   7   9
ENDBRANCH   4   7
ENDBRANCH   2   3
ENDBRANCH   1   2
BRANCH   1  22
ATOM     22  C   UNL A   1      33.902  29.003  27.293  1.00  0.00     0.023 C 
BRANCH  22  23
ATOM     23  C   UNL A   1      34.896  30.153  27.439  1.00  0.00     0.116 C 
BRANCH  23  24
ATOM     24  N   UNL A   1      34.946  30.723  28.775  1.00  0.00    -0.352 N 
ATOM     25  C   UNL A   1      35.931  30.705  29.735  1.00  0.00     0.251 C 
ATOM     26  H   UNL A   1      34.131  31.207  29.039  1.00  0.00     0.163 HD
ATOM     27  O   UNL A   1      35.694  31.192  30.838  1.00  0.00    -0.269 OA
BRANCH  25  28
ATOM     28  C   UNL A   1      37.257  30.080  29.491  1.00  0.00     0.039 A 
ATOM     29  C   UNL A   1      37.783  30.134  28.195  1.00  0.00     0.014 A 
ATOM     30  C   UNL A   1      37.973  29.417  30.489  1.00  0.00     0.014 A 
ATOM     31  C   UNL A   1      39.049  29.604  27.926  1.00  0.00     0.010 A 
ATOM     32  C   UNL A   1      39.273  28.967  30.242  1.00  0.00     0.010 A 
ATOM     33  C   UNL A   1      39.830  29.059  28.959  1.00  0.00    -0.014 A 
BRANCH  33  34
ATOM     34  C   UNL A   1      41.229  28.617  28.696  1.00  0.00     0.031 A 
ATOM     35  C   UNL A   1      41.542  27.190  28.330  1.00  0.00     0.074 A 
ATOM     36  C   UNL A   1      42.235  29.507  28.817  1.00  0.00     0.049 A 
ATOM     37  N   UNL A   1      42.700  26.645  28.048  1.00  0.00    -0.248 NA
ATOM     38  C   UNL A   1      40.414  26.246  28.299  1.00  0.00     0.031 C 
ATOM     39  C   UNL A   1      42.083  30.903  29.235  1.00  0.00     0.029 A 
ATOM     40  N   UNL A   1      43.584  29.375  28.597  1.00  0.00    -0.354 N 
ATOM     41  C   UNL A   1      42.439  25.302  27.802  1.00  0.00     0.074 A 
ATOM     42  C   UNL A   1      41.026  25.100  28.035  1.00  0.00     0.031 C 
ATOM     43  C   UNL A   1      43.282  31.505  29.208  1.00  0.00     0.029 A 
ATOM     44  C   UNL A   1      44.293  30.535  28.801  1.00  0.00     0.049 A 
ATOM     45  H   UNL A   1      44.004  28.529  28.318  1.00  0.00     0.167 HD
ATOM     46  C   UNL A   1      43.291  24.331  27.390  1.00  0.00     0.037 A 
ATOM     47  C   UNL A   1      45.609  30.792  28.674  1.00  0.00     0.037 A 
ATOM     48  C   UNL A   1      44.699  24.529  27.151  1.00  0.00     0.049 A 
ATOM     49  C   UNL A   1      46.530  29.701  28.205  1.00  0.00     0.074 A 
ATOM     50  C   UNL A   1      45.634  23.615  26.696  1.00  0.00     0.029 A 
ATOM     51  N   UNL A   1      45.375  25.723  27.351  1.00  0.00    -0.354 N 
ATOM     52  N   UNL A   1      46.253  28.455  27.904  1.00  0.00    -0.248 NA
ATOM     53  C   UNL A   1      47.947  30.056  28.045  1.00  0.00     0.031 C 
ATOM     54  C   UNL A   1      46.884  24.245  26.660  1.00  0.00     0.029 A 
ATOM     55  C   UNL A   1      46.718  25.565  27.043  1.00  0.00     0.049 A 
ATOM     56  H   UNL A   1      44.962  26.559  27.665  1.00  0.00     0.167 HD
ATOM     57  C   UNL A   1      47.454  27.885  27.501  1.00  0.00     0.074 A 
ATOM     58  C   UNL A   1      48.454  28.930  27.565  1.00  0.00     0.031 C 
ATOM     59  C   UNL A   1      47.706  26.610  27.118  1.00  0.00     0.037 A 
BRANCH  46  60
ATOM     60  C   UNL A   1      42.717  22.963  27.149  1.00  0.00     0.057 A 
ATOM     61  C   UNL A   1      42.387  22.109  28.209  1.00  0.00     0.134 A 
ATOM     62  C   UNL A   1      42.446  22.512  25.851  1.00  0.00     0.134 A 
ATOM     63  F   UNL A   1      42.630  22.474  29.477  1.00  0.00    -0.206 F 
ATOM     64  C   UNL A   1      41.833  20.846  27.988  1.00  0.00     0.040 A 
ATOM     65  C   UNL A   1      41.865  21.263  25.618  1.00  0.00     0.040 A 
ATOM     66  F   UNL A   1      42.728  23.282  24.788  1.00  0.00    -0.206 F 
ATOM     67  C   UNL A   1      41.563  20.424  26.688  1.00  0.00     0.006 A 
ENDBRANCH  46  60
BRANCH  47  68
ATOM     68  C   UNL A   1      46.135  32.150  28.972  1.00  0.00     0.057 A 
ATOM     69  C   UNL A   1      46.576  32.494  30.255  1.00  0.00     0.134 A 
ATOM     70  C   UNL A   1      46.189  33.142  27.984  1.00  0.00     0.134 A 
ATOM     71  F   UNL A   1      46.531  31.595  31.249  1.00  0.00    -0.206 F 
ATOM     72  C   UNL A   1      47.026  33.782  30.554  1.00  0.00     0.040 A 
ATOM     73  C   UNL A   1      46.664  34.425  28.262  1.00  0.00     0.040 A 
ATOM     74  F   UNL A   1      45.790  32.874  26.733  1.00  0.00    -0.206 F 
ATOM     75  C   UNL A   1      47.075  34.750  29.553  1.00  0.00     0.006 A 
ENDBRANCH  47  68
BRANCH  59  76
ATOM     76  C   UNL A   1      49.119  26.287  26.721  1.00  0.00     0.057 A 
ATOM     77  C   UNL A   1      49.592  26.508  25.420  1.00  0.00     0.134 A 
ATOM     78  C   UNL A   1      50.018  25.751  27.651  1.00  0.00     0.134 A 
ATOM     79  F   UNL A   1      48.778  27.008  24.477  1.00  0.00    -0.206 F 
ATOM     80  C   UNL A   1      50.894  26.167  25.049  1.00  0.00     0.040 A 
ATOM     81  C   UNL A   1      51.331  25.435  27.299  1.00  0.00     0.040 A 
ATOM     82  F   UNL A   1      49.636  25.525  28.917  1.00  0.00    -0.206 F 
ATOM     83  C   UNL A   1      51.768  25.632  25.991  1.00  0.00     0.006 A 
ENDBRANCH  59  76
ENDBRANCH  33  34
ENDBRANCH  25  28
ENDBRANCH  23  24
ENDBRANCH  22  23
ENDBRANCH   1  22
TORSDOF 13
ENDMDL
