MODEL 1
REMARK VINA RESULT:     -11.7      0.000      0.000
REMARK SMILES C[C@@H](C(=O)NCCCCNC(=O)c1ccc(-c2c3nc(c(-c4c(F)cccc4F)c4ccc([nH]4)c(-c4c(F)cccc4F)c4nc(c(-c5c(F)cccc5F)c5ccc2[nH]5)C=C4)C=C3)cc1)c1ccc(OC2CCCC2)cc1F
REMARK SMILES IDX 7 1 6 2 5 3 3 4 4 5 2 7 1 8 67 9 68 10 78 11 69 12 77 13
REMARK SMILES IDX 79 14 70 15 71 16 72 17 73 18 76 19 74 20 75 21 8 22 9 23
REMARK SMILES IDX 10 24 11 25 12 27 13 28 14 29 66 30 15 31 65 32 16 33 17 34
REMARK SMILES IDX 18 35 59 36 19 37 64 38 58 39 60 40 20 41 63 42 57 43 56 44
REMARK SMILES IDX 21 46 47 47 30 48 46 49 31 50 34 51 45 52 61 53 32 54 33 55
REMARK SMILES IDX 44 57 62 58 35 59 22 60 23 61 28 62 24 63 25 64 27 65 29 66
REMARK SMILES IDX 26 67 48 68 49 69 54 70 50 71 51 72 53 73 55 74 52 75 36 76
REMARK SMILES IDX 37 77 42 78 38 79 39 80 41 81 43 82 40 83
REMARK H PARENT 5 6 10 26 60 45 34 56
REMARK Flexibility Score: inf
ROOT
ATOM      1  C   UNL A   1      36.982  20.241  24.851  1.00  0.00     0.023 C 
ENDROOT
BRANCH   1   2
ATOM      2  C   UNL A   1      37.387  21.648  24.403  1.00  0.00     0.116 C 
BRANCH   2   3
ATOM      3  N   UNL A   1      37.364  22.556  25.530  1.00  0.00    -0.356 N 
ATOM      4  C   UNL A   1      36.599  23.672  25.725  1.00  0.00     0.227 C 
ATOM      5  O   UNL A   1      36.986  24.470  26.580  1.00  0.00    -0.274 OA
ATOM      6  H   UNL A   1      37.988  22.340  26.259  1.00  0.00     0.163 HD
BRANCH   4   7
ATOM      7  C   UNL A   1      35.308  23.874  24.906  1.00  0.00     0.108 C 
ATOM      8  C   UNL A   1      34.612  25.170  25.336  1.00  0.00     0.023 C 
BRANCH   7   9
ATOM      9  C   UNL A   1      34.407  22.641  24.978  1.00  0.00     0.000 A 
ATOM     10  C   UNL A   1      34.186  21.909  26.151  1.00  0.00     0.011 A 
ATOM     11  C   UNL A   1      33.763  22.199  23.816  1.00  0.00     0.130 A 
ATOM     12  C   UNL A   1      33.369  20.775  26.139  1.00  0.00     0.047 A 
ATOM     13  C   UNL A   1      32.976  21.048  23.794  1.00  0.00     0.086 A 
ATOM     14  F   UNL A   1      33.897  22.893  22.675  1.00  0.00    -0.207 F 
ATOM     15  C   UNL A   1      32.763  20.329  24.962  1.00  0.00     0.122 A 
BRANCH  15  16
ATOM     16  O   UNL A   1      32.012  19.206  25.125  1.00  0.00    -0.490 OA
BRANCH  16  17
ATOM     17  C   UNL A   1      32.409  17.922  24.666  1.00  0.00     0.173 C 
ATOM     18  C   UNL A   1      33.564  17.876  23.674  1.00  0.00     0.045 C 
ATOM     19  C   UNL A   1      32.713  16.890  25.747  1.00  0.00     0.045 C 
ATOM     20  C   UNL A   1      33.988  16.416  23.696  1.00  0.00     0.004 C 
ATOM     21  C   UNL A   1      33.681  15.901  25.102  1.00  0.00     0.004 C 
ENDBRANCH  16  17
ENDBRANCH  15  16
ENDBRANCH   7   9
ENDBRANCH   4   7
ENDBRANCH   2   3
ENDBRANCH   1   2
BRANCH   1  22
ATOM     22  C   UNL A   1      38.147  19.256  24.995  1.00  0.00     0.023 C 
BRANCH  22  23
ATOM     23  C   UNL A   1      39.327  19.763  25.816  1.00  0.00     0.116 C 
BRANCH  23  24
ATOM     24  N   UNL A   1      40.458  18.852  25.796  1.00  0.00    -0.352 N 
ATOM     25  C   UNL A   1      41.783  19.100  26.032  1.00  0.00     0.251 C 
ATOM     26  H   UNL A   1      40.239  17.917  25.579  1.00  0.00     0.163 HD
ATOM     27  O   UNL A   1      42.611  18.207  25.837  1.00  0.00    -0.269 OA
BRANCH  25  28
ATOM     28  C   UNL A   1      42.234  20.431  26.486  1.00  0.00     0.039 A 
ATOM     29  C   UNL A   1      42.755  21.313  25.534  1.00  0.00     0.014 A 
ATOM     30  C   UNL A   1      42.172  20.810  27.830  1.00  0.00     0.014 A 
ATOM     31  C   UNL A   1      43.163  22.589  25.922  1.00  0.00     0.010 A 
ATOM     32  C   UNL A   1      42.518  22.108  28.205  1.00  0.00     0.010 A 
ATOM     33  C   UNL A   1      43.022  23.007  27.255  1.00  0.00    -0.014 A 
BRANCH  33  34
ATOM     34  C   UNL A   1      43.391  24.389  27.648  1.00  0.00     0.031 A 
ATOM     35  C   UNL A   1      44.827  24.835  27.630  1.00  0.00     0.074 A 
ATOM     36  C   UNL A   1      42.426  25.240  28.042  1.00  0.00     0.049 A 
ATOM     37  N   UNL A   1      45.328  26.013  27.906  1.00  0.00    -0.248 NA
ATOM     38  C   UNL A   1      45.834  23.822  27.278  1.00  0.00     0.031 C 
ATOM     39  C   UNL A   1      41.005  24.906  28.169  1.00  0.00     0.029 A 
ATOM     40  N   UNL A   1      42.490  26.561  28.405  1.00  0.00    -0.354 N 
ATOM     41  C   UNL A   1      46.702  25.884  27.759  1.00  0.00     0.074 A 
ATOM     42  C   UNL A   1      46.963  24.500  27.429  1.00  0.00     0.031 C 
ATOM     43  C   UNL A   1      40.330  26.001  28.553  1.00  0.00     0.029 A 
ATOM     44  C   UNL A   1      41.268  27.106  28.717  1.00  0.00     0.049 A 
ATOM     45  H   UNL A   1      43.332  27.071  28.441  1.00  0.00     0.167 HD
ATOM     46  C   UNL A   1      47.658  26.837  27.861  1.00  0.00     0.037 A 
ATOM     47  C   UNL A   1      40.941  28.359  29.082  1.00  0.00     0.037 A 
ATOM     48  C   UNL A   1      47.398  28.217  28.179  1.00  0.00     0.049 A 
ATOM     49  C   UNL A   1      42.016  29.406  29.158  1.00  0.00     0.074 A 
ATOM     50  C   UNL A   1      48.295  29.268  28.268  1.00  0.00     0.029 A 
ATOM     51  N   UNL A   1      46.144  28.739  28.457  1.00  0.00    -0.354 N 
ATOM     52  N   UNL A   1      43.304  29.285  28.945  1.00  0.00    -0.248 NA
ATOM     53  C   UNL A   1      41.589  30.768  29.506  1.00  0.00     0.031 C 
ATOM     54  C   UNL A   1      47.587  30.420  28.630  1.00  0.00     0.029 A 
ATOM     55  C   UNL A   1      46.243  30.094  28.727  1.00  0.00     0.049 A 
ATOM     56  H   UNL A   1      45.305  28.222  28.461  1.00  0.00     0.167 HD
ATOM     57  C   UNL A   1      43.838  30.554  29.119  1.00  0.00     0.074 A 
ATOM     58  C   UNL A   1      42.731  31.436  29.427  1.00  0.00     0.031 C 
ATOM     59  C   UNL A   1      45.131  30.954  29.038  1.00  0.00     0.037 A 
BRANCH  46  60
ATOM     60  C   UNL A   1      49.077  26.421  27.606  1.00  0.00     0.057 A 
ATOM     61  C   UNL A   1      49.626  26.442  26.316  1.00  0.00     0.134 A 
ATOM     62  C   UNL A   1      49.914  26.028  28.658  1.00  0.00     0.134 A 
ATOM     63  F   UNL A   1      48.874  26.796  25.264  1.00  0.00    -0.206 F 
ATOM     64  C   UNL A   1      50.950  26.067  26.079  1.00  0.00     0.040 A 
ATOM     65  C   UNL A   1      51.246  25.673  28.436  1.00  0.00     0.040 A 
ATOM     66  F   UNL A   1      49.454  25.989  29.917  1.00  0.00    -0.206 F 
ATOM     67  C   UNL A   1      51.766  25.688  27.143  1.00  0.00     0.006 A 
ENDBRANCH  46  60
BRANCH  47  68
ATOM     68  C   UNL A   1      39.527  28.702  29.368  1.00  0.00     0.057 A 
ATOM     69  C   UNL A   1      38.679  29.178  28.361  1.00  0.00     0.134 A 
ATOM     70  C   UNL A   1      38.991  28.568  30.654  1.00  0.00     0.134 A 
ATOM     71  F   UNL A   1      39.141  29.343  27.113  1.00  0.00    -0.206 F 
ATOM     72  C   UNL A   1      37.355  29.531  28.627  1.00  0.00     0.040 A 
ATOM     73  C   UNL A   1      37.662  28.893  30.929  1.00  0.00     0.040 A 
ATOM     74  F   UNL A   1      39.751  28.107  31.659  1.00  0.00    -0.206 F 
ATOM     75  C   UNL A   1      36.843  29.384  29.914  1.00  0.00     0.006 A 
ENDBRANCH  47  68
BRANCH  59  76
ATOM     76  C   UNL A   1      45.405  32.410  29.273  1.00  0.00     0.057 A 
ATOM     77  C   UNL A   1      45.715  32.905  30.546  1.00  0.00     0.134 A 
ATOM     78  C   UNL A   1      45.365  33.325  28.214  1.00  0.00     0.134 A 
ATOM     79  F   UNL A   1      45.754  32.080  31.604  1.00  0.00    -0.206 F 
ATOM     80  C   UNL A   1      45.946  34.264  30.763  1.00  0.00     0.040 A 
ATOM     81  C   UNL A   1      45.619  34.683  28.415  1.00  0.00     0.040 A 
ATOM     82  F   UNL A   1      45.082  32.915  26.968  1.00  0.00    -0.206 F 
ATOM     83  C   UNL A   1      45.902  35.156  29.694  1.00  0.00     0.006 A 
ENDBRANCH  59  76
ENDBRANCH  33  34
ENDBRANCH  25  28
ENDBRANCH  23  24
ENDBRANCH  22  23
ENDBRANCH   1  22
TORSDOF 14
ENDMDL
MODEL 2
REMARK VINA RESULT:     -11.6      2.300      4.025
REMARK SMILES C[C@@H](C(=O)NCCCCNC(=O)c1ccc(-c2c3nc(c(-c4c(F)cccc4F)c4ccc([nH]4)c(-c4c(F)cccc4F)c4nc(c(-c5c(F)cccc5F)c5ccc2[nH]5)C=C4)C=C3)cc1)c1ccc(OC2CCCC2)cc1F
REMARK SMILES IDX 7 1 6 2 5 3 3 4 4 5 2 7 1 8 67 9 68 10 78 11 69 12 77 13
REMARK SMILES IDX 79 14 70 15 71 16 72 17 73 18 76 19 74 20 75 21 8 22 9 23
REMARK SMILES IDX 10 24 11 25 12 27 13 28 14 29 66 30 15 31 65 32 16 33 17 34
REMARK SMILES IDX 18 35 59 36 19 37 64 38 58 39 60 40 20 41 63 42 57 43 56 44
REMARK SMILES IDX 21 46 47 47 30 48 46 49 31 50 34 51 45 52 61 53 32 54 33 55
REMARK SMILES IDX 44 57 62 58 35 59 22 60 23 61 28 62 24 63 25 64 27 65 29 66
REMARK SMILES IDX 26 67 48 68 49 69 54 70 50 71 51 72 53 73 55 74 52 75 36 76
REMARK SMILES IDX 37 77 42 78 38 79 39 80 41 81 43 82 40 83
REMARK H PARENT 5 6 10 26 60 45 34 56
REMARK Flexibility Score: inf
ROOT
ATOM      1  C   UNL A   1      38.927  22.517  26.220  1.00  0.00     0.023 C 
ENDROOT
BRANCH   1   2
ATOM      2  C   UNL A   1      37.695  23.396  25.984  1.00  0.00     0.116 C 
BRANCH   2   3
ATOM      3  N   UNL A   1      37.405  23.479  24.569  1.00  0.00    -0.356 N 
ATOM      4  C   UNL A   1      36.273  23.114  23.896  1.00  0.00     0.227 C 
ATOM      5  O   UNL A   1      36.377  22.952  22.679  1.00  0.00    -0.274 OA
ATOM      6  H   UNL A   1      38.125  23.852  24.011  1.00  0.00     0.163 HD
BRANCH   4   7
ATOM      7  C   UNL A   1      34.945  22.942  24.660  1.00  0.00     0.108 C 
ATOM      8  C   UNL A   1      34.132  21.797  24.045  1.00  0.00     0.023 C 
BRANCH   7   9
ATOM      9  C   UNL A   1      34.179  24.262  24.743  1.00  0.00     0.000 A 
ATOM     10  C   UNL A   1      34.140  25.203  23.708  1.00  0.00     0.011 A 
ATOM     11  C   UNL A   1      33.475  24.569  25.915  1.00  0.00     0.130 A 
ATOM     12  C   UNL A   1      33.440  26.404  23.863  1.00  0.00     0.047 A 
ATOM     13  C   UNL A   1      32.806  25.780  26.085  1.00  0.00     0.086 A 
ATOM     14  F   UNL A   1      33.435  23.679  26.920  1.00  0.00    -0.207 F 
ATOM     15  C   UNL A   1      32.773  26.707  25.052  1.00  0.00     0.122 A 
BRANCH  15  16
ATOM     16  O   UNL A   1      32.153  27.919  25.038  1.00  0.00    -0.490 OA
BRANCH  16  17
ATOM     17  C   UNL A   1      31.236  28.320  24.032  1.00  0.00     0.173 C 
ATOM     18  C   UNL A   1      30.013  27.436  23.826  1.00  0.00     0.045 C 
ATOM     19  C   UNL A   1      30.731  29.757  24.120  1.00  0.00     0.045 C 
ATOM     20  C   UNL A   1      29.078  28.313  23.009  1.00  0.00     0.004 C 
ATOM     21  C   UNL A   1      29.376  29.755  23.418  1.00  0.00     0.004 C 
ENDBRANCH  16  17
ENDBRANCH  15  16
ENDBRANCH   7   9
ENDBRANCH   4   7
ENDBRANCH   2   3
ENDBRANCH   1   2
BRANCH   1  22
ATOM     22  C   UNL A   1      38.936  21.204  25.430  1.00  0.00     0.023 C 
BRANCH  22  23
ATOM     23  C   UNL A   1      39.252  19.957  26.248  1.00  0.00     0.116 C 
BRANCH  23  24
ATOM     24  N   UNL A   1      40.470  19.296  25.815  1.00  0.00    -0.352 N 
ATOM     25  C   UNL A   1      41.764  19.743  25.843  1.00  0.00     0.251 C 
ATOM     26  H   UNL A   1      40.348  18.392  25.446  1.00  0.00     0.163 HD
ATOM     27  O   UNL A   1      42.648  19.074  25.305  1.00  0.00    -0.269 OA
BRANCH  25  28
ATOM     28  C   UNL A   1      42.105  21.031  26.482  1.00  0.00     0.039 A 
ATOM     29  C   UNL A   1      42.522  22.084  25.664  1.00  0.00     0.014 A 
ATOM     30  C   UNL A   1      42.042  21.204  27.868  1.00  0.00     0.014 A 
ATOM     31  C   UNL A   1      42.824  23.323  26.230  1.00  0.00     0.010 A 
ATOM     32  C   UNL A   1      42.279  22.460  28.425  1.00  0.00     0.010 A 
ATOM     33  C   UNL A   1      42.678  23.530  27.611  1.00  0.00    -0.014 A 
BRANCH  33  34
ATOM     34  C   UNL A   1      42.932  24.868  28.198  1.00  0.00     0.031 A 
ATOM     35  C   UNL A   1      44.320  25.278  28.604  1.00  0.00     0.074 A 
ATOM     36  C   UNL A   1      41.899  25.710  28.384  1.00  0.00     0.049 A 
ATOM     37  N   UNL A   1      44.732  26.419  29.097  1.00  0.00    -0.248 NA
ATOM     38  C   UNL A   1      45.381  24.270  28.456  1.00  0.00     0.031 C 
ATOM     39  C   UNL A   1      40.495  25.403  28.096  1.00  0.00     0.029 A 
ATOM     40  N   UNL A   1      41.867  26.998  28.855  1.00  0.00    -0.354 N 
ATOM     41  C   UNL A   1      46.093  26.267  29.317  1.00  0.00     0.074 A 
ATOM     42  C   UNL A   1      46.430  24.906  28.959  1.00  0.00     0.031 C 
ATOM     43  C   UNL A   1      39.745  26.482  28.370  1.00  0.00     0.029 A 
ATOM     44  C   UNL A   1      40.608  27.548  28.868  1.00  0.00     0.049 A 
ATOM     45  H   UNL A   1      42.670  27.482  29.157  1.00  0.00     0.167 HD
ATOM     46  C   UNL A   1      46.990  27.186  29.748  1.00  0.00     0.037 A 
ATOM     47  C   UNL A   1      40.198  28.778  29.230  1.00  0.00     0.037 A 
ATOM     48  C   UNL A   1      46.658  28.544  30.093  1.00  0.00     0.049 A 
ATOM     49  C   UNL A   1      41.216  29.789  29.677  1.00  0.00     0.074 A 
ATOM     50  C   UNL A   1      47.501  29.563  30.505  1.00  0.00     0.029 A 
ATOM     51  N   UNL A   1      45.377  29.074  30.063  1.00  0.00    -0.354 N 
ATOM     52  N   UNL A   1      42.513  29.652  29.810  1.00  0.00    -0.248 NA
ATOM     53  C   UNL A   1      40.715  31.130  30.004  1.00  0.00     0.031 C 
ATOM     54  C   UNL A   1      46.725  30.701  30.753  1.00  0.00     0.029 A 
ATOM     55  C   UNL A   1      45.405  30.402  30.457  1.00  0.00     0.049 A 
ATOM     56  H   UNL A   1      44.567  28.579  29.800  1.00  0.00     0.167 HD
ATOM     57  C   UNL A   1      42.985  30.890  30.222  1.00  0.00     0.074 A 
ATOM     58  C   UNL A   1      41.838  31.773  30.289  1.00  0.00     0.031 C 
ATOM     59  C   UNL A   1      44.252  31.264  30.525  1.00  0.00     0.037 A 
BRANCH  46  60
ATOM     60  C   UNL A   1      48.423  26.755  29.853  1.00  0.00     0.057 A 
ATOM     61  C   UNL A   1      49.329  26.962  28.803  1.00  0.00     0.134 A 
ATOM     62  C   UNL A   1      48.915  26.160  31.021  1.00  0.00     0.134 A 
ATOM     63  F   UNL A   1      48.919  27.515  27.651  1.00  0.00    -0.206 F 
ATOM     64  C   UNL A   1      50.666  26.573  28.903  1.00  0.00     0.040 A 
ATOM     65  C   UNL A   1      50.255  25.788  31.142  1.00  0.00     0.040 A 
ATOM     66  F   UNL A   1      48.103  25.937  32.066  1.00  0.00    -0.206 F 
ATOM     67  C   UNL A   1      51.133  25.990  30.080  1.00  0.00     0.006 A 
ENDBRANCH  46  60
BRANCH  47  68
ATOM     68  C   UNL A   1      38.760  29.132  29.151  1.00  0.00     0.057 A 
ATOM     69  C   UNL A   1      38.185  29.558  27.948  1.00  0.00     0.134 A 
ATOM     70  C   UNL A   1      37.930  29.061  30.275  1.00  0.00     0.134 A 
ATOM     71  F   UNL A   1      38.936  29.662  26.841  1.00  0.00    -0.206 F 
ATOM     72  C   UNL A   1      36.840  29.922  27.870  1.00  0.00     0.040 A 
ATOM     73  C   UNL A   1      36.578  29.399  30.206  1.00  0.00     0.040 A 
ATOM     74  F   UNL A   1      38.420  28.651  31.455  1.00  0.00    -0.206 F 
ATOM     75  C   UNL A   1      36.031  29.838  29.002  1.00  0.00     0.006 A 
ENDBRANCH  47  68
BRANCH  59  76
ATOM     76  C   UNL A   1      44.457  32.690  30.940  1.00  0.00     0.057 A 
ATOM     77  C   UNL A   1      44.714  33.700  30.004  1.00  0.00     0.134 A 
ATOM     78  C   UNL A   1      44.389  33.059  32.289  1.00  0.00     0.134 A 
ATOM     79  F   UNL A   1      44.807  33.407  28.698  1.00  0.00    -0.206 F 
ATOM     80  C   UNL A   1      44.928  35.021  30.398  1.00  0.00     0.040 A 
ATOM     81  C   UNL A   1      44.575  34.382  32.693  1.00  0.00     0.040 A 
ATOM     82  F   UNL A   1      44.137  32.142  33.235  1.00  0.00    -0.206 F 
ATOM     83  C   UNL A   1      44.855  35.366  31.746  1.00  0.00     0.006 A 
ENDBRANCH  59  76
ENDBRANCH  33  34
ENDBRANCH  25  28
ENDBRANCH  23  24
ENDBRANCH  22  23
ENDBRANCH   1  22
TORSDOF 14
ENDMDL
MODEL 3
REMARK VINA RESULT:     -11.5      5.255     10.027
REMARK SMILES C[C@@H](C(=O)NCCCCNC(=O)c1ccc(-c2c3nc(c(-c4c(F)cccc4F)c4ccc([nH]4)c(-c4c(F)cccc4F)c4nc(c(-c5c(F)cccc5F)c5ccc2[nH]5)C=C4)C=C3)cc1)c1ccc(OC2CCCC2)cc1F
REMARK SMILES IDX 7 1 6 2 5 3 3 4 4 5 2 7 1 8 67 9 68 10 78 11 69 12 77 13
REMARK SMILES IDX 79 14 70 15 71 16 72 17 73 18 76 19 74 20 75 21 8 22 9 23
REMARK SMILES IDX 10 24 11 25 12 27 13 28 14 29 66 30 15 31 65 32 16 33 17 34
REMARK SMILES IDX 18 35 59 36 19 37 64 38 58 39 60 40 20 41 63 42 57 43 56 44
REMARK SMILES IDX 21 46 47 47 30 48 46 49 31 50 34 51 45 52 61 53 32 54 33 55
REMARK SMILES IDX 44 57 62 58 35 59 22 60 23 61 28 62 24 63 25 64 27 65 29 66
REMARK SMILES IDX 26 67 48 68 49 69 54 70 50 71 51 72 53 73 55 74 52 75 36 76
REMARK SMILES IDX 37 77 42 78 38 79 39 80 41 81 43 82 40 83
REMARK H PARENT 5 6 10 26 60 45 34 56
REMARK Flexibility Score: inf
ROOT
ATOM      1  C   UNL A   1      31.551  30.599  26.861  1.00  0.00     0.023 C 
ENDROOT
BRANCH   1   2
ATOM      2  C   UNL A   1      32.462  29.954  25.812  1.00  0.00     0.116 C 
BRANCH   2   3
ATOM      3  N   UNL A   1      31.669  29.241  24.833  1.00  0.00    -0.356 N 
ATOM      4  C   UNL A   1      32.075  28.572  23.714  1.00  0.00     0.227 C 
ATOM      5  O   UNL A   1      31.218  28.344  22.859  1.00  0.00    -0.274 OA
ATOM      6  H   UNL A   1      30.698  29.239  24.997  1.00  0.00     0.163 HD
BRANCH   4   7
ATOM      7  C   UNL A   1      33.544  28.123  23.575  1.00  0.00     0.108 C 
ATOM      8  C   UNL A   1      34.076  28.492  22.186  1.00  0.00     0.023 C 
BRANCH   7   9
ATOM      9  C   UNL A   1      33.707  26.643  23.921  1.00  0.00     0.000 A 
ATOM     10  C   UNL A   1      33.632  25.613  22.976  1.00  0.00     0.011 A 
ATOM     11  C   UNL A   1      33.937  26.275  25.253  1.00  0.00     0.130 A 
ATOM     12  C   UNL A   1      33.764  24.277  23.366  1.00  0.00     0.047 A 
ATOM     13  C   UNL A   1      34.034  24.942  25.650  1.00  0.00     0.086 A 
ATOM     14  F   UNL A   1      34.070  27.225  26.192  1.00  0.00    -0.207 F 
ATOM     15  C   UNL A   1      33.959  23.928  24.704  1.00  0.00     0.122 A 
BRANCH  15  16
ATOM     16  O   UNL A   1      34.055  22.586  24.912  1.00  0.00    -0.490 OA
BRANCH  16  17
ATOM     17  C   UNL A   1      35.166  21.805  24.496  1.00  0.00     0.173 C 
ATOM     18  C   UNL A   1      36.550  22.353  24.821  1.00  0.00     0.045 C 
ATOM     19  C   UNL A   1      35.156  20.343  24.932  1.00  0.00     0.045 C 
ATOM     20  C   UNL A   1      37.460  21.152  24.619  1.00  0.00     0.004 C 
ATOM     21  C   UNL A   1      36.622  19.918  24.956  1.00  0.00     0.004 C 
ENDBRANCH  16  17
ENDBRANCH  15  16
ENDBRANCH   7   9
ENDBRANCH   4   7
ENDBRANCH   2   3
ENDBRANCH   1   2
BRANCH   1  22
ATOM     22  C   UNL A   1      31.392  32.117  26.723  1.00  0.00     0.023 C 
BRANCH  22  23
ATOM     23  C   UNL A   1      32.651  32.929  27.003  1.00  0.00     0.116 C 
BRANCH  23  24
ATOM     24  N   UNL A   1      32.364  34.215  27.614  1.00  0.00    -0.352 N 
ATOM     25  C   UNL A   1      33.015  34.864  28.629  1.00  0.00     0.251 C 
ATOM     26  H   UNL A   1      31.586  34.691  27.244  1.00  0.00     0.163 HD
ATOM     27  O   UNL A   1      32.533  35.899  29.094  1.00  0.00    -0.269 OA
BRANCH  25  28
ATOM     28  C   UNL A   1      34.267  34.321  29.193  1.00  0.00     0.039 A 
ATOM     29  C   UNL A   1      34.183  33.494  30.317  1.00  0.00     0.014 A 
ATOM     30  C   UNL A   1      35.516  34.633  28.647  1.00  0.00     0.014 A 
ATOM     31  C   UNL A   1      35.343  32.940  30.859  1.00  0.00     0.010 A 
ATOM     32  C   UNL A   1      36.667  34.026  29.148  1.00  0.00     0.010 A 
ATOM     33  C   UNL A   1      36.591  33.178  30.262  1.00  0.00    -0.014 A 
BRANCH  33  34
ATOM     34  C   UNL A   1      37.813  32.530  30.798  1.00  0.00     0.031 A 
ATOM     35  C   UNL A   1      38.455  33.030  32.063  1.00  0.00     0.074 A 
ATOM     36  C   UNL A   1      38.355  31.496  30.129  1.00  0.00     0.049 A 
ATOM     37  N   UNL A   1      39.502  32.562  32.696  1.00  0.00    -0.248 NA
ATOM     38  C   UNL A   1      37.859  34.221  32.686  1.00  0.00     0.031 C 
ATOM     39  C   UNL A   1      37.866  30.963  28.856  1.00  0.00     0.029 A 
ATOM     40  N   UNL A   1      39.435  30.704  30.428  1.00  0.00    -0.354 N 
ATOM     41  C   UNL A   1      39.687  33.398  33.788  1.00  0.00     0.074 A 
ATOM     42  C   UNL A   1      38.683  34.436  33.701  1.00  0.00     0.031 C 
ATOM     43  C   UNL A   1      38.625  29.915  28.498  1.00  0.00     0.029 A 
ATOM     44  C   UNL A   1      39.663  29.714  29.503  1.00  0.00     0.049 A 
ATOM     45  H   UNL A   1      39.994  30.833  31.228  1.00  0.00     0.167 HD
ATOM     46  C   UNL A   1      40.593  33.294  34.790  1.00  0.00     0.037 A 
ATOM     47  C   UNL A   1      40.597  28.746  29.476  1.00  0.00     0.037 A 
ATOM     48  C   UNL A   1      41.585  32.255  34.883  1.00  0.00     0.049 A 
ATOM     49  C   UNL A   1      41.571  28.634  30.615  1.00  0.00     0.074 A 
ATOM     50  C   UNL A   1      42.523  32.042  35.879  1.00  0.00     0.029 A 
ATOM     51  N   UNL A   1      41.765  31.252  33.944  1.00  0.00    -0.354 N 
ATOM     52  N   UNL A   1      41.688  29.389  31.680  1.00  0.00    -0.248 NA
ATOM     53  C   UNL A   1      42.530  27.522  30.557  1.00  0.00     0.031 C 
ATOM     54  C   UNL A   1      43.291  30.926  35.526  1.00  0.00     0.029 A 
ATOM     55  C   UNL A   1      42.804  30.421  34.331  1.00  0.00     0.049 A 
ATOM     56  H   UNL A   1      41.232  31.144  33.122  1.00  0.00     0.167 HD
ATOM     57  C   UNL A   1      42.721  28.838  32.424  1.00  0.00     0.074 A 
ATOM     58  C   UNL A   1      43.178  27.667  31.703  1.00  0.00     0.031 C 
ATOM     59  C   UNL A   1      43.250  29.264  33.597  1.00  0.00     0.037 A 
BRANCH  46  60
ATOM     60  C   UNL A   1      40.537  34.326  35.879  1.00  0.00     0.057 A 
ATOM     61  C   UNL A   1      41.276  35.514  35.799  1.00  0.00     0.134 A 
ATOM     62  C   UNL A   1      39.716  34.150  36.999  1.00  0.00     0.134 A 
ATOM     63  F   UNL A   1      42.093  35.738  34.758  1.00  0.00    -0.206 F 
ATOM     64  C   UNL A   1      41.216  36.480  36.805  1.00  0.00     0.040 A 
ATOM     65  C   UNL A   1      39.629  35.120  37.999  1.00  0.00     0.040 A 
ATOM     66  F   UNL A   1      38.978  33.037  37.136  1.00  0.00    -0.206 F 
ATOM     67  C   UNL A   1      40.385  36.287  37.906  1.00  0.00     0.006 A 
ENDBRANCH  46  60
BRANCH  47  68
ATOM     68  C   UNL A   1      40.633  27.783  28.349  1.00  0.00     0.057 A 
ATOM     69  C   UNL A   1      41.349  28.064  27.179  1.00  0.00     0.134 A 
ATOM     70  C   UNL A   1      39.948  26.564  28.410  1.00  0.00     0.134 A 
ATOM     71  F   UNL A   1      42.010  29.224  27.056  1.00  0.00    -0.206 F 
ATOM     72  C   UNL A   1      41.364  27.178  26.101  1.00  0.00     0.040 A 
ATOM     73  C   UNL A   1      39.975  25.657  27.349  1.00  0.00     0.040 A 
ATOM     74  F   UNL A   1      39.252  26.233  29.508  1.00  0.00    -0.206 F 
ATOM     75  C   UNL A   1      40.678  25.967  26.188  1.00  0.00     0.006 A 
ENDBRANCH  47  68
BRANCH  59  76
ATOM     76  C   UNL A   1      44.370  28.449  34.172  1.00  0.00     0.057 A 
ATOM     77  C   UNL A   1      45.712  28.739  33.891  1.00  0.00     0.134 A 
ATOM     78  C   UNL A   1      44.105  27.367  35.020  1.00  0.00     0.134 A 
ATOM     79  F   UNL A   1      46.029  29.755  33.074  1.00  0.00    -0.206 F 
ATOM     80  C   UNL A   1      46.748  27.963  34.409  1.00  0.00     0.040 A 
ATOM     81  C   UNL A   1      45.135  26.598  35.564  1.00  0.00     0.040 A 
ATOM     82  F   UNL A   1      42.842  27.041  35.335  1.00  0.00    -0.206 F 
ATOM     83  C   UNL A   1      46.461  26.891  35.251  1.00  0.00     0.006 A 
ENDBRANCH  59  76
ENDBRANCH  33  34
ENDBRANCH  25  28
ENDBRANCH  23  24
ENDBRANCH  22  23
ENDBRANCH   1  22
TORSDOF 14
ENDMDL
