MODEL 1
REMARK VINA RESULT:     -11.8      0.000      0.000
REMARK SMILES Cc1cc(Cl)c2c(c1)C=C(C(=O)NCCCCNC(=O)c1ccc(-c3c4nc(c(-c5c(F)cccc5F)c5ccc([nH]5)c(-c5c(F)cccc5F)c5nc(c(-c6c(F)cccc6F)c6ccc3[nH]6)C=C5)C=C4)cc1)[C@@H](C(F)(F)F)O2
REMARK SMILES IDX 16 1 15 2 14 3 13 4 11 5 12 6 10 8 1 9 2 10 3 11 8 12 4 13
REMARK SMILES IDX 7 14 5 15 6 16 9 17 80 18 75 19 76 20 77 21 78 22 79 23
REMARK SMILES IDX 17 24 18 25 19 26 20 28 21 29 22 30 74 31 23 32 73 33 24 34
REMARK SMILES IDX 25 35 26 36 67 37 27 38 72 39 66 40 68 41 28 42 71 43 65 44
REMARK SMILES IDX 64 45 29 47 55 48 38 49 54 50 39 51 42 52 53 53 69 54 40 55
REMARK SMILES IDX 41 56 52 58 70 59 43 60 30 61 31 62 36 63 32 64 33 65 35 66
REMARK SMILES IDX 37 67 34 68 56 69 57 70 62 71 58 72 59 73 61 74 63 75 60 76
REMARK SMILES IDX 44 77 45 78 50 79 46 80 47 81 49 82 51 83 48 84
REMARK H PARENT 13 7 18 27 68 46 42 57
REMARK Flexibility Score: inf
ROOT
ATOM      1  C   UNL A   1      39.164  21.339  25.729  1.00  0.00     0.023 C 
ENDROOT
BRANCH   1   2
ATOM      2  C   UNL A   1      39.198  22.677  26.472  1.00  0.00     0.023 C 
BRANCH   2   3
ATOM      3  C   UNL A   1      38.095  23.646  26.058  1.00  0.00     0.116 C 
BRANCH   3   4
ATOM      4  N   UNL A   1      37.609  23.369  24.719  1.00  0.00    -0.352 N 
ATOM      5  C   UNL A   1      36.409  23.337  24.093  1.00  0.00     0.251 C 
ATOM      6  O   UNL A   1      36.453  23.026  22.898  1.00  0.00    -0.270 OA
ATOM      7  H   UNL A   1      38.345  23.147  24.105  1.00  0.00     0.163 HD
BRANCH   5   8
ATOM      8  C   UNL A   1      35.094  23.642  24.728  1.00  0.00     0.067 C 
ATOM      9  C   UNL A   1      31.855  28.462  26.850  1.00  0.00     0.044 C 
ATOM     10  C   UNL A   1      32.095  27.033  26.465  1.00  0.00    -0.049 A 
ATOM     11  C   UNL A   1      31.118  26.055  26.686  1.00  0.00     0.028 A 
ATOM     12  C   UNL A   1      33.311  26.662  25.873  1.00  0.00     0.015 A 
ATOM     13  C   UNL A   1      31.353  24.729  26.319  1.00  0.00     0.084 A 
ATOM     14  C   UNL A   1      33.553  25.332  25.511  1.00  0.00     0.019 A 
ATOM     15  Cl  UNL A   1      30.115  23.560  26.608  1.00  0.00    -0.080 Cl
ATOM     16  C   UNL A   1      32.574  24.364  25.742  1.00  0.00     0.146 A 
ATOM     17  C   UNL A   1      34.803  24.949  24.864  1.00  0.00     0.025 C 
ATOM     18  O   UNL A   1      32.757  23.060  25.369  1.00  0.00    -0.474 OA
ATOM     19  C   UNL A   1      34.133  22.609  25.246  1.00  0.00     0.314 C 
BRANCH  19  20
ATOM     20  C   UNL A   1      34.592  21.988  26.581  1.00  0.00     0.429 C 
ATOM     21  F   UNL A   1      33.648  21.141  27.060  1.00  0.00    -0.167 F 
ATOM     22  F   UNL A   1      35.726  21.261  26.450  1.00  0.00    -0.167 F 
ATOM     23  F   UNL A   1      34.829  22.918  27.533  1.00  0.00    -0.167 F 
ENDBRANCH  19  20
ENDBRANCH   5   8
ENDBRANCH   3   4
ENDBRANCH   2   3
ENDBRANCH   1   2
BRANCH   1  24
ATOM     24  C   UNL A   1      39.641  20.132  26.534  1.00  0.00     0.116 C 
BRANCH  24  25
ATOM     25  N   UNL A   1      40.742  19.410  25.913  1.00  0.00    -0.352 N 
ATOM     26  C   UNL A   1      42.056  19.796  25.802  1.00  0.00     0.251 C 
ATOM     27  H   UNL A   1      40.517  18.534  25.523  1.00  0.00     0.163 HD
ATOM     28  O   UNL A   1      42.865  19.112  25.186  1.00  0.00    -0.269 OA
BRANCH  26  29
ATOM     29  C   UNL A   1      42.467  21.077  26.403  1.00  0.00     0.039 A 
ATOM     30  C   UNL A   1      42.800  22.136  25.558  1.00  0.00     0.014 A 
ATOM     31  C   UNL A   1      42.450  21.242  27.791  1.00  0.00     0.014 A 
ATOM     32  C   UNL A   1      43.054  23.392  26.107  1.00  0.00     0.010 A 
ATOM     33  C   UNL A   1      42.642  22.508  28.331  1.00  0.00     0.010 A 
ATOM     34  C   UNL A   1      42.944  23.592  27.493  1.00  0.00    -0.014 A 
BRANCH  34  35
ATOM     35  C   UNL A   1      43.158  24.934  28.081  1.00  0.00     0.031 A 
ATOM     36  C   UNL A   1      44.540  25.367  28.468  1.00  0.00     0.074 A 
ATOM     37  C   UNL A   1      42.103  25.741  28.299  1.00  0.00     0.049 A 
ATOM     38  N   UNL A   1      44.930  26.492  29.009  1.00  0.00    -0.248 NA
ATOM     39  C   UNL A   1      45.626  24.400  28.238  1.00  0.00     0.031 C 
ATOM     40  C   UNL A   1      40.706  25.410  28.006  1.00  0.00     0.029 A 
ATOM     41  N   UNL A   1      42.041  27.011  28.813  1.00  0.00    -0.354 N 
ATOM     42  C   UNL A   1      46.300  26.366  29.189  1.00  0.00     0.074 A 
ATOM     43  C   UNL A   1      46.667  25.037  28.753  1.00  0.00     0.031 C 
ATOM     44  C   UNL A   1      39.932  26.463  28.311  1.00  0.00     0.029 A 
ATOM     45  C   UNL A   1      40.772  27.533  28.842  1.00  0.00     0.049 A 
ATOM     46  H   UNL A   1      42.833  27.501  29.133  1.00  0.00     0.167 HD
ATOM     47  C   UNL A   1      47.178  27.288  29.644  1.00  0.00     0.037 A 
ATOM     48  C   UNL A   1      40.340  28.743  29.241  1.00  0.00     0.037 A 
ATOM     49  C   UNL A   1      46.818  28.620  30.044  1.00  0.00     0.049 A 
ATOM     50  C   UNL A   1      41.334  29.748  29.751  1.00  0.00     0.074 A 
ATOM     51  C   UNL A   1      47.643  29.648  30.460  1.00  0.00     0.029 A 
ATOM     52  N   UNL A   1      45.520  29.106  30.071  1.00  0.00    -0.354 N 
ATOM     53  N   UNL A   1      42.635  29.637  29.860  1.00  0.00    -0.248 NA
ATOM     54  C   UNL A   1      40.801  31.044  30.194  1.00  0.00     0.031 C 
ATOM     55  C   UNL A   1      46.839  30.752  30.766  1.00  0.00     0.029 A 
ATOM     56  C   UNL A   1      45.518  30.418  30.514  1.00  0.00     0.049 A 
ATOM     57  H   UNL A   1      44.718  28.596  29.814  1.00  0.00     0.167 HD
ATOM     58  C   UNL A   1      43.080  30.849  30.370  1.00  0.00     0.074 A 
ATOM     59  C   UNL A   1      41.909  31.687  30.537  1.00  0.00     0.031 C 
ATOM     60  C   UNL A   1      44.342  31.232  30.674  1.00  0.00     0.037 A 
BRANCH  47  61
ATOM     61  C   UNL A   1      48.620  26.887  29.710  1.00  0.00     0.057 A 
ATOM     62  C   UNL A   1      49.158  26.283  30.854  1.00  0.00     0.134 A 
ATOM     63  C   UNL A   1      49.473  27.086  28.619  1.00  0.00     0.134 A 
ATOM     64  F   UNL A   1      48.394  26.082  31.939  1.00  0.00    -0.206 F 
ATOM     65  C   UNL A   1      50.501  25.910  30.918  1.00  0.00     0.040 A 
ATOM     66  C   UNL A   1      50.813  26.697  28.663  1.00  0.00     0.040 A 
ATOM     67  F   UNL A   1      49.019  27.658  27.494  1.00  0.00    -0.206 F 
ATOM     68  C   UNL A   1      51.331  26.111  29.817  1.00  0.00     0.006 A 
ENDBRANCH  47  61
BRANCH  48  69
ATOM     69  C   UNL A   1      38.902  29.088  29.131  1.00  0.00     0.057 A 
ATOM     70  C   UNL A   1      38.355  29.491  27.907  1.00  0.00     0.134 A 
ATOM     71  C   UNL A   1      38.041  29.014  30.231  1.00  0.00     0.134 A 
ATOM     72  F   UNL A   1      39.137  29.593  26.822  1.00  0.00    -0.206 F 
ATOM     73  C   UNL A   1      37.004  29.817  27.782  1.00  0.00     0.040 A 
ATOM     74  C   UNL A   1      36.684  29.323  30.118  1.00  0.00     0.040 A 
ATOM     75  F   UNL A   1      38.505  28.631  31.429  1.00  0.00    -0.206 F 
ATOM     76  C   UNL A   1      36.164  29.728  28.890  1.00  0.00     0.006 A 
ENDBRANCH  48  69
BRANCH  60  77
ATOM     77  C   UNL A   1      44.530  32.615  31.216  1.00  0.00     0.057 A 
ATOM     78  C   UNL A   1      44.554  32.859  32.594  1.00  0.00     0.134 A 
ATOM     79  C   UNL A   1      44.765  33.695  30.358  1.00  0.00     0.134 A 
ATOM     80  F   UNL A   1      44.324  31.864  33.465  1.00  0.00    -0.206 F 
ATOM     81  C   UNL A   1      44.804  34.134  33.101  1.00  0.00     0.040 A 
ATOM     82  C   UNL A   1      45.034  34.971  30.853  1.00  0.00     0.040 A 
ATOM     83  F   UNL A   1      44.762  33.522  29.027  1.00  0.00    -0.206 F 
ATOM     84  C   UNL A   1      45.053  35.193  32.229  1.00  0.00     0.006 A 
ENDBRANCH  60  77
ENDBRANCH  34  35
ENDBRANCH  26  29
ENDBRANCH  24  25
ENDBRANCH   1  24
TORSDOF 12
ENDMDL
MODEL 2
REMARK VINA RESULT:     -11.8      1.962      2.273
REMARK SMILES Cc1cc(Cl)c2c(c1)C=C(C(=O)NCCCCNC(=O)c1ccc(-c3c4nc(c(-c5c(F)cccc5F)c5ccc([nH]5)c(-c5c(F)cccc5F)c5nc(c(-c6c(F)cccc6F)c6ccc3[nH]6)C=C5)C=C4)cc1)[C@@H](C(F)(F)F)O2
REMARK SMILES IDX 16 1 15 2 14 3 13 4 11 5 12 6 10 8 1 9 2 10 3 11 8 12 4 13
REMARK SMILES IDX 7 14 5 15 6 16 9 17 80 18 75 19 76 20 77 21 78 22 79 23
REMARK SMILES IDX 17 24 18 25 19 26 20 28 21 29 22 30 74 31 23 32 73 33 24 34
REMARK SMILES IDX 25 35 26 36 67 37 27 38 72 39 66 40 68 41 28 42 71 43 65 44
REMARK SMILES IDX 64 45 29 47 55 48 38 49 54 50 39 51 42 52 53 53 69 54 40 55
REMARK SMILES IDX 41 56 52 58 70 59 43 60 30 61 31 62 36 63 32 64 33 65 35 66
REMARK SMILES IDX 37 67 34 68 56 69 57 70 62 71 58 72 59 73 61 74 63 75 60 76
REMARK SMILES IDX 44 77 45 78 50 79 46 80 47 81 49 82 51 83 48 84
REMARK H PARENT 13 7 18 27 68 46 42 57
REMARK Flexibility Score: inf
ROOT
ATOM      1  C   UNL A   1      37.936  19.873  24.993  1.00  0.00     0.023 C 
ENDROOT
BRANCH   1   2
ATOM      2  C   UNL A   1      37.218  21.113  24.457  1.00  0.00     0.023 C 
BRANCH   2   3
ATOM      3  C   UNL A   1      37.370  22.350  25.338  1.00  0.00     0.116 C 
BRANCH   3   4
ATOM      4  N   UNL A   1      36.279  22.472  26.287  1.00  0.00    -0.352 N 
ATOM      5  C   UNL A   1      35.047  23.033  26.306  1.00  0.00     0.251 C 
ATOM      6  O   UNL A   1      34.434  22.907  27.371  1.00  0.00    -0.270 OA
ATOM      7  H   UNL A   1      36.490  22.030  27.141  1.00  0.00     0.163 HD
BRANCH   5   8
ATOM      8  C   UNL A   1      34.412  23.763  25.170  1.00  0.00     0.067 C 
ATOM      9  C   UNL A   1      31.230  28.945  24.049  1.00  0.00     0.044 C 
ATOM     10  C   UNL A   1      31.970  27.687  23.704  1.00  0.00    -0.049 A 
ATOM     11  C   UNL A   1      32.058  27.246  22.378  1.00  0.00     0.028 A 
ATOM     12  C   UNL A   1      32.585  26.937  24.716  1.00  0.00     0.015 A 
ATOM     13  C   UNL A   1      32.753  26.075  22.070  1.00  0.00     0.084 A 
ATOM     14  C   UNL A   1      33.276  25.757  24.412  1.00  0.00     0.019 A 
ATOM     15  Cl  UNL A   1      32.838  25.576  20.419  1.00  0.00    -0.080 Cl
ATOM     16  C   UNL A   1      33.353  25.325  23.087  1.00  0.00     0.146 A 
ATOM     17  C   UNL A   1      33.947  24.994  25.458  1.00  0.00     0.025 C 
ATOM     18  O   UNL A   1      34.050  24.198  22.743  1.00  0.00    -0.474 OA
ATOM     19  C   UNL A   1      34.228  23.203  23.788  1.00  0.00     0.314 C 
BRANCH  19  20
ATOM     20  C   UNL A   1      33.087  22.169  23.713  1.00  0.00     0.429 C 
ATOM     21  F   UNL A   1      32.654  22.031  22.436  1.00  0.00    -0.167 F 
ATOM     22  F   UNL A   1      33.478  20.938  24.119  1.00  0.00    -0.167 F 
ATOM     23  F   UNL A   1      32.022  22.513  24.471  1.00  0.00    -0.167 F 
ENDBRANCH  19  20
ENDBRANCH   5   8
ENDBRANCH   3   4
ENDBRANCH   2   3
ENDBRANCH   1   2
BRANCH   1  24
ATOM     24  C   UNL A   1      39.175  20.151  25.843  1.00  0.00     0.116 C 
BRANCH  24  25
ATOM     25  N   UNL A   1      40.179  19.099  25.780  1.00  0.00    -0.352 N 
ATOM     26  C   UNL A   1      41.532  19.201  25.997  1.00  0.00     0.251 C 
ATOM     27  H   UNL A   1      39.847  18.200  25.554  1.00  0.00     0.163 HD
ATOM     28  O   UNL A   1      42.271  18.237  25.839  1.00  0.00    -0.269 OA
BRANCH  26  29
ATOM     29  C   UNL A   1      42.086  20.511  26.382  1.00  0.00     0.039 A 
ATOM     30  C   UNL A   1      42.424  21.417  25.375  1.00  0.00     0.014 A 
ATOM     31  C   UNL A   1      42.199  20.859  27.731  1.00  0.00     0.014 A 
ATOM     32  C   UNL A   1      42.817  22.707  25.724  1.00  0.00     0.010 A 
ATOM     33  C   UNL A   1      42.530  22.165  28.074  1.00  0.00     0.010 A 
ATOM     34  C   UNL A   1      42.839  23.098  27.073  1.00  0.00    -0.014 A 
BRANCH  34  35
ATOM     35  C   UNL A   1      43.201  24.483  27.452  1.00  0.00     0.031 A 
ATOM     36  C   UNL A   1      44.636  24.917  27.408  1.00  0.00     0.074 A 
ATOM     37  C   UNL A   1      42.242  25.332  27.869  1.00  0.00     0.049 A 
ATOM     38  N   UNL A   1      45.154  26.078  27.714  1.00  0.00    -0.248 NA
ATOM     39  C   UNL A   1      45.621  23.909  26.986  1.00  0.00     0.031 C 
ATOM     40  C   UNL A   1      40.820  25.007  27.997  1.00  0.00     0.029 A 
ATOM     41  N   UNL A   1      42.320  26.644  28.258  1.00  0.00    -0.354 N 
ATOM     42  C   UNL A   1      46.522  25.937  27.528  1.00  0.00     0.074 A 
ATOM     43  C   UNL A   1      46.761  24.566  27.137  1.00  0.00     0.031 C 
ATOM     44  C   UNL A   1      40.154  26.102  28.399  1.00  0.00     0.029 A 
ATOM     45  C   UNL A   1      41.105  27.196  28.578  1.00  0.00     0.049 A 
ATOM     46  H   UNL A   1      43.167  27.144  28.304  1.00  0.00     0.167 HD
ATOM     47  C   UNL A   1      47.489  26.877  27.640  1.00  0.00     0.037 A 
ATOM     48  C   UNL A   1      40.794  28.448  28.963  1.00  0.00     0.037 A 
ATOM     49  C   UNL A   1      47.247  28.248  27.994  1.00  0.00     0.049 A 
ATOM     50  C   UNL A   1      41.886  29.472  29.088  1.00  0.00     0.074 A 
ATOM     51  C   UNL A   1      48.151  29.291  28.072  1.00  0.00     0.029 A 
ATOM     52  N   UNL A   1      46.004  28.765  28.325  1.00  0.00    -0.354 N 
ATOM     53  N   UNL A   1      43.168  29.341  28.852  1.00  0.00    -0.248 NA
ATOM     54  C   UNL A   1      41.490  30.815  29.533  1.00  0.00     0.031 C 
ATOM     55  C   UNL A   1      47.458  30.437  28.478  1.00  0.00     0.029 A 
ATOM     56  C   UNL A   1      46.119  30.111  28.625  1.00  0.00     0.049 A 
ATOM     57  H   UNL A   1      45.164  28.251  28.343  1.00  0.00     0.167 HD
ATOM     58  C   UNL A   1      43.732  30.584  29.105  1.00  0.00     0.074 A 
ATOM     59  C   UNL A   1      42.649  31.461  29.501  1.00  0.00     0.031 C 
ATOM     60  C   UNL A   1      45.029  30.964  29.019  1.00  0.00     0.037 A 
BRANCH  47  61
ATOM     61  C   UNL A   1      48.896  26.450  27.352  1.00  0.00     0.057 A 
ATOM     62  C   UNL A   1      49.738  25.979  28.367  1.00  0.00     0.134 A 
ATOM     63  C   UNL A   1      49.407  26.490  26.050  1.00  0.00     0.134 A 
ATOM     64  F   UNL A   1      49.310  25.933  29.638  1.00  0.00    -0.206 F 
ATOM     65  C   UNL A   1      51.049  25.582  28.101  1.00  0.00     0.040 A 
ATOM     66  C   UNL A   1      50.710  26.075  25.768  1.00  0.00     0.040 A 
ATOM     67  F   UNL A   1      48.651  26.930  25.033  1.00  0.00    -0.206 F 
ATOM     68  C   UNL A   1      51.536  25.623  26.796  1.00  0.00     0.006 A 
ENDBRANCH  47  61
BRANCH  48  69
ATOM     69  C   UNL A   1      39.379  28.814  29.213  1.00  0.00     0.057 A 
ATOM     70  C   UNL A   1      38.590  29.358  28.193  1.00  0.00     0.134 A 
ATOM     71  C   UNL A   1      38.779  28.623  30.463  1.00  0.00     0.134 A 
ATOM     72  F   UNL A   1      39.117  29.577  26.979  1.00  0.00    -0.206 F 
ATOM     73  C   UNL A   1      37.257  29.707  28.408  1.00  0.00     0.040 A 
ATOM     74  C   UNL A   1      37.442  28.954  30.688  1.00  0.00     0.040 A 
ATOM     75  F   UNL A   1      39.482  28.102  31.479  1.00  0.00    -0.206 F 
ATOM     76  C   UNL A   1      36.677  29.500  29.658  1.00  0.00     0.006 A 
ENDBRANCH  48  69
BRANCH  60  77
ATOM     77  C   UNL A   1      45.353  32.386  29.357  1.00  0.00     0.057 A 
ATOM     78  C   UNL A   1      45.790  32.748  30.635  1.00  0.00     0.134 A 
ATOM     79  C   UNL A   1      45.302  33.384  28.377  1.00  0.00     0.134 A 
ATOM     80  F   UNL A   1      45.849  31.836  31.618  1.00  0.00    -0.206 F 
ATOM     81  C   UNL A   1      46.164  34.059  30.930  1.00  0.00     0.040 A 
ATOM     82  C   UNL A   1      45.690  34.695  28.654  1.00  0.00     0.040 A 
ATOM     83  F   UNL A   1      44.898  33.096  27.130  1.00  0.00    -0.206 F 
ATOM     84  C   UNL A   1      46.123  35.035  29.935  1.00  0.00     0.006 A 
ENDBRANCH  60  77
ENDBRANCH  34  35
ENDBRANCH  26  29
ENDBRANCH  24  25
ENDBRANCH   1  24
TORSDOF 12
ENDMDL
MODEL 3
REMARK VINA RESULT:     -11.8      4.448      9.218
REMARK SMILES Cc1cc(Cl)c2c(c1)C=C(C(=O)NCCCCNC(=O)c1ccc(-c3c4nc(c(-c5c(F)cccc5F)c5ccc([nH]5)c(-c5c(F)cccc5F)c5nc(c(-c6c(F)cccc6F)c6ccc3[nH]6)C=C5)C=C4)cc1)[C@@H](C(F)(F)F)O2
REMARK SMILES IDX 16 1 15 2 14 3 13 4 11 5 12 6 10 8 1 9 2 10 3 11 8 12 4 13
REMARK SMILES IDX 7 14 5 15 6 16 9 17 80 18 75 19 76 20 77 21 78 22 79 23
REMARK SMILES IDX 17 24 18 25 19 26 20 28 21 29 22 30 74 31 23 32 73 33 24 34
REMARK SMILES IDX 25 35 26 36 67 37 27 38 72 39 66 40 68 41 28 42 71 43 65 44
REMARK SMILES IDX 64 45 29 47 55 48 38 49 54 50 39 51 42 52 53 53 69 54 40 55
REMARK SMILES IDX 41 56 52 58 70 59 43 60 30 61 31 62 36 63 32 64 33 65 35 66
REMARK SMILES IDX 37 67 34 68 56 69 57 70 62 71 58 72 59 73 61 74 63 75 60 76
REMARK SMILES IDX 44 77 45 78 50 79 46 80 47 81 49 82 51 83 48 84
REMARK H PARENT 13 7 18 27 68 46 42 57
REMARK Flexibility Score: inf
ROOT
ATOM      1  C   UNL A   1      31.473  31.970  26.772  1.00  0.00     0.023 C 
ENDROOT
BRANCH   1   2
ATOM      2  C   UNL A   1      31.750  30.481  26.560  1.00  0.00     0.023 C 
BRANCH   2   3
ATOM      3  C   UNL A   1      33.233  30.123  26.522  1.00  0.00     0.116 C 
BRANCH   3   4
ATOM      4  N   UNL A   1      33.641  29.656  25.210  1.00  0.00    -0.352 N 
ATOM      5  C   UNL A   1      33.594  28.494  24.518  1.00  0.00     0.251 C 
ATOM      6  O   UNL A   1      34.090  28.539  23.388  1.00  0.00    -0.270 OA
ATOM      7  H   UNL A   1      34.062  30.374  24.684  1.00  0.00     0.163 HD
BRANCH   5   8
ATOM      8  C   UNL A   1      33.004  27.216  25.015  1.00  0.00     0.067 C 
ATOM      9  C   UNL A   1      34.754  21.551  26.769  1.00  0.00     0.044 C 
ATOM     10  C   UNL A   1      33.800  22.688  26.556  1.00  0.00    -0.049 A 
ATOM     11  C   UNL A   1      32.434  22.541  26.828  1.00  0.00     0.028 A 
ATOM     12  C   UNL A   1      34.274  23.920  26.080  1.00  0.00     0.015 A 
ATOM     13  C   UNL A   1      31.558  23.609  26.628  1.00  0.00     0.084 A 
ATOM     14  C   UNL A   1      33.396  24.990  25.872  1.00  0.00     0.019 A 
ATOM     15  Cl  UNL A   1      29.883  23.379  26.982  1.00  0.00    -0.080 Cl
ATOM     16  C   UNL A   1      32.035  24.830  26.141  1.00  0.00     0.146 A 
ATOM     17  C   UNL A   1      33.890  26.283  25.410  1.00  0.00     0.025 C 
ATOM     18  O   UNL A   1      31.150  25.863  25.985  1.00  0.00    -0.474 OA
ATOM     19  C   UNL A   1      31.534  26.909  25.052  1.00  0.00     0.314 C 
BRANCH  19  20
ATOM     20  C   UNL A   1      30.958  26.589  23.657  1.00  0.00     0.429 C 
ATOM     21  F   UNL A   1      30.616  27.731  23.011  1.00  0.00    -0.167 F 
ATOM     22  F   UNL A   1      31.852  25.955  22.863  1.00  0.00    -0.167 F 
ATOM     23  F   UNL A   1      29.858  25.807  23.715  1.00  0.00    -0.167 F 
ENDBRANCH  19  20
ENDBRANCH   5   8
ENDBRANCH   3   4
ENDBRANCH   2   3
ENDBRANCH   1   2
BRANCH   1  24
ATOM     24  C   UNL A   1      32.665  32.796  27.250  1.00  0.00     0.116 C 
BRANCH  24  25
ATOM     25  N   UNL A   1      32.318  34.150  27.656  1.00  0.00    -0.352 N 
ATOM     26  C   UNL A   1      32.965  34.959  28.560  1.00  0.00     0.251 C 
ATOM     27  H   UNL A   1      31.519  34.536  27.229  1.00  0.00     0.163 HD
ATOM     28  O   UNL A   1      32.513  36.059  28.857  1.00  0.00    -0.269 OA
BRANCH  26  29
ATOM     29  C   UNL A   1      34.193  34.457  29.201  1.00  0.00     0.039 A 
ATOM     30  C   UNL A   1      34.080  33.741  30.394  1.00  0.00     0.014 A 
ATOM     31  C   UNL A   1      35.433  34.635  28.583  1.00  0.00     0.014 A 
ATOM     32  C   UNL A   1      35.214  33.141  30.937  1.00  0.00     0.010 A 
ATOM     33  C   UNL A   1      36.550  33.985  29.093  1.00  0.00     0.010 A 
ATOM     34  C   UNL A   1      36.448  33.232  30.273  1.00  0.00    -0.014 A 
BRANCH  34  35
ATOM     35  C   UNL A   1      37.648  32.553  30.812  1.00  0.00     0.031 A 
ATOM     36  C   UNL A   1      38.294  33.064  32.065  1.00  0.00     0.074 A 
ATOM     37  C   UNL A   1      38.172  31.502  30.153  1.00  0.00     0.049 A 
ATOM     38  N   UNL A   1      39.355  32.617  32.686  1.00  0.00    -0.248 NA
ATOM     39  C   UNL A   1      37.681  34.246  32.692  1.00  0.00     0.031 C 
ATOM     40  C   UNL A   1      37.657  30.945  28.900  1.00  0.00     0.029 A 
ATOM     41  N   UNL A   1      39.253  30.712  30.448  1.00  0.00    -0.354 N 
ATOM     42  C   UNL A   1      39.540  33.465  33.769  1.00  0.00     0.074 A 
ATOM     43  C   UNL A   1      38.517  34.485  33.692  1.00  0.00     0.031 C 
ATOM     44  C   UNL A   1      38.400  29.881  28.554  1.00  0.00     0.029 A 
ATOM     45  C   UNL A   1      39.455  29.697  29.547  1.00  0.00     0.049 A 
ATOM     46  H   UNL A   1      39.830  30.859  31.232  1.00  0.00     0.167 HD
ATOM     47  C   UNL A   1      40.458  33.381  34.758  1.00  0.00     0.037 A 
ATOM     48  C   UNL A   1      40.382  28.720  29.532  1.00  0.00     0.037 A 
ATOM     49  C   UNL A   1      41.451  32.348  34.854  1.00  0.00     0.049 A 
ATOM     50  C   UNL A   1      41.397  28.653  30.637  1.00  0.00     0.074 A 
ATOM     51  C   UNL A   1      42.386  32.139  35.851  1.00  0.00     0.029 A 
ATOM     52  N   UNL A   1      41.633  31.345  33.914  1.00  0.00    -0.354 N 
ATOM     53  N   UNL A   1      41.523  29.426  31.688  1.00  0.00    -0.248 NA
ATOM     54  C   UNL A   1      42.397  27.579  30.556  1.00  0.00     0.031 C 
ATOM     55  C   UNL A   1      43.153  31.023  35.500  1.00  0.00     0.029 A 
ATOM     56  C   UNL A   1      42.677  30.522  34.298  1.00  0.00     0.049 A 
ATOM     57  H   UNL A   1      41.098  31.234  33.094  1.00  0.00     0.167 HD
ATOM     58  C   UNL A   1      42.605  28.927  32.400  1.00  0.00     0.074 A 
ATOM     59  C   UNL A   1      43.093  27.776  31.668  1.00  0.00     0.031 C 
ATOM     60  C   UNL A   1      43.147  29.384  33.554  1.00  0.00     0.037 A 
BRANCH  47  61
ATOM     61  C   UNL A   1      40.410  34.428  35.829  1.00  0.00     0.057 A 
ATOM     62  C   UNL A   1      39.624  34.262  36.977  1.00  0.00     0.134 A 
ATOM     63  C   UNL A   1      41.167  35.600  35.724  1.00  0.00     0.134 A 
ATOM     64  F   UNL A   1      38.863  33.166  37.127  1.00  0.00    -0.206 F 
ATOM     65  C   UNL A   1      39.578  35.235  37.975  1.00  0.00     0.040 A 
ATOM     66  C   UNL A   1      41.144  36.572  36.726  1.00  0.00     0.040 A 
ATOM     67  F   UNL A   1      41.940  35.819  34.650  1.00  0.00    -0.206 F 
ATOM     68  C   UNL A   1      40.345  36.392  37.853  1.00  0.00     0.006 A 
ENDBRANCH  47  61
BRANCH  48  69
ATOM     69  C   UNL A   1      40.363  27.701  28.455  1.00  0.00     0.057 A 
ATOM     70  C   UNL A   1      41.055  27.914  27.257  1.00  0.00     0.134 A 
ATOM     71  C   UNL A   1      39.670  26.494  28.597  1.00  0.00     0.134 A 
ATOM     72  F   UNL A   1      41.725  29.059  27.061  1.00  0.00    -0.206 F 
ATOM     73  C   UNL A   1      41.052  26.966  26.234  1.00  0.00     0.040 A 
ATOM     74  C   UNL A   1      39.671  25.530  27.587  1.00  0.00     0.040 A 
ATOM     75  F   UNL A   1      38.992  26.230  29.723  1.00  0.00    -0.206 F 
ATOM     76  C   UNL A   1      40.362  25.767  26.400  1.00  0.00     0.006 A 
ENDBRANCH  48  69
BRANCH  60  77
ATOM     77  C   UNL A   1      44.326  28.641  34.102  1.00  0.00     0.057 A 
ATOM     78  C   UNL A   1      45.635  29.042  33.816  1.00  0.00     0.134 A 
ATOM     79  C   UNL A   1      44.150  27.567  34.981  1.00  0.00     0.134 A 
ATOM     80  F   UNL A   1      45.865  30.059  32.970  1.00  0.00    -0.206 F 
ATOM     81  C   UNL A   1      46.733  28.398  34.385  1.00  0.00     0.040 A 
ATOM     82  C   UNL A   1      45.239  26.925  35.571  1.00  0.00     0.040 A 
ATOM     83  F   UNL A   1      42.918  27.140  35.300  1.00  0.00    -0.206 F 
ATOM     84  C   UNL A   1      46.535  27.341  35.273  1.00  0.00     0.006 A 
ENDBRANCH  60  77
ENDBRANCH  34  35
ENDBRANCH  26  29
ENDBRANCH  24  25
ENDBRANCH   1  24
TORSDOF 12
ENDMDL
