MODEL 1
REMARK VINA RESULT:     -11.5      0.000      0.000
REMARK SMILES CCC[C@H](CNC(=O)N1C[C@H]2CCC[N@H+]2C[C@@H]1C)C(=O)NCCCCNC(=O)c1ccc(-c2c3nc(c(-c4c(F)cccc4F)c4ccc([nH]4)c(-c4c(F)cccc4F)c4nc(c(-c5c(F)cccc5F)c5ccc2[nH]5)C=C4)C=C3)cc1
REMARK SMILES IDX 23 1 22 2 21 3 19 4 20 5 4 7 3 8 2 9 1 10 5 11 6 12 7 13
REMARK SMILES IDX 8 15 9 16 10 17 17 18 11 19 16 20 18 21 12 22 15 23 13 24
REMARK SMILES IDX 14 25 24 27 25 28 26 29 27 30 28 32 29 33 30 34 82 35 31 36
REMARK SMILES IDX 81 37 32 38 33 39 34 40 75 41 35 42 80 43 74 44 76 45 36 46
REMARK SMILES IDX 79 47 73 48 72 49 37 51 63 52 46 53 62 54 47 55 50 56 61 57
REMARK SMILES IDX 77 58 48 59 49 60 60 62 78 63 51 64 38 65 39 66 44 67 40 68
REMARK SMILES IDX 41 69 43 70 45 71 42 72 64 73 65 74 70 75 66 76 67 77 69 78
REMARK SMILES IDX 71 79 68 80 52 81 53 82 58 83 54 84 55 85 57 86 59 87 56 88
REMARK H PARENT 21 6 6 14 15 26 26 31 76 50 50 61
REMARK Flexibility Score: inf
ROOT
ATOM      1  C   UNL A   1      32.978  29.154  24.451  1.00  0.00     0.023 C 
ENDROOT
BRANCH   1   2
ATOM      2  C   UNL A   1      31.899  28.498  23.601  1.00  0.00     0.116 C 
BRANCH   2   3
ATOM      3  N   UNL A   1      32.500  27.764  22.511  1.00  0.00    -0.356 N 
ATOM      4  C   UNL A   1      33.035  26.516  22.502  1.00  0.00     0.224 C 
ATOM      5  O   UNL A   1      33.708  26.193  21.518  1.00  0.00    -0.275 OA
ATOM      6  H   UNL A   1      32.524  28.239  21.649  1.00  0.00     0.163 HD
BRANCH   4   7
ATOM      7  C   UNL A   1      32.803  25.515  23.631  1.00  0.00     0.097 C 
BRANCH   7   8
ATOM      8  C   UNL A   1      34.013  25.370  24.586  1.00  0.00     0.015 C 
BRANCH   8   9
ATOM      9  C   UNL A   1      33.805  26.044  25.951  1.00  0.00    -0.003 C 
ATOM     10  C   UNL A   1      32.359  26.057  26.422  1.00  0.00     0.004 C 
ENDBRANCH   8   9
ENDBRANCH   7   8
BRANCH   7  11
ATOM     11  C   UNL A   1      32.138  24.171  23.259  1.00  0.00     0.131 C 
BRANCH  11  12
ATOM     12  N   UNL A   1      31.422  23.440  24.287  1.00  0.00    -0.337 N 
ATOM     13  C   UNL A   1      31.578  22.257  24.920  1.00  0.00     0.318 C 
ATOM     14  H   UNL A   1      30.625  23.926  24.601  1.00  0.00     0.165 HD
ATOM     15  O   UNL A   1      30.679  21.924  25.697  1.00  0.00    -0.249 OA
BRANCH  13  16
ATOM     16  N   UNL A   1      32.610  21.416  24.617  1.00  0.00    -0.311 N 
ATOM     17  C   UNL A   1      32.291  20.232  23.814  1.00  0.00     0.186 C 
ATOM     18  C   UNL A   1      33.922  21.420  25.293  1.00  0.00     0.139 C 
ATOM     19  C   UNL A   1      32.841  18.894  24.323  1.00  0.00     0.204 C 
ATOM     20  C   UNL A   1      34.825  20.229  24.852  1.00  0.00     0.287 C 
ATOM     21  C   UNL A   1      33.763  21.467  26.816  1.00  0.00     0.037 C 
ATOM     22  C   UNL A   1      32.915  17.877  23.182  1.00  0.00     0.073 C 
ATOM     23  N   UNL A   1      34.183  18.912  24.937  1.00  0.00    -0.329 N 
ATOM     24  C   UNL A   1      33.995  16.924  23.637  1.00  0.00     0.068 C 
ATOM     25  C   UNL A   1      34.989  17.849  24.318  1.00  0.00     0.262 C 
ATOM     26  H   UNL A   1      34.098  18.730  25.937  1.00  0.00     0.348 HD
ENDBRANCH  13  16
ENDBRANCH  11  12
ENDBRANCH   7  11
ENDBRANCH   4   7
ENDBRANCH   2   3
ENDBRANCH   1   2
BRANCH   1  27
ATOM     27  C   UNL A   1      32.519  29.817  25.732  1.00  0.00     0.023 C 
BRANCH  27  28
ATOM     28  C   UNL A   1      33.446  29.596  26.918  1.00  0.00     0.116 C 
BRANCH  28  29
ATOM     29  N   UNL A   1      33.660  30.781  27.750  1.00  0.00    -0.352 N 
ATOM     30  C   UNL A   1      34.743  31.144  28.523  1.00  0.00     0.251 C 
ATOM     31  H   UNL A   1      32.911  31.419  27.761  1.00  0.00     0.163 HD
ATOM     32  O   UNL A   1      34.701  32.150  29.218  1.00  0.00    -0.269 OA
BRANCH  30  33
ATOM     33  C   UNL A   1      35.934  30.268  28.543  1.00  0.00     0.039 A 
ATOM     34  C   UNL A   1      36.803  30.273  27.450  1.00  0.00     0.014 A 
ATOM     35  C   UNL A   1      36.256  29.558  29.697  1.00  0.00     0.014 A 
ATOM     36  C   UNL A   1      38.068  29.695  27.580  1.00  0.00     0.010 A 
ATOM     37  C   UNL A   1      37.556  29.105  29.868  1.00  0.00     0.010 A 
ATOM     38  C   UNL A   1      38.487  29.191  28.822  1.00  0.00    -0.014 A 
BRANCH  38  39
ATOM     39  C   UNL A   1      39.896  28.792  29.084  1.00  0.00     0.031 A 
ATOM     40  C   UNL A   1      40.862  29.793  29.659  1.00  0.00     0.074 A 
ATOM     41  C   UNL A   1      40.344  27.587  28.677  1.00  0.00     0.049 A 
ATOM     42  N   UNL A   1      42.163  29.720  29.770  1.00  0.00    -0.248 NA
ATOM     43  C   UNL A   1      40.292  31.070  30.120  1.00  0.00     0.031 C 
ATOM     44  C   UNL A   1      39.536  26.547  28.033  1.00  0.00     0.029 A 
ATOM     45  N   UNL A   1      41.603  27.038  28.724  1.00  0.00    -0.354 N 
ATOM     46  C   UNL A   1      42.567  30.953  30.263  1.00  0.00     0.074 A 
ATOM     47  C   UNL A   1      41.383  31.773  30.384  1.00  0.00     0.031 C 
ATOM     48  C   UNL A   1      40.311  25.481  27.775  1.00  0.00     0.029 A 
ATOM     49  C   UNL A   1      41.678  25.776  28.186  1.00  0.00     0.049 A 
ATOM     50  H   UNL A   1      42.380  27.506  29.108  1.00  0.00     0.167 HD
ATOM     51  C   UNL A   1      43.812  31.360  30.609  1.00  0.00     0.037 A 
ATOM     52  C   UNL A   1      42.732  24.952  28.025  1.00  0.00     0.037 A 
ATOM     53  C   UNL A   1      44.977  30.520  30.562  1.00  0.00     0.049 A 
ATOM     54  C   UNL A   1      44.095  25.409  28.462  1.00  0.00     0.074 A 
ATOM     55  C   UNL A   1      46.259  30.803  30.999  1.00  0.00     0.029 A 
ATOM     56  N   UNL A   1      44.998  29.229  30.060  1.00  0.00    -0.354 N 
ATOM     57  N   UNL A   1      44.451  26.554  28.990  1.00  0.00    -0.248 NA
ATOM     58  C   UNL A   1      45.204  24.462  28.276  1.00  0.00     0.031 C 
ATOM     59  C   UNL A   1      47.064  29.689  30.735  1.00  0.00     0.029 A 
ATOM     60  C   UNL A   1      46.276  28.706  30.160  1.00  0.00     0.049 A 
ATOM     61  H   UNL A   1      44.220  28.754  29.687  1.00  0.00     0.167 HD
ATOM     62  C   UNL A   1      45.818  26.461  29.213  1.00  0.00     0.074 A 
ATOM     63  C   UNL A   1      46.225  25.141  28.778  1.00  0.00     0.031 C 
ATOM     64  C   UNL A   1      46.660  27.388  29.727  1.00  0.00     0.037 A 
BRANCH  51  65
ATOM     65  C   UNL A   1      43.967  32.771  31.091  1.00  0.00     0.057 A 
ATOM     66  C   UNL A   1      43.896  33.100  32.451  1.00  0.00     0.134 A 
ATOM     67  C   UNL A   1      44.214  33.811  30.185  1.00  0.00     0.134 A 
ATOM     68  F   UNL A   1      43.647  32.151  33.366  1.00  0.00    -0.206 F 
ATOM     69  C   UNL A   1      44.035  34.416  32.891  1.00  0.00     0.040 A 
ATOM     70  C   UNL A   1      44.380  35.128  30.617  1.00  0.00     0.040 A 
ATOM     71  F   UNL A   1      44.298  33.565  28.870  1.00  0.00    -0.206 F 
ATOM     72  C   UNL A   1      44.285  35.434  31.973  1.00  0.00     0.006 A 
ENDBRANCH  51  65
BRANCH  52  73
ATOM     73  C   UNL A   1      42.541  23.605  27.435  1.00  0.00     0.057 A 
ATOM     74  C   UNL A   1      42.305  22.492  28.252  1.00  0.00     0.134 A 
ATOM     75  C   UNL A   1      42.597  23.390  26.053  1.00  0.00     0.134 A 
ATOM     76  F   UNL A   1      42.261  22.633  29.585  1.00  0.00    -0.206 F 
ATOM     77  C   UNL A   1      42.145  21.213  27.719  1.00  0.00     0.040 A 
ATOM     78  C   UNL A   1      42.417  22.119  25.504  1.00  0.00     0.040 A 
ATOM     79  F   UNL A   1      42.816  24.415  25.217  1.00  0.00    -0.206 F 
ATOM     80  C   UNL A   1      42.197  21.025  26.338  1.00  0.00     0.006 A 
ENDBRANCH  52  73
BRANCH  64  81
ATOM     81  C   UNL A   1      48.102  27.003  29.866  1.00  0.00     0.057 A 
ATOM     82  C   UNL A   1      49.046  27.345  28.891  1.00  0.00     0.134 A 
ATOM     83  C   UNL A   1      48.556  26.336  31.009  1.00  0.00     0.134 A 
ATOM     84  F   UNL A   1      48.668  27.974  27.768  1.00  0.00    -0.206 F 
ATOM     85  C   UNL A   1      50.396  27.025  29.046  1.00  0.00     0.040 A 
ATOM     86  C   UNL A   1      49.905  26.030  31.184  1.00  0.00     0.040 A 
ATOM     87  F   UNL A   1      47.699  25.988  31.981  1.00  0.00    -0.206 F 
ATOM     88  C   UNL A   1      50.829  26.373  30.199  1.00  0.00     0.006 A 
ENDBRANCH  64  81
ENDBRANCH  38  39
ENDBRANCH  30  33
ENDBRANCH  28  29
ENDBRANCH  27  28
ENDBRANCH   1  27
TORSDOF 16
ENDMDL
MODEL 2
REMARK VINA RESULT:     -11.4      2.188      7.376
REMARK SMILES CCC[C@H](CNC(=O)N1C[C@H]2CCC[N@H+]2C[C@@H]1C)C(=O)NCCCCNC(=O)c1ccc(-c2c3nc(c(-c4c(F)cccc4F)c4ccc([nH]4)c(-c4c(F)cccc4F)c4nc(c(-c5c(F)cccc5F)c5ccc2[nH]5)C=C4)C=C3)cc1
REMARK SMILES IDX 23 1 22 2 21 3 19 4 20 5 4 7 3 8 2 9 1 10 5 11 6 12 7 13
REMARK SMILES IDX 8 15 9 16 10 17 17 18 11 19 16 20 18 21 12 22 15 23 13 24
REMARK SMILES IDX 14 25 24 27 25 28 26 29 27 30 28 32 29 33 30 34 82 35 31 36
REMARK SMILES IDX 81 37 32 38 33 39 34 40 75 41 35 42 80 43 74 44 76 45 36 46
REMARK SMILES IDX 79 47 73 48 72 49 37 51 63 52 46 53 62 54 47 55 50 56 61 57
REMARK SMILES IDX 77 58 48 59 49 60 60 62 78 63 51 64 38 65 39 66 44 67 40 68
REMARK SMILES IDX 41 69 43 70 45 71 42 72 64 73 65 74 70 75 66 76 67 77 69 78
REMARK SMILES IDX 71 79 68 80 52 81 53 82 58 83 54 84 55 85 57 86 59 87 56 88
REMARK H PARENT 21 6 6 14 15 26 26 31 76 50 50 61
REMARK Flexibility Score: inf
ROOT
ATOM      1  C   UNL A   1      36.768  23.364  24.632  1.00  0.00     0.023 C 
ENDROOT
BRANCH   1   2
ATOM      2  C   UNL A   1      35.256  23.532  24.663  1.00  0.00     0.116 C 
BRANCH   2   3
ATOM      3  N   UNL A   1      34.755  23.784  23.331  1.00  0.00    -0.356 N 
ATOM      4  C   UNL A   1      33.655  23.280  22.712  1.00  0.00     0.224 C 
ATOM      5  O   UNL A   1      33.561  23.448  21.493  1.00  0.00    -0.275 OA
ATOM      6  H   UNL A   1      35.289  24.413  22.793  1.00  0.00     0.163 HD
BRANCH   4   7
ATOM      7  C   UNL A   1      32.544  22.560  23.473  1.00  0.00     0.097 C 
BRANCH   7   8
ATOM      8  C   UNL A   1      32.222  21.154  22.911  1.00  0.00     0.015 C 
BRANCH   8   9
ATOM      9  C   UNL A   1      32.497  20.016  23.905  1.00  0.00    -0.003 C 
ATOM     10  C   UNL A   1      33.774  20.192  24.712  1.00  0.00     0.004 C 
ENDBRANCH   8   9
ENDBRANCH   7   8
BRANCH   7  11
ATOM     11  C   UNL A   1      31.291  23.385  23.842  1.00  0.00     0.131 C 
BRANCH  11  12
ATOM     12  N   UNL A   1      30.790  23.321  25.201  1.00  0.00    -0.337 N 
ATOM     13  C   UNL A   1      30.409  24.219  26.136  1.00  0.00     0.318 C 
ATOM     14  H   UNL A   1      30.709  22.393  25.523  1.00  0.00     0.165 HD
ATOM     15  O   UNL A   1      30.120  23.768  27.248  1.00  0.00    -0.249 OA
BRANCH  13  16
ATOM     16  N   UNL A   1      30.466  25.562  25.900  1.00  0.00    -0.311 N 
ATOM     17  C   UNL A   1      29.572  26.095  24.868  1.00  0.00     0.186 C 
ATOM     18  C   UNL A   1      31.559  26.447  26.347  1.00  0.00     0.139 C 
ATOM     19  C   UNL A   1      30.207  27.031  23.833  1.00  0.00     0.204 C 
ATOM     20  C   UNL A   1      31.432  27.890  25.771  1.00  0.00     0.287 C 
ATOM     21  C   UNL A   1      32.930  25.839  26.034  1.00  0.00     0.037 C 
ATOM     22  C   UNL A   1      29.138  27.913  23.182  1.00  0.00     0.073 C 
ATOM     23  N   UNL A   1      31.253  27.954  24.316  1.00  0.00    -0.329 N 
ATOM     24  C   UNL A   1      29.919  29.123  22.726  1.00  0.00     0.068 C 
ATOM     25  C   UNL A   1      30.929  29.308  23.846  1.00  0.00     0.262 C 
ATOM     26  H   UNL A   1      32.155  27.671  23.932  1.00  0.00     0.348 HD
ENDBRANCH  13  16
ENDBRANCH  11  12
ENDBRANCH   7  11
ENDBRANCH   4   7
ENDBRANCH   2   3
ENDBRANCH   1   2
BRANCH   1  27
ATOM     27  C   UNL A   1      37.290  21.944  24.683  1.00  0.00     0.023 C 
BRANCH  27  28
ATOM     28  C   UNL A   1      38.397  21.720  25.702  1.00  0.00     0.116 C 
BRANCH  28  29
ATOM     29  N   UNL A   1      39.082  20.432  25.582  1.00  0.00    -0.352 N 
ATOM     30  C   UNL A   1      40.369  20.071  25.923  1.00  0.00     0.251 C 
ATOM     31  H   UNL A   1      38.538  19.709  25.195  1.00  0.00     0.163 HD
ATOM     32  O   UNL A   1      40.786  18.949  25.671  1.00  0.00    -0.269 OA
BRANCH  30  33
ATOM     33  C   UNL A   1      41.253  21.078  26.547  1.00  0.00     0.039 A 
ATOM     34  C   UNL A   1      41.961  21.963  25.732  1.00  0.00     0.014 A 
ATOM     35  C   UNL A   1      41.265  21.230  27.932  1.00  0.00     0.014 A 
ATOM     36  C   UNL A   1      42.549  23.095  26.301  1.00  0.00     0.010 A 
ATOM     37  C   UNL A   1      41.731  22.419  28.474  1.00  0.00     0.010 A 
ATOM     38  C   UNL A   1      42.356  23.379  27.663  1.00  0.00    -0.014 A 
BRANCH  38  39
ATOM     39  C   UNL A   1      42.743  24.682  28.268  1.00  0.00     0.031 A 
ATOM     40  C   UNL A   1      41.696  25.737  28.505  1.00  0.00     0.074 A 
ATOM     41  C   UNL A   1      44.045  24.973  28.470  1.00  0.00     0.049 A 
ATOM     42  N   UNL A   1      41.847  26.997  28.822  1.00  0.00    -0.248 NA
ATOM     43  C   UNL A   1      40.295  25.332  28.305  1.00  0.00     0.031 C 
ATOM     44  C   UNL A   1      45.173  24.073  28.208  1.00  0.00     0.029 A 
ATOM     45  N   UNL A   1      44.644  26.124  28.921  1.00  0.00    -0.354 N 
ATOM     46  C   UNL A   1      40.570  27.541  28.809  1.00  0.00     0.074 A 
ATOM     47  C   UNL A   1      39.662  26.491  28.406  1.00  0.00     0.031 C 
ATOM     48  C   UNL A   1      46.318  24.694  28.533  1.00  0.00     0.029 A 
ATOM     49  C   UNL A   1      46.016  26.049  28.975  1.00  0.00     0.049 A 
ATOM     50  H   UNL A   1      44.138  26.927  29.182  1.00  0.00     0.167 HD
ATOM     51  C   UNL A   1      40.183  28.799  29.129  1.00  0.00     0.037 A 
ATOM     52  C   UNL A   1      46.931  26.975  29.325  1.00  0.00     0.037 A 
ATOM     53  C   UNL A   1      41.074  29.821  29.604  1.00  0.00     0.049 A 
ATOM     54  C   UNL A   1      46.471  28.349  29.723  1.00  0.00     0.074 A 
ATOM     55  C   UNL A   1      40.763  31.089  30.063  1.00  0.00     0.029 A 
ATOM     56  N   UNL A   1      42.450  29.687  29.695  1.00  0.00    -0.354 N 
ATOM     57  N   UNL A   1      45.253  28.829  29.771  1.00  0.00    -0.248 NA
ATOM     58  C   UNL A   1      47.513  29.311  30.110  1.00  0.00     0.031 C 
ATOM     59  C   UNL A   1      41.957  31.733  30.406  1.00  0.00     0.029 A 
ATOM     60  C   UNL A   1      43.006  30.855  30.186  1.00  0.00     0.049 A 
ATOM     61  H   UNL A   1      42.958  28.881  29.446  1.00  0.00     0.167 HD
ATOM     62  C   UNL A   1      45.380  30.142  30.206  1.00  0.00     0.074 A 
ATOM     63  C   UNL A   1      46.792  30.377  30.424  1.00  0.00     0.031 C 
ATOM     64  C   UNL A   1      44.413  31.069  30.402  1.00  0.00     0.037 A 
BRANCH  51  65
ATOM     65  C   UNL A   1      38.726  29.127  28.995  1.00  0.00     0.057 A 
ATOM     66  C   UNL A   1      37.845  29.036  30.081  1.00  0.00     0.134 A 
ATOM     67  C   UNL A   1      38.202  29.562  27.772  1.00  0.00     0.134 A 
ATOM     68  F   UNL A   1      38.283  28.611  31.276  1.00  0.00    -0.206 F 
ATOM     69  C   UNL A   1      36.490  29.336  29.948  1.00  0.00     0.040 A 
ATOM     70  C   UNL A   1      36.852  29.891  27.633  1.00  0.00     0.040 A 
ATOM     71  F   UNL A   1      38.991  29.676  26.693  1.00  0.00    -0.206 F 
ATOM     72  C   UNL A   1      35.991  29.772  28.722  1.00  0.00     0.006 A 
ENDBRANCH  51  65
BRANCH  52  73
ATOM     73  C   UNL A   1      48.374  26.631  29.330  1.00  0.00     0.057 A 
ATOM     74  C   UNL A   1      49.166  26.849  28.196  1.00  0.00     0.134 A 
ATOM     75  C   UNL A   1      48.994  26.073  30.453  1.00  0.00     0.134 A 
ATOM     76  F   UNL A   1      48.621  27.362  27.082  1.00  0.00    -0.206 F 
ATOM     77  C   UNL A   1      50.519  26.512  28.172  1.00  0.00     0.040 A 
ATOM     78  C   UNL A   1      50.353  25.751  30.451  1.00  0.00     0.040 A 
ATOM     79  F   UNL A   1      48.291  25.844  31.571  1.00  0.00    -0.206 F 
ATOM     80  C   UNL A   1      51.118  25.964  29.306  1.00  0.00     0.006 A 
ENDBRANCH  52  73
BRANCH  64  81
ATOM     81  C   UNL A   1      44.845  32.416  30.895  1.00  0.00     0.057 A 
ATOM     82  C   UNL A   1      45.125  33.463  30.008  1.00  0.00     0.134 A 
ATOM     83  C   UNL A   1      44.924  32.684  32.265  1.00  0.00     0.134 A 
ATOM     84  F   UNL A   1      45.078  33.263  28.683  1.00  0.00    -0.206 F 
ATOM     85  C   UNL A   1      45.482  34.730  30.471  1.00  0.00     0.040 A 
ATOM     86  C   UNL A   1      45.260  33.952  32.741  1.00  0.00     0.040 A 
ATOM     87  F   UNL A   1      44.661  31.724  33.164  1.00  0.00    -0.206 F 
ATOM     88  C   UNL A   1      45.542  34.979  31.841  1.00  0.00     0.006 A 
ENDBRANCH  64  81
ENDBRANCH  38  39
ENDBRANCH  30  33
ENDBRANCH  28  29
ENDBRANCH  27  28
ENDBRANCH   1  27
TORSDOF 16
ENDMDL
MODEL 3
REMARK VINA RESULT:     -11.4      2.170      7.402
REMARK SMILES CCC[C@H](CNC(=O)N1C[C@H]2CCC[N@H+]2C[C@@H]1C)C(=O)NCCCCNC(=O)c1ccc(-c2c3nc(c(-c4c(F)cccc4F)c4ccc([nH]4)c(-c4c(F)cccc4F)c4nc(c(-c5c(F)cccc5F)c5ccc2[nH]5)C=C4)C=C3)cc1
REMARK SMILES IDX 23 1 22 2 21 3 19 4 20 5 4 7 3 8 2 9 1 10 5 11 6 12 7 13
REMARK SMILES IDX 8 15 9 16 10 17 17 18 11 19 16 20 18 21 12 22 15 23 13 24
REMARK SMILES IDX 14 25 24 27 25 28 26 29 27 30 28 32 29 33 30 34 82 35 31 36
REMARK SMILES IDX 81 37 32 38 33 39 34 40 75 41 35 42 80 43 74 44 76 45 36 46
REMARK SMILES IDX 79 47 73 48 72 49 37 51 63 52 46 53 62 54 47 55 50 56 61 57
REMARK SMILES IDX 77 58 48 59 49 60 60 62 78 63 51 64 38 65 39 66 44 67 40 68
REMARK SMILES IDX 41 69 43 70 45 71 42 72 64 73 65 74 70 75 66 76 67 77 69 78
REMARK SMILES IDX 71 79 68 80 52 81 53 82 58 83 54 84 55 85 57 86 59 87 56 88
REMARK H PARENT 21 6 6 14 15 26 26 31 76 50 50 61
REMARK Flexibility Score: inf
ROOT
ATOM      1  C   UNL A   1      36.920  23.296  24.443  1.00  0.00     0.023 C 
ENDROOT
BRANCH   1   2
ATOM      2  C   UNL A   1      35.472  23.733  24.613  1.00  0.00     0.116 C 
BRANCH   2   3
ATOM      3  N   UNL A   1      34.846  23.894  23.320  1.00  0.00    -0.356 N 
ATOM      4  C   UNL A   1      33.713  23.323  22.833  1.00  0.00     0.224 C 
ATOM      5  O   UNL A   1      33.505  23.419  21.620  1.00  0.00    -0.275 OA
ATOM      6  H   UNL A   1      35.307  24.507  22.703  1.00  0.00     0.163 HD
BRANCH   4   7
ATOM      7  C   UNL A   1      32.700  22.615  23.729  1.00  0.00     0.097 C 
BRANCH   7   8
ATOM      8  C   UNL A   1      32.804  21.071  23.678  1.00  0.00     0.015 C 
BRANCH   8   9
ATOM      9  C   UNL A   1      33.799  20.487  24.694  1.00  0.00    -0.003 C 
ATOM     10  C   UNL A   1      33.496  20.852  26.139  1.00  0.00     0.004 C 
ENDBRANCH   8   9
ENDBRANCH   7   8
BRANCH   7  11
ATOM     11  C   UNL A   1      31.248  23.142  23.709  1.00  0.00     0.131 C 
BRANCH  11  12
ATOM     12  N   UNL A   1      30.604  23.458  24.969  1.00  0.00    -0.337 N 
ATOM     13  C   UNL A   1      30.495  24.554  25.751  1.00  0.00     0.318 C 
ATOM     14  H   UNL A   1      30.131  22.683  25.348  1.00  0.00     0.165 HD
ATOM     15  O   UNL A   1      29.924  24.403  26.835  1.00  0.00    -0.249 OA
BRANCH  13  16
ATOM     16  N   UNL A   1      31.097  25.733  25.417  1.00  0.00    -0.311 N 
ATOM     17  C   UNL A   1      31.871  26.405  26.464  1.00  0.00     0.186 C 
ATOM     18  C   UNL A   1      30.768  26.535  24.223  1.00  0.00     0.139 C 
ATOM     19  C   UNL A   1      31.601  27.903  26.657  1.00  0.00     0.204 C 
ATOM     20  C   UNL A   1      31.495  27.914  24.210  1.00  0.00     0.287 C 
ATOM     21  C   UNL A   1      29.253  26.700  24.064  1.00  0.00     0.037 C 
ATOM     22  C   UNL A   1      32.789  28.576  27.350  1.00  0.00     0.073 C 
ATOM     23  N   UNL A   1      31.339  28.698  25.441  1.00  0.00    -0.329 N 
ATOM     24  C   UNL A   1      32.678  30.016  26.907  1.00  0.00     0.068 C 
ATOM     25  C   UNL A   1      32.205  29.885  25.468  1.00  0.00     0.262 C 
ATOM     26  H   UNL A   1      30.362  28.993  25.437  1.00  0.00     0.348 HD
ENDBRANCH  13  16
ENDBRANCH  11  12
ENDBRANCH   7  11
ENDBRANCH   4   7
ENDBRANCH   2   3
ENDBRANCH   1   2
BRANCH   1  27
ATOM     27  C   UNL A   1      37.237  21.859  24.804  1.00  0.00     0.023 C 
BRANCH  27  28
ATOM     28  C   UNL A   1      38.422  21.698  25.744  1.00  0.00     0.116 C 
BRANCH  28  29
ATOM     29  N   UNL A   1      39.112  20.412  25.636  1.00  0.00    -0.352 N 
ATOM     30  C   UNL A   1      40.408  20.064  25.960  1.00  0.00     0.251 C 
ATOM     31  H   UNL A   1      38.566  19.678  25.273  1.00  0.00     0.163 HD
ATOM     32  O   UNL A   1      40.827  18.940  25.720  1.00  0.00    -0.269 OA
BRANCH  30  33
ATOM     33  C   UNL A   1      41.297  21.088  26.548  1.00  0.00     0.039 A 
ATOM     34  C   UNL A   1      41.898  22.032  25.712  1.00  0.00     0.014 A 
ATOM     35  C   UNL A   1      41.417  21.193  27.932  1.00  0.00     0.014 A 
ATOM     36  C   UNL A   1      42.483  23.169  26.274  1.00  0.00     0.010 A 
ATOM     37  C   UNL A   1      41.876  22.383  28.479  1.00  0.00     0.010 A 
ATOM     38  C   UNL A   1      42.391  23.397  27.657  1.00  0.00    -0.014 A 
BRANCH  38  39
ATOM     39  C   UNL A   1      42.771  24.695  28.277  1.00  0.00     0.031 A 
ATOM     40  C   UNL A   1      41.721  25.746  28.515  1.00  0.00     0.074 A 
ATOM     41  C   UNL A   1      44.071  24.985  28.493  1.00  0.00     0.049 A 
ATOM     42  N   UNL A   1      41.868  27.003  28.846  1.00  0.00    -0.248 NA
ATOM     43  C   UNL A   1      40.322  25.342  28.299  1.00  0.00     0.031 C 
ATOM     44  C   UNL A   1      45.202  24.089  28.233  1.00  0.00     0.029 A 
ATOM     45  N   UNL A   1      44.665  26.132  28.960  1.00  0.00    -0.354 N 
ATOM     46  C   UNL A   1      40.591  27.547  28.826  1.00  0.00     0.074 A 
ATOM     47  C   UNL A   1      39.687  26.499  28.405  1.00  0.00     0.031 C 
ATOM     48  C   UNL A   1      46.344  24.707  28.573  1.00  0.00     0.029 A 
ATOM     49  C   UNL A   1      46.036  26.058  29.025  1.00  0.00     0.049 A 
ATOM     50  H   UNL A   1      44.156  26.932  29.224  1.00  0.00     0.167 HD
ATOM     51  C   UNL A   1      40.200  28.801  29.154  1.00  0.00     0.037 A 
ATOM     52  C   UNL A   1      46.947  26.981  29.392  1.00  0.00     0.037 A 
ATOM     53  C   UNL A   1      41.086  29.820  29.647  1.00  0.00     0.049 A 
ATOM     54  C   UNL A   1      46.483  28.351  29.799  1.00  0.00     0.074 A 
ATOM     55  C   UNL A   1      40.769  31.083  30.115  1.00  0.00     0.029 A 
ATOM     56  N   UNL A   1      42.461  29.686  29.749  1.00  0.00    -0.354 N 
ATOM     57  N   UNL A   1      45.264  28.830  29.840  1.00  0.00    -0.248 NA
ATOM     58  C   UNL A   1      47.521  29.310  30.204  1.00  0.00     0.031 C 
ATOM     59  C   UNL A   1      41.960  31.725  30.474  1.00  0.00     0.029 A 
ATOM     60  C   UNL A   1      43.011  30.850  30.256  1.00  0.00     0.049 A 
ATOM     61  H   UNL A   1      42.971  28.882  29.496  1.00  0.00     0.167 HD
ATOM     62  C   UNL A   1      45.386  30.138  30.289  1.00  0.00     0.074 A 
ATOM     63  C   UNL A   1      46.796  30.373  30.522  1.00  0.00     0.031 C 
ATOM     64  C   UNL A   1      44.416  31.062  30.486  1.00  0.00     0.037 A 
BRANCH  51  65
ATOM     65  C   UNL A   1      38.743  29.129  29.011  1.00  0.00     0.057 A 
ATOM     66  C   UNL A   1      37.857  29.044  30.093  1.00  0.00     0.134 A 
ATOM     67  C   UNL A   1      38.226  29.557  27.783  1.00  0.00     0.134 A 
ATOM     68  F   UNL A   1      38.288  28.626  31.292  1.00  0.00    -0.206 F 
ATOM     69  C   UNL A   1      36.502  29.345  29.951  1.00  0.00     0.040 A 
ATOM     70  C   UNL A   1      36.877  29.886  27.635  1.00  0.00     0.040 A 
ATOM     71  F   UNL A   1      39.021  29.665  26.707  1.00  0.00    -0.206 F 
ATOM     72  C   UNL A   1      36.011  29.774  28.720  1.00  0.00     0.006 A 
ENDBRANCH  51  65
BRANCH  52  73
ATOM     73  C   UNL A   1      48.391  26.638  29.406  1.00  0.00     0.057 A 
ATOM     74  C   UNL A   1      48.967  26.013  30.518  1.00  0.00     0.134 A 
ATOM     75  C   UNL A   1      49.228  26.930  28.323  1.00  0.00     0.134 A 
ATOM     76  F   UNL A   1      48.218  25.728  31.594  1.00  0.00    -0.206 F 
ATOM     77  C   UNL A   1      50.327  25.703  30.560  1.00  0.00     0.040 A 
ATOM     78  C   UNL A   1      50.586  26.605  28.343  1.00  0.00     0.040 A 
ATOM     79  F   UNL A   1      48.735  27.524  27.227  1.00  0.00    -0.206 F 
ATOM     80  C   UNL A   1      51.140  25.996  29.467  1.00  0.00     0.006 A 
ENDBRANCH  52  73
BRANCH  64  81
ATOM     81  C   UNL A   1      44.843  32.406  30.994  1.00  0.00     0.057 A 
ATOM     82  C   UNL A   1      45.135  33.459  30.120  1.00  0.00     0.134 A 
ATOM     83  C   UNL A   1      44.905  32.663  32.368  1.00  0.00     0.134 A 
ATOM     84  F   UNL A   1      45.104  33.270  28.792  1.00  0.00    -0.206 F 
ATOM     85  C   UNL A   1      45.486  34.723  30.598  1.00  0.00     0.040 A 
ATOM     86  C   UNL A   1      45.235  33.926  32.858  1.00  0.00     0.040 A 
ATOM     87  F   UNL A   1      44.629  31.695  33.256  1.00  0.00    -0.206 F 
ATOM     88  C   UNL A   1      45.529  34.960  31.970  1.00  0.00     0.006 A 
ENDBRANCH  64  81
ENDBRANCH  38  39
ENDBRANCH  30  33
ENDBRANCH  28  29
ENDBRANCH  27  28
ENDBRANCH   1  27
TORSDOF 16
ENDMDL
