MODEL 1
REMARK VINA RESULT:     -12.6      0.000      0.000
REMARK SMILES C[C@@H]1CN(S(=O)(=O)c2ccc(Cl)c(C(=O)NCCCCNC(=O)c3ccc(-c4c5nc(c(-c6c(F)cccc6F)c6ccc([nH]6)c(-c6c(F)cccc6F)c6nc(c(-c7c(F)cccc7F)c7ccc4[nH]7)C=C6)C=C5)cc3)c2Cl)C[C@H]1C
REMARK SMILES IDX 18 1 17 2 16 3 14 4 15 5 13 7 8 8 9 9 78 10 10 11 79 12
REMARK SMILES IDX 11 13 12 14 5 15 6 16 7 17 4 18 1 19 2 20 3 21 81 22 80 23
REMARK SMILES IDX 82 24 19 25 20 26 21 27 22 28 23 30 24 31 25 32 77 33 26 34
REMARK SMILES IDX 76 35 27 36 28 37 29 38 70 39 30 40 75 41 69 42 71 43 31 44
REMARK SMILES IDX 74 45 68 46 67 47 32 49 58 50 41 51 57 52 42 53 45 54 56 55
REMARK SMILES IDX 72 56 43 57 44 58 55 60 73 61 46 62 33 63 34 64 39 65 35 66
REMARK SMILES IDX 36 67 38 68 40 69 37 70 59 71 60 72 65 73 61 74 62 75 64 76
REMARK SMILES IDX 66 77 63 78 47 79 48 80 53 81 49 82 50 83 52 84 54 85 51 86
REMARK H PARENT 16 6 21 29 71 48 45 59
REMARK Flexibility Score: inf
ROOT
ATOM      1  C   UNL A   1      37.160  21.236  24.518  1.00  0.00     0.023 C 
ENDROOT
BRANCH   1   2
ATOM      2  C   UNL A   1      36.786  22.292  25.570  1.00  0.00     0.116 C 
BRANCH   2   3
ATOM      3  N   UNL A   1      35.862  21.711  26.520  1.00  0.00    -0.352 N 
ATOM      4  C   UNL A   1      34.492  21.632  26.558  1.00  0.00     0.254 C 
ATOM      5  O   UNL A   1      33.994  21.491  27.678  1.00  0.00    -0.269 OA
ATOM      6  H   UNL A   1      36.302  21.288  27.293  1.00  0.00     0.163 HD
BRANCH   4   7
ATOM      7  C   UNL A   1      33.559  21.652  25.391  1.00  0.00     0.078 A 
ATOM      8  C   UNL A   1      32.925  22.967  23.411  1.00  0.00     0.102 A 
ATOM      9  C   UNL A   1      32.472  21.795  22.797  1.00  0.00     0.025 A 
ATOM     10  C   UNL A   1      33.405  22.915  24.732  1.00  0.00     0.075 A 
ATOM     11  C   UNL A   1      32.473  20.597  23.480  1.00  0.00     0.023 A 
ATOM     12  Cl  UNL A   1      33.683  24.385  25.623  1.00  0.00    -0.082 Cl
ATOM     13  C   UNL A   1      33.079  20.503  24.734  1.00  0.00     0.055 A 
ATOM     14  Cl  UNL A   1      33.264  18.868  25.210  1.00  0.00    -0.083 Cl
BRANCH   8  15
ATOM     15  S   UNL A   1      33.133  24.356  22.309  1.00  0.00     0.244 S 
ATOM     16  O   UNL A   1      33.156  23.810  20.964  1.00  0.00    -0.207 OA
ATOM     17  O   UNL A   1      34.224  25.193  22.752  1.00  0.00    -0.207 OA
BRANCH  15  18
ATOM     18  N   UNL A   1      31.690  25.264  22.435  1.00  0.00    -0.197 NA
ATOM     19  C   UNL A   1      30.917  28.481  24.207  1.00  0.00     0.009 C 
ATOM     20  C   UNL A   1      31.336  27.030  24.027  1.00  0.00     0.005 C 
ATOM     21  C   UNL A   1      31.803  26.739  22.607  1.00  0.00     0.106 C 
ATOM     22  C   UNL A   1      30.209  26.017  24.196  1.00  0.00     0.005 C 
ATOM     23  C   UNL A   1      30.803  24.762  23.546  1.00  0.00     0.106 C 
ATOM     24  C   UNL A   1      29.811  25.801  25.649  1.00  0.00     0.009 C 
ENDBRANCH  15  18
ENDBRANCH   8  15
ENDBRANCH   4   7
ENDBRANCH   2   3
ENDBRANCH   1   2
BRANCH   1  25
ATOM     25  C   UNL A   1      37.905  20.004  25.012  1.00  0.00     0.023 C 
BRANCH  25  26
ATOM     26  C   UNL A   1      39.172  20.300  25.791  1.00  0.00     0.116 C 
BRANCH  26  27
ATOM     27  N   UNL A   1      40.122  19.195  25.824  1.00  0.00    -0.352 N 
ATOM     28  C   UNL A   1      41.461  19.234  26.132  1.00  0.00     0.251 C 
ATOM     29  H   UNL A   1      39.758  18.309  25.597  1.00  0.00     0.163 HD
ATOM     30  O   UNL A   1      42.153  18.226  26.063  1.00  0.00    -0.269 OA
BRANCH  28  31
ATOM     31  C   UNL A   1      42.061  20.530  26.495  1.00  0.00     0.039 A 
ATOM     32  C   UNL A   1      42.508  21.374  25.477  1.00  0.00     0.014 A 
ATOM     33  C   UNL A   1      42.089  20.944  27.829  1.00  0.00     0.014 A 
ATOM     34  C   UNL A   1      42.911  22.670  25.791  1.00  0.00     0.010 A 
ATOM     35  C   UNL A   1      42.405  22.260  28.129  1.00  0.00     0.010 A 
ATOM     36  C   UNL A   1      42.819  23.135  27.113  1.00  0.00    -0.014 A 
BRANCH  36  37
ATOM     37  C   UNL A   1      43.158  24.533  27.463  1.00  0.00     0.031 A 
ATOM     38  C   UNL A   1      44.593  24.973  27.465  1.00  0.00     0.074 A 
ATOM     39  C   UNL A   1      42.185  25.376  27.857  1.00  0.00     0.049 A 
ATOM     40  N   UNL A   1      45.105  26.123  27.819  1.00  0.00    -0.248 NA
ATOM     41  C   UNL A   1      45.591  23.973  27.049  1.00  0.00     0.031 C 
ATOM     42  C   UNL A   1      40.762  25.043  27.957  1.00  0.00     0.029 A 
ATOM     43  N   UNL A   1      42.249  26.685  28.260  1.00  0.00    -0.354 N 
ATOM     44  C   UNL A   1      46.479  25.978  27.688  1.00  0.00     0.074 A 
ATOM     45  C   UNL A   1      46.727  24.613  27.277  1.00  0.00     0.031 C 
ATOM     46  C   UNL A   1      40.085  26.128  28.369  1.00  0.00     0.029 A 
ATOM     47  C   UNL A   1      41.028  27.219  28.593  1.00  0.00     0.049 A 
ATOM     48  H   UNL A   1      43.090  27.194  28.306  1.00  0.00     0.167 HD
ATOM     49  C   UNL A   1      47.447  26.907  27.867  1.00  0.00     0.037 A 
ATOM     50  C   UNL A   1      40.708  28.451  29.030  1.00  0.00     0.037 A 
ATOM     51  C   UNL A   1      47.192  28.272  28.240  1.00  0.00     0.049 A 
ATOM     52  C   UNL A   1      41.798  29.473  29.198  1.00  0.00     0.074 A 
ATOM     53  C   UNL A   1      48.094  29.312  28.376  1.00  0.00     0.029 A 
ATOM     54  N   UNL A   1      45.938  28.787  28.534  1.00  0.00    -0.354 N 
ATOM     55  N   UNL A   1      43.087  29.346  28.999  1.00  0.00    -0.248 NA
ATOM     56  C   UNL A   1      41.387  30.810  29.646  1.00  0.00     0.031 C 
ATOM     57  C   UNL A   1      47.389  30.449  28.786  1.00  0.00     0.029 A 
ATOM     58  C   UNL A   1      46.043  30.126  28.867  1.00  0.00     0.049 A 
ATOM     59  H   UNL A   1      45.097  28.274  28.509  1.00  0.00     0.167 HD
ATOM     60  C   UNL A   1      43.639  30.590  29.272  1.00  0.00     0.074 A 
ATOM     61  C   UNL A   1      42.542  31.462  29.640  1.00  0.00     0.031 C 
ATOM     62  C   UNL A   1      44.937  30.976  29.224  1.00  0.00     0.037 A 
BRANCH  49  63
ATOM     63  C   UNL A   1      48.865  26.470  27.652  1.00  0.00     0.057 A 
ATOM     64  C   UNL A   1      49.463  26.502  26.385  1.00  0.00     0.134 A 
ATOM     65  C   UNL A   1      49.646  26.021  28.724  1.00  0.00     0.134 A 
ATOM     66  F   UNL A   1      48.763  26.906  25.313  1.00  0.00    -0.206 F 
ATOM     67  C   UNL A   1      50.777  26.075  26.186  1.00  0.00     0.040 A 
ATOM     68  C   UNL A   1      50.970  25.617  28.542  1.00  0.00     0.040 A 
ATOM     69  F   UNL A   1      49.137  25.967  29.963  1.00  0.00    -0.206 F 
ATOM     70  C   UNL A   1      51.535  25.636  27.268  1.00  0.00     0.006 A 
ENDBRANCH  49  63
BRANCH  50  71
ATOM     71  C   UNL A   1      39.292  28.796  29.302  1.00  0.00     0.057 A 
ATOM     72  C   UNL A   1      38.737  28.607  30.573  1.00  0.00     0.134 A 
ATOM     73  C   UNL A   1      38.462  29.325  28.307  1.00  0.00     0.134 A 
ATOM     74  F   UNL A   1      39.479  28.087  31.562  1.00  0.00    -0.206 F 
ATOM     75  C   UNL A   1      37.404  28.918  30.842  1.00  0.00     0.040 A 
ATOM     76  C   UNL A   1      37.133  29.661  28.568  1.00  0.00     0.040 A 
ATOM     77  F   UNL A   1      38.937  29.538  27.072  1.00  0.00    -0.206 F 
ATOM     78  C   UNL A   1      36.598  29.452  29.838  1.00  0.00     0.006 A 
ENDBRANCH  50  71
BRANCH  62  79
ATOM     79  C   UNL A   1      45.236  32.409  29.548  1.00  0.00     0.057 A 
ATOM     80  C   UNL A   1      45.577  32.816  30.844  1.00  0.00     0.134 A 
ATOM     81  C   UNL A   1      45.225  33.384  28.542  1.00  0.00     0.134 A 
ATOM     82  F   UNL A   1      45.592  31.931  31.852  1.00  0.00    -0.206 F 
ATOM     83  C   UNL A   1      45.880  34.147  31.131  1.00  0.00     0.040 A 
ATOM     84  C   UNL A   1      45.549  34.713  28.813  1.00  0.00     0.040 A 
ATOM     85  F   UNL A   1      44.915  33.056  27.279  1.00  0.00    -0.206 F 
ATOM     86  C   UNL A   1      45.873  35.099  30.113  1.00  0.00     0.006 A 
ENDBRANCH  62  79
ENDBRANCH  36  37
ENDBRANCH  28  31
ENDBRANCH  26  27
ENDBRANCH  25  26
ENDBRANCH   1  25
TORSDOF 13
ENDMDL
MODEL 2
REMARK VINA RESULT:     -12.6      0.221      1.595
REMARK SMILES C[C@@H]1CN(S(=O)(=O)c2ccc(Cl)c(C(=O)NCCCCNC(=O)c3ccc(-c4c5nc(c(-c6c(F)cccc6F)c6ccc([nH]6)c(-c6c(F)cccc6F)c6nc(c(-c7c(F)cccc7F)c7ccc4[nH]7)C=C6)C=C5)cc3)c2Cl)C[C@H]1C
REMARK SMILES IDX 18 1 17 2 16 3 14 4 15 5 13 7 8 8 9 9 78 10 10 11 79 12
REMARK SMILES IDX 11 13 12 14 5 15 6 16 7 17 4 18 1 19 2 20 3 21 81 22 80 23
REMARK SMILES IDX 82 24 19 25 20 26 21 27 22 28 23 30 24 31 25 32 77 33 26 34
REMARK SMILES IDX 76 35 27 36 28 37 29 38 70 39 30 40 75 41 69 42 71 43 31 44
REMARK SMILES IDX 74 45 68 46 67 47 32 49 58 50 41 51 57 52 42 53 45 54 56 55
REMARK SMILES IDX 72 56 43 57 44 58 55 60 73 61 46 62 33 63 34 64 39 65 35 66
REMARK SMILES IDX 36 67 38 68 40 69 37 70 59 71 60 72 65 73 61 74 62 75 64 76
REMARK SMILES IDX 66 77 63 78 47 79 48 80 53 81 49 82 50 83 52 84 54 85 51 86
REMARK H PARENT 16 6 21 29 71 48 45 59
REMARK Flexibility Score: inf
ROOT
ATOM      1  C   UNL A   1      37.172  21.202  24.519  1.00  0.00     0.023 C 
ENDROOT
BRANCH   1   2
ATOM      2  C   UNL A   1      36.796  22.248  25.580  1.00  0.00     0.116 C 
BRANCH   2   3
ATOM      3  N   UNL A   1      35.847  21.669  26.505  1.00  0.00    -0.352 N 
ATOM      4  C   UNL A   1      34.477  21.605  26.515  1.00  0.00     0.254 C 
ATOM      5  O   UNL A   1      33.954  21.459  27.623  1.00  0.00    -0.269 OA
ATOM      6  H   UNL A   1      36.268  21.235  27.283  1.00  0.00     0.163 HD
BRANCH   4   7
ATOM      7  C   UNL A   1      33.567  21.645  25.329  1.00  0.00     0.078 A 
ATOM      8  C   UNL A   1      32.975  22.994  23.359  1.00  0.00     0.102 A 
ATOM      9  C   UNL A   1      32.534  21.833  22.716  1.00  0.00     0.025 A 
ATOM     10  C   UNL A   1      33.428  22.919  24.688  1.00  0.00     0.075 A 
ATOM     11  C   UNL A   1      32.520  20.624  23.379  1.00  0.00     0.023 A 
ATOM     12  Cl  UNL A   1      33.690  24.373  25.609  1.00  0.00    -0.082 Cl
ATOM     13  C   UNL A   1      33.101  20.508  24.643  1.00  0.00     0.055 A 
ATOM     14  Cl  UNL A   1      33.274  18.865  25.095  1.00  0.00    -0.083 Cl
BRANCH   8  15
ATOM     15  S   UNL A   1      33.207  24.401  22.285  1.00  0.00     0.244 S 
ATOM     16  O   UNL A   1      33.221  23.883  20.930  1.00  0.00    -0.207 OA
ATOM     17  O   UNL A   1      34.313  25.210  22.745  1.00  0.00    -0.207 OA
BRANCH  15  18
ATOM     18  N   UNL A   1      31.781  25.331  22.431  1.00  0.00    -0.197 NA
ATOM     19  C   UNL A   1      31.057  28.512  24.287  1.00  0.00     0.009 C 
ATOM     20  C   UNL A   1      31.450  27.059  24.069  1.00  0.00     0.005 C 
ATOM     21  C   UNL A   1      31.919  26.798  22.644  1.00  0.00     0.106 C 
ATOM     22  C   UNL A   1      30.304  26.062  24.204  1.00  0.00     0.005 C 
ATOM     23  C   UNL A   1      30.880  24.815  23.523  1.00  0.00     0.106 C 
ATOM     24  C   UNL A   1      29.896  25.813  25.649  1.00  0.00     0.009 C 
ENDBRANCH  15  18
ENDBRANCH   8  15
ENDBRANCH   4   7
ENDBRANCH   2   3
ENDBRANCH   1   2
BRANCH   1  25
ATOM     25  C   UNL A   1      37.928  19.972  24.999  1.00  0.00     0.023 C 
BRANCH  25  26
ATOM     26  C   UNL A   1      39.206  20.272  25.759  1.00  0.00     0.116 C 
BRANCH  26  27
ATOM     27  N   UNL A   1      40.149  19.162  25.798  1.00  0.00    -0.352 N 
ATOM     28  C   UNL A   1      41.493  19.197  26.086  1.00  0.00     0.251 C 
ATOM     29  H   UNL A   1      39.776  18.274  25.594  1.00  0.00     0.163 HD
ATOM     30  O   UNL A   1      42.178  18.183  26.025  1.00  0.00    -0.269 OA
BRANCH  28  31
ATOM     31  C   UNL A   1      42.107  20.495  26.415  1.00  0.00     0.039 A 
ATOM     32  C   UNL A   1      42.494  21.341  25.373  1.00  0.00     0.014 A 
ATOM     33  C   UNL A   1      42.208  20.909  27.746  1.00  0.00     0.014 A 
ATOM     34  C   UNL A   1      42.908  22.638  25.665  1.00  0.00     0.010 A 
ATOM     35  C   UNL A   1      42.535  22.226  28.027  1.00  0.00     0.010 A 
ATOM     36  C   UNL A   1      42.888  23.103  26.990  1.00  0.00    -0.014 A 
BRANCH  36  37
ATOM     37  C   UNL A   1      43.241  24.502  27.321  1.00  0.00     0.031 A 
ATOM     38  C   UNL A   1      44.676  24.940  27.271  1.00  0.00     0.074 A 
ATOM     39  C   UNL A   1      42.283  25.348  27.745  1.00  0.00     0.049 A 
ATOM     40  N   UNL A   1      45.201  26.091  27.600  1.00  0.00    -0.248 NA
ATOM     41  C   UNL A   1      45.657  23.938  26.825  1.00  0.00     0.031 C 
ATOM     42  C   UNL A   1      40.864  25.017  27.897  1.00  0.00     0.029 A 
ATOM     43  N   UNL A   1      42.363  26.659  28.139  1.00  0.00    -0.354 N 
ATOM     44  C   UNL A   1      46.569  25.944  27.422  1.00  0.00     0.074 A 
ATOM     45  C   UNL A   1      46.801  24.577  27.010  1.00  0.00     0.031 C 
ATOM     46  C   UNL A   1      40.203  26.105  28.327  1.00  0.00     0.029 A 
ATOM     47  C   UNL A   1      41.155  27.197  28.512  1.00  0.00     0.049 A 
ATOM     48  H   UNL A   1      43.205  27.167  28.153  1.00  0.00     0.167 HD
ATOM     49  C   UNL A   1      47.544  26.873  27.562  1.00  0.00     0.037 A 
ATOM     50  C   UNL A   1      40.852  28.431  28.954  1.00  0.00     0.037 A 
ATOM     51  C   UNL A   1      47.303  28.240  27.937  1.00  0.00     0.049 A 
ATOM     52  C   UNL A   1      41.948  29.452  29.079  1.00  0.00     0.074 A 
ATOM     53  C   UNL A   1      48.210  29.280  28.036  1.00  0.00     0.029 A 
ATOM     54  N   UNL A   1      46.061  28.758  28.272  1.00  0.00    -0.354 N 
ATOM     55  N   UNL A   1      43.229  29.323  28.835  1.00  0.00    -0.248 NA
ATOM     56  C   UNL A   1      41.554  30.792  29.534  1.00  0.00     0.031 C 
ATOM     57  C   UNL A   1      47.522  30.420  28.465  1.00  0.00     0.029 A 
ATOM     58  C   UNL A   1      46.179  30.098  28.595  1.00  0.00     0.049 A 
ATOM     59  H   UNL A   1      45.219  28.246  28.279  1.00  0.00     0.167 HD
ATOM     60  C   UNL A   1      43.791  30.567  29.082  1.00  0.00     0.074 A 
ATOM     61  C   UNL A   1      42.708  31.443  29.484  1.00  0.00     0.031 C 
ATOM     62  C   UNL A   1      45.087  30.952  28.986  1.00  0.00     0.037 A 
BRANCH  49  63
ATOM     63  C   UNL A   1      48.953  26.434  27.300  1.00  0.00     0.057 A 
ATOM     64  C   UNL A   1      49.784  25.967  28.328  1.00  0.00     0.134 A 
ATOM     65  C   UNL A   1      49.484  26.469  26.004  1.00  0.00     0.134 A 
ATOM     66  F   UNL A   1      49.340  25.925  29.593  1.00  0.00    -0.206 F 
ATOM     67  C   UNL A   1      51.101  25.578  28.081  1.00  0.00     0.040 A 
ATOM     68  C   UNL A   1      50.792  26.058  25.742  1.00  0.00     0.040 A 
ATOM     69  F   UNL A   1      48.743  26.903  24.975  1.00  0.00    -0.206 F 
ATOM     70  C   UNL A   1      51.607  25.618  26.785  1.00  0.00     0.006 A 
ENDBRANCH  49  63
BRANCH  50  71
ATOM     71  C   UNL A   1      39.446  28.779  29.274  1.00  0.00     0.057 A 
ATOM     72  C   UNL A   1      38.585  29.271  28.287  1.00  0.00     0.134 A 
ATOM     73  C   UNL A   1      38.927  28.623  30.564  1.00  0.00     0.134 A 
ATOM     74  F   UNL A   1      39.030  29.458  27.035  1.00  0.00    -0.206 F 
ATOM     75  C   UNL A   1      37.263  29.612  28.573  1.00  0.00     0.040 A 
ATOM     76  C   UNL A   1      37.601  28.939  30.861  1.00  0.00     0.040 A 
ATOM     77  F   UNL A   1      39.700  28.148  31.551  1.00  0.00    -0.206 F 
ATOM     78  C   UNL A   1      36.765  29.441  29.864  1.00  0.00     0.006 A 
ENDBRANCH  50  71
BRANCH  62  79
ATOM     79  C   UNL A   1      45.399  32.386  29.292  1.00  0.00     0.057 A 
ATOM     80  C   UNL A   1      45.317  33.383  28.313  1.00  0.00     0.134 A 
ATOM     81  C   UNL A   1      45.741  32.778  30.593  1.00  0.00     0.134 A 
ATOM     82  F   UNL A   1      45.007  33.069  27.046  1.00  0.00    -0.206 F 
ATOM     83  C   UNL A   1      45.584  34.720  28.613  1.00  0.00     0.040 A 
ATOM     84  C   UNL A   1      45.987  34.114  30.909  1.00  0.00     0.040 A 
ATOM     85  F   UNL A   1      45.828  31.871  31.577  1.00  0.00    -0.206 F 
ATOM     86  C   UNL A   1      45.913  35.089  29.916  1.00  0.00     0.006 A 
ENDBRANCH  62  79
ENDBRANCH  36  37
ENDBRANCH  28  31
ENDBRANCH  26  27
ENDBRANCH  25  26
ENDBRANCH   1  25
TORSDOF 13
ENDMDL
MODEL 3
REMARK VINA RESULT:     -12.6      4.941      9.977
REMARK SMILES C[C@@H]1CN(S(=O)(=O)c2ccc(Cl)c(C(=O)NCCCCNC(=O)c3ccc(-c4c5nc(c(-c6c(F)cccc6F)c6ccc([nH]6)c(-c6c(F)cccc6F)c6nc(c(-c7c(F)cccc7F)c7ccc4[nH]7)C=C6)C=C5)cc3)c2Cl)C[C@H]1C
REMARK SMILES IDX 18 1 17 2 16 3 14 4 15 5 13 7 8 8 9 9 78 10 10 11 79 12
REMARK SMILES IDX 11 13 12 14 5 15 6 16 7 17 4 18 1 19 2 20 3 21 81 22 80 23
REMARK SMILES IDX 82 24 19 25 20 26 21 27 22 28 23 30 24 31 25 32 77 33 26 34
REMARK SMILES IDX 76 35 27 36 28 37 29 38 70 39 30 40 75 41 69 42 71 43 31 44
REMARK SMILES IDX 74 45 68 46 67 47 32 49 58 50 41 51 57 52 42 53 45 54 56 55
REMARK SMILES IDX 72 56 43 57 44 58 55 60 73 61 46 62 33 63 34 64 39 65 35 66
REMARK SMILES IDX 36 67 38 68 40 69 37 70 59 71 60 72 65 73 61 74 62 75 64 76
REMARK SMILES IDX 66 77 63 78 47 79 48 80 53 81 49 82 50 83 52 84 54 85 51 86
REMARK H PARENT 16 6 21 29 71 48 45 59
REMARK Flexibility Score: inf
ROOT
ATOM      1  C   UNL A   1      31.778  30.217  26.505  1.00  0.00     0.023 C 
ENDROOT
BRANCH   1   2
ATOM      2  C   UNL A   1      33.124  29.601  26.095  1.00  0.00     0.116 C 
BRANCH   2   3
ATOM      3  N   UNL A   1      33.278  29.703  24.660  1.00  0.00    -0.352 N 
ATOM      4  C   UNL A   1      32.879  28.900  23.622  1.00  0.00     0.254 C 
ATOM      5  O   UNL A   1      33.531  29.006  22.580  1.00  0.00    -0.269 OA
ATOM      6  H   UNL A   1      33.766  30.508  24.371  1.00  0.00     0.163 HD
BRANCH   4   7
ATOM      7  C   UNL A   1      31.719  27.957  23.610  1.00  0.00     0.078 A 
ATOM      8  C   UNL A   1      30.766  26.009  24.771  1.00  0.00     0.102 A 
ATOM      9  C   UNL A   1      29.492  26.396  24.344  1.00  0.00     0.025 A 
ATOM     10  C   UNL A   1      31.890  26.743  24.352  1.00  0.00     0.075 A 
ATOM     11  C   UNL A   1      29.331  27.476  23.501  1.00  0.00     0.023 A 
ATOM     12  Cl  UNL A   1      33.493  26.115  24.608  1.00  0.00    -0.082 Cl
ATOM     13  C   UNL A   1      30.418  28.298  23.197  1.00  0.00     0.055 A 
ATOM     14  Cl  UNL A   1      29.904  29.747  22.440  1.00  0.00    -0.083 Cl
BRANCH   8  15
ATOM     15  S   UNL A   1      30.777  24.791  26.076  1.00  0.00     0.244 S 
ATOM     16  O   UNL A   1      29.430  24.754  26.613  1.00  0.00    -0.207 OA
ATOM     17  O   UNL A   1      31.889  25.020  26.971  1.00  0.00    -0.207 OA
BRANCH  15  18
ATOM     18  N   UNL A   1      31.028  23.288  25.302  1.00  0.00    -0.197 NA
ATOM     19  C   UNL A   1      34.153  21.323  24.626  1.00  0.00     0.009 C 
ATOM     20  C   UNL A   1      33.171  22.482  24.568  1.00  0.00     0.005 C 
ATOM     21  C   UNL A   1      32.190  22.462  25.733  1.00  0.00     0.106 C 
ATOM     22  C   UNL A   1      32.228  22.458  23.370  1.00  0.00     0.005 C 
ATOM     23  C   UNL A   1      31.129  23.434  23.805  1.00  0.00     0.106 C 
ATOM     24  C   UNL A   1      32.903  22.868  22.069  1.00  0.00     0.009 C 
ENDBRANCH  15  18
ENDBRANCH   8  15
ENDBRANCH   4   7
ENDBRANCH   2   3
ENDBRANCH   1   2
BRANCH   1  25
ATOM     25  C   UNL A   1      31.684  31.737  26.501  1.00  0.00     0.023 C 
BRANCH  25  26
ATOM     26  C   UNL A   1      32.798  32.441  27.251  1.00  0.00     0.116 C 
BRANCH  26  27
ATOM     27  N   UNL A   1      32.497  33.824  27.601  1.00  0.00    -0.352 N 
ATOM     28  C   UNL A   1      33.132  34.626  28.520  1.00  0.00     0.251 C 
ATOM     29  H   UNL A   1      31.745  34.235  27.118  1.00  0.00     0.163 HD
ATOM     30  O   UNL A   1      32.730  35.760  28.751  1.00  0.00    -0.269 OA
BRANCH  28  31
ATOM     31  C   UNL A   1      34.276  34.071  29.265  1.00  0.00     0.039 A 
ATOM     32  C   UNL A   1      34.028  33.265  30.377  1.00  0.00     0.014 A 
ATOM     33  C   UNL A   1      35.580  34.271  28.804  1.00  0.00     0.014 A 
ATOM     34  C   UNL A   1      35.087  32.591  30.982  1.00  0.00     0.010 A 
ATOM     35  C   UNL A   1      36.618  33.531  29.350  1.00  0.00     0.010 A 
ATOM     36  C   UNL A   1      36.380  32.685  30.444  1.00  0.00    -0.014 A 
BRANCH  36  37
ATOM     37  C   UNL A   1      37.510  31.913  31.012  1.00  0.00     0.031 A 
ATOM     38  C   UNL A   1      37.991  32.213  32.402  1.00  0.00     0.074 A 
ATOM     39  C   UNL A   1      38.148  31.007  30.248  1.00  0.00     0.049 A 
ATOM     40  N   UNL A   1      39.010  31.711  33.049  1.00  0.00    -0.248 NA
ATOM     41  C   UNL A   1      37.250  33.242  33.150  1.00  0.00     0.031 C 
ATOM     42  C   UNL A   1      37.811  30.676  28.862  1.00  0.00     0.029 A 
ATOM     43  N   UNL A   1      39.224  30.205  30.529  1.00  0.00    -0.354 N 
ATOM     44  C   UNL A   1      39.045  32.376  34.267  1.00  0.00     0.074 A 
ATOM     45  C   UNL A   1      37.980  33.355  34.248  1.00  0.00     0.031 C 
ATOM     46  C   UNL A   1      38.648  29.722  28.422  1.00  0.00     0.029 A 
ATOM     47  C   UNL A   1      39.599  29.399  29.481  1.00  0.00     0.049 A 
ATOM     48  H   UNL A   1      39.685  30.207  31.399  1.00  0.00     0.167 HD
ATOM     49  C   UNL A   1      39.871  32.169  35.319  1.00  0.00     0.037 A 
ATOM     50  C   UNL A   1      40.598  28.502  29.389  1.00  0.00     0.037 A 
ATOM     51  C   UNL A   1      40.903  31.169  35.346  1.00  0.00     0.049 A 
ATOM     52  C   UNL A   1      41.487  28.273  30.579  1.00  0.00     0.074 A 
ATOM     53  C   UNL A   1      41.747  30.827  36.388  1.00  0.00     0.029 A 
ATOM     54  N   UNL A   1      41.230  30.345  34.278  1.00  0.00    -0.354 N 
ATOM     55  N   UNL A   1      41.462  28.855  31.753  1.00  0.00    -0.248 NA
ATOM     56  C   UNL A   1      42.539  27.258  30.432  1.00  0.00     0.031 C 
ATOM     57  C   UNL A   1      42.607  29.820  35.939  1.00  0.00     0.029 A 
ATOM     58  C   UNL A   1      42.274  29.508  34.630  1.00  0.00     0.049 A 
ATOM     59  H   UNL A   1      40.784  30.356  33.400  1.00  0.00     0.167 HD
ATOM     60  C   UNL A   1      42.476  28.262  32.493  1.00  0.00     0.074 A 
ATOM     61  C   UNL A   1      43.089  27.266  31.639  1.00  0.00     0.031 C 
ATOM     62  C   UNL A   1      42.864  28.519  33.766  1.00  0.00     0.037 A 
BRANCH  49  63
ATOM     63  C   UNL A   1      39.679  33.041  36.524  1.00  0.00     0.057 A 
ATOM     64  C   UNL A   1      40.416  34.218  36.707  1.00  0.00     0.134 A 
ATOM     65  C   UNL A   1      38.740  32.705  37.508  1.00  0.00     0.134 A 
ATOM     66  F   UNL A   1      41.343  34.587  35.810  1.00  0.00    -0.206 F 
ATOM     67  C   UNL A   1      40.248  35.016  37.841  1.00  0.00     0.040 A 
ATOM     68  C   UNL A   1      38.545  33.509  38.632  1.00  0.00     0.040 A 
ATOM     69  F   UNL A   1      38.000  31.593  37.394  1.00  0.00    -0.206 F 
ATOM     70  C   UNL A   1      39.307  34.664  38.804  1.00  0.00     0.006 A 
ENDBRANCH  49  63
BRANCH  50  71
ATOM     71  C   UNL A   1      40.784  27.728  28.138  1.00  0.00     0.057 A 
ATOM     72  C   UNL A   1      41.580  28.222  27.098  1.00  0.00     0.134 A 
ATOM     73  C   UNL A   1      40.181  26.479  27.952  1.00  0.00     0.134 A 
ATOM     74  F   UNL A   1      42.170  29.422  27.212  1.00  0.00    -0.206 F 
ATOM     75  C   UNL A   1      41.757  27.511  25.911  1.00  0.00     0.040 A 
ATOM     76  C   UNL A   1      40.367  25.746  26.779  1.00  0.00     0.040 A 
ATOM     77  F   UNL A   1      39.414  25.948  28.914  1.00  0.00    -0.206 F 
ATOM     78  C   UNL A   1      41.153  26.265  25.751  1.00  0.00     0.006 A 
ENDBRANCH  50  71
BRANCH  62  79
ATOM     79  C   UNL A   1      43.985  27.691  34.318  1.00  0.00     0.057 A 
ATOM     80  C   UNL A   1      45.314  28.131  34.283  1.00  0.00     0.134 A 
ATOM     81  C   UNL A   1      43.724  26.459  34.932  1.00  0.00     0.134 A 
ATOM     82  F   UNL A   1      45.629  29.297  33.697  1.00  0.00    -0.206 F 
ATOM     83  C   UNL A   1      46.348  27.366  34.824  1.00  0.00     0.040 A 
ATOM     84  C   UNL A   1      44.747  25.696  35.497  1.00  0.00     0.040 A 
ATOM     85  F   UNL A   1      42.472  25.986  35.005  1.00  0.00    -0.206 F 
ATOM     86  C   UNL A   1      46.064  26.148  35.439  1.00  0.00     0.006 A 
ENDBRANCH  62  79
ENDBRANCH  36  37
ENDBRANCH  28  31
ENDBRANCH  26  27
ENDBRANCH  25  26
ENDBRANCH   1  25
TORSDOF 13
ENDMDL
