MODEL 1
REMARK VINA RESULT:     -12.7      0.000      0.000
REMARK SMILES O=C(NCCCCNC(=O)[C@H]1CC[C@@H]2CCCC[C@H]2N1C(=O)Cn1cnnn1)c1ccc(-c2c3nc(c(-c4c(F)cccc4F)c4ccc([nH]4)c(-c4c(F)cccc4F)c4nc(c(-c5c(F)cccc5F)c5ccc2[nH]5)C=C4)C=C3)cc1
REMARK SMILES IDX 6 1 5 2 4 3 3 4 1 5 2 6 29 8 30 9 82 10 31 11 81 12 32 13
REMARK SMILES IDX 33 14 34 15 75 16 35 17 80 18 74 19 76 20 36 21 79 22 73 23
REMARK SMILES IDX 72 24 37 26 63 27 46 28 62 29 47 30 50 31 61 32 77 33 48 34
REMARK SMILES IDX 49 35 60 37 78 38 51 39 38 40 39 41 44 42 40 43 41 44 43 45
REMARK SMILES IDX 45 46 42 47 64 48 65 49 70 50 66 51 67 52 69 53 71 54 68 55
REMARK SMILES IDX 52 56 53 57 58 58 54 59 55 60 57 61 59 62 56 63 7 64 8 65
REMARK SMILES IDX 9 66 10 68 11 69 12 70 20 71 13 72 19 73 14 74 18 75 15 76
REMARK SMILES IDX 17 77 16 78 21 79 22 80 23 81 24 82 25 83 28 84 26 85 27 86
REMARK H PARENT 3 7 76 25 50 36 8 67
REMARK Flexibility Score: inf
ROOT
ATOM      1  C   UNL A   1      31.556  27.493  27.331  1.00  0.00     0.023 C 
ENDROOT
BRANCH   1   2
ATOM      2  C   UNL A   1      31.770  29.005  27.149  1.00  0.00     0.023 C 
BRANCH   2   3
ATOM      3  C   UNL A   1      33.220  29.486  27.112  1.00  0.00     0.116 C 
BRANCH   3   4
ATOM      4  N   UNL A   1      33.422  30.838  27.588  1.00  0.00    -0.352 N 
ATOM      5  O   UNL A   1      34.295  32.758  28.232  1.00  0.00    -0.269 OA
ATOM      6  C   UNL A   1      34.502  31.558  28.018  1.00  0.00     0.251 C 
ATOM      7  H   UNL A   1      32.588  31.360  27.606  1.00  0.00     0.163 HD
BRANCH   6   8
ATOM      8  C   UNL A   1      35.864  31.014  28.285  1.00  0.00     0.039 A 
ATOM      9  C   UNL A   1      36.916  31.701  28.889  1.00  0.00     0.014 A 
ATOM     10  C   UNL A   1      36.077  29.672  27.906  1.00  0.00     0.014 A 
ATOM     11  C   UNL A   1      38.157  31.083  29.066  1.00  0.00     0.010 A 
ATOM     12  C   UNL A   1      37.309  29.045  28.093  1.00  0.00     0.010 A 
ATOM     13  C   UNL A   1      38.359  29.757  28.663  1.00  0.00    -0.014 A 
BRANCH  13  14
ATOM     14  C   UNL A   1      39.639  29.125  28.990  1.00  0.00     0.031 A 
ATOM     15  C   UNL A   1      39.978  29.045  30.441  1.00  0.00     0.074 A 
ATOM     16  C   UNL A   1      40.444  28.489  28.114  1.00  0.00     0.049 A 
ATOM     17  N   UNL A   1      40.987  29.571  31.059  1.00  0.00    -0.248 NA
ATOM     18  C   UNL A   1      39.055  28.312  31.318  1.00  0.00     0.031 C 
ATOM     19  C   UNL A   1      40.167  28.136  26.722  1.00  0.00     0.029 A 
ATOM     20  N   UNL A   1      41.676  27.941  28.339  1.00  0.00    -0.354 N 
ATOM     21  C   UNL A   1      40.921  29.114  32.374  1.00  0.00     0.074 A 
ATOM     22  C   UNL A   1      39.662  28.422  32.501  1.00  0.00     0.031 C 
ATOM     23  C   UNL A   1      41.115  27.273  26.288  1.00  0.00     0.029 A 
ATOM     24  C   UNL A   1      42.127  27.114  27.321  1.00  0.00     0.049 A 
ATOM     25  H   UNL A   1      42.199  28.117  29.155  1.00  0.00     0.167 HD
ATOM     26  C   UNL A   1      41.979  29.191  33.228  1.00  0.00     0.037 A 
ATOM     27  C   UNL A   1      43.227  26.323  27.340  1.00  0.00     0.037 A 
ATOM     28  C   UNL A   1      42.982  30.110  32.765  1.00  0.00     0.049 A 
ATOM     29  C   UNL A   1      44.134  26.809  28.407  1.00  0.00     0.074 A 
ATOM     30  C   UNL A   1      43.018  31.457  32.466  1.00  0.00     0.029 A 
ATOM     31  N   UNL A   1      44.151  29.593  32.267  1.00  0.00    -0.354 N 
ATOM     32  N   UNL A   1      44.833  27.905  28.345  1.00  0.00    -0.248 NA
ATOM     33  C   UNL A   1      44.025  26.213  29.731  1.00  0.00     0.031 C 
ATOM     34  C   UNL A   1      43.951  31.576  31.396  1.00  0.00     0.029 A 
ATOM     35  C   UNL A   1      44.437  30.296  31.127  1.00  0.00     0.049 A 
ATOM     36  H   UNL A   1      44.682  28.859  32.654  1.00  0.00     0.167 HD
ATOM     37  C   UNL A   1      44.886  28.361  29.652  1.00  0.00     0.074 A 
ATOM     38  C   UNL A   1      44.496  27.219  30.469  1.00  0.00     0.031 C 
ATOM     39  C   UNL A   1      44.968  29.695  29.928  1.00  0.00     0.037 A 
BRANCH  26  40
ATOM     40  C   UNL A   1      42.265  28.210  34.338  1.00  0.00     0.057 A 
ATOM     41  C   UNL A   1      42.693  26.906  34.024  1.00  0.00     0.134 A 
ATOM     42  C   UNL A   1      41.855  28.402  35.672  1.00  0.00     0.134 A 
ATOM     43  F   UNL A   1      43.086  26.592  32.780  1.00  0.00    -0.206 F 
ATOM     44  C   UNL A   1      42.650  25.857  34.950  1.00  0.00     0.040 A 
ATOM     45  C   UNL A   1      41.858  27.373  36.619  1.00  0.00     0.040 A 
ATOM     46  F   UNL A   1      41.338  29.563  36.096  1.00  0.00    -0.206 F 
ATOM     47  C   UNL A   1      42.226  26.087  36.252  1.00  0.00     0.006 A 
ENDBRANCH  26  40
BRANCH  27  48
ATOM     48  C   UNL A   1      43.489  25.053  26.629  1.00  0.00     0.057 A 
ATOM     49  C   UNL A   1      42.798  23.877  26.960  1.00  0.00     0.134 A 
ATOM     50  C   UNL A   1      44.220  25.022  25.431  1.00  0.00     0.134 A 
ATOM     51  F   UNL A   1      42.039  23.817  28.064  1.00  0.00    -0.206 F 
ATOM     52  C   UNL A   1      42.815  22.745  26.135  1.00  0.00     0.040 A 
ATOM     53  C   UNL A   1      44.255  23.895  24.603  1.00  0.00     0.040 A 
ATOM     54  F   UNL A   1      44.856  26.113  24.979  1.00  0.00    -0.206 F 
ATOM     55  C   UNL A   1      43.537  22.756  24.946  1.00  0.00     0.006 A 
ENDBRANCH  27  48
BRANCH  39  56
ATOM     56  C   UNL A   1      45.351  30.625  28.815  1.00  0.00     0.057 A 
ATOM     57  C   UNL A   1      44.453  31.117  27.856  1.00  0.00     0.134 A 
ATOM     58  C   UNL A   1      46.651  31.146  28.793  1.00  0.00     0.134 A 
ATOM     59  F   UNL A   1      43.161  30.760  27.866  1.00  0.00    -0.206 F 
ATOM     60  C   UNL A   1      44.849  32.041  26.886  1.00  0.00     0.040 A 
ATOM     61  C   UNL A   1      47.048  32.099  27.853  1.00  0.00     0.040 A 
ATOM     62  F   UNL A   1      47.548  30.767  29.718  1.00  0.00    -0.206 F 
ATOM     63  C   UNL A   1      46.149  32.540  26.886  1.00  0.00     0.006 A 
ENDBRANCH  39  56
ENDBRANCH  13  14
ENDBRANCH   6   8
ENDBRANCH   3   4
ENDBRANCH   2   3
ENDBRANCH   1   2
BRANCH   1  64
ATOM     64  C   UNL A   1      31.014  26.712  26.131  1.00  0.00     0.116 C 
BRANCH  64  65
ATOM     65  N   UNL A   1      30.510  25.407  26.500  1.00  0.00    -0.354 N 
ATOM     66  C   UNL A   1      31.148  24.232  26.737  1.00  0.00     0.242 C 
ATOM     67  H   UNL A   1      29.531  25.362  26.597  1.00  0.00     0.163 HD
ATOM     68  O   UNL A   1      30.442  23.355  27.240  1.00  0.00    -0.273 OA
BRANCH  66  69
ATOM     69  C   UNL A   1      32.608  23.967  26.298  1.00  0.00     0.174 C 
ATOM     70  C   UNL A   1      33.133  22.908  27.289  1.00  0.00     0.036 C 
ATOM     71  N   UNL A   1      32.994  23.565  24.897  1.00  0.00    -0.326 N 
ATOM     72  C   UNL A   1      34.636  22.720  27.174  1.00  0.00     0.008 C 
ATOM     73  C   UNL A   1      34.489  23.393  24.730  1.00  0.00     0.089 C 
ATOM     74  C   UNL A   1      35.021  22.341  25.744  1.00  0.00     0.012 C 
ATOM     75  C   UNL A   1      35.037  23.054  23.322  1.00  0.00     0.025 C 
ATOM     76  C   UNL A   1      36.546  22.160  25.673  1.00  0.00     0.006 C 
ATOM     77  C   UNL A   1      36.554  22.877  23.282  1.00  0.00     0.002 C 
ATOM     78  C   UNL A   1      37.016  21.817  24.269  1.00  0.00     0.000 C 
BRANCH  71  79
ATOM     79  C   UNL A   1      32.126  23.323  23.827  1.00  0.00     0.245 C 
ATOM     80  O   UNL A   1      31.962  22.192  23.352  1.00  0.00    -0.273 OA
BRANCH  79  81
ATOM     81  C   UNL A   1      31.376  24.420  23.111  1.00  0.00     0.248 C 
BRANCH  81  82
ATOM     82  N   UNL A   1      32.206  25.436  22.518  1.00  0.00    -0.223 N 
ATOM     83  C   UNL A   1      32.286  26.742  22.896  1.00  0.00     0.246 A 
ATOM     84  N   UNL A   1      33.043  25.211  21.494  1.00  0.00    -0.045 NA
ATOM     85  N   UNL A   1      33.143  27.351  22.111  1.00  0.00    -0.117 NA
ATOM     86  N   UNL A   1      33.596  26.390  21.237  1.00  0.00    -0.024 NA
ENDBRANCH  81  82
ENDBRANCH  79  81
ENDBRANCH  71  79
ENDBRANCH  66  69
ENDBRANCH  64  65
ENDBRANCH   1  64
TORSDOF 14
ENDMDL
MODEL 2
REMARK VINA RESULT:     -12.5      2.554      7.610
REMARK SMILES O=C(NCCCCNC(=O)[C@H]1CC[C@@H]2CCCC[C@H]2N1C(=O)Cn1cnnn1)c1ccc(-c2c3nc(c(-c4c(F)cccc4F)c4ccc([nH]4)c(-c4c(F)cccc4F)c4nc(c(-c5c(F)cccc5F)c5ccc2[nH]5)C=C4)C=C3)cc1
REMARK SMILES IDX 6 1 5 2 4 3 3 4 1 5 2 6 29 8 30 9 82 10 31 11 81 12 32 13
REMARK SMILES IDX 33 14 34 15 75 16 35 17 80 18 74 19 76 20 36 21 79 22 73 23
REMARK SMILES IDX 72 24 37 26 63 27 46 28 62 29 47 30 50 31 61 32 77 33 48 34
REMARK SMILES IDX 49 35 60 37 78 38 51 39 38 40 39 41 44 42 40 43 41 44 43 45
REMARK SMILES IDX 45 46 42 47 64 48 65 49 70 50 66 51 67 52 69 53 71 54 68 55
REMARK SMILES IDX 52 56 53 57 58 58 54 59 55 60 57 61 59 62 56 63 7 64 8 65
REMARK SMILES IDX 9 66 10 68 11 69 12 70 20 71 13 72 19 73 14 74 18 75 15 76
REMARK SMILES IDX 17 77 16 78 21 79 22 80 23 81 24 82 25 83 28 84 26 85 27 86
REMARK H PARENT 3 7 76 25 50 36 8 67
REMARK Flexibility Score: inf
ROOT
ATOM      1  C   UNL A   1      36.220  23.048  23.624  1.00  0.00     0.023 C 
ENDROOT
BRANCH   1   2
ATOM      2  C   UNL A   1      37.020  21.915  24.288  1.00  0.00     0.023 C 
BRANCH   2   3
ATOM      3  C   UNL A   1      37.642  22.230  25.648  1.00  0.00     0.116 C 
BRANCH   3   4
ATOM      4  N   UNL A   1      39.007  21.775  25.809  1.00  0.00    -0.352 N 
ATOM      5  O   UNL A   1      41.108  21.531  26.435  1.00  0.00    -0.269 OA
ATOM      6  C   UNL A   1      40.133  22.290  26.390  1.00  0.00     0.251 C 
ATOM      7  H   UNL A   1      39.160  20.890  25.407  1.00  0.00     0.163 HD
BRANCH   6   8
ATOM      8  C   UNL A   1      40.288  23.674  26.919  1.00  0.00     0.039 A 
ATOM      9  C   UNL A   1      39.573  24.796  26.501  1.00  0.00     0.014 A 
ATOM     10  C   UNL A   1      41.233  23.837  27.955  1.00  0.00     0.014 A 
ATOM     11  C   UNL A   1      39.827  26.049  27.065  1.00  0.00     0.010 A 
ATOM     12  C   UNL A   1      41.480  25.082  28.531  1.00  0.00     0.010 A 
ATOM     13  C   UNL A   1      40.784  26.197  28.076  1.00  0.00    -0.014 A 
BRANCH  13  14
ATOM     14  C   UNL A   1      40.915  27.508  28.715  1.00  0.00     0.031 A 
ATOM     15  C   UNL A   1      42.098  28.321  28.307  1.00  0.00     0.074 A 
ATOM     16  C   UNL A   1      39.992  28.086  29.510  1.00  0.00     0.049 A 
ATOM     17  N   UNL A   1      43.071  28.749  29.047  1.00  0.00    -0.248 NA
ATOM     18  C   UNL A   1      42.226  28.673  26.886  1.00  0.00     0.031 C 
ATOM     19  C   UNL A   1      38.622  27.647  29.775  1.00  0.00     0.029 A 
ATOM     20  N   UNL A   1      40.080  29.270  30.190  1.00  0.00    -0.354 N 
ATOM     21  C   UNL A   1      43.860  29.554  28.226  1.00  0.00     0.074 A 
ATOM     22  C   UNL A   1      43.348  29.395  26.887  1.00  0.00     0.031 C 
ATOM     23  C   UNL A   1      37.951  28.643  30.399  1.00  0.00     0.029 A 
ATOM     24  C   UNL A   1      38.872  29.731  30.690  1.00  0.00     0.049 A 
ATOM     25  H   UNL A   1      40.928  29.753  30.314  1.00  0.00     0.167 HD
ATOM     26  C   UNL A   1      44.778  30.428  28.725  1.00  0.00     0.037 A 
ATOM     27  C   UNL A   1      38.633  30.937  31.261  1.00  0.00     0.037 A 
ATOM     28  C   UNL A   1      45.101  30.147  30.097  1.00  0.00     0.049 A 
ATOM     29  C   UNL A   1      39.926  31.510  31.702  1.00  0.00     0.074 A 
ATOM     30  C   UNL A   1      45.630  29.071  30.782  1.00  0.00     0.029 A 
ATOM     31  N   UNL A   1      44.614  30.991  31.062  1.00  0.00    -0.354 N 
ATOM     32  N   UNL A   1      40.620  31.084  32.717  1.00  0.00    -0.248 NA
ATOM     33  C   UNL A   1      40.636  32.395  30.789  1.00  0.00     0.031 C 
ATOM     34  C   UNL A   1      45.000  29.097  32.059  1.00  0.00     0.029 A 
ATOM     35  C   UNL A   1      44.144  30.199  32.075  1.00  0.00     0.049 A 
ATOM     36  H   UNL A   1      44.603  31.976  31.032  1.00  0.00     0.167 HD
ATOM     37  C   UNL A   1      41.940  31.289  32.350  1.00  0.00     0.074 A 
ATOM     38  C   UNL A   1      41.883  32.216  31.227  1.00  0.00     0.031 C 
ATOM     39  C   UNL A   1      42.932  30.471  32.809  1.00  0.00     0.037 A 
BRANCH  26  40
ATOM     40  C   UNL A   1      45.166  31.734  28.078  1.00  0.00     0.057 A 
ATOM     41  C   UNL A   1      44.206  32.754  27.933  1.00  0.00     0.134 A 
ATOM     42  C   UNL A   1      46.349  31.913  27.335  1.00  0.00     0.134 A 
ATOM     43  F   UNL A   1      43.028  32.686  28.572  1.00  0.00    -0.206 F 
ATOM     44  C   UNL A   1      44.383  33.834  27.060  1.00  0.00     0.040 A 
ATOM     45  C   UNL A   1      46.558  33.016  26.500  1.00  0.00     0.040 A 
ATOM     46  F   UNL A   1      47.314  30.984  27.301  1.00  0.00    -0.206 F 
ATOM     47  C   UNL A   1      45.561  33.965  26.336  1.00  0.00     0.006 A 
ENDBRANCH  26  40
BRANCH  27  48
ATOM     48  C   UNL A   1      37.387  31.733  31.299  1.00  0.00     0.057 A 
ATOM     49  C   UNL A   1      36.793  32.214  30.122  1.00  0.00     0.134 A 
ATOM     50  C   UNL A   1      36.603  31.811  32.462  1.00  0.00     0.134 A 
ATOM     51  F   UNL A   1      37.444  32.148  28.951  1.00  0.00    -0.206 F 
ATOM     52  C   UNL A   1      35.487  32.719  30.098  1.00  0.00     0.040 A 
ATOM     53  C   UNL A   1      35.301  32.324  32.455  1.00  0.00     0.040 A 
ATOM     54  F   UNL A   1      37.041  31.313  33.627  1.00  0.00    -0.206 F 
ATOM     55  C   UNL A   1      34.733  32.765  31.266  1.00  0.00     0.006 A 
ENDBRANCH  27  48
BRANCH  39  56
ATOM     56  C   UNL A   1      42.629  29.579  33.976  1.00  0.00     0.057 A 
ATOM     57  C   UNL A   1      42.011  28.325  33.869  1.00  0.00     0.134 A 
ATOM     58  C   UNL A   1      43.103  29.947  35.242  1.00  0.00     0.134 A 
ATOM     59  F   UNL A   1      41.624  27.840  32.682  1.00  0.00    -0.206 F 
ATOM     60  C   UNL A   1      41.822  27.503  34.983  1.00  0.00     0.040 A 
ATOM     61  C   UNL A   1      42.955  29.118  36.355  1.00  0.00     0.040 A 
ATOM     62  F   UNL A   1      43.759  31.108  35.408  1.00  0.00    -0.206 F 
ATOM     63  C   UNL A   1      42.300  27.895  36.230  1.00  0.00     0.006 A 
ENDBRANCH  39  56
ENDBRANCH  13  14
ENDBRANCH   6   8
ENDBRANCH   3   4
ENDBRANCH   2   3
ENDBRANCH   1   2
BRANCH   1  64
ATOM     64  C   UNL A   1      34.695  23.003  23.761  1.00  0.00     0.116 C 
BRANCH  64  65
ATOM     65  N   UNL A   1      34.021  23.637  22.648  1.00  0.00    -0.354 N 
ATOM     66  C   UNL A   1      33.647  24.925  22.441  1.00  0.00     0.242 C 
ATOM     67  H   UNL A   1      33.792  23.026  21.911  1.00  0.00     0.163 HD
ATOM     68  O   UNL A   1      33.279  25.176  21.291  1.00  0.00    -0.273 OA
BRANCH  66  69
ATOM     69  C   UNL A   1      33.568  25.970  23.580  1.00  0.00     0.174 C 
ATOM     70  C   UNL A   1      33.794  27.330  22.887  1.00  0.00     0.036 C 
ATOM     71  N   UNL A   1      32.396  26.085  24.521  1.00  0.00    -0.326 N 
ATOM     72  C   UNL A   1      34.013  28.448  23.891  1.00  0.00     0.008 C 
ATOM     73  C   UNL A   1      32.584  27.172  25.558  1.00  0.00     0.089 C 
ATOM     74  C   UNL A   1      32.833  28.538  24.859  1.00  0.00     0.012 C 
ATOM     75  C   UNL A   1      31.491  27.355  26.639  1.00  0.00     0.025 C 
ATOM     76  C   UNL A   1      33.096  29.681  25.853  1.00  0.00     0.006 C 
ATOM     77  C   UNL A   1      31.776  28.498  27.612  1.00  0.00     0.002 C 
ATOM     78  C   UNL A   1      31.980  29.813  26.878  1.00  0.00     0.000 C 
BRANCH  71  79
ATOM     79  C   UNL A   1      31.215  25.335  24.483  1.00  0.00     0.245 C 
ATOM     80  O   UNL A   1      31.043  24.339  25.198  1.00  0.00    -0.273 OA
BRANCH  79  81
ATOM     81  C   UNL A   1      30.087  25.623  23.523  1.00  0.00     0.248 C 
BRANCH  81  82
ATOM     82  N   UNL A   1      29.982  26.997  23.105  1.00  0.00    -0.223 N 
ATOM     83  C   UNL A   1      29.256  27.977  23.711  1.00  0.00     0.246 A 
ATOM     84  N   UNL A   1      30.619  27.503  22.039  1.00  0.00    -0.045 NA
ATOM     85  N   UNL A   1      29.406  29.088  23.030  1.00  0.00    -0.117 NA
ATOM     86  N   UNL A   1      30.246  28.776  21.987  1.00  0.00    -0.024 NA
ENDBRANCH  81  82
ENDBRANCH  79  81
ENDBRANCH  71  79
ENDBRANCH  66  69
ENDBRANCH  64  65
ENDBRANCH   1  64
TORSDOF 14
ENDMDL
MODEL 3
REMARK VINA RESULT:     -12.5      1.051      2.003
REMARK SMILES O=C(NCCCCNC(=O)[C@H]1CC[C@@H]2CCCC[C@H]2N1C(=O)Cn1cnnn1)c1ccc(-c2c3nc(c(-c4c(F)cccc4F)c4ccc([nH]4)c(-c4c(F)cccc4F)c4nc(c(-c5c(F)cccc5F)c5ccc2[nH]5)C=C4)C=C3)cc1
REMARK SMILES IDX 6 1 5 2 4 3 3 4 1 5 2 6 29 8 30 9 82 10 31 11 81 12 32 13
REMARK SMILES IDX 33 14 34 15 75 16 35 17 80 18 74 19 76 20 36 21 79 22 73 23
REMARK SMILES IDX 72 24 37 26 63 27 46 28 62 29 47 30 50 31 61 32 77 33 48 34
REMARK SMILES IDX 49 35 60 37 78 38 51 39 38 40 39 41 44 42 40 43 41 44 43 45
REMARK SMILES IDX 45 46 42 47 64 48 65 49 70 50 66 51 67 52 69 53 71 54 68 55
REMARK SMILES IDX 52 56 53 57 58 58 54 59 55 60 57 61 59 62 56 63 7 64 8 65
REMARK SMILES IDX 9 66 10 68 11 69 12 70 20 71 13 72 19 73 14 74 18 75 15 76
REMARK SMILES IDX 17 77 16 78 21 79 22 80 23 81 24 82 25 83 28 84 26 85 27 86
REMARK H PARENT 3 7 76 25 50 36 8 67
REMARK Flexibility Score: inf
ROOT
ATOM      1  C   UNL A   1      32.441  27.638  26.901  1.00  0.00     0.023 C 
ENDROOT
BRANCH   1   2
ATOM      2  C   UNL A   1      32.225  29.120  27.250  1.00  0.00     0.023 C 
BRANCH   2   3
ATOM      3  C   UNL A   1      33.138  30.123  26.547  1.00  0.00     0.116 C 
BRANCH   3   4
ATOM      4  N   UNL A   1      33.410  31.327  27.301  1.00  0.00    -0.352 N 
ATOM      5  O   UNL A   1      34.376  32.968  28.414  1.00  0.00    -0.269 OA
ATOM      6  C   UNL A   1      34.486  31.811  27.993  1.00  0.00     0.251 C 
ATOM      7  H   UNL A   1      32.641  31.941  27.321  1.00  0.00     0.163 HD
BRANCH   6   8
ATOM      8  C   UNL A   1      35.731  31.056  28.310  1.00  0.00     0.039 A 
ATOM      9  C   UNL A   1      35.916  29.682  28.161  1.00  0.00     0.014 A 
ATOM     10  C   UNL A   1      36.816  31.826  28.779  1.00  0.00     0.014 A 
ATOM     11  C   UNL A   1      37.131  29.089  28.515  1.00  0.00     0.010 A 
ATOM     12  C   UNL A   1      38.035  31.241  29.120  1.00  0.00     0.010 A 
ATOM     13  C   UNL A   1      38.191  29.864  29.001  1.00  0.00    -0.014 A 
BRANCH  13  14
ATOM     14  C   UNL A   1      39.477  29.204  29.233  1.00  0.00     0.031 A 
ATOM     15  C   UNL A   1      39.881  29.041  30.661  1.00  0.00     0.074 A 
ATOM     16  C   UNL A   1      40.236  28.614  28.288  1.00  0.00     0.049 A 
ATOM     17  N   UNL A   1      40.922  29.524  31.261  1.00  0.00    -0.248 NA
ATOM     18  C   UNL A   1      38.991  28.265  31.537  1.00  0.00     0.031 C 
ATOM     19  C   UNL A   1      39.893  28.341  26.892  1.00  0.00     0.029 A 
ATOM     20  N   UNL A   1      41.472  28.045  28.426  1.00  0.00    -0.354 N 
ATOM     21  C   UNL A   1      40.911  28.993  32.550  1.00  0.00     0.074 A 
ATOM     22  C   UNL A   1      39.652  28.304  32.695  1.00  0.00     0.031 C 
ATOM     23  C   UNL A   1      40.812  27.497  26.368  1.00  0.00     0.029 A 
ATOM     24  C   UNL A   1      41.868  27.274  27.343  1.00  0.00     0.049 A 
ATOM     25  H   UNL A   1      42.032  28.171  29.225  1.00  0.00     0.167 HD
ATOM     26  C   UNL A   1      42.006  29.014  33.358  1.00  0.00     0.037 A 
ATOM     27  C   UNL A   1      42.961  26.475  27.268  1.00  0.00     0.037 A 
ATOM     28  C   UNL A   1      42.997  29.950  32.902  1.00  0.00     0.049 A 
ATOM     29  C   UNL A   1      43.919  26.893  28.318  1.00  0.00     0.074 A 
ATOM     30  C   UNL A   1      43.033  31.312  32.677  1.00  0.00     0.029 A 
ATOM     31  N   UNL A   1      44.137  29.454  32.323  1.00  0.00    -0.354 N 
ATOM     32  N   UNL A   1      44.625  27.986  28.286  1.00  0.00    -0.248 NA
ATOM     33  C   UNL A   1      43.864  26.224  29.610  1.00  0.00     0.031 C 
ATOM     34  C   UNL A   1      43.918  31.485  31.574  1.00  0.00     0.029 A 
ATOM     35  C   UNL A   1      44.378  30.218  31.212  1.00  0.00     0.049 A 
ATOM     36  H   UNL A   1      44.677  28.696  32.644  1.00  0.00     0.167 HD
ATOM     37  C   UNL A   1      44.741  28.367  29.612  1.00  0.00     0.074 A 
ATOM     38  C   UNL A   1      44.378  27.183  30.381  1.00  0.00     0.031 C 
ATOM     39  C   UNL A   1      44.849  29.683  29.959  1.00  0.00     0.037 A 
BRANCH  26  40
ATOM     40  C   UNL A   1      42.333  27.971  34.397  1.00  0.00     0.057 A 
ATOM     41  C   UNL A   1      42.791  26.702  33.992  1.00  0.00     0.134 A 
ATOM     42  C   UNL A   1      41.935  28.062  35.745  1.00  0.00     0.134 A 
ATOM     43  F   UNL A   1      43.177  26.482  32.725  1.00  0.00    -0.206 F 
ATOM     44  C   UNL A   1      42.788  25.593  34.846  1.00  0.00     0.040 A 
ATOM     45  C   UNL A   1      41.977  26.973  36.621  1.00  0.00     0.040 A 
ATOM     46  F   UNL A   1      41.392  29.178  36.251  1.00  0.00    -0.206 F 
ATOM     47  C   UNL A   1      42.375  25.725  36.166  1.00  0.00     0.006 A 
ENDBRANCH  26  40
BRANCH  27  48
ATOM     48  C   UNL A   1      43.177  25.245  26.475  1.00  0.00     0.057 A 
ATOM     49  C   UNL A   1      44.125  25.202  25.441  1.00  0.00     0.134 A 
ATOM     50  C   UNL A   1      42.657  24.007  26.886  1.00  0.00     0.134 A 
ATOM     51  F   UNL A   1      44.710  26.326  25.002  1.00  0.00    -0.206 F 
ATOM     52  C   UNL A   1      44.548  23.996  24.868  1.00  0.00     0.040 A 
ATOM     53  C   UNL A   1      43.063  22.797  26.315  1.00  0.00     0.040 A 
ATOM     54  F   UNL A   1      41.802  23.924  27.916  1.00  0.00    -0.206 F 
ATOM     55  C   UNL A   1      44.025  22.787  25.312  1.00  0.00     0.006 A 
ENDBRANCH  27  48
BRANCH  39  56
ATOM     56  C   UNL A   1      45.190  30.671  28.883  1.00  0.00     0.057 A 
ATOM     57  C   UNL A   1      44.260  31.199  27.975  1.00  0.00     0.134 A 
ATOM     58  C   UNL A   1      46.483  31.208  28.851  1.00  0.00     0.134 A 
ATOM     59  F   UNL A   1      42.973  30.827  28.003  1.00  0.00    -0.206 F 
ATOM     60  C   UNL A   1      44.619  32.175  27.042  1.00  0.00     0.040 A 
ATOM     61  C   UNL A   1      46.844  32.211  27.950  1.00  0.00     0.040 A 
ATOM     62  F   UNL A   1      47.410  30.794  29.731  1.00  0.00    -0.206 F 
ATOM     63  C   UNL A   1      45.913  32.689  27.030  1.00  0.00     0.006 A 
ENDBRANCH  39  56
ENDBRANCH  13  14
ENDBRANCH   6   8
ENDBRANCH   3   4
ENDBRANCH   2   3
ENDBRANCH   1   2
BRANCH   1  64
ATOM     64  C   UNL A   1      31.510  27.021  25.854  1.00  0.00     0.116 C 
BRANCH  64  65
ATOM     65  N   UNL A   1      30.863  25.816  26.328  1.00  0.00    -0.354 N 
ATOM     66  C   UNL A   1      31.368  24.609  26.689  1.00  0.00     0.242 C 
ATOM     67  H   UNL A   1      29.884  25.884  26.402  1.00  0.00     0.163 HD
ATOM     68  O   UNL A   1      30.563  23.862  27.251  1.00  0.00    -0.273 OA
BRANCH  66  69
ATOM     69  C   UNL A   1      32.799  24.151  26.316  1.00  0.00     0.174 C 
ATOM     70  C   UNL A   1      33.072  22.931  27.220  1.00  0.00     0.036 C 
ATOM     71  N   UNL A   1      33.226  23.827  24.908  1.00  0.00    -0.326 N 
ATOM     72  C   UNL A   1      34.531  22.512  27.180  1.00  0.00     0.008 C 
ATOM     73  C   UNL A   1      34.684  23.430  24.817  1.00  0.00     0.089 C 
ATOM     74  C   UNL A   1      34.964  22.214  25.744  1.00  0.00     0.012 C 
ATOM     75  C   UNL A   1      35.282  23.141  23.418  1.00  0.00     0.025 C 
ATOM     76  C   UNL A   1      36.443  21.793  25.750  1.00  0.00     0.006 C 
ATOM     77  C   UNL A   1      36.752  22.724  23.454  1.00  0.00     0.002 C 
ATOM     78  C   UNL A   1      36.963  21.514  24.349  1.00  0.00     0.000 C 
BRANCH  71  79
ATOM     79  C   UNL A   1      32.418  23.833  23.765  1.00  0.00     0.245 C 
ATOM     80  O   UNL A   1      32.396  24.788  22.978  1.00  0.00    -0.273 OA
BRANCH  79  81
ATOM     81  C   UNL A   1      31.454  22.721  23.433  1.00  0.00     0.248 C 
BRANCH  81  82
ATOM     82  N   UNL A   1      31.865  21.411  23.868  1.00  0.00    -0.223 N 
ATOM     83  C   UNL A   1      32.528  20.481  23.127  1.00  0.00     0.246 A 
ATOM     84  N   UNL A   1      31.650  20.934  25.103  1.00  0.00    -0.045 NA
ATOM     85  N   UNL A   1      32.715  19.414  23.868  1.00  0.00    -0.117 NA
ATOM     86  N   UNL A   1      32.153  19.706  25.090  1.00  0.00    -0.024 NA
ENDBRANCH  81  82
ENDBRANCH  79  81
ENDBRANCH  71  79
ENDBRANCH  66  69
ENDBRANCH  64  65
ENDBRANCH   1  64
TORSDOF 14
ENDMDL
