MODEL 1
REMARK VINA RESULT:     -11.6      0.000      0.000
REMARK SMILES CC1(C)CCCC[C@@]1(C(=O)NCCCCNC(=O)c1ccc(-c2c3nc(c(-c4c(F)cccc4F)c4ccc([nH]4)c(-c4c(F)cccc4F)c4nc(c(-c5c(F)cccc5F)c5ccc2[nH]5)C=C4)C=C3)cc1)[NH+]1CC[NH2+]CC1
REMARK SMILES IDX 14 1 13 2 12 3 11 4 9 5 10 6 8 8 1 9 2 10 3 11 4 12 5 13
REMARK SMILES IDX 7 14 6 15 73 16 74 17 78 18 75 20 77 21 76 22 15 25 16 26
REMARK SMILES IDX 17 27 18 29 19 30 20 31 72 32 21 33 71 34 22 35 23 36 24 37
REMARK SMILES IDX 65 38 25 39 70 40 64 41 66 42 26 43 69 44 63 45 62 46 27 48
REMARK SMILES IDX 53 49 36 50 52 51 37 52 40 53 51 54 67 55 38 56 39 57 50 59
REMARK SMILES IDX 68 60 41 61 28 62 29 63 34 64 30 65 31 66 33 67 35 68 32 69
REMARK SMILES IDX 54 70 55 71 60 72 56 73 57 74 59 75 61 76 58 77 42 78 43 79
REMARK SMILES IDX 48 80 44 81 45 82 47 83 49 84 46 85
REMARK H PARENT 11 7 73 19 76 23 76 24 16 28 66 47 40 58
REMARK Flexibility Score: inf
ROOT
ATOM      1  C   UNL A   1      37.374  21.618  24.629  1.00  0.00     0.023 C 
ENDROOT
BRANCH   1   2
ATOM      2  C   UNL A   1      36.796  23.029  24.529  1.00  0.00     0.023 C 
BRANCH   2   3
ATOM      3  C   UNL A   1      35.364  23.172  25.027  1.00  0.00     0.116 C 
BRANCH   3   4
ATOM      4  N   UNL A   1      34.985  24.523  25.361  1.00  0.00    -0.351 N 
ATOM      5  C   UNL A   1      33.840  25.235  25.183  1.00  0.00     0.281 C 
ATOM      6  O   UNL A   1      33.655  26.057  26.100  1.00  0.00    -0.268 OA
ATOM      7  H   UNL A   1      35.699  25.033  25.808  1.00  0.00     0.163 HD
BRANCH   5   8
ATOM      8  C   UNL A   1      32.806  25.161  23.919  1.00  0.00     0.182 C 
ATOM      9  C   UNL A   1      30.365  24.207  23.325  1.00  0.00     0.018 C 
ATOM     10  C   UNL A   1      31.560  24.223  24.324  1.00  0.00     0.029 C 
ATOM     11  C   UNL A   1      30.983  24.605  25.707  1.00  0.00     0.018 C 
ATOM     12  C   UNL A   1      32.020  22.748  24.390  1.00  0.00     0.013 C 
ATOM     13  C   UNL A   1      32.530  22.234  23.044  1.00  0.00     0.001 C 
ATOM     14  C   UNL A   1      33.482  24.642  22.615  1.00  0.00     0.080 C 
ATOM     15  C   UNL A   1      33.510  23.142  22.309  1.00  0.00     0.007 C 
BRANCH   8  16
ATOM     16  N   UNL A   1      32.462  26.650  23.709  1.00  0.00    -0.313 N 
ATOM     17  C   UNL A   1      31.239  27.008  22.976  1.00  0.00     0.325 C 
ATOM     18  C   UNL A   1      33.600  27.476  23.226  1.00  0.00     0.325 C 
ATOM     19  H   UNL A   1      32.240  26.884  24.677  1.00  0.00     0.349 HD
ATOM     20  C   UNL A   1      30.987  28.528  22.786  1.00  0.00     0.322 C 
ATOM     21  C   UNL A   1      33.277  28.987  23.160  1.00  0.00     0.322 C 
ATOM     22  N   UNL A   1      32.143  29.268  22.268  1.00  0.00    -0.337 N 
ATOM     23  H   UNL A   1      31.942  30.269  22.264  1.00  0.00     0.346 HD
ATOM     24  H   UNL A   1      32.355  28.984  21.311  1.00  0.00     0.346 HD
ENDBRANCH   8  16
ENDBRANCH   5   8
ENDBRANCH   3   4
ENDBRANCH   2   3
ENDBRANCH   1   2
BRANCH   1  25
ATOM     25  C   UNL A   1      38.419  21.396  25.723  1.00  0.00     0.116 C 
BRANCH  25  26
ATOM     26  N   UNL A   1      39.186  20.164  25.595  1.00  0.00    -0.352 N 
ATOM     27  C   UNL A   1      40.489  19.930  25.981  1.00  0.00     0.251 C 
ATOM     28  H   UNL A   1      38.715  19.405  25.182  1.00  0.00     0.163 HD
ATOM     29  O   UNL A   1      41.022  18.848  25.778  1.00  0.00    -0.269 OA
BRANCH  27  30
ATOM     30  C   UNL A   1      41.252  21.036  26.593  1.00  0.00     0.039 A 
ATOM     31  C   UNL A   1      41.906  21.946  25.758  1.00  0.00     0.014 A 
ATOM     32  C   UNL A   1      41.219  21.234  27.976  1.00  0.00     0.014 A 
ATOM     33  C   UNL A   1      42.432  23.118  26.302  1.00  0.00     0.010 A 
ATOM     34  C   UNL A   1      41.681  22.433  28.504  1.00  0.00     0.010 A 
ATOM     35  C   UNL A   1      42.269  23.398  27.669  1.00  0.00    -0.014 A 
BRANCH  35  36
ATOM     36  C   UNL A   1      42.656  24.712  28.239  1.00  0.00     0.031 A 
ATOM     37  C   UNL A   1      41.621  25.777  28.456  1.00  0.00     0.074 A 
ATOM     38  C   UNL A   1      43.958  24.979  28.462  1.00  0.00     0.049 A 
ATOM     39  N   UNL A   1      41.781  27.015  28.847  1.00  0.00    -0.248 NA
ATOM     40  C   UNL A   1      40.227  25.413  28.160  1.00  0.00     0.031 C 
ATOM     41  C   UNL A   1      45.069  24.056  28.221  1.00  0.00     0.029 A 
ATOM     42  N   UNL A   1      44.570  26.117  28.925  1.00  0.00    -0.354 N 
ATOM     43  C   UNL A   1      40.514  27.585  28.817  1.00  0.00     0.074 A 
ATOM     44  C   UNL A   1      39.605  26.570  28.329  1.00  0.00     0.031 C 
ATOM     45  C   UNL A   1      46.222  24.656  28.556  1.00  0.00     0.029 A 
ATOM     46  C   UNL A   1      45.937  26.015  29.004  1.00  0.00     0.049 A 
ATOM     47  H   UNL A   1      44.076  26.931  29.177  1.00  0.00     0.167 HD
ATOM     48  C   UNL A   1      40.141  28.833  29.183  1.00  0.00     0.037 A 
ATOM     49  C   UNL A   1      46.860  26.917  29.391  1.00  0.00     0.037 A 
ATOM     50  C   UNL A   1      41.037  29.826  29.710  1.00  0.00     0.049 A 
ATOM     51  C   UNL A   1      46.415  28.282  29.830  1.00  0.00     0.074 A 
ATOM     52  C   UNL A   1      40.739  31.085  30.200  1.00  0.00     0.029 A 
ATOM     53  N   UNL A   1      42.411  29.670  29.817  1.00  0.00    -0.354 N 
ATOM     54  N   UNL A   1      45.203  28.779  29.876  1.00  0.00    -0.248 NA
ATOM     55  C   UNL A   1      47.464  29.211  30.274  1.00  0.00     0.031 C 
ATOM     56  C   UNL A   1      41.937  31.703  30.575  1.00  0.00     0.029 A 
ATOM     57  C   UNL A   1      42.977  30.818  30.347  1.00  0.00     0.049 A 
ATOM     58  H   UNL A   1      42.910  28.863  29.554  1.00  0.00     0.167 HD
ATOM     59  C   UNL A   1      45.341  30.070  30.369  1.00  0.00     0.074 A 
ATOM     60  C   UNL A   1      46.753  30.274  30.620  1.00  0.00     0.031 C 
ATOM     61  C   UNL A   1      44.384  31.004  30.589  1.00  0.00     0.037 A 
BRANCH  48  62
ATOM     62  C   UNL A   1      38.691  29.187  29.032  1.00  0.00     0.057 A 
ATOM     63  C   UNL A   1      37.800  29.112  30.110  1.00  0.00     0.134 A 
ATOM     64  C   UNL A   1      38.187  29.624  27.803  1.00  0.00     0.134 A 
ATOM     65  F   UNL A   1      38.218  28.686  31.311  1.00  0.00    -0.206 F 
ATOM     66  C   UNL A   1      36.449  29.433  29.962  1.00  0.00     0.040 A 
ATOM     67  C   UNL A   1      36.844  29.971  27.648  1.00  0.00     0.040 A 
ATOM     68  F   UNL A   1      38.990  29.722  26.732  1.00  0.00    -0.206 F 
ATOM     69  C   UNL A   1      35.969  29.869  28.728  1.00  0.00     0.006 A 
ENDBRANCH  48  62
BRANCH  49  70
ATOM     70  C   UNL A   1      48.296  26.547  29.405  1.00  0.00     0.057 A 
ATOM     71  C   UNL A   1      48.859  25.894  30.507  1.00  0.00     0.134 A 
ATOM     72  C   UNL A   1      49.138  26.834  28.323  1.00  0.00     0.134 A 
ATOM     73  F   UNL A   1      48.105  25.610  31.579  1.00  0.00    -0.206 F 
ATOM     74  C   UNL A   1      50.210  25.550  30.541  1.00  0.00     0.040 A 
ATOM     75  C   UNL A   1      50.487  26.478  28.335  1.00  0.00     0.040 A 
ATOM     76  F   UNL A   1      48.656  27.452  27.236  1.00  0.00    -0.206 F 
ATOM     77  C   UNL A   1      51.028  25.839  29.450  1.00  0.00     0.006 A 
ENDBRANCH  49  70
BRANCH  61  78
ATOM     78  C   UNL A   1      44.830  32.323  31.143  1.00  0.00     0.057 A 
ATOM     79  C   UNL A   1      45.158  33.395  30.305  1.00  0.00     0.134 A 
ATOM     80  C   UNL A   1      44.892  32.533  32.526  1.00  0.00     0.134 A 
ATOM     81  F   UNL A   1      45.132  33.249  28.972  1.00  0.00    -0.206 F 
ATOM     82  C   UNL A   1      45.548  34.630  30.825  1.00  0.00     0.040 A 
ATOM     83  C   UNL A   1      45.260  33.770  33.057  1.00  0.00     0.040 A 
ATOM     84  F   UNL A   1      44.586  31.546  33.380  1.00  0.00    -0.206 F 
ATOM     85  C   UNL A   1      45.593  34.821  32.206  1.00  0.00     0.006 A 
ENDBRANCH  61  78
ENDBRANCH  35  36
ENDBRANCH  27  30
ENDBRANCH  25  26
ENDBRANCH   1  25
TORSDOF 12
ENDMDL
MODEL 2
REMARK VINA RESULT:     -11.6      4.336      8.976
REMARK SMILES CC1(C)CCCC[C@@]1(C(=O)NCCCCNC(=O)c1ccc(-c2c3nc(c(-c4c(F)cccc4F)c4ccc([nH]4)c(-c4c(F)cccc4F)c4nc(c(-c5c(F)cccc5F)c5ccc2[nH]5)C=C4)C=C3)cc1)[NH+]1CC[NH2+]CC1
REMARK SMILES IDX 14 1 13 2 12 3 11 4 9 5 10 6 8 8 1 9 2 10 3 11 4 12 5 13
REMARK SMILES IDX 7 14 6 15 73 16 74 17 78 18 75 20 77 21 76 22 15 25 16 26
REMARK SMILES IDX 17 27 18 29 19 30 20 31 72 32 21 33 71 34 22 35 23 36 24 37
REMARK SMILES IDX 65 38 25 39 70 40 64 41 66 42 26 43 69 44 63 45 62 46 27 48
REMARK SMILES IDX 53 49 36 50 52 51 37 52 40 53 51 54 67 55 38 56 39 57 50 59
REMARK SMILES IDX 68 60 41 61 28 62 29 63 34 64 30 65 31 66 33 67 35 68 32 69
REMARK SMILES IDX 54 70 55 71 60 72 56 73 57 74 59 75 61 76 58 77 42 78 43 79
REMARK SMILES IDX 48 80 44 81 45 82 47 83 49 84 46 85
REMARK H PARENT 11 7 73 19 76 23 76 24 16 28 66 47 40 58
REMARK Flexibility Score: inf
ROOT
ATOM      1  C   UNL A   1      31.397  31.982  27.025  1.00  0.00     0.023 C 
ENDROOT
BRANCH   1   2
ATOM      2  C   UNL A   1      31.889  30.577  26.685  1.00  0.00     0.023 C 
BRANCH   2   3
ATOM      3  C   UNL A   1      31.507  30.081  25.297  1.00  0.00     0.116 C 
BRANCH   3   4
ATOM      4  N   UNL A   1      32.561  29.379  24.607  1.00  0.00    -0.351 N 
ATOM      5  C   UNL A   1      32.573  28.565  23.518  1.00  0.00     0.281 C 
ATOM      6  O   UNL A   1      33.629  28.672  22.867  1.00  0.00    -0.268 OA
ATOM      7  H   UNL A   1      33.451  29.517  25.005  1.00  0.00     0.163 HD
BRANCH   5   8
ATOM      8  C   UNL A   1      31.434  27.481  23.071  1.00  0.00     0.182 C 
ATOM      9  C   UNL A   1      30.259  25.247  23.995  1.00  0.00     0.018 C 
ATOM     10  C   UNL A   1      31.426  26.270  24.134  1.00  0.00     0.029 C 
ATOM     11  C   UNL A   1      31.396  26.789  25.591  1.00  0.00     0.018 C 
ATOM     12  C   UNL A   1      32.703  25.416  23.959  1.00  0.00     0.013 C 
ATOM     13  C   UNL A   1      32.792  24.775  22.574  1.00  0.00     0.001 C 
ATOM     14  C   UNL A   1      31.648  26.939  21.626  1.00  0.00     0.080 C 
ATOM     15  C   UNL A   1      32.512  25.697  21.391  1.00  0.00     0.007 C 
BRANCH   8  16
ATOM     16  N   UNL A   1      30.160  28.351  23.062  1.00  0.00    -0.313 N 
ATOM     17  C   UNL A   1      28.845  27.700  23.143  1.00  0.00     0.325 C 
ATOM     18  C   UNL A   1      30.143  29.394  22.004  1.00  0.00     0.325 C 
ATOM     19  H   UNL A   1      30.274  28.780  23.981  1.00  0.00     0.349 HD
ATOM     20  C   UNL A   1      27.618  28.649  23.098  1.00  0.00     0.322 C 
ATOM     21  C   UNL A   1      28.929  30.347  22.101  1.00  0.00     0.322 C 
ATOM     22  N   UNL A   1      27.653  29.624  22.002  1.00  0.00    -0.337 N 
ATOM     23  H   UNL A   1      26.874  30.277  22.091  1.00  0.00     0.346 HD
ATOM     24  H   UNL A   1      27.571  29.156  21.099  1.00  0.00     0.346 HD
ENDBRANCH   8  16
ENDBRANCH   5   8
ENDBRANCH   3   4
ENDBRANCH   2   3
ENDBRANCH   1   2
BRANCH   1  25
ATOM     25  C   UNL A   1      32.381  33.122  26.760  1.00  0.00     0.116 C 
BRANCH  25  26
ATOM     26  N   UNL A   1      32.238  34.271  27.644  1.00  0.00    -0.352 N 
ATOM     27  C   UNL A   1      33.070  34.662  28.672  1.00  0.00     0.251 C 
ATOM     28  H   UNL A   1      31.450  34.839  27.487  1.00  0.00     0.163 HD
ATOM     29  O   UNL A   1      32.806  35.638  29.360  1.00  0.00    -0.269 OA
BRANCH  27  30
ATOM     30  C   UNL A   1      34.261  33.841  28.966  1.00  0.00     0.039 A 
ATOM     31  C   UNL A   1      35.527  34.392  28.753  1.00  0.00     0.014 A 
ATOM     32  C   UNL A   1      34.122  32.583  29.557  1.00  0.00     0.014 A 
ATOM     33  C   UNL A   1      36.654  33.727  29.239  1.00  0.00     0.010 A 
ATOM     34  C   UNL A   1      35.237  31.958  30.101  1.00  0.00     0.010 A 
ATOM     35  C   UNL A   1      36.510  32.536  29.969  1.00  0.00    -0.014 A 
BRANCH  35  36
ATOM     36  C   UNL A   1      37.668  31.904  30.649  1.00  0.00     0.031 A 
ATOM     37  C   UNL A   1      38.468  30.843  29.950  1.00  0.00     0.074 A 
ATOM     38  C   UNL A   1      37.932  32.214  31.933  1.00  0.00     0.049 A 
ATOM     39  N   UNL A   1      39.447  30.108  30.413  1.00  0.00    -0.248 NA
ATOM     40  C   UNL A   1      38.096  30.544  28.559  1.00  0.00     0.031 C 
ATOM     41  C   UNL A   1      37.184  33.174  32.747  1.00  0.00     0.029 A 
ATOM     42  N   UNL A   1      38.896  31.737  32.787  1.00  0.00    -0.354 N 
ATOM     43  C   UNL A   1      39.787  29.242  29.383  1.00  0.00     0.074 A 
ATOM     44  C   UNL A   1      38.883  29.514  28.286  1.00  0.00     0.031 C 
ATOM     45  C   UNL A   1      37.726  33.228  33.974  1.00  0.00     0.029 A 
ATOM     46  C   UNL A   1      38.839  32.288  34.044  1.00  0.00     0.049 A 
ATOM     47  H   UNL A   1      39.565  31.064  32.524  1.00  0.00     0.167 HD
ATOM     48  C   UNL A   1      40.776  28.319  29.346  1.00  0.00     0.037 A 
ATOM     49  C   UNL A   1      39.597  32.057  35.134  1.00  0.00     0.037 A 
ATOM     50  C   UNL A   1      41.702  28.080  30.420  1.00  0.00     0.049 A 
ATOM     51  C   UNL A   1      40.714  31.057  35.055  1.00  0.00     0.074 A 
ATOM     52  C   UNL A   1      42.798  27.236  30.443  1.00  0.00     0.029 A 
ATOM     53  N   UNL A   1      41.640  28.690  31.664  1.00  0.00    -0.354 N 
ATOM     54  N   UNL A   1      41.077  30.305  34.045  1.00  0.00    -0.248 NA
ATOM     55  C   UNL A   1      41.527  30.874  36.265  1.00  0.00     0.031 C 
ATOM     56  C   UNL A   1      43.381  27.313  31.712  1.00  0.00     0.029 A 
ATOM     57  C   UNL A   1      42.667  28.226  32.469  1.00  0.00     0.049 A 
ATOM     58  H   UNL A   1      40.965  29.353  31.935  1.00  0.00     0.167 HD
ATOM     59  C   UNL A   1      42.170  29.574  34.491  1.00  0.00     0.074 A 
ATOM     60  C   UNL A   1      42.419  29.982  35.858  1.00  0.00     0.031 C 
ATOM     61  C   UNL A   1      42.899  28.644  33.827  1.00  0.00     0.037 A 
BRANCH  48  62
ATOM     62  C   UNL A   1      40.909  27.504  28.094  1.00  0.00     0.057 A 
ATOM     63  C   UNL A   1      41.697  27.933  27.018  1.00  0.00     0.134 A 
ATOM     64  C   UNL A   1      40.258  26.272  27.970  1.00  0.00     0.134 A 
ATOM     65  F   UNL A   1      42.334  29.112  27.069  1.00  0.00    -0.206 F 
ATOM     66  C   UNL A   1      41.809  27.177  25.850  1.00  0.00     0.040 A 
ATOM     67  C   UNL A   1      40.382  25.495  26.817  1.00  0.00     0.040 A 
ATOM     68  F   UNL A   1      39.492  25.803  28.966  1.00  0.00    -0.206 F 
ATOM     69  C   UNL A   1      41.154  25.951  25.750  1.00  0.00     0.006 A 
ENDBRANCH  48  62
BRANCH  49  70
ATOM     70  C   UNL A   1      39.340  32.809  36.386  1.00  0.00     0.057 A 
ATOM     71  C   UNL A   1      38.438  32.327  37.341  1.00  0.00     0.134 A 
ATOM     72  C   UNL A   1      39.985  34.021  36.659  1.00  0.00     0.134 A 
ATOM     73  F   UNL A   1      37.777  31.180  37.126  1.00  0.00    -0.206 F 
ATOM     74  C   UNL A   1      38.176  33.028  38.518  1.00  0.00     0.040 A 
ATOM     75  C   UNL A   1      39.747  34.723  37.841  1.00  0.00     0.040 A 
ATOM     76  F   UNL A   1      40.865  34.531  35.786  1.00  0.00    -0.206 F 
ATOM     77  C   UNL A   1      38.835  34.229  38.772  1.00  0.00     0.006 A 
ENDBRANCH  49  70
BRANCH  61  78
ATOM     78  C   UNL A   1      44.043  28.018  34.566  1.00  0.00     0.057 A 
ATOM     79  C   UNL A   1      43.893  26.814  35.264  1.00  0.00     0.134 A 
ATOM     80  C   UNL A   1      45.314  28.604  34.544  1.00  0.00     0.134 A 
ATOM     81  F   UNL A   1      42.695  26.213  35.334  1.00  0.00    -0.206 F 
ATOM     82  C   UNL A   1      44.967  26.220  35.929  1.00  0.00     0.040 A 
ATOM     83  C   UNL A   1      46.400  28.008  35.187  1.00  0.00     0.040 A 
ATOM     84  F   UNL A   1      45.523  29.755  33.888  1.00  0.00    -0.206 F 
ATOM     85  C   UNL A   1      46.227  26.816  35.885  1.00  0.00     0.006 A 
ENDBRANCH  61  78
ENDBRANCH  35  36
ENDBRANCH  27  30
ENDBRANCH  25  26
ENDBRANCH   1  25
TORSDOF 12
ENDMDL
MODEL 3
REMARK VINA RESULT:     -11.6      1.897      7.190
REMARK SMILES CC1(C)CCCC[C@@]1(C(=O)NCCCCNC(=O)c1ccc(-c2c3nc(c(-c4c(F)cccc4F)c4ccc([nH]4)c(-c4c(F)cccc4F)c4nc(c(-c5c(F)cccc5F)c5ccc2[nH]5)C=C4)C=C3)cc1)[NH+]1CC[NH2+]CC1
REMARK SMILES IDX 14 1 13 2 12 3 11 4 9 5 10 6 8 8 1 9 2 10 3 11 4 12 5 13
REMARK SMILES IDX 7 14 6 15 73 16 74 17 78 18 75 20 77 21 76 22 15 25 16 26
REMARK SMILES IDX 17 27 18 29 19 30 20 31 72 32 21 33 71 34 22 35 23 36 24 37
REMARK SMILES IDX 65 38 25 39 70 40 64 41 66 42 26 43 69 44 63 45 62 46 27 48
REMARK SMILES IDX 53 49 36 50 52 51 37 52 40 53 51 54 67 55 38 56 39 57 50 59
REMARK SMILES IDX 68 60 41 61 28 62 29 63 34 64 30 65 31 66 33 67 35 68 32 69
REMARK SMILES IDX 54 70 55 71 60 72 56 73 57 74 59 75 61 76 58 77 42 78 43 79
REMARK SMILES IDX 48 80 44 81 45 82 47 83 49 84 46 85
REMARK H PARENT 11 7 73 19 76 23 76 24 16 28 66 47 40 58
REMARK Flexibility Score: inf
ROOT
ATOM      1  C   UNL A   1      32.943  29.327  25.835  1.00  0.00     0.023 C 
ENDROOT
BRANCH   1   2
ATOM      2  C   UNL A   1      33.604  28.765  24.577  1.00  0.00     0.023 C 
BRANCH   2   3
ATOM      3  C   UNL A   1      32.830  27.650  23.889  1.00  0.00     0.116 C 
BRANCH   3   4
ATOM      4  N   UNL A   1      33.659  26.610  23.331  1.00  0.00    -0.351 N 
ATOM      5  C   UNL A   1      33.635  25.254  23.427  1.00  0.00     0.281 C 
ATOM      6  O   UNL A   1      34.038  24.705  22.384  1.00  0.00    -0.268 OA
ATOM      7  H   UNL A   1      34.390  26.951  22.767  1.00  0.00     0.163 HD
BRANCH   5   8
ATOM      8  C   UNL A   1      33.225  24.353  24.728  1.00  0.00     0.182 C 
ATOM      9  C   UNL A   1      31.391  22.530  25.460  1.00  0.00     0.018 C 
ATOM     10  C   UNL A   1      31.832  23.603  24.421  1.00  0.00     0.029 C 
ATOM     11  C   UNL A   1      31.850  22.909  23.039  1.00  0.00     0.018 C 
ATOM     12  C   UNL A   1      30.677  24.631  24.422  1.00  0.00     0.013 C 
ATOM     13  C   UNL A   1      30.509  25.319  25.777  1.00  0.00     0.001 C 
ATOM     14  C   UNL A   1      33.118  25.193  26.035  1.00  0.00     0.080 C 
ATOM     15  C   UNL A   1      31.787  25.842  26.425  1.00  0.00     0.007 C 
BRANCH   8  16
ATOM     16  N   UNL A   1      34.450  23.425  24.865  1.00  0.00    -0.313 N 
ATOM     17  C   UNL A   1      34.328  22.183  25.642  1.00  0.00     0.325 C 
ATOM     18  C   UNL A   1      35.707  24.128  25.231  1.00  0.00     0.325 C 
ATOM     19  H   UNL A   1      34.494  23.102  23.898  1.00  0.00     0.349 HD
ATOM     20  C   UNL A   1      35.617  21.326  25.751  1.00  0.00     0.322 C 
ATOM     21  C   UNL A   1      36.950  23.207  25.222  1.00  0.00     0.322 C 
ATOM     22  N   UNL A   1      36.807  22.082  26.156  1.00  0.00    -0.337 N 
ATOM     23  H   UNL A   1      37.633  21.483  26.111  1.00  0.00     0.346 HD
ATOM     24  H   UNL A   1      36.714  22.417  27.115  1.00  0.00     0.346 HD
ENDBRANCH   8  16
ENDBRANCH   5   8
ENDBRANCH   3   4
ENDBRANCH   2   3
ENDBRANCH   1   2
BRANCH   1  25
ATOM     25  C   UNL A   1      33.768  29.250  27.119  1.00  0.00     0.116 C 
BRANCH  25  26
ATOM     26  N   UNL A   1      33.822  30.487  27.887  1.00  0.00    -0.352 N 
ATOM     27  C   UNL A   1      34.880  30.991  28.615  1.00  0.00     0.251 C 
ATOM     28  H   UNL A   1      33.002  31.030  27.886  1.00  0.00     0.163 HD
ATOM     29  O   UNL A   1      34.772  32.033  29.244  1.00  0.00    -0.269 OA
BRANCH  27  30
ATOM     30  C   UNL A   1      36.133  30.212  28.666  1.00  0.00     0.039 A 
ATOM     31  C   UNL A   1      36.997  30.254  27.569  1.00  0.00     0.014 A 
ATOM     32  C   UNL A   1      36.501  29.545  29.838  1.00  0.00     0.014 A 
ATOM     33  C   UNL A   1      38.281  29.721  27.688  1.00  0.00     0.010 A 
ATOM     34  C   UNL A   1      37.803  29.079  29.977  1.00  0.00     0.010 A 
ATOM     35  C   UNL A   1      38.713  29.184  28.912  1.00  0.00    -0.014 A 
BRANCH  35  36
ATOM     36  C   UNL A   1      40.124  28.776  29.120  1.00  0.00     0.031 A 
ATOM     37  C   UNL A   1      41.115  29.747  29.693  1.00  0.00     0.074 A 
ATOM     38  C   UNL A   1      40.532  27.564  28.696  1.00  0.00     0.049 A 
ATOM     39  N   UNL A   1      42.407  29.608  29.855  1.00  0.00    -0.248 NA
ATOM     40  C   UNL A   1      40.593  31.059  30.103  1.00  0.00     0.031 C 
ATOM     41  C   UNL A   1      39.683  26.557  28.057  1.00  0.00     0.029 A 
ATOM     42  N   UNL A   1      41.774  26.979  28.724  1.00  0.00    -0.354 N 
ATOM     43  C   UNL A   1      42.854  30.823  30.358  1.00  0.00     0.074 A 
ATOM     44  C   UNL A   1      41.705  31.699  30.435  1.00  0.00     0.031 C 
ATOM     45  C   UNL A   1      40.424  25.474  27.769  1.00  0.00     0.029 A 
ATOM     46  C   UNL A   1      41.803  25.720  28.175  1.00  0.00     0.049 A 
ATOM     47  H   UNL A   1      42.569  27.420  29.100  1.00  0.00     0.167 HD
ATOM     48  C   UNL A   1      44.105  31.169  30.742  1.00  0.00     0.037 A 
ATOM     49  C   UNL A   1      42.828  24.862  28.013  1.00  0.00     0.037 A 
ATOM     50  C   UNL A   1      45.238  30.283  30.708  1.00  0.00     0.049 A 
ATOM     51  C   UNL A   1      44.199  25.254  28.483  1.00  0.00     0.074 A 
ATOM     52  C   UNL A   1      46.523  30.509  31.166  1.00  0.00     0.029 A 
ATOM     53  N   UNL A   1      45.218  28.999  30.185  1.00  0.00    -0.354 N 
ATOM     54  N   UNL A   1      44.590  26.376  29.036  1.00  0.00    -0.248 NA
ATOM     55  C   UNL A   1      45.269  24.262  28.311  1.00  0.00     0.031 C 
ATOM     56  C   UNL A   1      47.290  29.372  30.892  1.00  0.00     0.029 A 
ATOM     57  C   UNL A   1      46.475  28.427  30.292  1.00  0.00     0.049 A 
ATOM     58  H   UNL A   1      44.428  28.560  29.796  1.00  0.00     0.167 HD
ATOM     59  C   UNL A   1      45.946  26.219  29.293  1.00  0.00     0.074 A 
ATOM     60  C   UNL A   1      46.306  24.889  28.849  1.00  0.00     0.031 C 
ATOM     61  C   UNL A   1      46.815  27.101  29.844  1.00  0.00     0.037 A 
BRANCH  48  62
ATOM     62  C   UNL A   1      44.307  32.568  31.242  1.00  0.00     0.057 A 
ATOM     63  C   UNL A   1      44.160  32.894  32.596  1.00  0.00     0.134 A 
ATOM     64  C   UNL A   1      44.670  33.595  30.364  1.00  0.00     0.134 A 
ATOM     65  F   UNL A   1      43.799  31.957  33.486  1.00  0.00    -0.206 F 
ATOM     66  C   UNL A   1      44.338  34.200  33.056  1.00  0.00     0.040 A 
ATOM     67  C   UNL A   1      44.875  34.900  30.815  1.00  0.00     0.040 A 
ATOM     68  F   UNL A   1      44.831  33.348  29.055  1.00  0.00    -0.206 F 
ATOM     69  C   UNL A   1      44.702  35.207  32.164  1.00  0.00     0.006 A 
ENDBRANCH  48  62
BRANCH  49  70
ATOM     70  C   UNL A   1      42.589  23.533  27.399  1.00  0.00     0.057 A 
ATOM     71  C   UNL A   1      42.718  23.346  26.018  1.00  0.00     0.134 A 
ATOM     72  C   UNL A   1      42.230  22.422  28.172  1.00  0.00     0.134 A 
ATOM     73  F   UNL A   1      43.042  24.378  25.225  1.00  0.00    -0.206 F 
ATOM     74  C   UNL A   1      42.485  22.105  25.424  1.00  0.00     0.040 A 
ATOM     75  C   UNL A   1      42.013  21.171  27.593  1.00  0.00     0.040 A 
ATOM     76  F   UNL A   1      42.098  22.536  29.501  1.00  0.00    -0.206 F 
ATOM     77  C   UNL A   1      42.135  21.012  26.214  1.00  0.00     0.006 A 
ENDBRANCH  49  70
BRANCH  61  78
ATOM     78  C   UNL A   1      48.234  26.649  30.010  1.00  0.00     0.057 A 
ATOM     79  C   UNL A   1      48.637  25.900  31.122  1.00  0.00     0.134 A 
ATOM     80  C   UNL A   1      49.193  26.930  29.031  1.00  0.00     0.134 A 
ATOM     81  F   UNL A   1      47.766  25.612  32.101  1.00  0.00    -0.206 F 
ATOM     82  C   UNL A   1      49.954  25.458  31.261  1.00  0.00     0.040 A 
ATOM     83  C   UNL A   1      50.507  26.475  29.149  1.00  0.00     0.040 A 
ATOM     84  F   UNL A   1      48.867  27.639  27.940  1.00  0.00    -0.206 F 
ATOM     85  C   UNL A   1      50.891  25.740  30.268  1.00  0.00     0.006 A 
ENDBRANCH  61  78
ENDBRANCH  35  36
ENDBRANCH  27  30
ENDBRANCH  25  26
ENDBRANCH   1  25
TORSDOF 12
ENDMDL
