MODEL 1
REMARK VINA RESULT:     -11.5      0.000      0.000
REMARK SMILES O=C(NCCCCNC(=O)[C@H]1CC[C@@H](CN2CC(=O)N3CCCC[C@H]3C2=O)O1)c1ccc(-c2c3nc(c(-c4c(F)cccc4F)c4ccc([nH]4)c(-c4c(F)cccc4F)c4nc(c(-c5c(F)cccc5F)c5ccc2[nH]5)C=C4)C=C3)cc1
REMARK SMILES IDX 5 1 4 2 3 3 1 4 2 5 29 7 30 8 82 9 31 10 81 11 32 12 33 13
REMARK SMILES IDX 34 14 75 15 35 16 80 17 74 18 76 19 36 20 79 21 73 22 72 23
REMARK SMILES IDX 37 25 63 26 46 27 62 28 47 29 50 30 61 31 77 32 48 33 49 34
REMARK SMILES IDX 60 36 78 37 51 38 38 39 39 40 44 41 40 42 41 43 43 44 45 45
REMARK SMILES IDX 42 46 64 47 65 48 70 49 66 50 67 51 69 52 71 53 68 54 52 55
REMARK SMILES IDX 53 56 58 57 54 58 55 59 57 60 59 61 56 62 6 63 7 64 8 65
REMARK SMILES IDX 9 66 10 68 11 69 12 70 28 71 13 72 14 73 15 74 16 75 17 76
REMARK SMILES IDX 26 77 18 78 25 79 27 80 19 81 20 82 24 83 21 84 23 85 22 86
REMARK H PARENT 3 6 76 24 50 35 8 67
REMARK Flexibility Score: inf
ROOT
ATOM      1  C   UNL A   1      38.560  21.136  25.162  1.00  0.00     0.023 C 
ENDROOT
BRANCH   1   2
ATOM      2  C   UNL A   1      38.775  19.977  26.128  1.00  0.00     0.116 C 
BRANCH   2   3
ATOM      3  N   UNL A   1      39.979  19.212  25.845  1.00  0.00    -0.352 N 
ATOM      4  O   UNL A   1      42.182  18.838  25.539  1.00  0.00    -0.269 OA
ATOM      5  C   UNL A   1      41.298  19.587  25.944  1.00  0.00     0.251 C 
ATOM      6  H   UNL A   1      39.828  18.289  25.537  1.00  0.00     0.163 HD
BRANCH   5   7
ATOM      7  C   UNL A   1      41.653  20.905  26.514  1.00  0.00     0.039 A 
ATOM      8  C   UNL A   1      41.554  21.146  27.886  1.00  0.00     0.014 A 
ATOM      9  C   UNL A   1      42.108  21.910  25.655  1.00  0.00     0.014 A 
ATOM     10  C   UNL A   1      41.783  22.425  28.382  1.00  0.00     0.010 A 
ATOM     11  C   UNL A   1      42.411  23.174  26.166  1.00  0.00     0.010 A 
ATOM     12  C   UNL A   1      42.223  23.449  27.529  1.00  0.00    -0.014 A 
BRANCH  12  13
ATOM     13  C   UNL A   1      42.546  24.786  28.086  1.00  0.00     0.031 A 
ATOM     14  C   UNL A   1      43.934  25.119  28.546  1.00  0.00     0.074 A 
ATOM     15  C   UNL A   1      41.561  25.699  28.189  1.00  0.00     0.049 A 
ATOM     16  N   UNL A   1      44.378  26.222  29.096  1.00  0.00    -0.248 NA
ATOM     17  C   UNL A   1      44.958  24.078  28.379  1.00  0.00     0.031 C 
ATOM     18  C   UNL A   1      40.168  25.480  27.792  1.00  0.00     0.029 A 
ATOM     19  N   UNL A   1      41.576  26.984  28.664  1.00  0.00    -0.354 N 
ATOM     20  C   UNL A   1      45.724  26.002  29.359  1.00  0.00     0.074 A 
ATOM     21  C   UNL A   1      46.019  24.651  28.931  1.00  0.00     0.031 C 
ATOM     22  C   UNL A   1      39.465  26.597  28.028  1.00  0.00     0.029 A 
ATOM     23  C   UNL A   1      40.343  27.587  28.642  1.00  0.00     0.049 A 
ATOM     24  H   UNL A   1      42.391  27.431  28.988  1.00  0.00     0.167 HD
ATOM     25  C   UNL A   1      46.628  26.852  29.903  1.00  0.00     0.037 A 
ATOM     26  C   UNL A   1      39.951  28.791  29.095  1.00  0.00     0.037 A 
ATOM     27  C   UNL A   1      46.326  28.200  30.317  1.00  0.00     0.049 A 
ATOM     28  C   UNL A   1      40.964  29.708  29.714  1.00  0.00     0.074 A 
ATOM     29  C   UNL A   1      47.186  29.159  30.824  1.00  0.00     0.029 A 
ATOM     30  N   UNL A   1      45.064  28.775  30.281  1.00  0.00    -0.354 N 
ATOM     31  N   UNL A   1      42.244  29.507  29.908  1.00  0.00    -0.248 NA
ATOM     32  C   UNL A   1      40.481  31.015  30.176  1.00  0.00     0.031 C 
ATOM     33  C   UNL A   1      46.435  30.295  31.143  1.00  0.00     0.029 A 
ATOM     34  C   UNL A   1      45.116  30.063  30.788  1.00  0.00     0.049 A 
ATOM     35  H   UNL A   1      44.251  28.332  29.947  1.00  0.00     0.167 HD
ATOM     36  C   UNL A   1      42.725  30.665  30.502  1.00  0.00     0.074 A 
ATOM     37  C   UNL A   1      41.599  31.570  30.623  1.00  0.00     0.031 C 
ATOM     38  C   UNL A   1      43.986  30.951  30.908  1.00  0.00     0.037 A 
BRANCH  25  39
ATOM     39  C   UNL A   1      48.024  26.340  30.110  1.00  0.00     0.057 A 
ATOM     40  C   UNL A   1      49.010  26.451  29.122  1.00  0.00     0.134 A 
ATOM     41  C   UNL A   1      48.394  25.752  31.327  1.00  0.00     0.134 A 
ATOM     42  F   UNL A   1      48.722  26.996  27.931  1.00  0.00    -0.206 F 
ATOM     43  C   UNL A   1      50.306  25.967  29.325  1.00  0.00     0.040 A 
ATOM     44  C   UNL A   1      49.692  25.289  31.550  1.00  0.00     0.040 A 
ATOM     45  F   UNL A   1      47.502  25.623  32.320  1.00  0.00    -0.206 F 
ATOM     46  C   UNL A   1      50.651  25.389  30.544  1.00  0.00     0.006 A 
ENDBRANCH  25  39
BRANCH  26  47
ATOM     47  C   UNL A   1      38.522  29.174  28.987  1.00  0.00     0.057 A 
ATOM     48  C   UNL A   1      37.664  29.094  30.088  1.00  0.00     0.134 A 
ATOM     49  C   UNL A   1      37.997  29.681  27.791  1.00  0.00     0.134 A 
ATOM     50  F   UNL A   1      38.107  28.604  31.255  1.00  0.00    -0.206 F 
ATOM     51  C   UNL A   1      36.333  29.504  30.004  1.00  0.00     0.040 A 
ATOM     52  C   UNL A   1      36.677  30.118  27.700  1.00  0.00     0.040 A 
ATOM     53  F   UNL A   1      38.776  29.792  26.705  1.00  0.00    -0.206 F 
ATOM     54  C   UNL A   1      35.839  30.027  28.810  1.00  0.00     0.006 A 
ENDBRANCH  26  47
BRANCH  38  55
ATOM     55  C   UNL A   1      44.221  32.306  31.506  1.00  0.00     0.057 A 
ATOM     56  C   UNL A   1      44.132  32.528  32.886  1.00  0.00     0.134 A 
ATOM     57  C   UNL A   1      44.588  33.388  30.697  1.00  0.00     0.134 A 
ATOM     58  F   UNL A   1      43.770  31.535  33.713  1.00  0.00    -0.206 F 
ATOM     59  C   UNL A   1      44.388  33.784  33.439  1.00  0.00     0.040 A 
ATOM     60  C   UNL A   1      44.869  34.642  31.240  1.00  0.00     0.040 A 
ATOM     61  F   UNL A   1      44.696  33.240  29.368  1.00  0.00    -0.206 F 
ATOM     62  C   UNL A   1      44.766  34.843  32.615  1.00  0.00     0.006 A 
ENDBRANCH  38  55
ENDBRANCH  12  13
ENDBRANCH   5   7
ENDBRANCH   2   3
ENDBRANCH   1   2
BRANCH   1  63
ATOM     63  C   UNL A   1      38.401  22.513  25.805  1.00  0.00     0.023 C 
BRANCH  63  64
ATOM     64  C   UNL A   1      37.047  23.186  25.602  1.00  0.00     0.116 C 
BRANCH  64  65
ATOM     65  N   UNL A   1      36.026  22.698  26.510  1.00  0.00    -0.354 N 
ATOM     66  C   UNL A   1      34.960  21.881  26.262  1.00  0.00     0.249 C 
ATOM     67  H   UNL A   1      36.115  23.001  27.443  1.00  0.00     0.163 HD
ATOM     68  O   UNL A   1      34.335  21.444  27.232  1.00  0.00    -0.272 OA
BRANCH  66  69
ATOM     69  C   UNL A   1      34.537  21.578  24.814  1.00  0.00     0.207 C 
ATOM     70  C   UNL A   1      33.730  20.293  24.702  1.00  0.00     0.045 C 
ATOM     71  O   UNL A   1      33.691  22.646  24.350  1.00  0.00    -0.363 OA
ATOM     72  C   UNL A   1      32.308  20.766  24.854  1.00  0.00     0.037 C 
ATOM     73  C   UNL A   1      32.349  22.136  24.196  1.00  0.00     0.139 C 
BRANCH  73  74
ATOM     74  C   UNL A   1      31.301  23.139  24.701  1.00  0.00     0.152 C 
BRANCH  74  75
ATOM     75  N   UNL A   1      31.842  24.463  25.018  1.00  0.00    -0.329 N 
ATOM     76  C   UNL A   1      32.068  25.396  23.921  1.00  0.00     0.219 C 
ATOM     77  C   UNL A   1      31.882  24.904  26.328  1.00  0.00     0.245 C 
ATOM     78  C   UNL A   1      33.128  26.471  24.159  1.00  0.00     0.242 C 
ATOM     79  C   UNL A   1      32.484  26.300  26.556  1.00  0.00     0.174 C 
ATOM     80  O   UNL A   1      31.408  24.258  27.264  1.00  0.00    -0.272 OA
ATOM     81  O   UNL A   1      33.628  27.086  23.216  1.00  0.00    -0.273 OA
ATOM     82  N   UNL A   1      33.329  26.825  25.483  1.00  0.00    -0.329 N 
ATOM     83  C   UNL A   1      31.416  27.338  26.909  1.00  0.00     0.035 C 
ATOM     84  C   UNL A   1      34.059  28.038  25.813  1.00  0.00     0.120 C 
ATOM     85  C   UNL A   1      32.077  28.680  27.261  1.00  0.00     0.004 C 
ATOM     86  C   UNL A   1      33.059  29.141  26.175  1.00  0.00     0.022 C 
ENDBRANCH  74  75
ENDBRANCH  73  74
ENDBRANCH  66  69
ENDBRANCH  64  65
ENDBRANCH  63  64
ENDBRANCH   1  63
TORSDOF 13
ENDMDL
MODEL 2
REMARK VINA RESULT:     -11.5      0.433      6.199
REMARK SMILES O=C(NCCCCNC(=O)[C@H]1CC[C@@H](CN2CC(=O)N3CCCC[C@H]3C2=O)O1)c1ccc(-c2c3nc(c(-c4c(F)cccc4F)c4ccc([nH]4)c(-c4c(F)cccc4F)c4nc(c(-c5c(F)cccc5F)c5ccc2[nH]5)C=C4)C=C3)cc1
REMARK SMILES IDX 5 1 4 2 3 3 1 4 2 5 29 7 30 8 82 9 31 10 81 11 32 12 33 13
REMARK SMILES IDX 34 14 75 15 35 16 80 17 74 18 76 19 36 20 79 21 73 22 72 23
REMARK SMILES IDX 37 25 63 26 46 27 62 28 47 29 50 30 61 31 77 32 48 33 49 34
REMARK SMILES IDX 60 36 78 37 51 38 38 39 39 40 44 41 40 42 41 43 43 44 45 45
REMARK SMILES IDX 42 46 64 47 65 48 70 49 66 50 67 51 69 52 71 53 68 54 52 55
REMARK SMILES IDX 53 56 58 57 54 58 55 59 57 60 59 61 56 62 6 63 7 64 8 65
REMARK SMILES IDX 9 66 10 68 11 69 12 70 28 71 13 72 14 73 15 74 16 75 17 76
REMARK SMILES IDX 26 77 18 78 25 79 27 80 19 81 20 82 24 83 21 84 23 85 22 86
REMARK H PARENT 3 6 76 24 50 35 8 67
REMARK Flexibility Score: inf
ROOT
ATOM      1  C   UNL A   1      38.531  21.086  25.162  1.00  0.00     0.023 C 
ENDROOT
BRANCH   1   2
ATOM      2  C   UNL A   1      38.851  19.966  26.146  1.00  0.00     0.116 C 
BRANCH   2   3
ATOM      3  N   UNL A   1      40.044  19.215  25.790  1.00  0.00    -0.352 N 
ATOM      4  O   UNL A   1      42.232  18.860  25.376  1.00  0.00    -0.269 OA
ATOM      5  C   UNL A   1      41.364  19.594  25.840  1.00  0.00     0.251 C 
ATOM      6  H   UNL A   1      39.883  18.299  25.464  1.00  0.00     0.163 HD
BRANCH   5   7
ATOM      7  C   UNL A   1      41.740  20.898  26.427  1.00  0.00     0.039 A 
ATOM      8  C   UNL A   1      41.668  21.114  27.805  1.00  0.00     0.014 A 
ATOM      9  C   UNL A   1      42.186  21.916  25.579  1.00  0.00     0.014 A 
ATOM     10  C   UNL A   1      41.916  22.381  28.322  1.00  0.00     0.010 A 
ATOM     11  C   UNL A   1      42.507  23.168  26.108  1.00  0.00     0.010 A 
ATOM     12  C   UNL A   1      42.347  23.419  27.480  1.00  0.00    -0.014 A 
BRANCH  12  13
ATOM     13  C   UNL A   1      42.690  24.742  28.055  1.00  0.00     0.031 A 
ATOM     14  C   UNL A   1      41.635  25.784  28.286  1.00  0.00     0.074 A 
ATOM     15  C   UNL A   1      43.976  25.004  28.354  1.00  0.00     0.049 A 
ATOM     16  N   UNL A   1      41.768  27.006  28.740  1.00  0.00    -0.248 NA
ATOM     17  C   UNL A   1      40.251  25.413  27.956  1.00  0.00     0.031 C 
ATOM     18  C   UNL A   1      45.092  24.076  28.154  1.00  0.00     0.029 A 
ATOM     19  N   UNL A   1      44.565  26.125  28.880  1.00  0.00    -0.354 N 
ATOM     20  C   UNL A   1      40.493  27.556  28.730  1.00  0.00     0.074 A 
ATOM     21  C   UNL A   1      39.603  26.543  28.203  1.00  0.00     0.031 C 
ATOM     22  C   UNL A   1      46.227  24.659  28.563  1.00  0.00     0.029 A 
ATOM     23  C   UNL A   1      45.928  26.019  29.000  1.00  0.00     0.049 A 
ATOM     24  H   UNL A   1      44.059  26.927  29.144  1.00  0.00     0.167 HD
ATOM     25  C   UNL A   1      40.104  28.791  29.131  1.00  0.00     0.037 A 
ATOM     26  C   UNL A   1      46.845  26.923  29.390  1.00  0.00     0.037 A 
ATOM     27  C   UNL A   1      40.996  29.789  29.665  1.00  0.00     0.049 A 
ATOM     28  C   UNL A   1      46.394  28.291  29.807  1.00  0.00     0.074 A 
ATOM     29  C   UNL A   1      40.690  31.047  30.153  1.00  0.00     0.029 A 
ATOM     30  N   UNL A   1      42.372  29.645  29.770  1.00  0.00    -0.354 N 
ATOM     31  N   UNL A   1      45.178  28.780  29.844  1.00  0.00    -0.248 NA
ATOM     32  C   UNL A   1      47.437  29.231  30.236  1.00  0.00     0.031 C 
ATOM     33  C   UNL A   1      41.885  31.683  30.505  1.00  0.00     0.029 A 
ATOM     34  C   UNL A   1      42.932  30.803  30.284  1.00  0.00     0.049 A 
ATOM     35  H   UNL A   1      42.877  28.839  29.516  1.00  0.00     0.167 HD
ATOM     36  C   UNL A   1      45.305  30.080  30.312  1.00  0.00     0.074 A 
ATOM     37  C   UNL A   1      46.718  30.298  30.559  1.00  0.00     0.031 C 
ATOM     38  C   UNL A   1      44.340  31.008  30.519  1.00  0.00     0.037 A 
BRANCH  25  39
ATOM     39  C   UNL A   1      38.651  29.143  28.978  1.00  0.00     0.057 A 
ATOM     40  C   UNL A   1      38.113  29.565  27.756  1.00  0.00     0.134 A 
ATOM     41  C   UNL A   1      37.773  29.029  30.064  1.00  0.00     0.134 A 
ATOM     42  F   UNL A   1      38.899  29.703  26.678  1.00  0.00    -0.206 F 
ATOM     43  C   UNL A   1      36.761  29.893  27.628  1.00  0.00     0.040 A 
ATOM     44  C   UNL A   1      36.415  29.328  29.941  1.00  0.00     0.040 A 
ATOM     45  F   UNL A   1      38.220  28.620  31.261  1.00  0.00    -0.206 F 
ATOM     46  C   UNL A   1      35.907  29.769  28.722  1.00  0.00     0.006 A 
ENDBRANCH  25  39
BRANCH  26  47
ATOM     47  C   UNL A   1      48.279  26.549  29.378  1.00  0.00     0.057 A 
ATOM     48  C   UNL A   1      49.100  26.856  28.288  1.00  0.00     0.134 A 
ATOM     49  C   UNL A   1      48.874  25.925  30.482  1.00  0.00     0.134 A 
ATOM     50  F   UNL A   1      48.584  27.441  27.197  1.00  0.00    -0.206 F 
ATOM     51  C   UNL A   1      50.463  26.554  28.296  1.00  0.00     0.040 A 
ATOM     52  C   UNL A   1      50.238  25.641  30.514  1.00  0.00     0.040 A 
ATOM     53  F   UNL A   1      48.139  25.618  31.561  1.00  0.00    -0.206 F 
ATOM     54  C   UNL A   1      51.037  25.954  29.416  1.00  0.00     0.006 A 
ENDBRANCH  26  47
BRANCH  38  55
ATOM     55  C   UNL A   1      44.773  32.339  31.057  1.00  0.00     0.057 A 
ATOM     56  C   UNL A   1      45.089  33.409  30.209  1.00  0.00     0.134 A 
ATOM     57  C   UNL A   1      44.827  32.567  32.437  1.00  0.00     0.134 A 
ATOM     58  F   UNL A   1      45.071  33.249  28.877  1.00  0.00    -0.206 F 
ATOM     59  C   UNL A   1      45.456  34.655  30.718  1.00  0.00     0.040 A 
ATOM     60  C   UNL A   1      45.170  33.815  32.957  1.00  0.00     0.040 A 
ATOM     61  F   UNL A   1      44.531  31.585  33.302  1.00  0.00    -0.206 F 
ATOM     62  C   UNL A   1      45.489  34.863  32.096  1.00  0.00     0.006 A 
ENDBRANCH  38  55
ENDBRANCH  12  13
ENDBRANCH   5   7
ENDBRANCH   2   3
ENDBRANCH   1   2
BRANCH   1  63
ATOM     63  C   UNL A   1      38.403  22.483  25.768  1.00  0.00     0.023 C 
BRANCH  63  64
ATOM     64  C   UNL A   1      37.069  23.186  25.534  1.00  0.00     0.116 C 
BRANCH  64  65
ATOM     65  N   UNL A   1      36.043  22.790  26.479  1.00  0.00    -0.354 N 
ATOM     66  C   UNL A   1      34.960  21.979  26.297  1.00  0.00     0.249 C 
ATOM     67  H   UNL A   1      36.142  23.162  27.386  1.00  0.00     0.163 HD
ATOM     68  O   UNL A   1      34.330  21.630  27.300  1.00  0.00    -0.272 OA
BRANCH  66  69
ATOM     69  C   UNL A   1      34.524  21.574  24.878  1.00  0.00     0.207 C 
ATOM     70  C   UNL A   1      33.733  20.275  24.861  1.00  0.00     0.045 C 
ATOM     71  O   UNL A   1      33.660  22.598  24.354  1.00  0.00    -0.363 OA
ATOM     72  C   UNL A   1      32.306  20.741  24.999  1.00  0.00     0.037 C 
ATOM     73  C   UNL A   1      32.324  22.063  24.250  1.00  0.00     0.139 C 
BRANCH  73  74
ATOM     74  C   UNL A   1      31.269  23.086  24.698  1.00  0.00     0.152 C 
BRANCH  74  75
ATOM     75  N   UNL A   1      31.809  24.414  24.998  1.00  0.00    -0.329 N 
ATOM     76  C   UNL A   1      32.020  25.338  23.891  1.00  0.00     0.219 C 
ATOM     77  C   UNL A   1      31.864  24.867  26.304  1.00  0.00     0.245 C 
ATOM     78  C   UNL A   1      33.080  26.418  24.106  1.00  0.00     0.242 C 
ATOM     79  C   UNL A   1      32.466  26.266  26.513  1.00  0.00     0.174 C 
ATOM     80  O   UNL A   1      31.404  24.227  27.251  1.00  0.00    -0.272 OA
ATOM     81  O   UNL A   1      33.567  27.027  23.153  1.00  0.00    -0.273 OA
ATOM     82  N   UNL A   1      33.296  26.783  25.425  1.00  0.00    -0.329 N 
ATOM     83  C   UNL A   1      31.399  27.304  26.870  1.00  0.00     0.035 C 
ATOM     84  C   UNL A   1      34.027  28.001  25.737  1.00  0.00     0.120 C 
ATOM     85  C   UNL A   1      32.061  28.650  27.203  1.00  0.00     0.004 C 
ATOM     86  C   UNL A   1      33.029  29.105  26.101  1.00  0.00     0.022 C 
ENDBRANCH  74  75
ENDBRANCH  73  74
ENDBRANCH  66  69
ENDBRANCH  64  65
ENDBRANCH  63  64
ENDBRANCH   1  63
TORSDOF 13
ENDMDL
MODEL 3
REMARK VINA RESULT:     -11.5      0.800      6.175
REMARK SMILES O=C(NCCCCNC(=O)[C@H]1CC[C@@H](CN2CC(=O)N3CCCC[C@H]3C2=O)O1)c1ccc(-c2c3nc(c(-c4c(F)cccc4F)c4ccc([nH]4)c(-c4c(F)cccc4F)c4nc(c(-c5c(F)cccc5F)c5ccc2[nH]5)C=C4)C=C3)cc1
REMARK SMILES IDX 5 1 4 2 3 3 1 4 2 5 29 7 30 8 82 9 31 10 81 11 32 12 33 13
REMARK SMILES IDX 34 14 75 15 35 16 80 17 74 18 76 19 36 20 79 21 73 22 72 23
REMARK SMILES IDX 37 25 63 26 46 27 62 28 47 29 50 30 61 31 77 32 48 33 49 34
REMARK SMILES IDX 60 36 78 37 51 38 38 39 39 40 44 41 40 42 41 43 43 44 45 45
REMARK SMILES IDX 42 46 64 47 65 48 70 49 66 50 67 51 69 52 71 53 68 54 52 55
REMARK SMILES IDX 53 56 58 57 54 58 55 59 57 60 59 61 56 62 6 63 7 64 8 65
REMARK SMILES IDX 9 66 10 68 11 69 12 70 28 71 13 72 14 73 15 74 16 75 17 76
REMARK SMILES IDX 26 77 18 78 25 79 27 80 19 81 20 82 24 83 21 84 23 85 22 86
REMARK H PARENT 3 6 76 24 50 35 8 67
REMARK Flexibility Score: inf
ROOT
ATOM      1  C   UNL A   1      38.861  21.301  25.320  1.00  0.00     0.023 C 
ENDROOT
BRANCH   1   2
ATOM      2  C   UNL A   1      38.957  20.012  26.128  1.00  0.00     0.116 C 
BRANCH   2   3
ATOM      3  N   UNL A   1      40.158  19.244  25.838  1.00  0.00    -0.352 N 
ATOM      4  O   UNL A   1      42.359  18.860  25.530  1.00  0.00    -0.269 OA
ATOM      5  C   UNL A   1      41.478  19.610  25.942  1.00  0.00     0.251 C 
ATOM      6  H   UNL A   1      40.002  18.325  25.519  1.00  0.00     0.163 HD
BRANCH   5   7
ATOM      7  C   UNL A   1      41.841  20.919  26.526  1.00  0.00     0.039 A 
ATOM      8  C   UNL A   1      41.759  21.140  27.903  1.00  0.00     0.014 A 
ATOM      9  C   UNL A   1      42.285  21.937  25.677  1.00  0.00     0.014 A 
ATOM     10  C   UNL A   1      41.994  22.412  28.415  1.00  0.00     0.010 A 
ATOM     11  C   UNL A   1      42.593  23.194  26.202  1.00  0.00     0.010 A 
ATOM     12  C   UNL A   1      42.423  23.449  27.572  1.00  0.00    -0.014 A 
BRANCH  12  13
ATOM     13  C   UNL A   1      42.753  24.777  28.144  1.00  0.00     0.031 A 
ATOM     14  C   UNL A   1      41.689  25.811  28.366  1.00  0.00     0.074 A 
ATOM     15  C   UNL A   1      44.036  25.050  28.447  1.00  0.00     0.049 A 
ATOM     16  N   UNL A   1      41.810  27.036  28.816  1.00  0.00    -0.248 NA
ATOM     17  C   UNL A   1      40.309  25.428  28.031  1.00  0.00     0.031 C 
ATOM     18  C   UNL A   1      45.159  24.130  28.256  1.00  0.00     0.029 A 
ATOM     19  N   UNL A   1      44.613  26.178  28.971  1.00  0.00    -0.354 N 
ATOM     20  C   UNL A   1      40.531  27.576  28.799  1.00  0.00     0.074 A 
ATOM     21  C   UNL A   1      39.651  26.554  28.271  1.00  0.00     0.031 C 
ATOM     22  C   UNL A   1      46.288  24.724  28.668  1.00  0.00     0.029 A 
ATOM     23  C   UNL A   1      45.977  26.083  29.098  1.00  0.00     0.049 A 
ATOM     24  H   UNL A   1      44.100  26.976  29.231  1.00  0.00     0.167 HD
ATOM     25  C   UNL A   1      40.129  28.809  29.193  1.00  0.00     0.037 A 
ATOM     26  C   UNL A   1      46.884  26.996  29.488  1.00  0.00     0.037 A 
ATOM     27  C   UNL A   1      41.011  29.816  29.727  1.00  0.00     0.049 A 
ATOM     28  C   UNL A   1      46.420  28.362  29.899  1.00  0.00     0.074 A 
ATOM     29  C   UNL A   1      40.693  31.074  30.209  1.00  0.00     0.029 A 
ATOM     30  N   UNL A   1      42.388  29.683  29.838  1.00  0.00    -0.354 N 
ATOM     31  N   UNL A   1      45.201  28.842  29.928  1.00  0.00    -0.248 NA
ATOM     32  C   UNL A   1      47.454  29.312  30.328  1.00  0.00     0.031 C 
ATOM     33  C   UNL A   1      41.882  31.720  30.563  1.00  0.00     0.029 A 
ATOM     34  C   UNL A   1      42.936  30.848  30.350  1.00  0.00     0.049 A 
ATOM     35  H   UNL A   1      42.900  28.880  29.590  1.00  0.00     0.167 HD
ATOM     36  C   UNL A   1      45.316  30.144  30.392  1.00  0.00     0.074 A 
ATOM     37  C   UNL A   1      46.725  30.374  30.645  1.00  0.00     0.031 C 
ATOM     38  C   UNL A   1      44.342  31.065  30.591  1.00  0.00     0.037 A 
BRANCH  25  39
ATOM     39  C   UNL A   1      38.675  29.148  29.033  1.00  0.00     0.057 A 
ATOM     40  C   UNL A   1      37.774  29.081  30.103  1.00  0.00     0.134 A 
ATOM     41  C   UNL A   1      38.175  29.576  27.796  1.00  0.00     0.134 A 
ATOM     42  F   UNL A   1      38.184  28.672  31.313  1.00  0.00    -0.206 F 
ATOM     43  C   UNL A   1      36.422  29.397  29.942  1.00  0.00     0.040 A 
ATOM     44  C   UNL A   1      36.832  29.919  27.628  1.00  0.00     0.040 A 
ATOM     45  F   UNL A   1      38.985  29.673  26.730  1.00  0.00    -0.206 F 
ATOM     46  C   UNL A   1      35.950  29.822  28.702  1.00  0.00     0.006 A 
ENDBRANCH  25  39
BRANCH  26  47
ATOM     47  C   UNL A   1      48.322  26.634  29.484  1.00  0.00     0.057 A 
ATOM     48  C   UNL A   1      48.903  25.959  30.561  1.00  0.00     0.134 A 
ATOM     49  C   UNL A   1      49.133  26.906  28.375  1.00  0.00     0.134 A 
ATOM     50  F   UNL A   1      48.180  25.682  31.656  1.00  0.00    -0.206 F 
ATOM     51  C   UNL A   1      50.243  25.569  30.537  1.00  0.00     0.040 A 
ATOM     52  C   UNL A   1      50.466  26.500  28.327  1.00  0.00     0.040 A 
ATOM     53  F   UNL A   1      48.627  27.541  27.307  1.00  0.00    -0.206 F 
ATOM     54  C   UNL A   1      51.025  25.831  29.413  1.00  0.00     0.006 A 
ENDBRANCH  26  47
BRANCH  38  55
ATOM     55  C   UNL A   1      44.762  32.402  31.126  1.00  0.00     0.057 A 
ATOM     56  C   UNL A   1      44.870  32.644  32.501  1.00  0.00     0.134 A 
ATOM     57  C   UNL A   1      45.108  33.441  30.254  1.00  0.00     0.134 A 
ATOM     58  F   UNL A   1      44.539  31.692  33.387  1.00  0.00    -0.206 F 
ATOM     59  C   UNL A   1      45.297  33.879  32.990  1.00  0.00     0.040 A 
ATOM     60  C   UNL A   1      45.557  34.673  30.731  1.00  0.00     0.040 A 
ATOM     61  F   UNL A   1      45.030  33.272  28.926  1.00  0.00    -0.206 F 
ATOM     62  C   UNL A   1      45.649  34.895  32.104  1.00  0.00     0.006 A 
ENDBRANCH  38  55
ENDBRANCH  12  13
ENDBRANCH   5   7
ENDBRANCH   2   3
ENDBRANCH   1   2
BRANCH   1  63
ATOM     63  C   UNL A   1      38.555  22.565  26.124  1.00  0.00     0.023 C 
BRANCH  63  64
ATOM     64  C   UNL A   1      37.239  23.260  25.788  1.00  0.00     0.116 C 
BRANCH  64  65
ATOM     65  N   UNL A   1      36.123  22.784  26.582  1.00  0.00    -0.354 N 
ATOM     66  C   UNL A   1      35.181  21.842  26.281  1.00  0.00     0.249 C 
ATOM     67  H   UNL A   1      36.032  23.201  27.470  1.00  0.00     0.163 HD
ATOM     68  O   UNL A   1      34.439  21.462  27.192  1.00  0.00    -0.272 OA
BRANCH  66  69
ATOM     69  C   UNL A   1      35.029  21.331  24.838  1.00  0.00     0.207 C 
ATOM     70  C   UNL A   1      34.330  19.982  24.770  1.00  0.00     0.045 C 
ATOM     71  O   UNL A   1      34.214  22.263  24.104  1.00  0.00    -0.363 OA
ATOM     72  C   UNL A   1      32.877  20.356  24.625  1.00  0.00     0.037 C 
ATOM     73  C   UNL A   1      32.951  21.633  23.805  1.00  0.00     0.139 C 
BRANCH  73  74
ATOM     74  C   UNL A   1      31.776  22.604  23.994  1.00  0.00     0.152 C 
BRANCH  74  75
ATOM     75  N   UNL A   1      32.150  24.019  23.933  1.00  0.00    -0.329 N 
ATOM     76  C   UNL A   1      32.299  24.636  22.621  1.00  0.00     0.219 C 
ATOM     77  C   UNL A   1      32.102  24.803  25.072  1.00  0.00     0.245 C 
ATOM     78  C   UNL A   1      33.221  25.854  22.550  1.00  0.00     0.242 C 
ATOM     79  C   UNL A   1      32.532  26.269  24.905  1.00  0.00     0.174 C 
ATOM     80  O   UNL A   1      31.679  24.385  26.151  1.00  0.00    -0.272 OA
ATOM     81  O   UNL A   1      33.673  26.243  21.473  1.00  0.00    -0.273 OA
ATOM     82  N   UNL A   1      33.341  26.577  23.726  1.00  0.00    -0.329 N 
ATOM     83  C   UNL A   1      31.341  27.229  24.964  1.00  0.00     0.035 C 
ATOM     84  C   UNL A   1      33.917  27.912  23.707  1.00  0.00     0.120 C 
ATOM     85  C   UNL A   1      31.833  28.684  24.931  1.00  0.00     0.004 C 
ATOM     86  C   UNL A   1      32.786  28.945  23.756  1.00  0.00     0.022 C 
ENDBRANCH  74  75
ENDBRANCH  73  74
ENDBRANCH  66  69
ENDBRANCH  64  65
ENDBRANCH  63  64
ENDBRANCH   1  63
TORSDOF 13
ENDMDL
