MODEL 1
REMARK VINA RESULT:     -11.7      0.000      0.000
REMARK SMILES Cc1oc2c(C)c3oc(=O)c(CCC(=O)N[C@H](Cc4ccc(Cl)cc4)C(=O)NCCCCNC(=O)c4ccc(-c5c6nc(c(-c7c(F)cccc7F)c7ccc([nH]7)c(-c7c(F)cccc7F)c7nc(c(-c8c(F)cccc8F)c8ccc5[nH]8)C=C7)C=C6)cc4)c(C)c3cc2c1C
REMARK SMILES IDX 29 1 28 2 26 3 27 4 17 6 16 7 14 8 15 9 13 11 12 12 11 13
REMARK SMILES IDX 1 14 2 15 3 16 95 17 4 18 94 19 96 20 5 21 93 22 6 23 7 24
REMARK SMILES IDX 92 25 8 26 90 27 9 28 91 29 10 30 18 31 19 32 20 33 25 34
REMARK SMILES IDX 21 35 24 36 22 37 23 38 30 39 31 40 32 41 33 42 34 43 35 45
REMARK SMILES IDX 36 46 37 47 89 48 38 49 88 50 39 51 40 52 41 53 82 54 42 55
REMARK SMILES IDX 87 56 81 57 83 58 43 59 86 60 80 61 79 62 44 64 70 65 53 66
REMARK SMILES IDX 69 67 54 68 57 69 68 70 84 71 55 72 56 73 67 75 85 76 58 77
REMARK SMILES IDX 45 78 46 79 51 80 47 81 48 82 50 83 52 84 49 85 71 86 72 87
REMARK SMILES IDX 77 88 73 89 74 90 76 91 78 92 75 93 59 94 60 95 65 96 61 97
REMARK SMILES IDX 62 98 64 99 66 100 63 101
REMARK H PARENT 28 5 16 10 33 44 83 63 57 74
REMARK Flexibility Score: inf
ROOT
ATOM      1  C   UNL A   1      42.059  27.954  35.390  1.00  0.00     0.116 C 
ENDROOT
BRANCH   1   2
ATOM      2  N   UNL A   1      40.786  28.798  36.076  1.00  0.00    -0.354 N 
ATOM      3  C   UNL A   1      39.489  30.238  35.807  1.00  0.00     0.242 C 
ATOM      4  O   UNL A   1      38.436  30.426  36.466  1.00  0.00    -0.273 OA
ATOM      5  H   UNL A   1      40.626  28.418  36.969  1.00  0.00     0.163 HD
BRANCH   3   6
ATOM      6  C   UNL A   1      39.577  31.520  34.393  1.00  0.00     0.175 C 
BRANCH   6   7
ATOM      7  N   UNL A   1      40.146  32.844  34.857  1.00  0.00    -0.344 N 
ATOM      8  C   UNL A   1      41.458  33.242  34.806  1.00  0.00     0.220 C 
ATOM      9  O   UNL A   1      42.087  33.367  35.855  1.00  0.00    -0.275 OA
ATOM     10  H   UNL A   1      39.506  33.489  35.238  1.00  0.00     0.164 HD
BRANCH   8  11
ATOM     11  C   UNL A   1      42.056  33.648  33.468  1.00  0.00     0.105 C 
BRANCH  11  12
ATOM     12  C   UNL A   1      41.315  34.748  32.722  1.00  0.00     0.053 C 
BRANCH  12  13
ATOM     13  C   UNL A   1      42.083  35.061  31.483  1.00  0.00     0.042 A 
ATOM     14  C   UNL A   1      48.324  37.573  25.669  1.00  0.00     0.088 C 
ATOM     15  C   UNL A   1      47.512  36.619  26.457  1.00  0.00     0.105 A 
ATOM     16  O   UNL A   1      46.337  36.134  25.931  1.00  0.00    -0.461 OA
ATOM     17  C   UNL A   1      47.687  36.182  27.747  1.00  0.00    -0.002 A 
ATOM     18  C   UNL A   1      45.623  35.563  26.971  1.00  0.00     0.141 A 
ATOM     19  C   UNL A   1      46.407  35.692  28.116  1.00  0.00     0.025 A 
ATOM     20  C   UNL A   1      48.839  36.436  28.658  1.00  0.00     0.049 C 
ATOM     21  C   UNL A   1      44.353  34.947  26.919  1.00  0.00     0.036 A 
ATOM     22  C   UNL A   1      45.924  35.406  29.402  1.00  0.00     0.024 A 
ATOM     23  C   UNL A   1      43.703  34.431  25.697  1.00  0.00     0.052 C 
ATOM     24  C   UNL A   1      43.856  34.956  28.228  1.00  0.00     0.145 A 
ATOM     25  C   UNL A   1      44.586  35.559  29.684  1.00  0.00     0.022 A 
ATOM     26  O   UNL A   1      42.167  34.323  28.462  1.00  0.00    -0.422 OA
ATOM     27  C   UNL A   1      43.558  35.716  31.390  1.00  0.00    -0.030 A 
ATOM     28  C   UNL A   1      41.181  34.299  29.957  1.00  0.00     0.339 A 
ATOM     29  C   UNL A   1      43.913  36.464  32.692  1.00  0.00     0.046 C 
ATOM     30  O   UNL A   1      39.998  33.991  29.925  1.00  0.00    -0.246 OA
ENDBRANCH  12  13
ENDBRANCH  11  12
ENDBRANCH   8  11
ENDBRANCH   6   7
BRANCH   6  31
ATOM     31  C   UNL A   1      38.607  31.873  32.909  1.00  0.00     0.070 C 
BRANCH  31  32
ATOM     32  C   UNL A   1      37.385  32.895  32.449  1.00  0.00    -0.045 A 
ATOM     33  C   UNL A   1      37.146  34.243  32.863  1.00  0.00     0.005 A 
ATOM     34  C   UNL A   1      36.362  32.415  31.626  1.00  0.00     0.005 A 
ATOM     35  C   UNL A   1      35.992  35.000  32.659  1.00  0.00     0.021 A 
ATOM     36  C   UNL A   1      35.225  33.213  31.303  1.00  0.00     0.021 A 
ATOM     37  C   UNL A   1      35.029  34.484  31.846  1.00  0.00     0.041 A 
ATOM     38  Cl  UNL A   1      33.632  35.422  31.518  1.00  0.00    -0.084 Cl
ENDBRANCH  31  32
ENDBRANCH   6  31
ENDBRANCH   3   6
ENDBRANCH   1   2
BRANCH   1  39
ATOM     39  C   UNL A   1      41.707  26.670  34.623  1.00  0.00     0.023 C 
BRANCH  39  40
ATOM     40  C   UNL A   1      41.576  25.436  35.556  1.00  0.00     0.023 C 
BRANCH  40  41
ATOM     41  C   UNL A   1      42.646  25.210  36.648  1.00  0.00     0.116 C 
BRANCH  41  42
ATOM     42  N   UNL A   1      43.446  24.017  36.424  1.00  0.00    -0.352 N 
ATOM     43  C   UNL A   1      44.162  23.580  35.333  1.00  0.00     0.251 C 
ATOM     44  H   UNL A   1      43.484  23.408  37.197  1.00  0.00     0.163 HD
ATOM     45  O   UNL A   1      44.546  22.410  35.319  1.00  0.00    -0.269 OA
BRANCH  43  46
ATOM     46  C   UNL A   1      44.514  24.444  34.181  1.00  0.00     0.039 A 
ATOM     47  C   UNL A   1      44.069  24.057  32.906  1.00  0.00     0.014 A 
ATOM     48  C   UNL A   1      45.397  25.521  34.300  1.00  0.00     0.014 A 
ATOM     49  C   UNL A   1      44.457  24.771  31.771  1.00  0.00     0.010 A 
ATOM     50  C   UNL A   1      45.786  26.236  33.163  1.00  0.00     0.010 A 
ATOM     51  C   UNL A   1      45.300  25.880  31.898  1.00  0.00    -0.014 A 
BRANCH  51  52
ATOM     52  C   UNL A   1      45.470  26.737  30.707  1.00  0.00     0.031 A 
ATOM     53  C   UNL A   1      45.394  25.940  29.425  1.00  0.00     0.074 A 
ATOM     54  C   UNL A   1      45.037  28.019  30.695  1.00  0.00     0.049 A 
ATOM     55  N   UNL A   1      44.282  25.550  28.870  1.00  0.00    -0.248 NA
ATOM     56  C   UNL A   1      46.574  25.258  28.883  1.00  0.00     0.031 C 
ATOM     57  C   UNL A   1      43.770  28.504  31.239  1.00  0.00     0.029 A 
ATOM     58  N   UNL A   1      45.589  29.118  30.051  1.00  0.00    -0.354 N 
ATOM     59  C   UNL A   1      44.594  24.581  27.923  1.00  0.00     0.074 A 
ATOM     60  C   UNL A   1      46.028  24.421  27.984  1.00  0.00     0.031 C 
ATOM     61  C   UNL A   1      43.550  29.753  30.784  1.00  0.00     0.029 A 
ATOM     62  C   UNL A   1      44.700  30.206  29.999  1.00  0.00     0.049 A 
ATOM     63  H   UNL A   1      46.499  29.134  29.675  1.00  0.00     0.167 HD
ATOM     64  C   UNL A   1      43.649  23.996  27.133  1.00  0.00     0.037 A 
ATOM     65  C   UNL A   1      44.626  31.016  28.899  1.00  0.00     0.037 A 
ATOM     66  C   UNL A   1      42.323  24.507  27.322  1.00  0.00     0.049 A 
ATOM     67  C   UNL A   1      43.831  30.140  27.956  1.00  0.00     0.074 A 
ATOM     68  C   UNL A   1      41.134  24.129  27.900  1.00  0.00     0.029 A 
ATOM     69  N   UNL A   1      42.074  25.751  26.797  1.00  0.00    -0.354 N 
ATOM     70  N   UNL A   1      42.547  29.903  28.040  1.00  0.00    -0.248 NA
ATOM     71  C   UNL A   1      44.581  29.159  27.170  1.00  0.00     0.031 C 
ATOM     72  C   UNL A   1      40.417  25.351  28.110  1.00  0.00     0.029 A 
ATOM     73  C   UNL A   1      41.216  26.395  27.644  1.00  0.00     0.049 A 
ATOM     74  H   UNL A   1      42.447  26.116  25.962  1.00  0.00     0.167 HD
ATOM     75  C   UNL A   1      42.385  28.588  27.595  1.00  0.00     0.074 A 
ATOM     76  C   UNL A   1      43.674  28.198  27.057  1.00  0.00     0.031 C 
ATOM     77  C   UNL A   1      41.285  27.822  27.862  1.00  0.00     0.037 A 
BRANCH  64  78
ATOM     78  C   UNL A   1      43.890  23.128  25.956  1.00  0.00     0.057 A 
ATOM     79  C   UNL A   1      43.651  21.753  26.115  1.00  0.00     0.134 A 
ATOM     80  C   UNL A   1      44.585  23.530  24.815  1.00  0.00     0.134 A 
ATOM     81  F   UNL A   1      42.996  21.306  27.200  1.00  0.00    -0.206 F 
ATOM     82  C   UNL A   1      44.132  20.806  25.214  1.00  0.00     0.040 A 
ATOM     83  C   UNL A   1      45.055  22.589  23.887  1.00  0.00     0.040 A 
ATOM     84  F   UNL A   1      44.873  24.823  24.607  1.00  0.00    -0.206 F 
ATOM     85  C   UNL A   1      44.847  21.224  24.097  1.00  0.00     0.006 A 
ENDBRANCH  64  78
BRANCH  65  86
ATOM     86  C   UNL A   1      45.916  31.696  28.544  1.00  0.00     0.057 A 
ATOM     87  C   UNL A   1      46.756  32.096  29.603  1.00  0.00     0.134 A 
ATOM     88  C   UNL A   1      46.416  31.932  27.258  1.00  0.00     0.134 A 
ATOM     89  F   UNL A   1      46.318  32.044  30.871  1.00  0.00    -0.206 F 
ATOM     90  C   UNL A   1      48.071  32.523  29.404  1.00  0.00     0.040 A 
ATOM     91  C   UNL A   1      47.739  32.342  27.041  1.00  0.00     0.040 A 
ATOM     92  F   UNL A   1      45.656  31.758  26.168  1.00  0.00    -0.206 F 
ATOM     93  C   UNL A   1      48.583  32.603  28.116  1.00  0.00     0.006 A 
ENDBRANCH  65  86
BRANCH  77  94
ATOM     94  C   UNL A   1      40.171  28.493  28.592  1.00  0.00     0.057 A 
ATOM     95  C   UNL A   1      39.216  29.237  27.897  1.00  0.00     0.134 A 
ATOM     96  C   UNL A   1      39.990  28.332  29.974  1.00  0.00     0.134 A 
ATOM     97  F   UNL A   1      39.321  29.417  26.571  1.00  0.00    -0.206 F 
ATOM     98  C   UNL A   1      38.105  29.777  28.545  1.00  0.00     0.040 A 
ATOM     99  C   UNL A   1      38.865  28.838  30.626  1.00  0.00     0.040 A 
ATOM    100  F   UNL A   1      40.880  27.651  30.715  1.00  0.00    -0.206 F 
ATOM    101  C   UNL A   1      37.916  29.561  29.909  1.00  0.00     0.006 A 
ENDBRANCH  77  94
ENDBRANCH  51  52
ENDBRANCH  43  46
ENDBRANCH  41  42
ENDBRANCH  40  41
ENDBRANCH  39  40
ENDBRANCH   1  39
TORSDOF 17
ENDMDL
MODEL 2
REMARK VINA RESULT:     -11.6      2.171      2.606
REMARK SMILES Cc1oc2c(C)c3oc(=O)c(CCC(=O)N[C@H](Cc4ccc(Cl)cc4)C(=O)NCCCCNC(=O)c4ccc(-c5c6nc(c(-c7c(F)cccc7F)c7ccc([nH]7)c(-c7c(F)cccc7F)c7nc(c(-c8c(F)cccc8F)c8ccc5[nH]8)C=C7)C=C6)cc4)c(C)c3cc2c1C
REMARK SMILES IDX 29 1 28 2 26 3 27 4 17 6 16 7 14 8 15 9 13 11 12 12 11 13
REMARK SMILES IDX 1 14 2 15 3 16 95 17 4 18 94 19 96 20 5 21 93 22 6 23 7 24
REMARK SMILES IDX 92 25 8 26 90 27 9 28 91 29 10 30 18 31 19 32 20 33 25 34
REMARK SMILES IDX 21 35 24 36 22 37 23 38 30 39 31 40 32 41 33 42 34 43 35 45
REMARK SMILES IDX 36 46 37 47 89 48 38 49 88 50 39 51 40 52 41 53 82 54 42 55
REMARK SMILES IDX 87 56 81 57 83 58 43 59 86 60 80 61 79 62 44 64 70 65 53 66
REMARK SMILES IDX 69 67 54 68 57 69 68 70 84 71 55 72 56 73 67 75 85 76 58 77
REMARK SMILES IDX 45 78 46 79 51 80 47 81 48 82 50 83 52 84 49 85 71 86 72 87
REMARK SMILES IDX 77 88 73 89 74 90 76 91 78 92 75 93 59 94 60 95 65 96 61 97
REMARK SMILES IDX 62 98 64 99 66 100 63 101
REMARK H PARENT 28 5 16 10 33 44 83 63 57 74
REMARK Flexibility Score: inf
ROOT
ATOM      1  C   UNL A   1      42.167  27.546  34.998  1.00  0.00     0.116 C 
ENDROOT
BRANCH   1   2
ATOM      2  N   UNL A   1      41.309  28.771  35.749  1.00  0.00    -0.354 N 
ATOM      3  C   UNL A   1      40.423  30.496  35.493  1.00  0.00     0.242 C 
ATOM      4  O   UNL A   1      39.592  31.031  36.269  1.00  0.00    -0.273 OA
ATOM      5  H   UNL A   1      41.211  28.526  36.698  1.00  0.00     0.163 HD
BRANCH   3   6
ATOM      6  C   UNL A   1      40.605  31.582  33.931  1.00  0.00     0.175 C 
BRANCH   6   7
ATOM      7  N   UNL A   1      40.817  33.041  34.271  1.00  0.00    -0.344 N 
ATOM      8  C   UNL A   1      41.805  33.865  33.794  1.00  0.00     0.220 C 
ATOM      9  O   UNL A   1      42.685  34.250  34.562  1.00  0.00    -0.275 OA
ATOM     10  H   UNL A   1      40.178  33.444  34.903  1.00  0.00     0.164 HD
BRANCH   8  11
ATOM     11  C   UNL A   1      41.710  34.387  32.369  1.00  0.00     0.105 C 
BRANCH  11  12
ATOM     12  C   UNL A   1      42.859  34.000  31.449  1.00  0.00     0.053 C 
BRANCH  12  13
ATOM     13  C   UNL A   1      43.289  35.224  30.712  1.00  0.00     0.042 A 
ATOM     14  C   UNL A   1      43.900  42.047  25.045  1.00  0.00     0.088 C 
ATOM     15  C   UNL A   1      43.596  41.375  26.327  1.00  0.00     0.105 A 
ATOM     16  O   UNL A   1      44.571  41.284  27.294  1.00  0.00    -0.461 OA
ATOM     17  C   UNL A   1      42.466  40.693  26.709  1.00  0.00    -0.002 A 
ATOM     18  C   UNL A   1      44.156  40.336  28.213  1.00  0.00     0.141 A 
ATOM     19  C   UNL A   1      42.906  39.887  27.792  1.00  0.00     0.025 A 
ATOM     20  C   UNL A   1      41.171  40.575  25.981  1.00  0.00     0.049 C 
ATOM     21  C   UNL A   1      44.832  39.894  29.372  1.00  0.00     0.036 A 
ATOM     22  C   UNL A   1      42.264  38.780  28.368  1.00  0.00     0.024 A 
ATOM     23  C   UNL A   1      45.921  40.622  30.056  1.00  0.00     0.052 C 
ATOM     24  C   UNL A   1      44.279  38.650  29.700  1.00  0.00     0.145 A 
ATOM     25  C   UNL A   1      43.008  37.763  28.918  1.00  0.00     0.022 A 
ATOM     26  O   UNL A   1      45.034  37.769  31.101  1.00  0.00    -0.422 OA
ATOM     27  C   UNL A   1      42.588  35.872  29.408  1.00  0.00    -0.030 A 
ATOM     28  C   UNL A   1      44.669  36.125  31.714  1.00  0.00     0.339 A 
ATOM     29  C   UNL A   1      41.716  34.832  28.675  1.00  0.00     0.046 C 
ATOM     30  O   UNL A   1      45.375  35.600  32.564  1.00  0.00    -0.246 OA
ENDBRANCH  12  13
ENDBRANCH  11  12
ENDBRANCH   8  11
ENDBRANCH   6   7
BRANCH   6  31
ATOM     31  C   UNL A   1      39.949  31.540  32.247  1.00  0.00     0.070 C 
BRANCH  31  32
ATOM     32  C   UNL A   1      38.764  32.296  31.366  1.00  0.00    -0.045 A 
ATOM     33  C   UNL A   1      37.414  32.576  31.743  1.00  0.00     0.005 A 
ATOM     34  C   UNL A   1      39.016  32.647  30.037  1.00  0.00     0.005 A 
ATOM     35  C   UNL A   1      36.370  32.988  30.915  1.00  0.00     0.021 A 
ATOM     36  C   UNL A   1      37.994  33.185  29.199  1.00  0.00     0.021 A 
ATOM     37  C   UNL A   1      36.673  33.320  29.629  1.00  0.00     0.041 A 
ATOM     38  Cl  UNL A   1      35.425  33.900  28.607  1.00  0.00    -0.084 Cl
ENDBRANCH  31  32
ENDBRANCH   6  31
ENDBRANCH   3   6
ENDBRANCH   1   2
BRANCH   1  39
ATOM     39  C   UNL A   1      41.421  26.223  34.757  1.00  0.00     0.023 C 
BRANCH  39  40
ATOM     40  C   UNL A   1      41.538  25.246  35.958  1.00  0.00     0.023 C 
BRANCH  40  41
ATOM     41  C   UNL A   1      42.834  25.254  36.801  1.00  0.00     0.116 C 
BRANCH  41  42
ATOM     42  N   UNL A   1      43.703  24.122  36.519  1.00  0.00    -0.352 N 
ATOM     43  C   UNL A   1      44.389  23.748  35.387  1.00  0.00     0.251 C 
ATOM     44  H   UNL A   1      43.824  23.510  37.281  1.00  0.00     0.163 HD
ATOM     45  O   UNL A   1      44.854  22.610  35.337  1.00  0.00    -0.269 OA
BRANCH  43  46
ATOM     46  C   UNL A   1      44.618  24.648  34.230  1.00  0.00     0.039 A 
ATOM     47  C   UNL A   1      44.080  24.274  32.988  1.00  0.00     0.014 A 
ATOM     48  C   UNL A   1      45.477  25.748  34.301  1.00  0.00     0.014 A 
ATOM     49  C   UNL A   1      44.352  25.023  31.842  1.00  0.00     0.010 A 
ATOM     50  C   UNL A   1      45.749  26.499  33.153  1.00  0.00     0.010 A 
ATOM     51  C   UNL A   1      45.169  26.154  31.925  1.00  0.00    -0.014 A 
BRANCH  51  52
ATOM     52  C   UNL A   1      45.215  27.042  30.744  1.00  0.00     0.031 A 
ATOM     53  C   UNL A   1      45.165  26.260  29.451  1.00  0.00     0.074 A 
ATOM     54  C   UNL A   1      44.665  28.277  30.771  1.00  0.00     0.049 A 
ATOM     55  N   UNL A   1      44.073  25.776  28.930  1.00  0.00    -0.248 NA
ATOM     56  C   UNL A   1      46.382  25.699  28.855  1.00  0.00     0.031 C 
ATOM     57  C   UNL A   1      43.379  28.634  31.369  1.00  0.00     0.029 A 
ATOM     58  N   UNL A   1      45.088  29.432  30.128  1.00  0.00    -0.354 N 
ATOM     59  C   UNL A   1      44.437  24.854  27.955  1.00  0.00     0.074 A 
ATOM     60  C   UNL A   1      45.882  24.828  27.961  1.00  0.00     0.031 C 
ATOM     61  C   UNL A   1      43.028  29.864  30.945  1.00  0.00     0.029 A 
ATOM     62  C   UNL A   1      44.101  30.433  30.127  1.00  0.00     0.049 A 
ATOM     63  H   UNL A   1      45.977  29.539  29.720  1.00  0.00     0.167 HD
ATOM     64  C   UNL A   1      43.522  24.196  27.189  1.00  0.00     0.037 A 
ATOM     65  C   UNL A   1      43.910  31.249  29.046  1.00  0.00     0.037 A 
ATOM     66  C   UNL A   1      42.162  24.578  27.435  1.00  0.00     0.049 A 
ATOM     67  C   UNL A   1      43.165  30.317  28.116  1.00  0.00     0.074 A 
ATOM     68  C   UNL A   1      41.036  24.083  28.048  1.00  0.00     0.029 A 
ATOM     69  N   UNL A   1      41.780  25.802  26.942  1.00  0.00    -0.354 N 
ATOM     70  N   UNL A   1      41.912  29.960  28.242  1.00  0.00    -0.248 NA
ATOM     71  C   UNL A   1      43.973  29.422  27.286  1.00  0.00     0.031 C 
ATOM     72  C   UNL A   1      40.217  25.230  28.306  1.00  0.00     0.029 A 
ATOM     73  C   UNL A   1      40.898  26.350  27.830  1.00  0.00     0.049 A 
ATOM     74  H   UNL A   1      42.086  26.211  26.100  1.00  0.00     0.167 HD
ATOM     75  C   UNL A   1      41.856  28.643  27.779  1.00  0.00     0.074 A 
ATOM     76  C   UNL A   1      43.155  28.383  27.188  1.00  0.00     0.031 C 
ATOM     77  C   UNL A   1      40.843  27.774  28.072  1.00  0.00     0.037 A 
BRANCH  64  78
ATOM     78  C   UNL A   1      43.798  23.372  25.988  1.00  0.00     0.057 A 
ATOM     79  C   UNL A   1      43.658  21.981  26.121  1.00  0.00     0.134 A 
ATOM     80  C   UNL A   1      44.439  23.845  24.843  1.00  0.00     0.134 A 
ATOM     81  F   UNL A   1      43.059  21.466  27.208  1.00  0.00    -0.206 F 
ATOM     82  C   UNL A   1      44.185  21.089  25.190  1.00  0.00     0.040 A 
ATOM     83  C   UNL A   1      44.954  22.959  23.885  1.00  0.00     0.040 A 
ATOM     84  F   UNL A   1      44.633  25.159  24.659  1.00  0.00    -0.206 F 
ATOM     85  C   UNL A   1      44.845  21.578  24.069  1.00  0.00     0.006 A 
ENDBRANCH  64  78
BRANCH  65  86
ATOM     86  C   UNL A   1      45.118  32.052  28.657  1.00  0.00     0.057 A 
ATOM     87  C   UNL A   1      45.961  32.506  29.692  1.00  0.00     0.134 A 
ATOM     88  C   UNL A   1      45.541  32.359  27.359  1.00  0.00     0.134 A 
ATOM     89  F   UNL A   1      45.583  32.388  30.974  1.00  0.00    -0.206 F 
ATOM     90  C   UNL A   1      47.223  33.055  29.451  1.00  0.00     0.040 A 
ATOM     91  C   UNL A   1      46.812  32.892  27.099  1.00  0.00     0.040 A 
ATOM     92  F   UNL A   1      44.756  32.139  26.295  1.00  0.00    -0.206 F 
ATOM     93  C   UNL A   1      47.672  33.207  28.147  1.00  0.00     0.006 A 
ENDBRANCH  65  86
BRANCH  77  94
ATOM     94  C   UNL A   1      39.700  28.327  28.854  1.00  0.00     0.057 A 
ATOM     95  C   UNL A   1      38.694  29.056  28.217  1.00  0.00     0.134 A 
ATOM     96  C   UNL A   1      39.546  28.066  30.224  1.00  0.00     0.134 A 
ATOM     97  F   UNL A   1      38.771  29.328  26.905  1.00  0.00    -0.206 F 
ATOM     98  C   UNL A   1      37.560  29.484  28.908  1.00  0.00     0.040 A 
ATOM     99  C   UNL A   1      38.402  28.460  30.917  1.00  0.00     0.040 A 
ATOM    100  F   UNL A   1      40.484  27.394  30.911  1.00  0.00    -0.206 F 
ATOM    101  C   UNL A   1      37.402  29.169  30.257  1.00  0.00     0.006 A 
ENDBRANCH  77  94
ENDBRANCH  51  52
ENDBRANCH  43  46
ENDBRANCH  41  42
ENDBRANCH  40  41
ENDBRANCH  39  40
ENDBRANCH   1  39
TORSDOF 17
ENDMDL
MODEL 3
REMARK VINA RESULT:     -11.5      6.224     12.171
REMARK SMILES Cc1oc2c(C)c3oc(=O)c(CCC(=O)N[C@H](Cc4ccc(Cl)cc4)C(=O)NCCCCNC(=O)c4ccc(-c5c6nc(c(-c7c(F)cccc7F)c7ccc([nH]7)c(-c7c(F)cccc7F)c7nc(c(-c8c(F)cccc8F)c8ccc5[nH]8)C=C7)C=C6)cc4)c(C)c3cc2c1C
REMARK SMILES IDX 29 1 28 2 26 3 27 4 17 6 16 7 14 8 15 9 13 11 12 12 11 13
REMARK SMILES IDX 1 14 2 15 3 16 95 17 4 18 94 19 96 20 5 21 93 22 6 23 7 24
REMARK SMILES IDX 92 25 8 26 90 27 9 28 91 29 10 30 18 31 19 32 20 33 25 34
REMARK SMILES IDX 21 35 24 36 22 37 23 38 30 39 31 40 32 41 33 42 34 43 35 45
REMARK SMILES IDX 36 46 37 47 89 48 38 49 88 50 39 51 40 52 41 53 82 54 42 55
REMARK SMILES IDX 87 56 81 57 83 58 43 59 86 60 80 61 79 62 44 64 70 65 53 66
REMARK SMILES IDX 69 67 54 68 57 69 68 70 84 71 55 72 56 73 67 75 85 76 58 77
REMARK SMILES IDX 45 78 46 79 51 80 47 81 48 82 50 83 52 84 49 85 71 86 72 87
REMARK SMILES IDX 77 88 73 89 74 90 76 91 78 92 75 93 59 94 60 95 65 96 61 97
REMARK SMILES IDX 62 98 64 99 66 100 63 101
REMARK H PARENT 28 5 16 10 33 44 83 63 57 74
REMARK Flexibility Score: inf
ROOT
ATOM      1  C   UNL A   1      42.573  41.053  25.609  1.00  0.00     0.116 C 
ENDROOT
BRANCH   1   2
ATOM      2  N   UNL A   1      41.839  41.998  24.438  1.00  0.00    -0.354 N 
ATOM      3  C   UNL A   1      42.050  42.812  22.672  1.00  0.00     0.242 C 
ATOM      4  O   UNL A   1      41.130  43.254  21.939  1.00  0.00    -0.273 OA
ATOM      5  H   UNL A   1      40.945  42.241  24.771  1.00  0.00     0.163 HD
BRANCH   3   6
ATOM      6  C   UNL A   1      43.710  42.938  21.734  1.00  0.00     0.175 C 
BRANCH   6   7
ATOM      7  N   UNL A   1      44.896  42.660  22.631  1.00  0.00    -0.344 N 
ATOM      8  C   UNL A   1      45.628  43.578  23.341  1.00  0.00     0.220 C 
ATOM      9  O   UNL A   1      46.789  43.808  23.003  1.00  0.00    -0.275 OA
ATOM     10  H   UNL A   1      45.174  41.719  22.715  1.00  0.00     0.164 HD
BRANCH   8  11
ATOM     11  C   UNL A   1      45.033  44.185  24.602  1.00  0.00     0.105 C 
BRANCH  11  12
ATOM     12  C   UNL A   1      46.034  44.786  25.578  1.00  0.00     0.053 C 
BRANCH  12  13
ATOM     13  C   UNL A   1      45.813  44.153  26.910  1.00  0.00     0.042 A 
ATOM     14  C   UNL A   1      43.690  42.550  35.393  1.00  0.00     0.088 C 
ATOM     15  C   UNL A   1      43.516  42.518  33.925  1.00  0.00     0.105 A 
ATOM     16  O   UNL A   1      44.025  41.462  33.205  1.00  0.00    -0.461 OA
ATOM     17  C   UNL A   1      42.988  43.470  33.088  1.00  0.00    -0.002 A 
ATOM     18  C   UNL A   1      44.038  41.838  31.873  1.00  0.00     0.141 A 
ATOM     19  C   UNL A   1      43.502  43.122  31.811  1.00  0.00     0.025 A 
ATOM     20  C   UNL A   1      42.302  44.741  33.455  1.00  0.00     0.049 C 
ATOM     21  C   UNL A   1      44.485  41.088  30.761  1.00  0.00     0.036 A 
ATOM     22  C   UNL A   1      43.540  43.906  30.648  1.00  0.00     0.024 A 
ATOM     23  C   UNL A   1      44.657  39.621  30.734  1.00  0.00     0.052 C 
ATOM     24  C   UNL A   1      44.742  42.011  29.741  1.00  0.00     0.145 A 
ATOM     25  C   UNL A   1      44.559  43.738  29.739  1.00  0.00     0.022 A 
ATOM     26  O   UNL A   1      45.447  41.346  28.201  1.00  0.00    -0.422 OA
ATOM     27  C   UNL A   1      45.262  44.870  28.250  1.00  0.00    -0.030 A 
ATOM     28  C   UNL A   1      46.007  42.240  26.753  1.00  0.00     0.339 A 
ATOM     29  C   UNL A   1      45.455  46.399  28.178  1.00  0.00     0.046 C 
ATOM     30  O   UNL A   1      46.613  41.669  25.857  1.00  0.00    -0.246 OA
ENDBRANCH  12  13
ENDBRANCH  11  12
ENDBRANCH   8  11
ENDBRANCH   6   7
BRANCH   6  31
ATOM     31  C   UNL A   1      44.337  43.913  20.347  1.00  0.00     0.070 C 
BRANCH  31  32
ATOM     32  C   UNL A   1      43.734  44.908  19.165  1.00  0.00    -0.045 A 
ATOM     33  C   UNL A   1      44.341  46.059  18.572  1.00  0.00     0.005 A 
ATOM     34  C   UNL A   1      42.427  44.716  18.707  1.00  0.00     0.005 A 
ATOM     35  C   UNL A   1      43.731  47.018  17.764  1.00  0.00     0.021 A 
ATOM     36  C   UNL A   1      41.818  45.618  17.785  1.00  0.00     0.021 A 
ATOM     37  C   UNL A   1      42.457  46.778  17.345  1.00  0.00     0.041 A 
ATOM     38  Cl  UNL A   1      41.706  47.902  16.291  1.00  0.00    -0.084 Cl
ENDBRANCH  31  32
ENDBRANCH   6  31
ENDBRANCH   3   6
ENDBRANCH   1   2
BRANCH   1  39
ATOM     39  C   UNL A   1      41.663  40.109  26.410  1.00  0.00     0.023 C 
BRANCH  39  40
ATOM     40  C   UNL A   1      42.329  39.609  27.721  1.00  0.00     0.023 C 
BRANCH  40  41
ATOM     41  C   UNL A   1      43.363  38.463  27.640  1.00  0.00     0.116 C 
BRANCH  41  42
ATOM     42  N   UNL A   1      43.083  37.518  26.570  1.00  0.00    -0.352 N 
ATOM     43  C   UNL A   1      42.904  36.154  26.571  1.00  0.00     0.251 C 
ATOM     44  H   UNL A   1      43.007  37.931  25.679  1.00  0.00     0.163 HD
ATOM     45  O   UNL A   1      42.927  35.563  25.491  1.00  0.00    -0.269 OA
BRANCH  43  46
ATOM     46  C   UNL A   1      42.663  35.357  27.798  1.00  0.00     0.039 A 
ATOM     47  C   UNL A   1      41.363  35.342  28.329  1.00  0.00     0.014 A 
ATOM     48  C   UNL A   1      43.705  34.770  28.521  1.00  0.00     0.014 A 
ATOM     49  C   UNL A   1      41.098  34.699  29.539  1.00  0.00     0.010 A 
ATOM     50  C   UNL A   1      43.439  34.125  29.733  1.00  0.00     0.010 A 
ATOM     51  C   UNL A   1      42.132  34.066  30.235  1.00  0.00    -0.014 A 
BRANCH  51  52
ATOM     52  C   UNL A   1      41.751  33.196  31.367  1.00  0.00     0.031 A 
ATOM     53  C   UNL A   1      40.287  33.338  31.716  1.00  0.00     0.074 A 
ATOM     54  C   UNL A   1      42.347  31.998  31.565  1.00  0.00     0.049 A 
ATOM     55  N   UNL A   1      39.319  32.757  31.064  1.00  0.00    -0.248 NA
ATOM     56  C   UNL A   1      39.818  34.403  32.608  1.00  0.00     0.031 C 
ATOM     57  C   UNL A   1      42.681  31.021  30.530  1.00  0.00     0.029 A 
ATOM     58  N   UNL A   1      42.634  31.356  32.762  1.00  0.00    -0.354 N 
ATOM     59  C   UNL A   1      38.126  33.365  31.439  1.00  0.00     0.074 A 
ATOM     60  C   UNL A   1      38.492  34.394  32.385  1.00  0.00     0.031 C 
ATOM     61  C   UNL A   1      42.978  29.846  31.120  1.00  0.00     0.029 A 
ATOM     62  C   UNL A   1      42.958  30.001  32.575  1.00  0.00     0.049 A 
ATOM     63  H   UNL A   1      42.613  31.799  33.641  1.00  0.00     0.167 HD
ATOM     64  C   UNL A   1      36.915  32.959  30.964  1.00  0.00     0.037 A 
ATOM     65  C   UNL A   1      42.550  29.039  33.459  1.00  0.00     0.037 A 
ATOM     66  C   UNL A   1      36.973  31.820  30.095  1.00  0.00     0.049 A 
ATOM     67  C   UNL A   1      41.098  28.891  33.063  1.00  0.00     0.074 A 
ATOM     68  C   UNL A   1      36.863  31.525  28.758  1.00  0.00     0.029 A 
ATOM     69  N   UNL A   1      37.205  30.610  30.701  1.00  0.00    -0.354 N 
ATOM     70  N   UNL A   1      40.661  28.286  31.989  1.00  0.00    -0.248 NA
ATOM     71  C   UNL A   1      40.147  29.830  33.662  1.00  0.00     0.031 C 
ATOM     72  C   UNL A   1      37.516  30.259  28.601  1.00  0.00     0.029 A 
ATOM     73  C   UNL A   1      37.979  29.865  29.857  1.00  0.00     0.049 A 
ATOM     74  H   UNL A   1      36.875  30.328  31.585  1.00  0.00     0.167 HD
ATOM     75  C   UNL A   1      39.523  28.999  31.601  1.00  0.00     0.074 A 
ATOM     76  C   UNL A   1      39.254  29.923  32.686  1.00  0.00     0.031 C 
ATOM     77  C   UNL A   1      38.979  28.945  30.348  1.00  0.00     0.037 A 
BRANCH  64  78
ATOM     78  C   UNL A   1      35.582  33.381  31.457  1.00  0.00     0.057 A 
ATOM     79  C   UNL A   1      34.888  34.333  30.691  1.00  0.00     0.134 A 
ATOM     80  C   UNL A   1      35.100  33.116  32.739  1.00  0.00     0.134 A 
ATOM     81  F   UNL A   1      35.312  34.637  29.453  1.00  0.00    -0.206 F 
ATOM     82  C   UNL A   1      33.798  35.039  31.193  1.00  0.00     0.040 A 
ATOM     83  C   UNL A   1      33.989  33.804  33.250  1.00  0.00     0.040 A 
ATOM     84  F   UNL A   1      35.725  32.240  33.539  1.00  0.00    -0.206 F 
ATOM     85  C   UNL A   1      33.349  34.781  32.484  1.00  0.00     0.006 A 
ENDBRANCH  64  78
BRANCH  65  86
ATOM     86  C   UNL A   1      43.032  29.247  34.865  1.00  0.00     0.057 A 
ATOM     87  C   UNL A   1      43.958  28.319  35.382  1.00  0.00     0.134 A 
ATOM     88  C   UNL A   1      42.706  30.309  35.717  1.00  0.00     0.134 A 
ATOM     89  F   UNL A   1      44.236  27.192  34.707  1.00  0.00    -0.206 F 
ATOM     90  C   UNL A   1      44.652  28.529  36.577  1.00  0.00     0.040 A 
ATOM     91  C   UNL A   1      43.405  30.544  36.910  1.00  0.00     0.040 A 
ATOM     92  F   UNL A   1      41.719  31.165  35.423  1.00  0.00    -0.206 F 
ATOM     93  C   UNL A   1      44.407  29.672  37.324  1.00  0.00     0.006 A 
ENDBRANCH  65  86
BRANCH  77  94
ATOM     94  C   UNL A   1      39.605  27.986  29.394  1.00  0.00     0.057 A 
ATOM     95  C   UNL A   1      39.295  26.626  29.450  1.00  0.00     0.134 A 
ATOM     96  C   UNL A   1      40.451  28.417  28.360  1.00  0.00     0.134 A 
ATOM     97  F   UNL A   1      38.480  26.149  30.405  1.00  0.00    -0.206 F 
ATOM     98  C   UNL A   1      39.780  25.731  28.497  1.00  0.00     0.040 A 
ATOM     99  C   UNL A   1      40.914  27.537  27.382  1.00  0.00     0.040 A 
ATOM    100  F   UNL A   1      40.816  29.705  28.255  1.00  0.00    -0.206 F 
ATOM    101  C   UNL A   1      40.575  26.188  27.448  1.00  0.00     0.006 A 
ENDBRANCH  77  94
ENDBRANCH  51  52
ENDBRANCH  43  46
ENDBRANCH  41  42
ENDBRANCH  40  41
ENDBRANCH  39  40
ENDBRANCH   1  39
TORSDOF 17
ENDMDL
