MODEL 1
REMARK VINA RESULT:     -13.0      0.000      0.000
REMARK SMILES COc1ccc(-n2c(=O)[nH]c3cc(C(=O)NCCCCNC(=O)c4ccc(-c5c6nc(c(-c7c(F)cccc7F)c7ccc([nH]7)c(-c7c(F)cccc7F)c7nc(c(-c8c(F)cccc8F)c8ccc5[nH]8)C=C7)C=C6)cc4)ccc3c2=O)cc1
REMARK SMILES IDX 18 1 17 2 16 3 14 4 15 5 13 7 7 8 8 9 81 10 9 11 10 12 80 13
REMARK SMILES IDX 82 14 11 15 79 17 12 18 78 19 6 20 3 21 4 22 84 23 5 24
REMARK SMILES IDX 83 25 2 26 1 27 19 28 20 29 21 30 22 31 23 33 24 34 25 35
REMARK SMILES IDX 77 36 26 37 76 38 27 39 28 40 29 41 70 42 30 43 75 44 69 45
REMARK SMILES IDX 71 46 31 47 74 48 68 49 67 50 32 52 58 53 41 54 57 55 42 56
REMARK SMILES IDX 45 57 56 58 72 59 43 60 44 61 55 63 73 64 46 65 33 66 34 67
REMARK SMILES IDX 39 68 35 69 36 70 38 71 40 72 37 73 59 74 60 75 65 76 61 77
REMARK SMILES IDX 62 78 64 79 66 80 63 81 47 82 48 83 53 84 49 85 50 86 52 87
REMARK SMILES IDX 54 88 51 89
REMARK H PARENT 16 6 10 16 21 32 71 51 45 62
REMARK Flexibility Score: inf
ROOT
ATOM      1  C   UNL A   1      35.955  21.853  24.748  1.00  0.00     0.023 C 
ENDROOT
BRANCH   1   2
ATOM      2  C   UNL A   1      35.190  21.322  25.956  1.00  0.00     0.116 C 
BRANCH   2   3
ATOM      3  N   UNL A   1      34.226  20.288  25.624  1.00  0.00    -0.352 N 
ATOM      4  C   UNL A   1      32.889  20.383  25.319  1.00  0.00     0.251 C 
ATOM      5  O   UNL A   1      32.237  19.355  25.159  1.00  0.00    -0.269 OA
ATOM      6  H   UNL A   1      34.586  19.372  25.615  1.00  0.00     0.163 HD
BRANCH   4   7
ATOM      7  C   UNL A   1      32.204  21.695  25.203  1.00  0.00     0.041 A 
ATOM      8  N   UNL A   1      30.639  26.205  23.584  1.00  0.00    -0.228 N 
ATOM      9  C   UNL A   1      31.280  25.616  22.485  1.00  0.00     0.333 A 
ATOM     10  C   UNL A   1      30.223  25.416  24.666  1.00  0.00     0.268 A 
ATOM     11  O   UNL A   1      31.522  26.131  21.394  1.00  0.00    -0.247 OA
ATOM     12  N   UNL A   1      31.715  24.319  22.640  1.00  0.00    -0.306 N 
ATOM     13  C   UNL A   1      30.931  24.151  24.882  1.00  0.00     0.064 A 
ATOM     14  O   UNL A   1      29.283  25.644  25.428  1.00  0.00    -0.268 OA
ATOM     15  C   UNL A   1      31.629  23.601  23.823  1.00  0.00     0.056 A 
ATOM     16  H   UNL A   1      32.114  23.872  21.859  1.00  0.00     0.171 HD
ATOM     17  C   UNL A   1      30.904  23.518  26.126  1.00  0.00     0.017 A 
ATOM     18  C   UNL A   1      32.247  22.358  23.964  1.00  0.00     0.040 A 
ATOM     19  C   UNL A   1      31.583  22.313  26.296  1.00  0.00     0.015 A 
BRANCH   8  20
ATOM     20  C   UNL A   1      30.295  27.620  23.601  1.00  0.00     0.054 A 
ATOM     21  C   UNL A   1      29.543  30.367  23.577  1.00  0.00     0.119 A 
ATOM     22  C   UNL A   1      28.763  29.426  22.925  1.00  0.00     0.048 A 
ATOM     23  C   UNL A   1      30.659  29.947  24.291  1.00  0.00     0.048 A 
ATOM     24  C   UNL A   1      29.134  28.078  22.939  1.00  0.00     0.031 A 
ATOM     25  C   UNL A   1      31.030  28.591  24.298  1.00  0.00     0.031 A 
BRANCH  21  26
ATOM     26  O   UNL A   1      29.116  31.663  23.515  1.00  0.00    -0.497 OA
ATOM     27  C   UNL A   1      27.705  31.780  23.349  1.00  0.00     0.278 C 
ENDBRANCH  21  26
ENDBRANCH   8  20
ENDBRANCH   4   7
ENDBRANCH   2   3
ENDBRANCH   1   2
BRANCH   1  28
ATOM     28  C   UNL A   1      37.294  21.183  24.455  1.00  0.00     0.023 C 
BRANCH  28  29
ATOM     29  C   UNL A   1      38.291  21.151  25.608  1.00  0.00     0.116 C 
BRANCH  29  30
ATOM     30  N   UNL A   1      39.191  20.007  25.568  1.00  0.00    -0.352 N 
ATOM     31  C   UNL A   1      40.512  19.901  25.944  1.00  0.00     0.251 C 
ATOM     32  H   UNL A   1      38.793  19.179  25.214  1.00  0.00     0.163 HD
ATOM     33  O   UNL A   1      41.128  18.866  25.732  1.00  0.00    -0.269 OA
BRANCH  31  34
ATOM     34  C   UNL A   1      41.199  21.055  26.564  1.00  0.00     0.039 A 
ATOM     35  C   UNL A   1      41.801  22.003  25.732  1.00  0.00     0.014 A 
ATOM     36  C   UNL A   1      41.220  21.222  27.949  1.00  0.00     0.014 A 
ATOM     37  C   UNL A   1      42.326  23.173  26.285  1.00  0.00     0.010 A 
ATOM     38  C   UNL A   1      41.669  22.423  28.491  1.00  0.00     0.010 A 
ATOM     39  C   UNL A   1      42.210  23.418  27.663  1.00  0.00    -0.014 A 
BRANCH  39  40
ATOM     40  C   UNL A   1      42.594  24.728  28.250  1.00  0.00     0.031 A 
ATOM     41  C   UNL A   1      41.564  25.800  28.460  1.00  0.00     0.074 A 
ATOM     42  C   UNL A   1      43.893  24.984  28.500  1.00  0.00     0.049 A 
ATOM     43  N   UNL A   1      41.727  27.033  28.866  1.00  0.00    -0.248 NA
ATOM     44  C   UNL A   1      40.172  25.449  28.142  1.00  0.00     0.031 C 
ATOM     45  C   UNL A   1      44.998  24.048  28.280  1.00  0.00     0.029 A 
ATOM     46  N   UNL A   1      44.508  26.115  28.975  1.00  0.00    -0.354 N 
ATOM     47  C   UNL A   1      40.465  27.612  28.832  1.00  0.00     0.074 A 
ATOM     48  C   UNL A   1      39.556  26.608  28.322  1.00  0.00     0.031 C 
ATOM     49  C   UNL A   1      46.151  24.638  28.632  1.00  0.00     0.029 A 
ATOM     50  C   UNL A   1      45.874  26.004  29.064  1.00  0.00     0.049 A 
ATOM     51  H   UNL A   1      44.016  26.931  29.226  1.00  0.00     0.167 HD
ATOM     52  C   UNL A   1      40.095  28.859  29.210  1.00  0.00     0.037 A 
ATOM     53  C   UNL A   1      46.803  26.904  29.435  1.00  0.00     0.037 A 
ATOM     54  C   UNL A   1      41.000  29.846  29.740  1.00  0.00     0.049 A 
ATOM     55  C   UNL A   1      46.371  28.282  29.850  1.00  0.00     0.074 A 
ATOM     56  C   UNL A   1      40.707  31.104  30.237  1.00  0.00     0.029 A 
ATOM     57  N   UNL A   1      42.375  29.691  29.830  1.00  0.00    -0.354 N 
ATOM     58  N   UNL A   1      45.162  28.786  29.896  1.00  0.00    -0.248 NA
ATOM     59  C   UNL A   1      47.429  29.212  30.263  1.00  0.00     0.031 C 
ATOM     60  C   UNL A   1      41.911  31.729  30.581  1.00  0.00     0.029 A 
ATOM     61  C   UNL A   1      42.949  30.843  30.342  1.00  0.00     0.049 A 
ATOM     62  H   UNL A   1      42.871  28.881  29.570  1.00  0.00     0.167 HD
ATOM     63  C   UNL A   1      45.311  30.088  30.354  1.00  0.00     0.074 A 
ATOM     64  C   UNL A   1      46.727  30.288  30.592  1.00  0.00     0.031 C 
ATOM     65  C   UNL A   1      44.362  31.034  30.558  1.00  0.00     0.037 A 
BRANCH  52  66
ATOM     66  C   UNL A   1      38.647  29.223  29.058  1.00  0.00     0.057 A 
ATOM     67  C   UNL A   1      37.752  29.170  30.135  1.00  0.00     0.134 A 
ATOM     68  C   UNL A   1      38.144  29.649  27.822  1.00  0.00     0.134 A 
ATOM     69  F   UNL A   1      38.166  28.761  31.343  1.00  0.00    -0.206 F 
ATOM     70  C   UNL A   1      36.403  29.495  29.981  1.00  0.00     0.040 A 
ATOM     71  C   UNL A   1      36.804  30.002  27.662  1.00  0.00     0.040 A 
ATOM     72  F   UNL A   1      38.947  29.728  26.751  1.00  0.00    -0.206 F 
ATOM     73  C   UNL A   1      35.927  29.917  28.741  1.00  0.00     0.006 A 
ENDBRANCH  52  66
BRANCH  53  74
ATOM     74  C   UNL A   1      48.236  26.520  29.441  1.00  0.00     0.057 A 
ATOM     75  C   UNL A   1      48.804  25.867  30.541  1.00  0.00     0.134 A 
ATOM     76  C   UNL A   1      49.066  26.776  28.342  1.00  0.00     0.134 A 
ATOM     77  F   UNL A   1      48.063  25.611  31.628  1.00  0.00    -0.206 F 
ATOM     78  C   UNL A   1      50.147  25.489  30.552  1.00  0.00     0.040 A 
ATOM     79  C   UNL A   1      50.406  26.383  28.331  1.00  0.00     0.040 A 
ATOM     80  F   UNL A   1      48.580  27.392  27.255  1.00  0.00    -0.206 F 
ATOM     81  C   UNL A   1      50.951  25.741  29.441  1.00  0.00     0.006 A 
ENDBRANCH  53  74
BRANCH  65  82
ATOM     82  C   UNL A   1      44.823  32.369  31.064  1.00  0.00     0.057 A 
ATOM     83  C   UNL A   1      45.144  33.415  30.190  1.00  0.00     0.134 A 
ATOM     84  C   UNL A   1      44.913  32.623  32.438  1.00  0.00     0.134 A 
ATOM     85  F   UNL A   1      45.093  33.232  28.862  1.00  0.00    -0.206 F 
ATOM     86  C   UNL A   1      45.555  34.662  30.665  1.00  0.00     0.040 A 
ATOM     87  C   UNL A   1      45.298  33.873  32.925  1.00  0.00     0.040 A 
ATOM     88  F   UNL A   1      44.612  31.667  33.329  1.00  0.00    -0.206 F 
ATOM     89  C   UNL A   1      45.626  34.895  32.036  1.00  0.00     0.006 A 
ENDBRANCH  65  82
ENDBRANCH  39  40
ENDBRANCH  31  34
ENDBRANCH  29  30
ENDBRANCH  28  29
ENDBRANCH   1  28
TORSDOF 13
ENDMDL
MODEL 2
REMARK VINA RESULT:     -12.9      1.648      2.341
REMARK SMILES COc1ccc(-n2c(=O)[nH]c3cc(C(=O)NCCCCNC(=O)c4ccc(-c5c6nc(c(-c7c(F)cccc7F)c7ccc([nH]7)c(-c7c(F)cccc7F)c7nc(c(-c8c(F)cccc8F)c8ccc5[nH]8)C=C7)C=C6)cc4)ccc3c2=O)cc1
REMARK SMILES IDX 18 1 17 2 16 3 14 4 15 5 13 7 7 8 8 9 81 10 9 11 10 12 80 13
REMARK SMILES IDX 82 14 11 15 79 17 12 18 78 19 6 20 3 21 4 22 84 23 5 24
REMARK SMILES IDX 83 25 2 26 1 27 19 28 20 29 21 30 22 31 23 33 24 34 25 35
REMARK SMILES IDX 77 36 26 37 76 38 27 39 28 40 29 41 70 42 30 43 75 44 69 45
REMARK SMILES IDX 71 46 31 47 74 48 68 49 67 50 32 52 58 53 41 54 57 55 42 56
REMARK SMILES IDX 45 57 56 58 72 59 43 60 44 61 55 63 73 64 46 65 33 66 34 67
REMARK SMILES IDX 39 68 35 69 36 70 38 71 40 72 37 73 59 74 60 75 65 76 61 77
REMARK SMILES IDX 62 78 64 79 66 80 63 81 47 82 48 83 53 84 49 85 50 86 52 87
REMARK SMILES IDX 54 88 51 89
REMARK H PARENT 16 6 10 16 21 32 71 51 45 62
REMARK Flexibility Score: inf
ROOT
ATOM      1  C   UNL A   1      36.824  19.863  24.968  1.00  0.00     0.023 C 
ENDROOT
BRANCH   1   2
ATOM      2  C   UNL A   1      35.523  20.616  25.226  1.00  0.00     0.116 C 
BRANCH   2   3
ATOM      3  N   UNL A   1      34.356  19.754  25.289  1.00  0.00    -0.352 N 
ATOM      4  C   UNL A   1      33.031  20.031  25.049  1.00  0.00     0.251 C 
ATOM      5  O   UNL A   1      32.190  19.160  25.255  1.00  0.00    -0.269 OA
ATOM      6  H   UNL A   1      34.542  18.822  25.543  1.00  0.00     0.163 HD
BRANCH   4   7
ATOM      7  C   UNL A   1      32.583  21.365  24.573  1.00  0.00     0.041 A 
ATOM      8  N   UNL A   1      30.742  26.052  24.355  1.00  0.00    -0.228 N 
ATOM      9  C   UNL A   1      30.938  25.791  25.719  1.00  0.00     0.333 A 
ATOM     10  C   UNL A   1      31.378  25.262  23.386  1.00  0.00     0.268 A 
ATOM     11  O   UNL A   1      30.617  26.501  26.672  1.00  0.00    -0.247 OA
ATOM     12  N   UNL A   1      31.537  24.595  26.044  1.00  0.00    -0.306 N 
ATOM     13  C   UNL A   1      31.758  23.902  23.777  1.00  0.00     0.064 A 
ATOM     14  O   UNL A   1      31.706  25.608  22.251  1.00  0.00    -0.268 OA
ATOM     15  C   UNL A   1      31.880  23.616  25.123  1.00  0.00     0.056 A 
ATOM     16  H   UNL A   1      31.735  24.423  26.993  1.00  0.00     0.171 HD
ATOM     17  C   UNL A   1      31.989  22.918  22.813  1.00  0.00     0.017 A 
ATOM     18  C   UNL A   1      32.319  22.357  25.534  1.00  0.00     0.040 A 
ATOM     19  C   UNL A   1      32.355  21.636  23.218  1.00  0.00     0.015 A 
BRANCH   8  20
ATOM     20  C   UNL A   1      29.965  27.196  23.899  1.00  0.00     0.054 A 
ATOM     21  C   UNL A   1      28.365  29.374  23.000  1.00  0.00     0.119 A 
ATOM     22  C   UNL A   1      27.798  28.124  23.183  1.00  0.00     0.048 A 
ATOM     23  C   UNL A   1      29.705  29.566  23.316  1.00  0.00     0.048 A 
ATOM     24  C   UNL A   1      28.586  27.056  23.625  1.00  0.00     0.031 A 
ATOM     25  C   UNL A   1      30.493  28.488  23.755  1.00  0.00     0.031 A 
BRANCH  21  26
ATOM     26  O   UNL A   1      27.531  30.364  22.563  1.00  0.00    -0.497 OA
ATOM     27  C   UNL A   1      27.712  31.594  23.259  1.00  0.00     0.278 C 
ENDBRANCH  21  26
ENDBRANCH   8  20
ENDBRANCH   4   7
ENDBRANCH   2   3
ENDBRANCH   1   2
BRANCH   1  28
ATOM     28  C   UNL A   1      38.087  20.716  24.880  1.00  0.00     0.023 C 
BRANCH  28  29
ATOM     29  C   UNL A   1      39.060  20.589  26.048  1.00  0.00     0.116 C 
BRANCH  29  30
ATOM     30  N   UNL A   1      39.971  19.459  25.925  1.00  0.00    -0.352 N 
ATOM     31  C   UNL A   1      41.342  19.407  26.039  1.00  0.00     0.251 C 
ATOM     32  H   UNL A   1      39.537  18.597  25.728  1.00  0.00     0.163 HD
ATOM     33  O   UNL A   1      41.938  18.367  25.796  1.00  0.00    -0.269 OA
BRANCH  31  34
ATOM     34  C   UNL A   1      42.100  20.621  26.411  1.00  0.00     0.039 A 
ATOM     35  C   UNL A   1      42.610  21.431  25.393  1.00  0.00     0.014 A 
ATOM     36  C   UNL A   1      42.277  20.979  27.748  1.00  0.00     0.014 A 
ATOM     37  C   UNL A   1      43.199  22.656  25.714  1.00  0.00     0.010 A 
ATOM     38  C   UNL A   1      42.790  22.233  28.063  1.00  0.00     0.010 A 
ATOM     39  C   UNL A   1      43.240  23.092  27.049  1.00  0.00    -0.014 A 
BRANCH  39  40
ATOM     40  C   UNL A   1      43.693  24.463  27.401  1.00  0.00     0.031 A 
ATOM     41  C   UNL A   1      42.705  25.502  27.846  1.00  0.00     0.074 A 
ATOM     42  C   UNL A   1      44.987  24.797  27.220  1.00  0.00     0.049 A 
ATOM     43  N   UNL A   1      42.900  26.771  28.099  1.00  0.00    -0.248 NA
ATOM     44  C   UNL A   1      41.310  25.064  27.997  1.00  0.00     0.031 C 
ATOM     45  C   UNL A   1      46.033  23.896  26.732  1.00  0.00     0.029 A 
ATOM     46  N   UNL A   1      45.637  25.991  27.405  1.00  0.00    -0.354 N 
ATOM     47  C   UNL A   1      41.650  27.287  28.418  1.00  0.00     0.074 A 
ATOM     48  C   UNL A   1      40.700  26.205  28.281  1.00  0.00     0.031 C 
ATOM     49  C   UNL A   1      47.196  24.565  26.672  1.00  0.00     0.029 A 
ATOM     50  C   UNL A   1      46.970  25.949  27.075  1.00  0.00     0.049 A 
ATOM     51  H   UNL A   1      45.190  26.802  27.742  1.00  0.00     0.167 HD
ATOM     52  C   UNL A   1      41.328  28.544  28.808  1.00  0.00     0.037 A 
ATOM     53  C   UNL A   1      47.904  26.917  27.081  1.00  0.00     0.037 A 
ATOM     54  C   UNL A   1      42.282  29.612  28.965  1.00  0.00     0.049 A 
ATOM     55  C   UNL A   1      47.525  28.304  27.517  1.00  0.00     0.074 A 
ATOM     56  C   UNL A   1      42.069  30.893  29.444  1.00  0.00     0.029 A 
ATOM     57  N   UNL A   1      43.626  29.527  28.637  1.00  0.00    -0.354 N 
ATOM     58  N   UNL A   1      46.356  28.757  27.900  1.00  0.00    -0.248 NA
ATOM     59  C   UNL A   1      48.593  29.313  27.520  1.00  0.00     0.031 C 
ATOM     60  C   UNL A   1      43.274  31.598  29.357  1.00  0.00     0.029 A 
ATOM     61  C   UNL A   1      44.249  30.742  28.869  1.00  0.00     0.049 A 
ATOM     62  H   UNL A   1      44.073  28.721  28.291  1.00  0.00     0.167 HD
ATOM     63  C   UNL A   1      46.549  30.098  28.202  1.00  0.00     0.074 A 
ATOM     64  C   UNL A   1      47.952  30.381  27.977  1.00  0.00     0.031 C 
ATOM     65  C   UNL A   1      45.643  31.014  28.625  1.00  0.00     0.037 A 
BRANCH  52  66
ATOM     66  C   UNL A   1      39.881  28.829  29.086  1.00  0.00     0.057 A 
ATOM     67  C   UNL A   1      39.330  28.685  30.367  1.00  0.00     0.134 A 
ATOM     68  C   UNL A   1      39.031  29.270  28.064  1.00  0.00     0.134 A 
ATOM     69  F   UNL A   1      40.086  28.255  31.387  1.00  0.00    -0.206 F 
ATOM     70  C   UNL A   1      37.979  28.936  30.613  1.00  0.00     0.040 A 
ATOM     71  C   UNL A   1      37.686  29.551  28.304  1.00  0.00     0.040 A 
ATOM     72  F   UNL A   1      39.495  29.436  26.816  1.00  0.00    -0.206 F 
ATOM     73  C   UNL A   1      37.154  29.375  29.579  1.00  0.00     0.006 A 
ENDBRANCH  52  66
BRANCH  53  74
ATOM     74  C   UNL A   1      49.294  26.600  26.670  1.00  0.00     0.057 A 
ATOM     75  C   UNL A   1      49.719  26.798  25.351  1.00  0.00     0.134 A 
ATOM     76  C   UNL A   1      50.235  26.114  27.586  1.00  0.00     0.134 A 
ATOM     77  F   UNL A   1      48.858  27.244  24.425  1.00  0.00    -0.206 F 
ATOM     78  C   UNL A   1      51.028  26.516  24.956  1.00  0.00     0.040 A 
ATOM     79  C   UNL A   1      51.553  25.850  27.209  1.00  0.00     0.040 A 
ATOM     80  F   UNL A   1      49.891  25.911  28.866  1.00  0.00    -0.206 F 
ATOM     81  C   UNL A   1      51.951  26.047  25.889  1.00  0.00     0.006 A 
ENDBRANCH  53  74
BRANCH  65  82
ATOM     82  C   UNL A   1      46.144  32.406  28.874  1.00  0.00     0.057 A 
ATOM     83  C   UNL A   1      46.108  33.389  27.877  1.00  0.00     0.134 A 
ATOM     84  C   UNL A   1      46.634  32.778  30.133  1.00  0.00     0.134 A 
ATOM     85  F   UNL A   1      45.663  33.094  26.647  1.00  0.00    -0.206 F 
ATOM     86  C   UNL A   1      46.558  34.689  28.118  1.00  0.00     0.040 A 
ATOM     87  C   UNL A   1      47.062  34.080  30.392  1.00  0.00     0.040 A 
ATOM     88  F   UNL A   1      46.689  31.886  31.133  1.00  0.00    -0.206 F 
ATOM     89  C   UNL A   1      47.030  35.038  29.381  1.00  0.00     0.006 A 
ENDBRANCH  65  82
ENDBRANCH  39  40
ENDBRANCH  31  34
ENDBRANCH  29  30
ENDBRANCH  28  29
ENDBRANCH   1  28
TORSDOF 13
ENDMDL
MODEL 3
REMARK VINA RESULT:     -12.9      1.703      2.405
REMARK SMILES COc1ccc(-n2c(=O)[nH]c3cc(C(=O)NCCCCNC(=O)c4ccc(-c5c6nc(c(-c7c(F)cccc7F)c7ccc([nH]7)c(-c7c(F)cccc7F)c7nc(c(-c8c(F)cccc8F)c8ccc5[nH]8)C=C7)C=C6)cc4)ccc3c2=O)cc1
REMARK SMILES IDX 18 1 17 2 16 3 14 4 15 5 13 7 7 8 8 9 81 10 9 11 10 12 80 13
REMARK SMILES IDX 82 14 11 15 79 17 12 18 78 19 6 20 3 21 4 22 84 23 5 24
REMARK SMILES IDX 83 25 2 26 1 27 19 28 20 29 21 30 22 31 23 33 24 34 25 35
REMARK SMILES IDX 77 36 26 37 76 38 27 39 28 40 29 41 70 42 30 43 75 44 69 45
REMARK SMILES IDX 71 46 31 47 74 48 68 49 67 50 32 52 58 53 41 54 57 55 42 56
REMARK SMILES IDX 45 57 56 58 72 59 43 60 44 61 55 63 73 64 46 65 33 66 34 67
REMARK SMILES IDX 39 68 35 69 36 70 38 71 40 72 37 73 59 74 60 75 65 76 61 77
REMARK SMILES IDX 62 78 64 79 66 80 63 81 47 82 48 83 53 84 49 85 50 86 52 87
REMARK SMILES IDX 54 88 51 89
REMARK H PARENT 16 6 10 16 21 32 71 51 45 62
REMARK Flexibility Score: inf
ROOT
ATOM      1  C   UNL A   1      36.803  19.928  25.002  1.00  0.00     0.023 C 
ENDROOT
BRANCH   1   2
ATOM      2  C   UNL A   1      35.483  20.621  25.322  1.00  0.00     0.116 C 
BRANCH   2   3
ATOM      3  N   UNL A   1      34.329  19.742  25.230  1.00  0.00    -0.352 N 
ATOM      4  C   UNL A   1      33.029  20.016  24.881  1.00  0.00     0.251 C 
ATOM      5  O   UNL A   1      32.187  19.124  24.962  1.00  0.00    -0.269 OA
ATOM      6  H   UNL A   1      34.507  18.801  25.452  1.00  0.00     0.163 HD
BRANCH   4   7
ATOM      7  C   UNL A   1      32.605  21.367  24.435  1.00  0.00     0.041 A 
ATOM      8  N   UNL A   1      30.824  26.082  24.316  1.00  0.00    -0.228 N 
ATOM      9  C   UNL A   1      30.996  25.781  25.676  1.00  0.00     0.333 A 
ATOM     10  C   UNL A   1      31.465  25.310  23.336  1.00  0.00     0.268 A 
ATOM     11  O   UNL A   1      30.669  26.469  26.642  1.00  0.00    -0.247 OA
ATOM     12  N   UNL A   1      31.575  24.569  25.977  1.00  0.00    -0.306 N 
ATOM     13  C   UNL A   1      31.823  23.935  23.695  1.00  0.00     0.064 A 
ATOM     14  O   UNL A   1      31.815  25.683  22.216  1.00  0.00    -0.268 OA
ATOM     15  C   UNL A   1      31.920  23.611  25.035  1.00  0.00     0.056 A 
ATOM     16  H   UNL A   1      31.756  24.369  26.924  1.00  0.00     0.171 HD
ATOM     17  C   UNL A   1      32.056  22.975  22.709  1.00  0.00     0.017 A 
ATOM     18  C   UNL A   1      32.338  22.336  25.418  1.00  0.00     0.040 A 
ATOM     19  C   UNL A   1      32.400  21.678  23.084  1.00  0.00     0.015 A 
BRANCH   8  20
ATOM     20  C   UNL A   1      30.068  27.247  23.880  1.00  0.00     0.054 A 
ATOM     21  C   UNL A   1      28.510  29.468  23.015  1.00  0.00     0.119 A 
ATOM     22  C   UNL A   1      27.932  28.215  23.128  1.00  0.00     0.048 A 
ATOM     23  C   UNL A   1      29.839  29.640  23.384  1.00  0.00     0.048 A 
ATOM     24  C   UNL A   1      28.699  27.126  23.553  1.00  0.00     0.031 A 
ATOM     25  C   UNL A   1      30.606  28.541  23.807  1.00  0.00     0.031 A 
BRANCH  21  26
ATOM     26  O   UNL A   1      27.696  30.479  22.589  1.00  0.00    -0.497 OA
ATOM     27  C   UNL A   1      27.651  31.579  23.494  1.00  0.00     0.278 C 
ENDBRANCH  21  26
ENDBRANCH   8  20
ENDBRANCH   4   7
ENDBRANCH   2   3
ENDBRANCH   1   2
BRANCH   1  28
ATOM     28  C   UNL A   1      38.036  20.827  24.950  1.00  0.00     0.023 C 
BRANCH  28  29
ATOM     29  C   UNL A   1      39.011  20.688  26.114  1.00  0.00     0.116 C 
BRANCH  29  30
ATOM     30  N   UNL A   1      39.905  19.545  25.991  1.00  0.00    -0.352 N 
ATOM     31  C   UNL A   1      41.277  19.475  26.079  1.00  0.00     0.251 C 
ATOM     32  H   UNL A   1      39.456  18.685  25.816  1.00  0.00     0.163 HD
ATOM     33  O   UNL A   1      41.854  18.423  25.841  1.00  0.00    -0.269 OA
BRANCH  31  34
ATOM     34  C   UNL A   1      42.059  20.685  26.417  1.00  0.00     0.039 A 
ATOM     35  C   UNL A   1      42.542  21.483  25.377  1.00  0.00     0.014 A 
ATOM     36  C   UNL A   1      42.283  21.050  27.745  1.00  0.00     0.014 A 
ATOM     37  C   UNL A   1      43.154  22.703  25.670  1.00  0.00     0.010 A 
ATOM     38  C   UNL A   1      42.818  22.301  28.034  1.00  0.00     0.010 A 
ATOM     39  C   UNL A   1      43.243  23.149  26.999  1.00  0.00    -0.014 A 
BRANCH  39  40
ATOM     40  C   UNL A   1      43.721  24.517  27.326  1.00  0.00     0.031 A 
ATOM     41  C   UNL A   1      42.748  25.590  27.723  1.00  0.00     0.074 A 
ATOM     42  C   UNL A   1      45.025  24.816  27.165  1.00  0.00     0.049 A 
ATOM     43  N   UNL A   1      42.967  26.860  27.947  1.00  0.00    -0.248 NA
ATOM     44  C   UNL A   1      41.340  25.188  27.855  1.00  0.00     0.031 C 
ATOM     45  C   UNL A   1      46.060  23.880  26.723  1.00  0.00     0.029 A 
ATOM     46  N   UNL A   1      45.699  26.000  27.334  1.00  0.00    -0.354 N 
ATOM     47  C   UNL A   1      41.724  27.413  28.226  1.00  0.00     0.074 A 
ATOM     48  C   UNL A   1      40.751  26.349  28.096  1.00  0.00     0.031 C 
ATOM     49  C   UNL A   1      47.239  24.520  26.670  1.00  0.00     0.029 A 
ATOM     50  C   UNL A   1      47.038  25.919  27.034  1.00  0.00     0.049 A 
ATOM     51  H   UNL A   1      45.265  26.829  27.639  1.00  0.00     0.167 HD
ATOM     52  C   UNL A   1      41.423  28.687  28.577  1.00  0.00     0.037 A 
ATOM     53  C   UNL A   1      47.994  26.865  27.035  1.00  0.00     0.037 A 
ATOM     54  C   UNL A   1      42.398  29.736  28.728  1.00  0.00     0.049 A 
ATOM     55  C   UNL A   1      47.638  28.272  27.427  1.00  0.00     0.074 A 
ATOM     56  C   UNL A   1      42.205  31.034  29.169  1.00  0.00     0.029 A 
ATOM     57  N   UNL A   1      43.746  29.612  28.431  1.00  0.00    -0.354 N 
ATOM     58  N   UNL A   1      46.473  28.760  27.774  1.00  0.00    -0.248 NA
ATOM     59  C   UNL A   1      48.729  29.255  27.428  1.00  0.00     0.031 C 
ATOM     60  C   UNL A   1      43.428  31.709  29.091  1.00  0.00     0.029 A 
ATOM     61  C   UNL A   1      44.392  30.818  28.646  1.00  0.00     0.049 A 
ATOM     62  H   UNL A   1      44.182  28.787  28.116  1.00  0.00     0.167 HD
ATOM     63  C   UNL A   1      46.690  30.104  28.045  1.00  0.00     0.074 A 
ATOM     64  C   UNL A   1      48.104  30.349  27.844  1.00  0.00     0.031 C 
ATOM     65  C   UNL A   1      45.798  31.051  28.425  1.00  0.00     0.037 A 
BRANCH  52  66
ATOM     66  C   UNL A   1      39.977  29.012  28.816  1.00  0.00     0.057 A 
ATOM     67  C   UNL A   1      39.103  29.323  27.765  1.00  0.00     0.134 A 
ATOM     68  C   UNL A   1      39.447  28.998  30.113  1.00  0.00     0.134 A 
ATOM     69  F   UNL A   1      39.549  29.365  26.501  1.00  0.00    -0.206 F 
ATOM     70  C   UNL A   1      37.764  29.640  27.999  1.00  0.00     0.040 A 
ATOM     71  C   UNL A   1      38.105  29.287  30.356  1.00  0.00     0.040 A 
ATOM     72  F   UNL A   1      40.227  28.703  31.164  1.00  0.00    -0.206 F 
ATOM     73  C   UNL A   1      37.261  29.618  29.298  1.00  0.00     0.006 A 
ENDBRANCH  52  66
BRANCH  53  74
ATOM     74  C   UNL A   1      49.384  26.506  26.663  1.00  0.00     0.057 A 
ATOM     75  C   UNL A   1      50.271  25.978  27.608  1.00  0.00     0.134 A 
ATOM     76  C   UNL A   1      49.853  26.660  25.352  1.00  0.00     0.134 A 
ATOM     77  F   UNL A   1      49.884  25.825  28.883  1.00  0.00    -0.206 F 
ATOM     78  C   UNL A   1      51.577  25.623  27.266  1.00  0.00     0.040 A 
ATOM     79  C   UNL A   1      51.149  26.287  24.991  1.00  0.00     0.040 A 
ATOM     80  F   UNL A   1      49.049  27.153  24.398  1.00  0.00    -0.206 F 
ATOM     81  C   UNL A   1      52.017  25.771  25.952  1.00  0.00     0.006 A 
ENDBRANCH  53  74
BRANCH  65  82
ATOM     82  C   UNL A   1      46.325  32.438  28.649  1.00  0.00     0.057 A 
ATOM     83  C   UNL A   1      46.347  33.391  27.623  1.00  0.00     0.134 A 
ATOM     84  C   UNL A   1      46.784  32.836  29.912  1.00  0.00     0.134 A 
ATOM     85  F   UNL A   1      45.935  33.069  26.388  1.00  0.00    -0.206 F 
ATOM     86  C   UNL A   1      46.822  34.686  27.841  1.00  0.00     0.040 A 
ATOM     87  C   UNL A   1      47.237  34.134  30.147  1.00  0.00     0.040 A 
ATOM     88  F   UNL A   1      46.783  31.973  30.940  1.00  0.00    -0.206 F 
ATOM     89  C   UNL A   1      47.262  35.062  29.108  1.00  0.00     0.006 A 
ENDBRANCH  65  82
ENDBRANCH  39  40
ENDBRANCH  31  34
ENDBRANCH  29  30
ENDBRANCH  28  29
ENDBRANCH   1  28
TORSDOF 13
ENDMDL
