MODEL 1
REMARK VINA RESULT:     -12.6      0.000      0.000
REMARK SMILES O=C(CCN1C(=O)S/C(=C\c2ccc(F)cc2)C1=O)Nc1ccc(O)cc1C(=O)NCCCCNC(=O)c1ccc(-c2c3nc(c(-c4c(F)cccc4F)c4ccc([nH]4)c(-c4c(F)cccc4F)c4nc(c(-c5c(F)cccc5F)c5ccc2[nH]5)C=C4)C=C3)cc1
REMARK SMILES IDX 31 1 30 2 28 3 29 4 27 6 21 7 22 8 23 9 26 10 24 11 20 12
REMARK SMILES IDX 1 13 2 14 3 16 4 17 5 18 6 19 18 20 7 21 8 22 9 23 19 24
REMARK SMILES IDX 10 25 11 26 12 27 17 28 13 29 16 30 14 31 15 32 25 33 32 35
REMARK SMILES IDX 33 36 34 37 35 38 36 39 37 41 38 42 39 43 91 44 40 45 90 46
REMARK SMILES IDX 41 47 42 48 43 49 84 50 44 51 89 52 83 53 85 54 45 55 88 56
REMARK SMILES IDX 82 57 81 58 46 60 72 61 55 62 71 63 56 64 59 65 70 66 86 67
REMARK SMILES IDX 57 68 58 69 69 71 87 72 60 73 47 74 48 75 53 76 49 77 50 78
REMARK SMILES IDX 52 79 54 80 51 81 73 82 74 83 79 84 75 85 76 86 78 87 80 88
REMARK SMILES IDX 77 89 61 90 62 91 67 92 63 93 64 94 66 95 68 96 65 97
REMARK H PARENT 30 5 20 15 25 34 35 40 85 59 59 70
REMARK Flexibility Score: inf
ROOT
ATOM      1  C   UNL A   1      35.331  23.775  23.659  1.00  0.00     0.116 C 
ENDROOT
BRANCH   1   2
ATOM      2  N   UNL A   1      34.780  23.551  25.008  1.00  0.00    -0.352 N 
ATOM      3  C   UNL A   1      34.069  22.540  25.627  1.00  0.00     0.253 C 
ATOM      4  O   UNL A   1      33.807  22.682  26.823  1.00  0.00    -0.269 OA
ATOM      5  H   UNL A   1      34.964  24.303  25.616  1.00  0.00     0.163 HD
BRANCH   3   6
ATOM      6  C   UNL A   1      33.614  21.283  24.962  1.00  0.00     0.067 A 
ATOM      7  C   UNL A   1      32.555  21.220  24.045  1.00  0.00     0.054 A 
ATOM      8  C   UNL A   1      32.171  19.986  23.492  1.00  0.00     0.031 A 
ATOM      9  C   UNL A   1      32.906  18.832  23.755  1.00  0.00     0.048 A 
ATOM     10  C   UNL A   1      34.373  20.120  25.186  1.00  0.00     0.062 A 
ATOM     11  C   UNL A   1      34.022  18.916  24.575  1.00  0.00     0.116 A 
BRANCH   7  12
ATOM     12  N   UNL A   1      32.018  22.404  23.520  1.00  0.00    -0.325 N 
ATOM     13  O   UNL A   1      30.666  23.051  25.270  1.00  0.00    -0.275 OA
ATOM     14  C   UNL A   1      31.055  23.181  24.113  1.00  0.00     0.226 C 
ATOM     15  H   UNL A   1      32.365  22.705  22.649  1.00  0.00     0.169 HD
BRANCH  14  16
ATOM     16  C   UNL A   1      30.482  24.247  23.205  1.00  0.00     0.122 C 
BRANCH  16  17
ATOM     17  C   UNL A   1      29.992  25.496  23.926  1.00  0.00     0.140 C 
BRANCH  17  18
ATOM     18  N   UNL A   1      30.946  26.573  24.224  1.00  0.00    -0.268 N 
ATOM     19  C   UNL A   1      31.182  27.602  23.345  1.00  0.00     0.293 C 
ATOM     20  C   UNL A   1      31.403  26.796  25.495  1.00  0.00     0.268 C 
ATOM     21  O   UNL A   1      30.736  27.708  22.229  1.00  0.00    -0.261 OA
ATOM     22  S   UNL A   1      32.227  28.816  24.096  1.00  0.00    -0.022 SA
ATOM     23  C   UNL A   1      32.220  28.020  25.607  1.00  0.00     0.083 C 
ATOM     24  O   UNL A   1      31.166  26.100  26.467  1.00  0.00    -0.268 OA
ATOM     25  C   UNL A   1      32.804  28.321  26.777  1.00  0.00     0.029 C 
BRANCH  25  26
ATOM     26  C   UNL A   1      33.641  29.473  27.118  1.00  0.00    -0.024 A 
ATOM     27  C   UNL A   1      33.092  30.749  27.299  1.00  0.00     0.011 A 
ATOM     28  C   UNL A   1      35.010  29.272  27.358  1.00  0.00     0.011 A 
ATOM     29  C   UNL A   1      33.914  31.820  27.655  1.00  0.00     0.040 A 
ATOM     30  C   UNL A   1      35.829  30.346  27.716  1.00  0.00     0.040 A 
ATOM     31  C   UNL A   1      35.274  31.612  27.849  1.00  0.00     0.123 A 
ATOM     32  F   UNL A   1      36.059  32.647  28.174  1.00  0.00    -0.207 F 
ENDBRANCH  25  26
ENDBRANCH  17  18
ENDBRANCH  16  17
ENDBRANCH  14  16
ENDBRANCH   7  12
BRANCH  11  33
ATOM     33  O   UNL A   1      34.814  17.828  24.791  1.00  0.00    -0.508 OA
ATOM     34  H   UNL A   1      34.840  17.134  24.161  1.00  0.00     0.293 HD
ENDBRANCH  11  33
ENDBRANCH   3   6
ENDBRANCH   1   2
BRANCH   1  35
ATOM     35  C   UNL A   1      36.567  22.888  23.300  1.00  0.00     0.023 C 
BRANCH  35  36
ATOM     36  C   UNL A   1      37.368  21.819  24.151  1.00  0.00     0.023 C 
BRANCH  36  37
ATOM     37  C   UNL A   1      37.671  21.708  25.675  1.00  0.00     0.116 C 
BRANCH  37  38
ATOM     38  N   UNL A   1      38.787  20.798  25.947  1.00  0.00    -0.352 N 
ATOM     39  C   UNL A   1      40.072  20.998  26.381  1.00  0.00     0.251 C 
ATOM     40  H   UNL A   1      38.570  19.850  25.786  1.00  0.00     0.163 HD
ATOM     41  O   UNL A   1      40.882  20.080  26.387  1.00  0.00    -0.269 OA
BRANCH  39  42
ATOM     42  C   UNL A   1      40.457  22.311  26.903  1.00  0.00     0.039 A 
ATOM     43  C   UNL A   1      41.367  22.428  27.957  1.00  0.00     0.014 A 
ATOM     44  C   UNL A   1      39.872  23.432  26.316  1.00  0.00     0.014 A 
ATOM     45  C   UNL A   1      41.785  23.702  28.344  1.00  0.00     0.010 A 
ATOM     46  C   UNL A   1      40.314  24.694  26.678  1.00  0.00     0.010 A 
ATOM     47  C   UNL A   1      41.303  24.834  27.662  1.00  0.00    -0.014 A 
BRANCH  47  48
ATOM     48  C   UNL A   1      41.918  26.163  27.863  1.00  0.00     0.031 A 
ATOM     49  C   UNL A   1      43.288  26.462  27.339  1.00  0.00     0.074 A 
ATOM     50  C   UNL A   1      41.256  27.054  28.624  1.00  0.00     0.049 A 
ATOM     51  N   UNL A   1      43.992  27.555  27.467  1.00  0.00    -0.248 NA
ATOM     52  C   UNL A   1      43.967  25.385  26.602  1.00  0.00     0.031 C 
ATOM     53  C   UNL A   1      39.949  26.821  29.248  1.00  0.00     0.029 A 
ATOM     54  N   UNL A   1      41.582  28.328  29.010  1.00  0.00    -0.354 N 
ATOM     55  C   UNL A   1      45.196  27.302  26.823  1.00  0.00     0.074 A 
ATOM     56  C   UNL A   1      45.150  25.933  26.358  1.00  0.00     0.031 C 
ATOM     57  C   UNL A   1      39.570  27.928  29.903  1.00  0.00     0.029 A 
ATOM     58  C   UNL A   1      40.617  28.933  29.778  1.00  0.00     0.049 A 
ATOM     59  H   UNL A   1      42.428  28.766  28.761  1.00  0.00     0.167 HD
ATOM     60  C   UNL A   1      46.229  28.151  26.620  1.00  0.00     0.037 A 
ATOM     61  C   UNL A   1      40.581  30.167  30.315  1.00  0.00     0.037 A 
ATOM     62  C   UNL A   1      46.247  29.514  27.084  1.00  0.00     0.049 A 
ATOM     63  C   UNL A   1      41.739  31.091  30.067  1.00  0.00     0.074 A 
ATOM     64  C   UNL A   1      47.217  30.478  26.885  1.00  0.00     0.029 A 
ATOM     65  N   UNL A   1      45.245  30.101  27.846  1.00  0.00    -0.354 N 
ATOM     66  N   UNL A   1      42.837  30.870  29.386  1.00  0.00    -0.248 NA
ATOM     67  C   UNL A   1      41.653  32.435  30.653  1.00  0.00     0.031 C 
ATOM     68  C   UNL A   1      46.826  31.635  27.564  1.00  0.00     0.029 A 
ATOM     69  C   UNL A   1      45.586  31.411  28.142  1.00  0.00     0.049 A 
ATOM     70  H   UNL A   1      44.416  29.654  28.132  1.00  0.00     0.167 HD
ATOM     71  C   UNL A   1      43.565  32.049  29.444  1.00  0.00     0.074 A 
ATOM     72  C   UNL A   1      42.774  32.989  30.213  1.00  0.00     0.031 C 
ATOM     73  C   UNL A   1      44.779  32.328  28.909  1.00  0.00     0.037 A 
BRANCH  60  74
ATOM     74  C   UNL A   1      47.411  27.644  25.848  1.00  0.00     0.057 A 
ATOM     75  C   UNL A   1      47.425  27.680  24.447  1.00  0.00     0.134 A 
ATOM     76  C   UNL A   1      48.512  27.060  26.489  1.00  0.00     0.134 A 
ATOM     77  F   UNL A   1      46.403  28.219  23.769  1.00  0.00    -0.206 F 
ATOM     78  C   UNL A   1      48.487  27.145  23.715  1.00  0.00     0.040 A 
ATOM     79  C   UNL A   1      49.590  26.547  25.769  1.00  0.00     0.040 A 
ATOM     80  F   UNL A   1      48.565  27.004  27.830  1.00  0.00    -0.206 F 
ATOM     81  C   UNL A   1      49.576  26.580  24.376  1.00  0.00     0.006 A 
ENDBRANCH  60  74
BRANCH  61  82
ATOM     82  C   UNL A   1      39.389  30.600  31.085  1.00  0.00     0.057 A 
ATOM     83  C   UNL A   1      39.230  30.276  32.438  1.00  0.00     0.134 A 
ATOM     84  C   UNL A   1      38.353  31.309  30.467  1.00  0.00     0.134 A 
ATOM     85  F   UNL A   1      40.179  29.583  33.085  1.00  0.00    -0.206 F 
ATOM     86  C   UNL A   1      38.079  30.629  33.145  1.00  0.00     0.040 A 
ATOM     87  C   UNL A   1      37.207  31.690  31.167  1.00  0.00     0.040 A 
ATOM     88  F   UNL A   1      38.450  31.655  29.175  1.00  0.00    -0.206 F 
ATOM     89  C   UNL A   1      37.064  31.342  32.509  1.00  0.00     0.006 A 
ENDBRANCH  61  82
BRANCH  73  90
ATOM     90  C   UNL A   1      45.327  33.707  29.123  1.00  0.00     0.057 A 
ATOM     91  C   UNL A   1      45.089  34.721  28.185  1.00  0.00     0.134 A 
ATOM     92  C   UNL A   1      46.160  34.006  30.206  1.00  0.00     0.134 A 
ATOM     93  F   UNL A   1      44.307  34.492  27.118  1.00  0.00    -0.206 F 
ATOM     94  C   UNL A   1      45.679  35.978  28.307  1.00  0.00     0.040 A 
ATOM     95  C   UNL A   1      46.734  35.271  30.354  1.00  0.00     0.040 A 
ATOM     96  F   UNL A   1      46.416  33.083  31.144  1.00  0.00    -0.206 F 
ATOM     97  C   UNL A   1      46.504  36.256  29.396  1.00  0.00     0.006 A 
ENDBRANCH  73  90
ENDBRANCH  47  48
ENDBRANCH  39  42
ENDBRANCH  37  38
ENDBRANCH  36  37
ENDBRANCH  35  36
ENDBRANCH   1  35
TORSDOF 17
ENDMDL
MODEL 2
REMARK VINA RESULT:     -12.5      1.877      2.692
REMARK SMILES O=C(CCN1C(=O)S/C(=C\c2ccc(F)cc2)C1=O)Nc1ccc(O)cc1C(=O)NCCCCNC(=O)c1ccc(-c2c3nc(c(-c4c(F)cccc4F)c4ccc([nH]4)c(-c4c(F)cccc4F)c4nc(c(-c5c(F)cccc5F)c5ccc2[nH]5)C=C4)C=C3)cc1
REMARK SMILES IDX 31 1 30 2 28 3 29 4 27 6 21 7 22 8 23 9 26 10 24 11 20 12
REMARK SMILES IDX 1 13 2 14 3 16 4 17 5 18 6 19 18 20 7 21 8 22 9 23 19 24
REMARK SMILES IDX 10 25 11 26 12 27 17 28 13 29 16 30 14 31 15 32 25 33 32 35
REMARK SMILES IDX 33 36 34 37 35 38 36 39 37 41 38 42 39 43 91 44 40 45 90 46
REMARK SMILES IDX 41 47 42 48 43 49 84 50 44 51 89 52 83 53 85 54 45 55 88 56
REMARK SMILES IDX 82 57 81 58 46 60 72 61 55 62 71 63 56 64 59 65 70 66 86 67
REMARK SMILES IDX 57 68 58 69 69 71 87 72 60 73 47 74 48 75 53 76 49 77 50 78
REMARK SMILES IDX 52 79 54 80 51 81 73 82 74 83 79 84 75 85 76 86 78 87 80 88
REMARK SMILES IDX 77 89 61 90 62 91 67 92 63 93 64 94 66 95 68 96 65 97
REMARK H PARENT 30 5 20 15 25 34 35 40 85 59 59 70
REMARK Flexibility Score: inf
ROOT
ATOM      1  C   UNL A   1      35.927  21.979  25.195  1.00  0.00     0.116 C 
ENDROOT
BRANCH   1   2
ATOM      2  N   UNL A   1      34.809  22.098  26.148  1.00  0.00    -0.352 N 
ATOM      3  C   UNL A   1      33.638  21.402  26.386  1.00  0.00     0.253 C 
ATOM      4  O   UNL A   1      32.940  21.774  27.331  1.00  0.00    -0.269 OA
ATOM      5  H   UNL A   1      34.924  22.856  26.766  1.00  0.00     0.163 HD
BRANCH   3   6
ATOM      6  C   UNL A   1      33.169  20.223  25.599  1.00  0.00     0.067 A 
ATOM      7  C   UNL A   1      32.741  20.290  24.265  1.00  0.00     0.054 A 
ATOM      8  C   UNL A   1      32.282  19.134  23.611  1.00  0.00     0.031 A 
ATOM      9  C   UNL A   1      32.355  17.890  24.234  1.00  0.00     0.048 A 
ATOM     10  C   UNL A   1      33.278  18.957  26.202  1.00  0.00     0.062 A 
ATOM     11  C   UNL A   1      32.884  17.808  25.515  1.00  0.00     0.116 A 
BRANCH   7  12
ATOM     12  N   UNL A   1      32.965  21.457  23.521  1.00  0.00    -0.325 N 
ATOM     13  O   UNL A   1      31.165  22.727  24.200  1.00  0.00    -0.275 OA
ATOM     14  C   UNL A   1      32.130  22.545  23.463  1.00  0.00     0.226 C 
ATOM     15  H   UNL A   1      33.796  21.500  22.995  1.00  0.00     0.169 HD
BRANCH  14  16
ATOM     16  C   UNL A   1      32.494  23.540  22.383  1.00  0.00     0.122 C 
BRANCH  16  17
ATOM     17  C   UNL A   1      33.836  24.232  22.585  1.00  0.00     0.140 C 
BRANCH  17  18
ATOM     18  N   UNL A   1      33.863  25.610  23.092  1.00  0.00    -0.268 N 
ATOM     19  C   UNL A   1      33.653  26.692  22.272  1.00  0.00     0.293 C 
ATOM     20  C   UNL A   1      33.771  25.886  24.430  1.00  0.00     0.268 C 
ATOM     21  O   UNL A   1      33.520  26.669  21.073  1.00  0.00    -0.261 OA
ATOM     22  S   UNL A   1      33.558  28.175  23.233  1.00  0.00    -0.022 SA
ATOM     23  C   UNL A   1      33.651  27.329  24.714  1.00  0.00     0.083 C 
ATOM     24  O   UNL A   1      33.761  25.060  25.326  1.00  0.00    -0.268 OA
ATOM     25  C   UNL A   1      33.637  27.754  25.987  1.00  0.00     0.029 C 
BRANCH  25  26
ATOM     26  C   UNL A   1      33.519  29.120  26.500  1.00  0.00    -0.024 A 
ATOM     27  C   UNL A   1      32.339  29.859  26.350  1.00  0.00     0.011 A 
ATOM     28  C   UNL A   1      34.582  29.663  27.238  1.00  0.00     0.011 A 
ATOM     29  C   UNL A   1      32.248  31.148  26.878  1.00  0.00     0.040 A 
ATOM     30  C   UNL A   1      34.487  30.953  27.767  1.00  0.00     0.040 A 
ATOM     31  C   UNL A   1      33.325  31.687  27.571  1.00  0.00     0.123 A 
ATOM     32  F   UNL A   1      33.238  32.931  28.062  1.00  0.00    -0.207 F 
ENDBRANCH  25  26
ENDBRANCH  17  18
ENDBRANCH  16  17
ENDBRANCH  14  16
ENDBRANCH   7  12
BRANCH  11  33
ATOM     33  O   UNL A   1      33.049  16.601  26.126  1.00  0.00    -0.508 OA
ATOM     34  H   UNL A   1      33.884  16.177  26.110  1.00  0.00     0.293 HD
ENDBRANCH  11  33
ENDBRANCH   3   6
ENDBRANCH   1   2
BRANCH   1  35
ATOM     35  C   UNL A   1      36.472  20.527  25.001  1.00  0.00     0.023 C 
BRANCH  35  36
ATOM     36  C   UNL A   1      37.949  19.955  25.016  1.00  0.00     0.023 C 
BRANCH  36  37
ATOM     37  C   UNL A   1      39.243  20.417  25.751  1.00  0.00     0.116 C 
BRANCH  37  38
ATOM     38  N   UNL A   1      40.182  19.309  25.954  1.00  0.00    -0.352 N 
ATOM     39  C   UNL A   1      41.541  19.256  26.126  1.00  0.00     0.251 C 
ATOM     40  H   UNL A   1      39.749  18.425  25.973  1.00  0.00     0.163 HD
ATOM     41  O   UNL A   1      42.132  18.183  26.125  1.00  0.00    -0.269 OA
BRANCH  39  42
ATOM     42  C   UNL A   1      42.282  20.494  26.378  1.00  0.00     0.039 A 
ATOM     43  C   UNL A   1      42.978  21.138  25.352  1.00  0.00     0.014 A 
ATOM     44  C   UNL A   1      42.273  20.994  27.679  1.00  0.00     0.014 A 
ATOM     45  C   UNL A   1      43.576  22.370  25.617  1.00  0.00     0.010 A 
ATOM     46  C   UNL A   1      42.836  22.234  27.932  1.00  0.00     0.010 A 
ATOM     47  C   UNL A   1      43.452  22.948  26.894  1.00  0.00    -0.014 A 
BRANCH  47  48
ATOM     48  C   UNL A   1      43.837  24.354  27.134  1.00  0.00     0.031 A 
ATOM     49  C   UNL A   1      45.260  24.795  26.995  1.00  0.00     0.074 A 
ATOM     50  C   UNL A   1      42.890  25.197  27.587  1.00  0.00     0.049 A 
ATOM     51  N   UNL A   1      45.777  25.976  27.213  1.00  0.00    -0.248 NA
ATOM     52  C   UNL A   1      46.236  23.773  26.587  1.00  0.00     0.031 C 
ATOM     53  C   UNL A   1      41.490  24.835  27.834  1.00  0.00     0.029 A 
ATOM     54  N   UNL A   1      42.952  26.523  27.928  1.00  0.00    -0.354 N 
ATOM     55  C   UNL A   1      47.136  25.842  26.965  1.00  0.00     0.074 A 
ATOM     56  C   UNL A   1      47.374  24.453  26.638  1.00  0.00     0.031 C 
ATOM     57  C   UNL A   1      40.820  25.921  28.246  1.00  0.00     0.029 A 
ATOM     58  C   UNL A   1      41.746  27.044  28.329  1.00  0.00     0.049 A 
ATOM     59  H   UNL A   1      43.782  27.051  27.889  1.00  0.00     0.167 HD
ATOM     60  C   UNL A   1      48.086  26.803  26.984  1.00  0.00     0.037 A 
ATOM     61  C   UNL A   1      41.424  28.293  28.714  1.00  0.00     0.037 A 
ATOM     62  C   UNL A   1      47.823  28.183  27.303  1.00  0.00     0.049 A 
ATOM     63  C   UNL A   1      42.498  29.342  28.719  1.00  0.00     0.074 A 
ATOM     64  C   UNL A   1      48.702  29.251  27.296  1.00  0.00     0.029 A 
ATOM     65  N   UNL A   1      46.586  28.681  27.689  1.00  0.00    -0.354 N 
ATOM     66  N   UNL A   1      43.765  29.223  28.402  1.00  0.00    -0.248 NA
ATOM     67  C   UNL A   1      42.102  30.696  29.126  1.00  0.00     0.031 C 
ATOM     68  C   UNL A   1      48.008  30.386  27.724  1.00  0.00     0.029 A 
ATOM     69  C   UNL A   1      46.684  30.038  27.944  1.00  0.00     0.049 A 
ATOM     70  H   UNL A   1      45.762  28.149  27.769  1.00  0.00     0.167 HD
ATOM     71  C   UNL A   1      44.314  30.488  28.551  1.00  0.00     0.074 A 
ATOM     72  C   UNL A   1      43.238  31.363  28.971  1.00  0.00     0.031 C 
ATOM     73  C   UNL A   1      45.595  30.888  28.360  1.00  0.00     0.037 A 
BRANCH  60  74
ATOM     74  C   UNL A   1      49.490  26.408  26.631  1.00  0.00     0.057 A 
ATOM     75  C   UNL A   1      50.388  25.981  27.618  1.00  0.00     0.134 A 
ATOM     76  C   UNL A   1      49.974  26.509  25.319  1.00  0.00     0.134 A 
ATOM     77  F   UNL A   1      49.994  25.867  28.894  1.00  0.00    -0.206 F 
ATOM     78  C   UNL A   1      51.717  25.680  27.314  1.00  0.00     0.040 A 
ATOM     79  C   UNL A   1      51.292  26.185  24.999  1.00  0.00     0.040 A 
ATOM     80  F   UNL A   1      49.162  26.901  24.324  1.00  0.00    -0.206 F 
ATOM     81  C   UNL A   1      52.171  25.778  26.000  1.00  0.00     0.006 A 
ENDBRANCH  60  74
BRANCH  61  82
ATOM     82  C   UNL A   1      40.019  28.614  29.069  1.00  0.00     0.057 A 
ATOM     83  C   UNL A   1      39.122  29.134  28.127  1.00  0.00     0.134 A 
ATOM     84  C   UNL A   1      39.554  28.451  30.379  1.00  0.00     0.134 A 
ATOM     85  F   UNL A   1      39.511  29.330  26.858  1.00  0.00    -0.206 F 
ATOM     86  C   UNL A   1      37.820  29.496  28.477  1.00  0.00     0.040 A 
ATOM     87  C   UNL A   1      38.246  28.785  30.738  1.00  0.00     0.040 A 
ATOM     88  F   UNL A   1      40.362  27.949  31.324  1.00  0.00    -0.206 F 
ATOM     89  C   UNL A   1      37.378  29.317  29.787  1.00  0.00     0.006 A 
ENDBRANCH  61  82
BRANCH  73  90
ATOM     90  C   UNL A   1      45.907  32.338  28.588  1.00  0.00     0.057 A 
ATOM     91  C   UNL A   1      45.833  33.256  27.533  1.00  0.00     0.134 A 
ATOM     92  C   UNL A   1      46.365  32.803  29.826  1.00  0.00     0.134 A 
ATOM     93  F   UNL A   1      45.412  32.868  26.319  1.00  0.00    -0.206 F 
ATOM     94  C   UNL A   1      46.223  34.585  27.697  1.00  0.00     0.040 A 
ATOM     95  C   UNL A   1      46.732  34.138  30.009  1.00  0.00     0.040 A 
ATOM     96  F   UNL A   1      46.446  31.975  30.877  1.00  0.00    -0.206 F 
ATOM     97  C   UNL A   1      46.674  35.029  28.938  1.00  0.00     0.006 A 
ENDBRANCH  73  90
ENDBRANCH  47  48
ENDBRANCH  39  42
ENDBRANCH  37  38
ENDBRANCH  36  37
ENDBRANCH  35  36
ENDBRANCH   1  35
TORSDOF 17
ENDMDL
MODEL 3
REMARK VINA RESULT:     -12.2      2.441      3.559
REMARK SMILES O=C(CCN1C(=O)S/C(=C\c2ccc(F)cc2)C1=O)Nc1ccc(O)cc1C(=O)NCCCCNC(=O)c1ccc(-c2c3nc(c(-c4c(F)cccc4F)c4ccc([nH]4)c(-c4c(F)cccc4F)c4nc(c(-c5c(F)cccc5F)c5ccc2[nH]5)C=C4)C=C3)cc1
REMARK SMILES IDX 31 1 30 2 28 3 29 4 27 6 21 7 22 8 23 9 26 10 24 11 20 12
REMARK SMILES IDX 1 13 2 14 3 16 4 17 5 18 6 19 18 20 7 21 8 22 9 23 19 24
REMARK SMILES IDX 10 25 11 26 12 27 17 28 13 29 16 30 14 31 15 32 25 33 32 35
REMARK SMILES IDX 33 36 34 37 35 38 36 39 37 41 38 42 39 43 91 44 40 45 90 46
REMARK SMILES IDX 41 47 42 48 43 49 84 50 44 51 89 52 83 53 85 54 45 55 88 56
REMARK SMILES IDX 82 57 81 58 46 60 72 61 55 62 71 63 56 64 59 65 70 66 86 67
REMARK SMILES IDX 57 68 58 69 69 71 87 72 60 73 47 74 48 75 53 76 49 77 50 78
REMARK SMILES IDX 52 79 54 80 51 81 73 82 74 83 79 84 75 85 76 86 78 87 80 88
REMARK SMILES IDX 77 89 61 90 62 91 67 92 63 93 64 94 66 95 68 96 65 97
REMARK H PARENT 30 5 20 15 25 34 35 40 85 59 59 70
REMARK Flexibility Score: inf
ROOT
ATOM      1  C   UNL A   1      36.313  21.830  25.451  1.00  0.00     0.116 C 
ENDROOT
BRANCH   1   2
ATOM      2  N   UNL A   1      35.201  21.619  26.394  1.00  0.00    -0.352 N 
ATOM      3  C   UNL A   1      33.909  21.134  26.303  1.00  0.00     0.253 C 
ATOM      4  O   UNL A   1      33.257  21.059  27.346  1.00  0.00    -0.269 OA
ATOM      5  H   UNL A   1      35.433  21.889  27.312  1.00  0.00     0.163 HD
BRANCH   3   6
ATOM      6  C   UNL A   1      33.255  20.674  25.042  1.00  0.00     0.067 A 
ATOM      7  C   UNL A   1      32.700  21.537  24.086  1.00  0.00     0.054 A 
ATOM      8  C   UNL A   1      32.072  21.015  22.942  1.00  0.00     0.031 A 
ATOM      9  C   UNL A   1      32.094  19.646  22.683  1.00  0.00     0.048 A 
ATOM     10  C   UNL A   1      33.309  19.299  24.748  1.00  0.00     0.062 A 
ATOM     11  C   UNL A   1      32.743  18.803  23.574  1.00  0.00     0.116 A 
BRANCH   7  12
ATOM     12  N   UNL A   1      32.952  22.914  24.164  1.00  0.00    -0.325 N 
ATOM     13  O   UNL A   1      34.666  23.104  22.634  1.00  0.00    -0.275 OA
ATOM     14  C   UNL A   1      33.960  23.584  23.518  1.00  0.00     0.226 C 
ATOM     15  H   UNL A   1      32.350  23.448  24.732  1.00  0.00     0.169 HD
BRANCH  14  16
ATOM     16  C   UNL A   1      34.152  25.008  23.991  1.00  0.00     0.122 C 
BRANCH  16  17
ATOM     17  C   UNL A   1      33.106  25.491  24.986  1.00  0.00     0.140 C 
BRANCH  17  18
ATOM     18  N   UNL A   1      32.449  26.786  24.765  1.00  0.00    -0.268 N 
ATOM     19  C   UNL A   1      33.024  27.971  25.152  1.00  0.00     0.293 C 
ATOM     20  C   UNL A   1      31.405  26.921  23.889  1.00  0.00     0.268 C 
ATOM     21  O   UNL A   1      34.047  28.101  25.779  1.00  0.00    -0.261 OA
ATOM     22  S   UNL A   1      32.065  29.335  24.562  1.00  0.00    -0.022 SA
ATOM     23  C   UNL A   1      30.998  28.326  23.690  1.00  0.00     0.083 C 
ATOM     24  O   UNL A   1      30.855  26.011  23.294  1.00  0.00    -0.268 OA
ATOM     25  C   UNL A   1      29.934  28.604  22.922  1.00  0.00     0.029 C 
BRANCH  25  26
ATOM     26  C   UNL A   1      29.360  29.907  22.581  1.00  0.00    -0.024 A 
ATOM     27  C   UNL A   1      28.945  30.206  21.278  1.00  0.00     0.011 A 
ATOM     28  C   UNL A   1      29.138  30.841  23.606  1.00  0.00     0.011 A 
ATOM     29  C   UNL A   1      28.372  31.447  20.993  1.00  0.00     0.040 A 
ATOM     30  C   UNL A   1      28.563  32.081  23.318  1.00  0.00     0.040 A 
ATOM     31  C   UNL A   1      28.197  32.376  22.011  1.00  0.00     0.123 A 
ATOM     32  F   UNL A   1      27.662  33.571  21.728  1.00  0.00    -0.207 F 
ENDBRANCH  25  26
ENDBRANCH  17  18
ENDBRANCH  16  17
ENDBRANCH  14  16
ENDBRANCH   7  12
BRANCH  11  33
ATOM     33  O   UNL A   1      32.859  17.469  23.314  1.00  0.00    -0.508 OA
ATOM     34  H   UNL A   1      32.267  17.054  22.718  1.00  0.00     0.293 HD
ENDBRANCH  11  33
ENDBRANCH   3   6
ENDBRANCH   1   2
BRANCH   1  35
ATOM     35  C   UNL A   1      36.985  20.519  24.926  1.00  0.00     0.023 C 
BRANCH  35  36
ATOM     36  C   UNL A   1      38.470  19.984  25.053  1.00  0.00     0.023 C 
BRANCH  36  37
ATOM     37  C   UNL A   1      39.579  20.215  26.124  1.00  0.00     0.116 C 
BRANCH  37  38
ATOM     38  N   UNL A   1      40.605  19.169  26.083  1.00  0.00    -0.352 N 
ATOM     39  C   UNL A   1      41.975  19.205  26.070  1.00  0.00     0.251 C 
ATOM     40  H   UNL A   1      40.236  18.256  26.063  1.00  0.00     0.163 HD
ATOM     41  O   UNL A   1      42.628  18.186  25.877  1.00  0.00    -0.269 OA
BRANCH  39  42
ATOM     42  C   UNL A   1      42.663  20.466  26.354  1.00  0.00     0.039 A 
ATOM     43  C   UNL A   1      43.381  21.135  25.359  1.00  0.00     0.014 A 
ATOM     44  C   UNL A   1      42.582  20.962  27.654  1.00  0.00     0.014 A 
ATOM     45  C   UNL A   1      43.925  22.386  25.651  1.00  0.00     0.010 A 
ATOM     46  C   UNL A   1      43.093  22.220  27.932  1.00  0.00     0.010 A 
ATOM     47  C   UNL A   1      43.729  22.957  26.921  1.00  0.00    -0.014 A 
BRANCH  47  48
ATOM     48  C   UNL A   1      44.055  24.374  27.179  1.00  0.00     0.031 A 
ATOM     49  C   UNL A   1      45.465  24.867  27.081  1.00  0.00     0.074 A 
ATOM     50  C   UNL A   1      43.067  25.180  27.610  1.00  0.00     0.049 A 
ATOM     51  N   UNL A   1      45.933  26.064  27.319  1.00  0.00    -0.248 NA
ATOM     52  C   UNL A   1      46.488  23.883  26.694  1.00  0.00     0.031 C 
ATOM     53  C   UNL A   1      41.675  24.767  27.817  1.00  0.00     0.029 A 
ATOM     54  N   UNL A   1      43.072  26.505  27.959  1.00  0.00    -0.354 N 
ATOM     55  C   UNL A   1      47.302  25.980  27.106  1.00  0.00     0.074 A 
ATOM     56  C   UNL A   1      47.599  24.603  26.780  1.00  0.00     0.031 C 
ATOM     57  C   UNL A   1      40.956  25.826  28.217  1.00  0.00     0.029 A 
ATOM     58  C   UNL A   1      41.837  26.980  28.330  1.00  0.00     0.049 A 
ATOM     59  H   UNL A   1      43.883  27.063  27.945  1.00  0.00     0.167 HD
ATOM     60  C   UNL A   1      48.217  26.975  27.156  1.00  0.00     0.037 A 
ATOM     61  C   UNL A   1      41.460  28.214  28.712  1.00  0.00     0.037 A 
ATOM     62  C   UNL A   1      47.895  28.342  27.475  1.00  0.00     0.049 A 
ATOM     63  C   UNL A   1      42.496  29.302  28.751  1.00  0.00     0.074 A 
ATOM     64  C   UNL A   1      48.735  29.441  27.498  1.00  0.00     0.029 A 
ATOM     65  N   UNL A   1      46.631  28.793  27.830  1.00  0.00    -0.354 N 
ATOM     66  N   UNL A   1      43.774  29.230  28.468  1.00  0.00    -0.248 NA
ATOM     67  C   UNL A   1      42.041  30.638  29.154  1.00  0.00     0.031 C 
ATOM     68  C   UNL A   1      47.989  30.548  27.912  1.00  0.00     0.029 A 
ATOM     69  C   UNL A   1      46.673  30.152  28.094  1.00  0.00     0.049 A 
ATOM     70  H   UNL A   1      45.825  28.231  27.884  1.00  0.00     0.167 HD
ATOM     71  C   UNL A   1      44.274  30.513  28.639  1.00  0.00     0.074 A 
ATOM     72  C   UNL A   1      43.155  31.346  29.034  1.00  0.00     0.031 C 
ATOM     73  C   UNL A   1      45.544  30.960  28.485  1.00  0.00     0.037 A 
BRANCH  60  74
ATOM     74  C   UNL A   1      49.643  26.632  26.839  1.00  0.00     0.057 A 
ATOM     75  C   UNL A   1      50.101  26.609  25.516  1.00  0.00     0.134 A 
ATOM     76  C   UNL A   1      50.549  26.262  27.842  1.00  0.00     0.134 A 
ATOM     77  F   UNL A   1      49.286  26.946  24.506  1.00  0.00    -0.206 F 
ATOM     78  C   UNL A   1      51.405  26.220  25.202  1.00  0.00     0.040 A 
ATOM     79  C   UNL A   1      51.862  25.898  27.544  1.00  0.00     0.040 A 
ATOM     80  F   UNL A   1      50.177  26.274  29.132  1.00  0.00    -0.206 F 
ATOM     81  C   UNL A   1      52.291  25.867  26.218  1.00  0.00     0.006 A 
ENDBRANCH  60  74
BRANCH  61  82
ATOM     82  C   UNL A   1      40.036  28.482  29.030  1.00  0.00     0.057 A 
ATOM     83  C   UNL A   1      39.143  28.959  28.062  1.00  0.00     0.134 A 
ATOM     84  C   UNL A   1      39.546  28.313  30.330  1.00  0.00     0.134 A 
ATOM     85  F   UNL A   1      39.554  29.158  26.801  1.00  0.00    -0.206 F 
ATOM     86  C   UNL A   1      37.819  29.271  28.378  1.00  0.00     0.040 A 
ATOM     87  C   UNL A   1      38.218  28.599  30.655  1.00  0.00     0.040 A 
ATOM     88  F   UNL A   1      40.350  27.853  31.299  1.00  0.00    -0.206 F 
ATOM     89  C   UNL A   1      37.353  29.087  29.678  1.00  0.00     0.006 A 
ENDBRANCH  61  82
BRANCH  73  90
ATOM     90  C   UNL A   1      45.797  32.418  28.728  1.00  0.00     0.057 A 
ATOM     91  C   UNL A   1      45.717  33.340  27.676  1.00  0.00     0.134 A 
ATOM     92  C   UNL A   1      46.204  32.893  29.980  1.00  0.00     0.134 A 
ATOM     93  F   UNL A   1      45.343  32.944  26.450  1.00  0.00    -0.206 F 
ATOM     94  C   UNL A   1      46.055  34.680  27.857  1.00  0.00     0.040 A 
ATOM     95  C   UNL A   1      46.518  34.238  30.179  1.00  0.00     0.040 A 
ATOM     96  F   UNL A   1      46.288  32.062  31.029  1.00  0.00    -0.206 F 
ATOM     97  C   UNL A   1      46.457  35.133  29.112  1.00  0.00     0.006 A 
ENDBRANCH  73  90
ENDBRANCH  47  48
ENDBRANCH  39  42
ENDBRANCH  37  38
ENDBRANCH  36  37
ENDBRANCH  35  36
ENDBRANCH   1  35
TORSDOF 17
ENDMDL
