MODEL 1
REMARK VINA RESULT:     -12.6      0.000      0.000
REMARK SMILES COc1cccc([C@H](CC(=O)NCCCCNC(=O)c2ccc(-c3c4nc(c(-c5c(F)cccc5F)c5ccc([nH]5)c(-c5c(F)cccc5F)c5nc(c(-c6c(F)cccc6F)c6ccc3[nH]6)C=C5)C=C4)cc2)NS(=O)(=O)c2ccc3c(c2)C[C@@H](C)N3C(C)=O)c1
REMARK SMILES IDX 13 1 12 2 10 3 11 4 9 6 8 7 7 8 3 9 4 10 91 11 5 12 6 13
REMARK SMILES IDX 2 14 1 15 74 16 75 18 76 19 77 20 78 21 79 22 83 23 80 24
REMARK SMILES IDX 82 25 81 26 84 27 87 28 85 29 86 30 88 31 89 32 90 33 14 34
REMARK SMILES IDX 15 35 16 36 17 37 18 38 19 40 20 41 21 42 73 43 22 44 72 45
REMARK SMILES IDX 23 46 24 47 25 48 66 49 26 50 71 51 65 52 67 53 27 54 70 55
REMARK SMILES IDX 64 56 63 57 28 59 54 60 37 61 53 62 38 63 41 64 52 65 68 66
REMARK SMILES IDX 39 67 40 68 51 70 69 71 42 72 29 73 30 74 35 75 31 76 32 77
REMARK SMILES IDX 34 78 36 79 33 80 55 81 56 82 61 83 57 84 58 85 60 86 62 87
REMARK SMILES IDX 59 88 43 89 44 90 49 91 45 92 46 93 48 94 50 95 47 96
REMARK H PARENT 12 5 74 17 17 39 67 58 41 69
REMARK Flexibility Score: inf
ROOT
ATOM      1  C   UNL A   1      33.245  29.508  26.272  1.00  0.00     0.116 C 
ENDROOT
BRANCH   1   2
ATOM      2  N   UNL A   1      33.063  29.716  24.848  1.00  0.00    -0.356 N 
ATOM      3  C   UNL A   1      32.462  28.920  23.919  1.00  0.00     0.221 C 
ATOM      4  O   UNL A   1      32.437  29.327  22.757  1.00  0.00    -0.275 OA
ATOM      5  H   UNL A   1      33.429  30.561  24.500  1.00  0.00     0.163 HD
BRANCH   3   6
ATOM      6  C   UNL A   1      31.823  27.597  24.315  1.00  0.00     0.124 C 
BRANCH   6   7
ATOM      7  C   UNL A   1      30.946  26.879  23.256  1.00  0.00     0.109 C 
BRANCH   7   8
ATOM      8  C   UNL A   1      29.499  27.331  23.154  1.00  0.00    -0.026 A 
ATOM      9  C   UNL A   1      28.022  29.210  22.626  1.00  0.00     0.119 A 
ATOM     10  C   UNL A   1      26.994  28.582  23.321  1.00  0.00     0.046 A 
ATOM     11  C   UNL A   1      29.236  28.544  22.486  1.00  0.00     0.051 A 
ATOM     12  C   UNL A   1      27.187  27.318  23.876  1.00  0.00     0.004 A 
ATOM     13  C   UNL A   1      28.437  26.702  23.809  1.00  0.00     0.005 A 
BRANCH   9  14
ATOM     14  O   UNL A   1      27.745  30.466  22.163  1.00  0.00    -0.497 OA
ATOM     15  C   UNL A   1      28.815  31.409  22.164  1.00  0.00     0.278 C 
ENDBRANCH   9  14
ENDBRANCH   7   8
BRANCH   7  16
ATOM     16  N   UNL A   1      31.592  26.937  21.933  1.00  0.00    -0.203 NA
ATOM     17  H   UNL A   1      31.892  27.906  21.823  1.00  0.00     0.142 HD
BRANCH  16  18
ATOM     18  S   UNL A   1      32.903  26.009  21.435  1.00  0.00     0.241 S 
ATOM     19  O   UNL A   1      32.711  25.481  20.116  1.00  0.00    -0.207 OA
ATOM     20  O   UNL A   1      34.078  26.809  21.732  1.00  0.00    -0.207 OA
BRANCH  18  21
ATOM     21  C   UNL A   1      32.899  24.643  22.561  1.00  0.00     0.082 A 
ATOM     22  C   UNL A   1      32.116  23.504  22.266  1.00  0.00     0.024 A 
ATOM     23  C   UNL A   1      33.719  24.696  23.687  1.00  0.00     0.027 A 
ATOM     24  C   UNL A   1      32.075  22.425  23.149  1.00  0.00     0.028 A 
ATOM     25  C   UNL A   1      33.635  23.643  24.568  1.00  0.00    -0.021 A 
ATOM     26  C   UNL A   1      32.806  22.540  24.311  1.00  0.00     0.047 A 
ATOM     27  C   UNL A   1      34.401  23.439  25.842  1.00  0.00     0.063 C 
ATOM     28  N   UNL A   1      32.915  21.637  25.386  1.00  0.00    -0.309 N 
ATOM     29  C   UNL A   1      33.471  22.422  26.521  1.00  0.00     0.092 C 
ATOM     30  C   UNL A   1      32.328  23.161  27.252  1.00  0.00     0.032 C 
BRANCH  28  31
ATOM     31  C   UNL A   1      33.080  20.289  25.128  1.00  0.00     0.224 C 
ATOM     32  C   UNL A   1      34.491  19.905  24.742  1.00  0.00     0.115 C 
ATOM     33  O   UNL A   1      32.153  19.487  25.023  1.00  0.00    -0.275 OA
ENDBRANCH  28  31
ENDBRANCH  18  21
ENDBRANCH  16  18
ENDBRANCH   7  16
ENDBRANCH   6   7
ENDBRANCH   3   6
ENDBRANCH   1   2
BRANCH   1  34
ATOM     34  C   UNL A   1      32.107  30.120  27.081  1.00  0.00     0.023 C 
BRANCH  34  35
ATOM     35  C   UNL A   1      31.857  31.602  26.877  1.00  0.00     0.023 C 
BRANCH  35  36
ATOM     36  C   UNL A   1      33.022  32.484  27.266  1.00  0.00     0.116 C 
BRANCH  36  37
ATOM     37  N   UNL A   1      32.623  33.856  27.561  1.00  0.00    -0.352 N 
ATOM     38  C   UNL A   1      33.085  34.701  28.541  1.00  0.00     0.251 C 
ATOM     39  H   UNL A   1      31.924  34.228  26.976  1.00  0.00     0.163 HD
ATOM     40  O   UNL A   1      32.529  35.773  28.751  1.00  0.00    -0.269 OA
BRANCH  38  41
ATOM     41  C   UNL A   1      34.243  34.278  29.355  1.00  0.00     0.039 A 
ATOM     42  C   UNL A   1      34.026  33.571  30.539  1.00  0.00     0.014 A 
ATOM     43  C   UNL A   1      35.540  34.510  28.896  1.00  0.00     0.014 A 
ATOM     44  C   UNL A   1      35.117  33.022  31.215  1.00  0.00     0.010 A 
ATOM     45  C   UNL A   1      36.605  33.858  29.497  1.00  0.00     0.010 A 
ATOM     46  C   UNL A   1      36.410  33.119  30.672  1.00  0.00    -0.014 A 
BRANCH  46  47
ATOM     47  C   UNL A   1      37.581  32.481  31.321  1.00  0.00     0.031 A 
ATOM     48  C   UNL A   1      38.269  31.327  30.643  1.00  0.00     0.074 A 
ATOM     49  C   UNL A   1      37.973  32.880  32.547  1.00  0.00     0.049 A 
ATOM     50  N   UNL A   1      39.246  30.573  31.079  1.00  0.00    -0.248 NA
ATOM     51  C   UNL A   1      37.767  30.942  29.312  1.00  0.00     0.031 C 
ATOM     52  C   UNL A   1      37.349  33.945  33.335  1.00  0.00     0.029 A 
ATOM     53  N   UNL A   1      38.990  32.428  33.350  1.00  0.00    -0.354 N 
ATOM     54  C   UNL A   1      39.455  29.620  30.090  1.00  0.00     0.074 A 
ATOM     55  C   UNL A   1      38.460  29.843  29.066  1.00  0.00     0.031 C 
ATOM     56  C   UNL A   1      38.016  34.087  34.492  1.00  0.00     0.029 A 
ATOM     57  C   UNL A   1      39.085  33.095  34.549  1.00  0.00     0.049 A 
ATOM     58  H   UNL A   1      39.594  31.694  33.093  1.00  0.00     0.167 HD
ATOM     59  C   UNL A   1      40.411  28.664  30.024  1.00  0.00     0.037 A 
ATOM     60  C   UNL A   1      39.935  32.920  35.578  1.00  0.00     0.037 A 
ATOM     61  C   UNL A   1      41.422  28.470  31.028  1.00  0.00     0.049 A 
ATOM     62  C   UNL A   1      40.987  31.849  35.481  1.00  0.00     0.074 A 
ATOM     63  C   UNL A   1      42.479  27.579  31.025  1.00  0.00     0.029 A 
ATOM     64  N   UNL A   1      41.499  29.182  32.216  1.00  0.00    -0.354 N 
ATOM     65  N   UNL A   1      41.224  31.006  34.505  1.00  0.00    -0.248 NA
ATOM     66  C   UNL A   1      41.896  31.709  36.629  1.00  0.00     0.031 C 
ATOM     67  C   UNL A   1      43.166  27.715  32.235  1.00  0.00     0.029 A 
ATOM     68  C   UNL A   1      42.572  28.731  32.966  1.00  0.00     0.049 A 
ATOM     69  H   UNL A   1      40.883  29.901  32.485  1.00  0.00     0.167 HD
ATOM     70  C   UNL A   1      42.324  30.258  34.905  1.00  0.00     0.074 A 
ATOM     71  C   UNL A   1      42.717  30.757  36.207  1.00  0.00     0.031 C 
ATOM     72  C   UNL A   1      42.953  29.248  34.255  1.00  0.00     0.037 A 
BRANCH  59  73
ATOM     73  C   UNL A   1      40.410  27.765  28.822  1.00  0.00     0.057 A 
ATOM     74  C   UNL A   1      41.175  28.049  27.681  1.00  0.00     0.134 A 
ATOM     75  C   UNL A   1      39.655  26.585  28.813  1.00  0.00     0.134 A 
ATOM     76  F   UNL A   1      41.909  29.170  27.618  1.00  0.00    -0.206 F 
ATOM     77  C   UNL A   1      41.165  27.210  26.566  1.00  0.00     0.040 A 
ATOM     78  C   UNL A   1      39.662  25.722  27.716  1.00  0.00     0.040 A 
ATOM     79  F   UNL A   1      38.902  26.249  29.871  1.00  0.00    -0.206 F 
ATOM     80  C   UNL A   1      40.412  26.038  26.586  1.00  0.00     0.006 A 
ENDBRANCH  59  73
BRANCH  60  81
ATOM     81  C   UNL A   1      39.846  33.790  36.779  1.00  0.00     0.057 A 
ATOM     82  C   UNL A   1      39.029  33.443  37.862  1.00  0.00     0.134 A 
ATOM     83  C   UNL A   1      40.559  34.991  36.871  1.00  0.00     0.134 A 
ATOM     84  F   UNL A   1      38.307  32.313  37.827  1.00  0.00    -0.206 F 
ATOM     85  C   UNL A   1      38.903  34.269  38.980  1.00  0.00     0.040 A 
ATOM     86  C   UNL A   1      40.465  35.814  37.994  1.00  0.00     0.040 A 
ATOM     87  F   UNL A   1      41.367  35.378  35.872  1.00  0.00    -0.206 F 
ATOM     88  C   UNL A   1      39.627  35.457  39.049  1.00  0.00     0.006 A 
ENDBRANCH  60  81
BRANCH  72  89
ATOM     89  C   UNL A   1      44.156  28.644  34.920  1.00  0.00     0.057 A 
ATOM     90  C   UNL A   1      44.056  27.529  35.760  1.00  0.00     0.134 A 
ATOM     91  C   UNL A   1      45.435  29.160  34.676  1.00  0.00     0.134 A 
ATOM     92  F   UNL A   1      42.858  26.994  36.043  1.00  0.00    -0.206 F 
ATOM     93  C   UNL A   1      45.185  26.961  36.352  1.00  0.00     0.040 A 
ATOM     94  C   UNL A   1      46.574  28.582  35.239  1.00  0.00     0.040 A 
ATOM     95  F   UNL A   1      45.601  30.221  33.872  1.00  0.00    -0.206 F 
ATOM     96  C   UNL A   1      46.449  27.483  36.085  1.00  0.00     0.006 A 
ENDBRANCH  72  89
ENDBRANCH  46  47
ENDBRANCH  38  41
ENDBRANCH  36  37
ENDBRANCH  35  36
ENDBRANCH  34  35
ENDBRANCH   1  34
TORSDOF 18
ENDMDL
MODEL 2
REMARK VINA RESULT:     -12.3      7.304     11.026
REMARK SMILES COc1cccc([C@H](CC(=O)NCCCCNC(=O)c2ccc(-c3c4nc(c(-c5c(F)cccc5F)c5ccc([nH]5)c(-c5c(F)cccc5F)c5nc(c(-c6c(F)cccc6F)c6ccc3[nH]6)C=C5)C=C4)cc2)NS(=O)(=O)c2ccc3c(c2)C[C@@H](C)N3C(C)=O)c1
REMARK SMILES IDX 13 1 12 2 10 3 11 4 9 6 8 7 7 8 3 9 4 10 91 11 5 12 6 13
REMARK SMILES IDX 2 14 1 15 74 16 75 18 76 19 77 20 78 21 79 22 83 23 80 24
REMARK SMILES IDX 82 25 81 26 84 27 87 28 85 29 86 30 88 31 89 32 90 33 14 34
REMARK SMILES IDX 15 35 16 36 17 37 18 38 19 40 20 41 21 42 73 43 22 44 72 45
REMARK SMILES IDX 23 46 24 47 25 48 66 49 26 50 71 51 65 52 67 53 27 54 70 55
REMARK SMILES IDX 64 56 63 57 28 59 54 60 37 61 53 62 38 63 41 64 52 65 68 66
REMARK SMILES IDX 39 67 40 68 51 70 69 71 42 72 29 73 30 74 35 75 31 76 32 77
REMARK SMILES IDX 34 78 36 79 33 80 55 81 56 82 61 83 57 84 58 85 60 86 62 87
REMARK SMILES IDX 59 88 43 89 44 90 49 91 45 92 46 93 48 94 50 95 47 96
REMARK H PARENT 12 5 74 17 17 39 67 58 41 69
REMARK Flexibility Score: inf
ROOT
ATOM      1  C   UNL A   1      37.956  22.882  25.900  1.00  0.00     0.116 C 
ENDROOT
BRANCH   1   2
ATOM      2  N   UNL A   1      37.171  23.060  24.692  1.00  0.00    -0.356 N 
ATOM      3  C   UNL A   1      36.160  22.297  24.188  1.00  0.00     0.221 C 
ATOM      4  O   UNL A   1      35.648  22.666  23.131  1.00  0.00    -0.275 OA
ATOM      5  H   UNL A   1      37.405  23.852  24.157  1.00  0.00     0.163 HD
BRANCH   3   6
ATOM      6  C   UNL A   1      35.669  21.059  24.924  1.00  0.00     0.124 C 
BRANCH   6   7
ATOM      7  C   UNL A   1      34.136  20.869  25.061  1.00  0.00     0.109 C 
BRANCH   7   8
ATOM      8  C   UNL A   1      33.548  19.619  24.428  1.00  0.00    -0.026 A 
ATOM      9  C   UNL A   1      33.917  17.241  23.979  1.00  0.00     0.119 A 
ATOM     10  C   UNL A   1      32.958  17.294  22.973  1.00  0.00     0.046 A 
ATOM     11  C   UNL A   1      34.145  18.381  24.744  1.00  0.00     0.051 A 
ATOM     12  C   UNL A   1      32.254  18.474  22.730  1.00  0.00     0.004 A 
ATOM     13  C   UNL A   1      32.559  19.635  23.441  1.00  0.00     0.005 A 
BRANCH   9  14
ATOM     14  O   UNL A   1      34.582  16.053  24.102  1.00  0.00    -0.497 OA
ATOM     15  C   UNL A   1      35.368  15.868  25.278  1.00  0.00     0.278 C 
ENDBRANCH   9  14
ENDBRANCH   7   8
BRANCH   7  16
ATOM     16  N   UNL A   1      33.733  20.961  26.475  1.00  0.00    -0.203 NA
ATOM     17  H   UNL A   1      34.458  20.467  26.994  1.00  0.00     0.142 HD
BRANCH  16  18
ATOM     18  S   UNL A   1      33.468  22.383  27.333  1.00  0.00     0.241 S 
ATOM     19  O   UNL A   1      32.261  22.322  28.106  1.00  0.00    -0.207 OA
ATOM     20  O   UNL A   1      34.731  22.683  27.984  1.00  0.00    -0.207 OA
BRANCH  18  21
ATOM     21  C   UNL A   1      33.229  23.596  26.067  1.00  0.00     0.082 A 
ATOM     22  C   UNL A   1      34.222  24.578  25.850  1.00  0.00     0.024 A 
ATOM     23  C   UNL A   1      32.091  23.518  25.265  1.00  0.00     0.027 A 
ATOM     24  C   UNL A   1      34.047  25.560  24.876  1.00  0.00     0.028 A 
ATOM     25  C   UNL A   1      31.913  24.517  24.338  1.00  0.00    -0.021 A 
ATOM     26  C   UNL A   1      32.865  25.534  24.167  1.00  0.00     0.047 A 
ATOM     27  C   UNL A   1      30.794  24.676  23.350  1.00  0.00     0.063 C 
ATOM     28  N   UNL A   1      32.408  26.414  23.168  1.00  0.00    -0.309 N 
ATOM     29  C   UNL A   1      30.945  26.175  23.055  1.00  0.00     0.092 C 
ATOM     30  C   UNL A   1      30.198  26.999  24.127  1.00  0.00     0.032 C 
BRANCH  28  31
ATOM     31  C   UNL A   1      33.278  26.826  22.175  1.00  0.00     0.224 C 
ATOM     32  C   UNL A   1      33.705  28.272  22.293  1.00  0.00     0.115 C 
ATOM     33  O   UNL A   1      33.543  26.167  21.171  1.00  0.00    -0.275 OA
ENDBRANCH  28  31
ENDBRANCH  18  21
ENDBRANCH  16  18
ENDBRANCH   7  16
ENDBRANCH   6   7
ENDBRANCH   3   6
ENDBRANCH   1   2
BRANCH   1  34
ATOM     34  C   UNL A   1      38.885  24.064  26.148  1.00  0.00     0.023 C 
BRANCH  34  35
ATOM     35  C   UNL A   1      39.237  24.353  27.594  1.00  0.00     0.023 C 
BRANCH  35  36
ATOM     36  C   UNL A   1      40.707  24.196  27.914  1.00  0.00     0.116 C 
BRANCH  36  37
ATOM     37  N   UNL A   1      41.370  23.208  27.071  1.00  0.00    -0.352 N 
ATOM     38  C   UNL A   1      42.495  23.347  26.294  1.00  0.00     0.251 C 
ATOM     39  H   UNL A   1      40.953  22.316  27.057  1.00  0.00     0.163 HD
ATOM     40  O   UNL A   1      42.831  22.457  25.520  1.00  0.00    -0.269 OA
BRANCH  38  41
ATOM     41  C   UNL A   1      43.270  24.601  26.384  1.00  0.00     0.039 A 
ATOM     42  C   UNL A   1      44.005  24.871  27.539  1.00  0.00     0.014 A 
ATOM     43  C   UNL A   1      43.332  25.462  25.287  1.00  0.00     0.014 A 
ATOM     44  C   UNL A   1      44.872  25.965  27.556  1.00  0.00     0.010 A 
ATOM     45  C   UNL A   1      44.284  26.468  25.261  1.00  0.00     0.010 A 
ATOM     46  C   UNL A   1      45.055  26.742  26.399  1.00  0.00    -0.014 A 
BRANCH  46  47
ATOM     47  C   UNL A   1      46.026  27.863  26.356  1.00  0.00     0.031 A 
ATOM     48  C   UNL A   1      47.494  27.569  26.196  1.00  0.00     0.074 A 
ATOM     49  C   UNL A   1      45.603  29.129  26.539  1.00  0.00     0.049 A 
ATOM     50  N   UNL A   1      48.511  28.392  26.226  1.00  0.00    -0.248 NA
ATOM     51  C   UNL A   1      47.873  26.157  26.018  1.00  0.00     0.031 C 
ATOM     52  C   UNL A   1      44.215  29.538  26.766  1.00  0.00     0.029 A 
ATOM     53  N   UNL A   1      46.304  30.309  26.573  1.00  0.00    -0.354 N 
ATOM     54  C   UNL A   1      49.641  27.596  26.094  1.00  0.00     0.074 A 
ATOM     55  C   UNL A   1      49.194  26.223  26.055  1.00  0.00     0.031 C 
ATOM     56  C   UNL A   1      44.162  30.874  26.881  1.00  0.00     0.029 A 
ATOM     57  C   UNL A   1      45.514  31.414  26.783  1.00  0.00     0.049 A 
ATOM     58  H   UNL A   1      47.280  30.359  26.459  1.00  0.00     0.167 HD
ATOM     59  C   UNL A   1      50.935  27.976  25.981  1.00  0.00     0.037 A 
ATOM     60  C   UNL A   1      45.846  32.715  26.889  1.00  0.00     0.037 A 
ATOM     61  C   UNL A   1      51.373  29.346  25.982  1.00  0.00     0.049 A 
ATOM     62  C   UNL A   1      47.292  33.111  26.763  1.00  0.00     0.074 A 
ATOM     63  C   UNL A   1      52.650  29.842  25.803  1.00  0.00     0.029 A 
ATOM     64  N   UNL A   1      50.539  30.438  26.173  1.00  0.00    -0.354 N 
ATOM     65  N   UNL A   1      48.344  32.354  26.559  1.00  0.00    -0.248 NA
ATOM     66  C   UNL A   1      47.597  34.544  26.876  1.00  0.00     0.031 C 
ATOM     67  C   UNL A   1      52.599  31.233  25.937  1.00  0.00     0.029 A 
ATOM     68  C   UNL A   1      51.281  31.606  26.142  1.00  0.00     0.049 A 
ATOM     69  H   UNL A   1      49.566  30.389  26.310  1.00  0.00     0.167 HD
ATOM     70  C   UNL A   1      49.428  33.219  26.488  1.00  0.00     0.074 A 
ATOM     71  C   UNL A   1      48.905  34.559  26.657  1.00  0.00     0.031 C 
ATOM     72  C   UNL A   1      50.740  32.932  26.301  1.00  0.00     0.037 A 
BRANCH  59  73
ATOM     73  C   UNL A   1      51.966  26.893  25.839  1.00  0.00     0.057 A 
ATOM     74  C   UNL A   1      52.647  26.365  26.945  1.00  0.00     0.134 A 
ATOM     75  C   UNL A   1      52.264  26.352  24.581  1.00  0.00     0.134 A 
ATOM     76  F   UNL A   1      52.420  26.848  28.176  1.00  0.00    -0.206 F 
ATOM     77  C   UNL A   1      53.607  25.362  26.803  1.00  0.00     0.040 A 
ATOM     78  C   UNL A   1      53.200  25.327  24.430  1.00  0.00     0.040 A 
ATOM     79  F   UNL A   1      51.649  26.808  23.479  1.00  0.00    -0.206 F 
ATOM     80  C   UNL A   1      53.879  24.836  25.543  1.00  0.00     0.006 A 
ENDBRANCH  59  73
BRANCH  60  81
ATOM     81  C   UNL A   1      44.795  33.741  27.105  1.00  0.00     0.057 A 
ATOM     82  C   UNL A   1      44.143  34.345  26.022  1.00  0.00     0.134 A 
ATOM     83  C   UNL A   1      44.423  34.154  28.390  1.00  0.00     0.134 A 
ATOM     84  F   UNL A   1      44.466  34.005  24.765  1.00  0.00    -0.206 F 
ATOM     85  C   UNL A   1      43.181  35.340  26.208  1.00  0.00     0.040 A 
ATOM     86  C   UNL A   1      43.444  35.128  28.591  1.00  0.00     0.040 A 
ATOM     87  F   UNL A   1      45.002  33.609  29.470  1.00  0.00    -0.206 F 
ATOM     88  C   UNL A   1      42.826  35.730  27.497  1.00  0.00     0.006 A 
ENDBRANCH  60  81
BRANCH  72  89
ATOM     89  C   UNL A   1      51.694  34.088  26.227  1.00  0.00     0.057 A 
ATOM     90  C   UNL A   1      52.016  34.707  25.014  1.00  0.00     0.134 A 
ATOM     91  C   UNL A   1      52.261  34.616  27.394  1.00  0.00     0.134 A 
ATOM     92  F   UNL A   1      51.515  34.243  23.858  1.00  0.00    -0.206 F 
ATOM     93  C   UNL A   1      52.885  35.798  24.961  1.00  0.00     0.040 A 
ATOM     94  C   UNL A   1      53.107  35.725  27.357  1.00  0.00     0.040 A 
ATOM     95  F   UNL A   1      51.985  34.077  28.591  1.00  0.00    -0.206 F 
ATOM     96  C   UNL A   1      53.426  36.314  26.136  1.00  0.00     0.006 A 
ENDBRANCH  72  89
ENDBRANCH  46  47
ENDBRANCH  38  41
ENDBRANCH  36  37
ENDBRANCH  35  36
ENDBRANCH  34  35
ENDBRANCH   1  34
TORSDOF 18
ENDMDL
MODEL 3
REMARK VINA RESULT:     -12.2      4.298      7.647
REMARK SMILES COc1cccc([C@H](CC(=O)NCCCCNC(=O)c2ccc(-c3c4nc(c(-c5c(F)cccc5F)c5ccc([nH]5)c(-c5c(F)cccc5F)c5nc(c(-c6c(F)cccc6F)c6ccc3[nH]6)C=C5)C=C4)cc2)NS(=O)(=O)c2ccc3c(c2)C[C@@H](C)N3C(C)=O)c1
REMARK SMILES IDX 13 1 12 2 10 3 11 4 9 6 8 7 7 8 3 9 4 10 91 11 5 12 6 13
REMARK SMILES IDX 2 14 1 15 74 16 75 18 76 19 77 20 78 21 79 22 83 23 80 24
REMARK SMILES IDX 82 25 81 26 84 27 87 28 85 29 86 30 88 31 89 32 90 33 14 34
REMARK SMILES IDX 15 35 16 36 17 37 18 38 19 40 20 41 21 42 73 43 22 44 72 45
REMARK SMILES IDX 23 46 24 47 25 48 66 49 26 50 71 51 65 52 67 53 27 54 70 55
REMARK SMILES IDX 64 56 63 57 28 59 54 60 37 61 53 62 38 63 41 64 52 65 68 66
REMARK SMILES IDX 39 67 40 68 51 70 69 71 42 72 29 73 30 74 35 75 31 76 32 77
REMARK SMILES IDX 34 78 36 79 33 80 55 81 56 82 61 83 57 84 58 85 60 86 62 87
REMARK SMILES IDX 59 88 43 89 44 90 49 91 45 92 46 93 48 94 50 95 47 96
REMARK H PARENT 12 5 74 17 17 39 67 58 41 69
REMARK Flexibility Score: inf
ROOT
ATOM      1  C   UNL A   1      33.850  28.255  26.770  1.00  0.00     0.116 C 
ENDROOT
BRANCH   1   2
ATOM      2  N   UNL A   1      34.050  28.303  25.333  1.00  0.00    -0.356 N 
ATOM      3  C   UNL A   1      33.300  28.906  24.367  1.00  0.00     0.221 C 
ATOM      4  O   UNL A   1      33.687  28.798  23.203  1.00  0.00    -0.275 OA
ATOM      5  H   UNL A   1      34.848  27.827  25.008  1.00  0.00     0.163 HD
BRANCH   3   6
ATOM      6  C   UNL A   1      32.055  29.704  24.725  1.00  0.00     0.124 C 
BRANCH   6   7
ATOM      7  C   UNL A   1      30.686  28.984  24.614  1.00  0.00     0.109 C 
BRANCH   7   8
ATOM      8  C   UNL A   1      29.673  29.593  23.660  1.00  0.00    -0.026 A 
ATOM      9  C   UNL A   1      28.525  31.654  23.010  1.00  0.00     0.119 A 
ATOM     10  C   UNL A   1      27.546  30.896  22.377  1.00  0.00     0.046 A 
ATOM     11  C   UNL A   1      29.614  30.999  23.576  1.00  0.00     0.051 A 
ATOM     12  C   UNL A   1      27.652  29.506  22.328  1.00  0.00     0.004 A 
ATOM     13  C   UNL A   1      28.700  28.856  22.981  1.00  0.00     0.005 A 
BRANCH   9  14
ATOM     14  O   UNL A   1      28.302  33.003  23.044  1.00  0.00    -0.497 OA
ATOM     15  C   UNL A   1      29.374  33.827  23.496  1.00  0.00     0.278 C 
ENDBRANCH   9  14
ENDBRANCH   7   8
BRANCH   7  16
ATOM     16  N   UNL A   1      30.883  27.556  24.306  1.00  0.00    -0.203 NA
ATOM     17  H   UNL A   1      31.850  27.480  23.993  1.00  0.00     0.142 HD
BRANCH  16  18
ATOM     18  S   UNL A   1      30.662  26.277  25.375  1.00  0.00     0.241 S 
ATOM     19  O   UNL A   1      30.746  26.705  26.741  1.00  0.00    -0.207 OA
ATOM     20  O   UNL A   1      29.478  25.581  24.905  1.00  0.00    -0.207 OA
BRANCH  18  21
ATOM     21  C   UNL A   1      32.050  25.226  25.060  1.00  0.00     0.082 A 
ATOM     22  C   UNL A   1      32.701  25.294  23.807  1.00  0.00     0.024 A 
ATOM     23  C   UNL A   1      32.512  24.396  26.080  1.00  0.00     0.027 A 
ATOM     24  C   UNL A   1      33.781  24.459  23.523  1.00  0.00     0.028 A 
ATOM     25  C   UNL A   1      33.551  23.549  25.771  1.00  0.00    -0.021 A 
ATOM     26  C   UNL A   1      34.156  23.566  24.504  1.00  0.00     0.047 A 
ATOM     27  C   UNL A   1      34.243  22.566  26.669  1.00  0.00     0.063 C 
ATOM     28  N   UNL A   1      35.169  22.589  24.478  1.00  0.00    -0.309 N 
ATOM     29  C   UNL A   1      34.866  21.659  25.597  1.00  0.00     0.092 C 
ATOM     30  C   UNL A   1      33.834  20.606  25.135  1.00  0.00     0.032 C 
BRANCH  28  31
ATOM     31  C   UNL A   1      36.408  22.909  23.955  1.00  0.00     0.224 C 
ATOM     32  C   UNL A   1      37.388  23.443  24.976  1.00  0.00     0.115 C 
ATOM     33  O   UNL A   1      36.661  22.952  22.751  1.00  0.00    -0.275 OA
ENDBRANCH  28  31
ENDBRANCH  18  21
ENDBRANCH  16  18
ENDBRANCH   7  16
ENDBRANCH   6   7
ENDBRANCH   3   6
ENDBRANCH   1   2
BRANCH   1  34
ATOM     34  C   UNL A   1      34.573  29.396  27.477  1.00  0.00     0.023 C 
BRANCH  34  35
ATOM     35  C   UNL A   1      33.758  30.646  27.748  1.00  0.00     0.023 C 
BRANCH  35  36
ATOM     36  C   UNL A   1      34.587  31.857  28.111  1.00  0.00     0.116 C 
BRANCH  36  37
ATOM     37  N   UNL A   1      34.563  32.155  29.539  1.00  0.00    -0.352 N 
ATOM     38  C   UNL A   1      35.417  31.732  30.527  1.00  0.00     0.251 C 
ATOM     39  H   UNL A   1      33.830  32.743  29.835  1.00  0.00     0.163 HD
ATOM     40  O   UNL A   1      35.162  31.949  31.706  1.00  0.00    -0.269 OA
BRANCH  38  41
ATOM     41  C   UNL A   1      36.630  30.982  30.144  1.00  0.00     0.039 A 
ATOM     42  C   UNL A   1      37.254  31.262  28.927  1.00  0.00     0.014 A 
ATOM     43  C   UNL A   1      37.193  30.064  31.033  1.00  0.00     0.014 A 
ATOM     44  C   UNL A   1      38.491  30.681  28.644  1.00  0.00     0.010 A 
ATOM     45  C   UNL A   1      38.476  29.592  30.807  1.00  0.00     0.010 A 
ATOM     46  C   UNL A   1      39.134  29.881  29.604  1.00  0.00    -0.014 A 
BRANCH  46  47
ATOM     47  C   UNL A   1      40.484  29.312  29.371  1.00  0.00     0.031 A 
ATOM     48  C   UNL A   1      41.694  30.202  29.473  1.00  0.00     0.074 A 
ATOM     49  C   UNL A   1      40.617  28.026  28.990  1.00  0.00     0.049 A 
ATOM     50  N   UNL A   1      42.948  29.928  29.219  1.00  0.00    -0.248 NA
ATOM     51  C   UNL A   1      41.459  31.599  29.878  1.00  0.00     0.031 C 
ATOM     52  C   UNL A   1      39.518  27.078  28.795  1.00  0.00     0.029 A 
ATOM     53  N   UNL A   1      41.740  27.296  28.690  1.00  0.00    -0.354 N 
ATOM     54  C   UNL A   1      43.639  31.118  29.411  1.00  0.00     0.074 A 
ATOM     55  C   UNL A   1      42.661  32.131  29.732  1.00  0.00     0.031 C 
ATOM     56  C   UNL A   1      40.022  25.885  28.442  1.00  0.00     0.029 A 
ATOM     57  C   UNL A   1      41.474  25.993  28.340  1.00  0.00     0.049 A 
ATOM     58  H   UNL A   1      42.650  27.670  28.721  1.00  0.00     0.167 HD
ATOM     59  C   UNL A   1      44.973  31.339  29.356  1.00  0.00     0.037 A 
ATOM     60  C   UNL A   1      42.308  25.002  27.974  1.00  0.00     0.037 A 
ATOM     61  C   UNL A   1      45.945  30.319  29.073  1.00  0.00     0.049 A 
ATOM     62  C   UNL A   1      43.786  25.275  27.919  1.00  0.00     0.074 A 
ATOM     63  C   UNL A   1      47.324  30.422  29.064  1.00  0.00     0.029 A 
ATOM     64  N   UNL A   1      45.637  29.006  28.747  1.00  0.00    -0.354 N 
ATOM     65  N   UNL A   1      44.434  26.385  28.180  1.00  0.00    -0.248 NA
ATOM     66  C   UNL A   1      44.651  24.154  27.523  1.00  0.00     0.031 C 
ATOM     67  C   UNL A   1      47.850  29.184  28.682  1.00  0.00     0.029 A 
ATOM     68  C   UNL A   1      46.801  28.295  28.510  1.00  0.00     0.049 A 
ATOM     69  H   UNL A   1      44.727  28.636  28.693  1.00  0.00     0.167 HD
ATOM     70  C   UNL A   1      45.781  26.089  28.011  1.00  0.00     0.074 A 
ATOM     71  C   UNL A   1      45.858  24.692  27.639  1.00  0.00     0.031 C 
ATOM     72  C   UNL A   1      46.857  26.901  28.151  1.00  0.00     0.037 A 
BRANCH  59  73
ATOM     73  C   UNL A   1      45.454  32.737  29.618  1.00  0.00     0.057 A 
ATOM     74  C   UNL A   1      45.775  33.183  30.909  1.00  0.00     0.134 A 
ATOM     75  C   UNL A   1      45.624  33.644  28.564  1.00  0.00     0.134 A 
ATOM     76  F   UNL A   1      45.621  32.371  31.966  1.00  0.00    -0.206 F 
ATOM     77  C   UNL A   1      46.217  34.486  31.145  1.00  0.00     0.040 A 
ATOM     78  C   UNL A   1      46.095  34.939  28.783  1.00  0.00     0.040 A 
ATOM     79  F   UNL A   1      45.339  33.285  27.303  1.00  0.00    -0.206 F 
ATOM     80  C   UNL A   1      46.386  35.365  30.078  1.00  0.00     0.006 A 
ENDBRANCH  59  73
BRANCH  60  81
ATOM     81  C   UNL A   1      41.773  23.654  27.652  1.00  0.00     0.057 A 
ATOM     82  C   UNL A   1      41.899  22.592  28.557  1.00  0.00     0.134 A 
ATOM     83  C   UNL A   1      41.137  23.387  26.434  1.00  0.00     0.134 A 
ATOM     84  F   UNL A   1      42.514  22.780  29.734  1.00  0.00    -0.206 F 
ATOM     85  C   UNL A   1      41.438  21.311  28.252  1.00  0.00     0.040 A 
ATOM     86  C   UNL A   1      40.646  22.117  26.127  1.00  0.00     0.040 A 
ATOM     87  F   UNL A   1      40.975  24.361  25.526  1.00  0.00    -0.206 F 
ATOM     88  C   UNL A   1      40.804  21.072  27.035  1.00  0.00     0.006 A 
ENDBRANCH  60  81
BRANCH  72  89
ATOM     89  C   UNL A   1      48.212  26.290  27.942  1.00  0.00     0.057 A 
ATOM     90  C   UNL A   1      48.846  26.301  26.694  1.00  0.00     0.134 A 
ATOM     91  C   UNL A   1      48.910  25.725  29.018  1.00  0.00     0.134 A 
ATOM     92  F   UNL A   1      48.228  26.817  25.621  1.00  0.00    -0.206 F 
ATOM     93  C   UNL A   1      50.117  25.752  26.518  1.00  0.00     0.040 A 
ATOM     94  C   UNL A   1      50.193  25.201  28.861  1.00  0.00     0.040 A 
ATOM     95  F   UNL A   1      48.364  25.693  30.243  1.00  0.00    -0.206 F 
ATOM     96  C   UNL A   1      50.797  25.208  27.606  1.00  0.00     0.006 A 
ENDBRANCH  72  89
ENDBRANCH  46  47
ENDBRANCH  38  41
ENDBRANCH  36  37
ENDBRANCH  35  36
ENDBRANCH  34  35
ENDBRANCH   1  34
TORSDOF 18
ENDMDL
