MODEL 1
REMARK VINA RESULT:     -12.6      0.000      0.000
REMARK SMILES Cc1cccc(CN(C)c2ccc(C(=O)NCCCCNC(=O)c3ccc(-c4c5nc(c(-c6c(F)cccc6F)c6ccc([nH]6)c(-c6c(F)cccc6F)c6nc(c(-c7c(F)cccc7F)c7ccc4[nH]7)C=C6)C=C5)cc3)cc2C)n1
REMARK SMILES IDX 18 1 17 2 16 3 14 4 15 5 13 7 10 8 11 9 79 10 12 11 78 12
REMARK SMILES IDX 80 13 8 14 9 15 7 16 6 17 1 18 2 19 3 20 81 21 4 22 5 23
REMARK SMILES IDX 19 24 20 25 21 26 22 27 23 29 24 30 25 31 77 32 26 33 76 34
REMARK SMILES IDX 27 35 28 36 29 37 70 38 30 39 75 40 69 41 71 42 31 43 74 44
REMARK SMILES IDX 68 45 67 46 32 48 58 49 41 50 57 51 42 52 45 53 56 54 72 55
REMARK SMILES IDX 43 56 44 57 55 59 73 60 46 61 33 62 34 63 39 64 35 65 36 66
REMARK SMILES IDX 38 67 40 68 37 69 59 70 60 71 65 72 61 73 62 74 64 75 66 76
REMARK SMILES IDX 63 77 47 78 48 79 53 80 49 81 50 82 52 83 54 84 51 85
REMARK H PARENT 16 6 21 28 71 47 45 58
REMARK Flexibility Score: inf
ROOT
ATOM      1  C   UNL A   1      31.724  30.519  25.799  1.00  0.00     0.023 C 
ENDROOT
BRANCH   1   2
ATOM      2  C   UNL A   1      32.130  29.145  25.261  1.00  0.00     0.116 C 
BRANCH   2   3
ATOM      3  N   UNL A   1      32.864  29.171  23.997  1.00  0.00    -0.352 N 
ATOM      4  C   UNL A   1      33.544  28.214  23.269  1.00  0.00     0.251 C 
ATOM      5  O   UNL A   1      34.097  28.573  22.229  1.00  0.00    -0.269 OA
ATOM      6  H   UNL A   1      32.876  30.061  23.576  1.00  0.00     0.163 HD
BRANCH   4   7
ATOM      7  C   UNL A   1      33.671  26.794  23.694  1.00  0.00     0.040 A 
ATOM      8  C   UNL A   1      34.191  24.063  24.423  1.00  0.00     0.040 A 
ATOM      9  C   UNL A   1      34.130  25.115  25.347  1.00  0.00     0.027 A 
ATOM     10  C   UNL A   1      33.782  24.398  23.115  1.00  0.00    -0.027 A 
ATOM     11  C   UNL A   1      33.802  26.427  25.014  1.00  0.00     0.016 A 
ATOM     12  C   UNL A   1      33.589  25.760  22.751  1.00  0.00     0.019 A 
ATOM     13  C   UNL A   1      33.475  23.360  22.068  1.00  0.00     0.046 C 
BRANCH   8  14
ATOM     14  N   UNL A   1      34.632  22.796  24.807  1.00  0.00    -0.368 N 
ATOM     15  C   UNL A   1      36.057  22.629  25.094  1.00  0.00     0.144 C 
BRANCH  14  16
ATOM     16  C   UNL A   1      33.732  21.771  25.390  1.00  0.00     0.172 C 
BRANCH  16  17
ATOM     17  C   UNL A   1      33.517  20.519  24.539  1.00  0.00     0.060 A 
ATOM     18  C   UNL A   1      34.737  17.040  24.524  1.00  0.00     0.067 C 
ATOM     19  C   UNL A   1      33.915  18.249  24.193  1.00  0.00     0.038 A 
ATOM     20  C   UNL A   1      32.816  18.144  23.345  1.00  0.00     0.023 A 
ATOM     21  N   UNL A   1      34.276  19.416  24.785  1.00  0.00    -0.256 NA
ATOM     22  C   UNL A   1      32.084  19.286  23.052  1.00  0.00     0.004 A 
ATOM     23  C   UNL A   1      32.451  20.495  23.632  1.00  0.00     0.026 A 
ENDBRANCH  16  17
ENDBRANCH  14  16
ENDBRANCH   8  14
ENDBRANCH   4   7
ENDBRANCH   2   3
ENDBRANCH   1   2
BRANCH   1  24
ATOM     24  C   UNL A   1      32.262  30.898  27.175  1.00  0.00     0.023 C 
BRANCH  24  25
ATOM     25  C   UNL A   1      33.738  30.593  27.399  1.00  0.00     0.116 C 
BRANCH  25  26
ATOM     26  N   UNL A   1      34.472  31.539  28.226  1.00  0.00    -0.352 N 
ATOM     27  C   UNL A   1      35.635  31.365  28.975  1.00  0.00     0.251 C 
ATOM     28  H   UNL A   1      34.086  32.444  28.264  1.00  0.00     0.163 HD
ATOM     29  O   UNL A   1      36.022  32.264  29.689  1.00  0.00    -0.269 OA
BRANCH  27  30
ATOM     30  C   UNL A   1      36.488  30.149  28.787  1.00  0.00     0.039 A 
ATOM     31  C   UNL A   1      36.719  29.333  29.906  1.00  0.00     0.014 A 
ATOM     32  C   UNL A   1      37.225  29.934  27.632  1.00  0.00     0.014 A 
ATOM     33  C   UNL A   1      37.864  28.537  29.955  1.00  0.00     0.010 A 
ATOM     34  C   UNL A   1      38.426  29.264  27.724  1.00  0.00     0.010 A 
ATOM     35  C   UNL A   1      38.780  28.624  28.912  1.00  0.00    -0.014 A 
BRANCH  35  36
ATOM     36  C   UNL A   1      40.175  28.207  29.003  1.00  0.00     0.031 A 
ATOM     37  C   UNL A   1      40.616  26.918  28.436  1.00  0.00     0.074 A 
ATOM     38  C   UNL A   1      41.089  29.110  29.425  1.00  0.00     0.049 A 
ATOM     39  N   UNL A   1      41.753  26.364  28.685  1.00  0.00    -0.248 NA
ATOM     40  C   UNL A   1      39.782  26.134  27.533  1.00  0.00     0.031 C 
ATOM     41  C   UNL A   1      42.538  29.059  29.258  1.00  0.00     0.029 A 
ATOM     42  N   UNL A   1      40.880  30.194  30.289  1.00  0.00    -0.354 N 
ATOM     43  C   UNL A   1      41.920  25.325  27.798  1.00  0.00     0.074 A 
ATOM     44  C   UNL A   1      40.646  25.199  27.129  1.00  0.00     0.031 C 
ATOM     45  C   UNL A   1      43.108  29.834  30.194  1.00  0.00     0.029 A 
ATOM     46  C   UNL A   1      42.049  30.279  31.083  1.00  0.00     0.049 A 
ATOM     47  H   UNL A   1      40.087  30.775  30.335  1.00  0.00     0.167 HD
ATOM     48  C   UNL A   1      43.155  24.764  27.651  1.00  0.00     0.037 A 
ATOM     49  C   UNL A   1      41.987  30.017  32.422  1.00  0.00     0.037 A 
ATOM     50  C   UNL A   1      44.116  25.331  28.597  1.00  0.00     0.049 A 
ATOM     51  C   UNL A   1      42.777  28.799  32.865  1.00  0.00     0.074 A 
ATOM     52  C   UNL A   1      45.086  26.318  28.522  1.00  0.00     0.029 A 
ATOM     53  N   UNL A   1      43.934  25.080  29.944  1.00  0.00    -0.354 N 
ATOM     54  N   UNL A   1      43.430  28.010  32.058  1.00  0.00    -0.248 NA
ATOM     55  C   UNL A   1      42.817  28.328  34.251  1.00  0.00     0.031 C 
ATOM     56  C   UNL A   1      45.444  26.691  29.849  1.00  0.00     0.029 A 
ATOM     57  C   UNL A   1      44.699  25.924  30.726  1.00  0.00     0.049 A 
ATOM     58  H   UNL A   1      43.335  24.386  30.302  1.00  0.00     0.167 HD
ATOM     59  C   UNL A   1      43.899  26.931  32.758  1.00  0.00     0.074 A 
ATOM     60  C   UNL A   1      43.507  27.182  34.132  1.00  0.00     0.031 C 
ATOM     61  C   UNL A   1      44.535  25.882  32.167  1.00  0.00     0.037 A 
BRANCH  48  62
ATOM     62  C   UNL A   1      43.544  23.867  26.501  1.00  0.00     0.057 A 
ATOM     63  C   UNL A   1      43.328  22.477  26.567  1.00  0.00     0.134 A 
ATOM     64  C   UNL A   1      44.172  24.298  25.319  1.00  0.00     0.134 A 
ATOM     65  F   UNL A   1      42.645  21.917  27.574  1.00  0.00    -0.206 F 
ATOM     66  C   UNL A   1      43.805  21.583  25.599  1.00  0.00     0.040 A 
ATOM     67  C   UNL A   1      44.707  23.413  24.371  1.00  0.00     0.040 A 
ATOM     68  F   UNL A   1      44.240  25.595  24.994  1.00  0.00    -0.206 F 
ATOM     69  C   UNL A   1      44.537  22.046  24.516  1.00  0.00     0.006 A 
ENDBRANCH  48  62
BRANCH  49  70
ATOM     70  C   UNL A   1      40.707  30.474  33.027  1.00  0.00     0.057 A 
ATOM     71  C   UNL A   1      40.514  31.854  33.223  1.00  0.00     0.134 A 
ATOM     72  C   UNL A   1      39.569  29.663  33.035  1.00  0.00     0.134 A 
ATOM     73  F   UNL A   1      41.566  32.689  33.227  1.00  0.00    -0.206 F 
ATOM     74  C   UNL A   1      39.239  32.417  33.292  1.00  0.00     0.040 A 
ATOM     75  C   UNL A   1      38.286  30.216  33.122  1.00  0.00     0.040 A 
ATOM     76  F   UNL A   1      39.669  28.342  32.830  1.00  0.00    -0.206 F 
ATOM     77  C   UNL A   1      38.118  31.598  33.205  1.00  0.00     0.006 A 
ENDBRANCH  49  70
BRANCH  61  78
ATOM     78  C   UNL A   1      45.061  24.716  32.941  1.00  0.00     0.057 A 
ATOM     79  C   UNL A   1      44.299  23.558  33.138  1.00  0.00     0.134 A 
ATOM     80  C   UNL A   1      46.286  24.782  33.628  1.00  0.00     0.134 A 
ATOM     81  F   UNL A   1      43.105  23.413  32.544  1.00  0.00    -0.206 F 
ATOM     82  C   UNL A   1      44.734  22.519  33.966  1.00  0.00     0.040 A 
ATOM     83  C   UNL A   1      46.711  23.770  34.492  1.00  0.00     0.040 A 
ATOM     84  F   UNL A   1      47.119  25.822  33.473  1.00  0.00    -0.206 F 
ATOM     85  C   UNL A   1      45.935  22.632  34.660  1.00  0.00     0.006 A 
ENDBRANCH  61  78
ENDBRANCH  35  36
ENDBRANCH  27  30
ENDBRANCH  25  26
ENDBRANCH  24  25
ENDBRANCH   1  24
TORSDOF 14
ENDMDL
MODEL 2
REMARK VINA RESULT:     -12.5      1.307      2.153
REMARK SMILES Cc1cccc(CN(C)c2ccc(C(=O)NCCCCNC(=O)c3ccc(-c4c5nc(c(-c6c(F)cccc6F)c6ccc([nH]6)c(-c6c(F)cccc6F)c6nc(c(-c7c(F)cccc7F)c7ccc4[nH]7)C=C6)C=C5)cc3)cc2C)n1
REMARK SMILES IDX 18 1 17 2 16 3 14 4 15 5 13 7 10 8 11 9 79 10 12 11 78 12
REMARK SMILES IDX 80 13 8 14 9 15 7 16 6 17 1 18 2 19 3 20 81 21 4 22 5 23
REMARK SMILES IDX 19 24 20 25 21 26 22 27 23 29 24 30 25 31 77 32 26 33 76 34
REMARK SMILES IDX 27 35 28 36 29 37 70 38 30 39 75 40 69 41 71 42 31 43 74 44
REMARK SMILES IDX 68 45 67 46 32 48 58 49 41 50 57 51 42 52 45 53 56 54 72 55
REMARK SMILES IDX 43 56 44 57 55 59 73 60 46 61 33 62 34 63 39 64 35 65 36 66
REMARK SMILES IDX 38 67 40 68 37 69 59 70 60 71 65 72 61 73 62 74 64 75 66 76
REMARK SMILES IDX 63 77 47 78 48 79 53 80 49 81 50 82 52 83 54 84 51 85
REMARK H PARENT 16 6 21 28 71 47 45 58
REMARK Flexibility Score: inf
ROOT
ATOM      1  C   UNL A   1      31.921  30.801  26.300  1.00  0.00     0.023 C 
ENDROOT
BRANCH   1   2
ATOM      2  C   UNL A   1      31.520  29.914  25.119  1.00  0.00     0.116 C 
BRANCH   2   3
ATOM      3  N   UNL A   1      32.566  29.712  24.118  1.00  0.00    -0.352 N 
ATOM      4  C   UNL A   1      33.287  28.609  23.700  1.00  0.00     0.251 C 
ATOM      5  O   UNL A   1      34.143  28.781  22.832  1.00  0.00    -0.269 OA
ATOM      6  H   UNL A   1      32.809  30.538  23.640  1.00  0.00     0.163 HD
BRANCH   4   7
ATOM      7  C   UNL A   1      33.106  27.246  24.269  1.00  0.00     0.040 A 
ATOM      8  C   UNL A   1      32.981  24.531  25.201  1.00  0.00     0.040 A 
ATOM      9  C   UNL A   1      33.520  25.584  25.950  1.00  0.00     0.027 A 
ATOM     10  C   UNL A   1      32.315  24.922  24.021  1.00  0.00    -0.027 A 
ATOM     11  C   UNL A   1      33.515  26.916  25.540  1.00  0.00     0.016 A 
ATOM     12  C   UNL A   1      32.437  26.255  23.537  1.00  0.00     0.019 A 
ATOM     13  C   UNL A   1      31.409  23.996  23.253  1.00  0.00     0.046 C 
BRANCH   8  14
ATOM     14  N   UNL A   1      33.117  23.207  25.623  1.00  0.00    -0.368 N 
ATOM     15  C   UNL A   1      32.111  22.680  26.546  1.00  0.00     0.144 C 
BRANCH  14  16
ATOM     16  C   UNL A   1      33.891  22.195  24.865  1.00  0.00     0.172 C 
BRANCH  16  17
ATOM     17  C   UNL A   1      35.368  22.071  25.245  1.00  0.00     0.060 A 
ATOM     18  C   UNL A   1      38.002  19.506  24.989  1.00  0.00     0.067 C 
ATOM     19  C   UNL A   1      37.342  20.834  25.208  1.00  0.00     0.038 A 
ATOM     20  C   UNL A   1      38.106  21.967  25.473  1.00  0.00     0.023 A 
ATOM     21  N   UNL A   1      35.989  20.870  25.098  1.00  0.00    -0.256 NA
ATOM     22  C   UNL A   1      37.459  23.177  25.680  1.00  0.00     0.004 A 
ATOM     23  C   UNL A   1      36.073  23.230  25.593  1.00  0.00     0.026 A 
ENDBRANCH  16  17
ENDBRANCH  14  16
ENDBRANCH   8  14
ENDBRANCH   4   7
ENDBRANCH   2   3
ENDBRANCH   1   2
BRANCH   1  24
ATOM     24  C   UNL A   1      32.847  30.176  27.338  1.00  0.00     0.023 C 
BRANCH  24  25
ATOM     25  C   UNL A   1      34.335  30.399  27.096  1.00  0.00     0.116 C 
BRANCH  25  26
ATOM     26  N   UNL A   1      35.005  31.312  28.009  1.00  0.00    -0.352 N 
ATOM     27  C   UNL A   1      36.085  31.098  28.864  1.00  0.00     0.251 C 
ATOM     28  H   UNL A   1      34.637  32.226  28.026  1.00  0.00     0.163 HD
ATOM     29  O   UNL A   1      36.421  31.976  29.629  1.00  0.00    -0.269 OA
BRANCH  27  30
ATOM     30  C   UNL A   1      36.925  29.867  28.736  1.00  0.00     0.039 A 
ATOM     31  C   UNL A   1      37.026  29.024  29.855  1.00  0.00     0.014 A 
ATOM     32  C   UNL A   1      37.770  29.655  27.656  1.00  0.00     0.014 A 
ATOM     33  C   UNL A   1      38.143  28.200  30.001  1.00  0.00     0.010 A 
ATOM     34  C   UNL A   1      38.940  28.955  27.853  1.00  0.00     0.010 A 
ATOM     35  C   UNL A   1      39.160  28.284  29.057  1.00  0.00    -0.014 A 
BRANCH  35  36
ATOM     36  C   UNL A   1      40.529  27.833  29.277  1.00  0.00     0.031 A 
ATOM     37  C   UNL A   1      40.997  26.546  28.727  1.00  0.00     0.074 A 
ATOM     38  C   UNL A   1      41.415  28.704  29.810  1.00  0.00     0.049 A 
ATOM     39  N   UNL A   1      42.091  25.959  29.076  1.00  0.00    -0.248 NA
ATOM     40  C   UNL A   1      40.242  25.801  27.727  1.00  0.00     0.031 C 
ATOM     41  C   UNL A   1      42.873  28.623  29.787  1.00  0.00     0.029 A 
ATOM     42  N   UNL A   1      41.144  29.774  30.673  1.00  0.00    -0.354 N 
ATOM     43  C   UNL A   1      42.324  24.936  28.186  1.00  0.00     0.074 A 
ATOM     44  C   UNL A   1      41.122  24.854  27.390  1.00  0.00     0.031 C 
ATOM     45  C   UNL A   1      43.362  29.364  30.794  1.00  0.00     0.029 A 
ATOM     46  C   UNL A   1      42.228  29.815  31.582  1.00  0.00     0.049 A 
ATOM     47  H   UNL A   1      40.363  30.373  30.653  1.00  0.00     0.167 HD
ATOM     48  C   UNL A   1      43.555  24.349  28.151  1.00  0.00     0.037 A 
ATOM     49  C   UNL A   1      42.027  29.526  32.902  1.00  0.00     0.037 A 
ATOM     50  C   UNL A   1      44.428  24.873  29.201  1.00  0.00     0.049 A 
ATOM     51  C   UNL A   1      42.741  28.281  33.393  1.00  0.00     0.074 A 
ATOM     52  C   UNL A   1      45.421  25.837  29.246  1.00  0.00     0.029 A 
ATOM     53  N   UNL A   1      44.106  24.598  30.517  1.00  0.00    -0.354 N 
ATOM     54  N   UNL A   1      43.455  27.493  32.638  1.00  0.00    -0.248 NA
ATOM     55  C   UNL A   1      42.631  27.780  34.765  1.00  0.00     0.031 C 
ATOM     56  C   UNL A   1      45.652  26.174  30.612  1.00  0.00     0.029 A 
ATOM     57  C   UNL A   1      44.806  25.407  31.391  1.00  0.00     0.049 A 
ATOM     58  H   UNL A   1      43.459  23.910  30.797  1.00  0.00     0.167 HD
ATOM     59  C   UNL A   1      43.827  26.390  33.356  1.00  0.00     0.074 A 
ATOM     60  C   UNL A   1      43.304  26.620  34.689  1.00  0.00     0.031 C 
ATOM     61  C   UNL A   1      44.497  25.338  32.807  1.00  0.00     0.037 A 
BRANCH  48  62
ATOM     62  C   UNL A   1      44.038  23.467  27.025  1.00  0.00     0.057 A 
ATOM     63  C   UNL A   1      44.984  23.939  26.094  1.00  0.00     0.134 A 
ATOM     64  C   UNL A   1      43.584  22.160  26.774  1.00  0.00     0.134 A 
ATOM     65  F   UNL A   1      45.597  25.120  26.250  1.00  0.00    -0.206 F 
ATOM     66  C   UNL A   1      45.352  23.222  24.948  1.00  0.00     0.040 A 
ATOM     67  C   UNL A   1      43.895  21.455  25.602  1.00  0.00     0.040 A 
ATOM     68  F   UNL A   1      42.870  21.480  27.678  1.00  0.00    -0.206 F 
ATOM     69  C   UNL A   1      44.774  21.992  24.674  1.00  0.00     0.006 A 
ENDBRANCH  48  62
BRANCH  49  70
ATOM     70  C   UNL A   1      40.702  30.001  33.386  1.00  0.00     0.057 A 
ATOM     71  C   UNL A   1      40.535  31.375  33.639  1.00  0.00     0.134 A 
ATOM     72  C   UNL A   1      39.544  29.238  33.220  1.00  0.00     0.134 A 
ATOM     73  F   UNL A   1      41.607  32.166  33.809  1.00  0.00    -0.206 F 
ATOM     74  C   UNL A   1      39.279  31.984  33.598  1.00  0.00     0.040 A 
ATOM     75  C   UNL A   1      38.279  29.836  33.196  1.00  0.00     0.040 A 
ATOM     76  F   UNL A   1      39.622  27.927  32.951  1.00  0.00    -0.206 F 
ATOM     77  C   UNL A   1      38.149  31.217  33.339  1.00  0.00     0.006 A 
ENDBRANCH  49  70
BRANCH  61  78
ATOM     78  C   UNL A   1      44.917  24.144  33.603  1.00  0.00     0.057 A 
ATOM     79  C   UNL A   1      46.233  23.988  34.057  1.00  0.00     0.134 A 
ATOM     80  C   UNL A   1      44.051  23.056  33.811  1.00  0.00     0.134 A 
ATOM     81  F   UNL A   1      47.139  24.961  33.882  1.00  0.00    -0.206 F 
ATOM     82  C   UNL A   1      46.662  22.817  34.688  1.00  0.00     0.040 A 
ATOM     83  C   UNL A   1      44.479  21.866  34.401  1.00  0.00     0.040 A 
ATOM     84  F   UNL A   1      42.758  23.117  33.462  1.00  0.00    -0.206 F 
ATOM     85  C   UNL A   1      45.789  21.744  34.845  1.00  0.00     0.006 A 
ENDBRANCH  61  78
ENDBRANCH  35  36
ENDBRANCH  27  30
ENDBRANCH  25  26
ENDBRANCH  24  25
ENDBRANCH   1  24
TORSDOF 14
ENDMDL
MODEL 3
REMARK VINA RESULT:     -12.3      3.606      9.337
REMARK SMILES Cc1cccc(CN(C)c2ccc(C(=O)NCCCCNC(=O)c3ccc(-c4c5nc(c(-c6c(F)cccc6F)c6ccc([nH]6)c(-c6c(F)cccc6F)c6nc(c(-c7c(F)cccc7F)c7ccc4[nH]7)C=C6)C=C5)cc3)cc2C)n1
REMARK SMILES IDX 18 1 17 2 16 3 14 4 15 5 13 7 10 8 11 9 79 10 12 11 78 12
REMARK SMILES IDX 80 13 8 14 9 15 7 16 6 17 1 18 2 19 3 20 81 21 4 22 5 23
REMARK SMILES IDX 19 24 20 25 21 26 22 27 23 29 24 30 25 31 77 32 26 33 76 34
REMARK SMILES IDX 27 35 28 36 29 37 70 38 30 39 75 40 69 41 71 42 31 43 74 44
REMARK SMILES IDX 68 45 67 46 32 48 58 49 41 50 57 51 42 52 45 53 56 54 72 55
REMARK SMILES IDX 43 56 44 57 55 59 73 60 46 61 33 62 34 63 39 64 35 65 36 66
REMARK SMILES IDX 38 67 40 68 37 69 59 70 60 71 65 72 61 73 62 74 64 75 66 76
REMARK SMILES IDX 63 77 47 78 48 79 53 80 49 81 50 82 52 83 54 84 51 85
REMARK H PARENT 16 6 21 28 71 47 45 58
REMARK Flexibility Score: inf
ROOT
ATOM      1  C   UNL A   1      36.417  21.096  25.577  1.00  0.00     0.023 C 
ENDROOT
BRANCH   1   2
ATOM      2  C   UNL A   1      35.313  21.536  24.614  1.00  0.00     0.116 C 
BRANCH   2   3
ATOM      3  N   UNL A   1      34.027  20.869  24.807  1.00  0.00    -0.352 N 
ATOM      4  C   UNL A   1      32.713  21.299  24.773  1.00  0.00     0.251 C 
ATOM      5  O   UNL A   1      31.834  20.471  25.014  1.00  0.00    -0.269 OA
ATOM      6  H   UNL A   1      34.115  19.908  25.003  1.00  0.00     0.163 HD
BRANCH   4   7
ATOM      7  C   UNL A   1      32.316  22.706  24.497  1.00  0.00     0.040 A 
ATOM      8  C   UNL A   1      31.831  25.492  23.989  1.00  0.00     0.040 A 
ATOM      9  C   UNL A   1      31.829  24.509  22.990  1.00  0.00     0.027 A 
ATOM     10  C   UNL A   1      31.894  24.998  25.308  1.00  0.00    -0.027 A 
ATOM     11  C   UNL A   1      31.986  23.147  23.237  1.00  0.00     0.016 A 
ATOM     12  C   UNL A   1      32.197  23.628  25.547  1.00  0.00     0.019 A 
ATOM     13  C   UNL A   1      31.593  25.852  26.512  1.00  0.00     0.046 C 
BRANCH   8  14
ATOM     14  N   UNL A   1      31.778  26.848  23.660  1.00  0.00    -0.368 N 
ATOM     15  C   UNL A   1      30.495  27.536  23.816  1.00  0.00     0.144 C 
BRANCH  14  16
ATOM     16  C   UNL A   1      32.978  27.718  23.631  1.00  0.00     0.172 C 
BRANCH  16  17
ATOM     17  C   UNL A   1      33.195  28.586  24.872  1.00  0.00     0.060 A 
ATOM     18  C   UNL A   1      31.503  31.435  26.487  1.00  0.00     0.067 C 
ATOM     19  C   UNL A   1      32.437  30.281  26.280  1.00  0.00     0.038 A 
ATOM     20  C   UNL A   1      33.271  29.855  27.310  1.00  0.00     0.023 A 
ATOM     21  N   UNL A   1      32.393  29.667  25.070  1.00  0.00    -0.256 NA
ATOM     22  C   UNL A   1      34.129  28.788  27.079  1.00  0.00     0.004 A 
ATOM     23  C   UNL A   1      34.114  28.161  25.839  1.00  0.00     0.026 A 
ENDBRANCH  16  17
ENDBRANCH  14  16
ENDBRANCH   8  14
ENDBRANCH   4   7
ENDBRANCH   2   3
ENDBRANCH   1   2
BRANCH   1  24
ATOM     24  C   UNL A   1      37.846  21.458  25.185  1.00  0.00     0.023 C 
BRANCH  24  25
ATOM     25  C   UNL A   1      38.373  22.755  25.787  1.00  0.00     0.116 C 
BRANCH  25  26
ATOM     26  N   UNL A   1      39.742  22.727  26.278  1.00  0.00    -0.352 N 
ATOM     27  C   UNL A   1      40.551  23.762  26.745  1.00  0.00     0.251 C 
ATOM     28  H   UNL A   1      40.164  21.838  26.279  1.00  0.00     0.163 HD
ATOM     29  O   UNL A   1      41.713  23.536  27.006  1.00  0.00    -0.269 OA
BRANCH  27  30
ATOM     30  C   UNL A   1      39.965  25.098  27.076  1.00  0.00     0.039 A 
ATOM     31  C   UNL A   1      40.390  26.204  26.322  1.00  0.00     0.014 A 
ATOM     32  C   UNL A   1      39.210  25.313  28.220  1.00  0.00     0.014 A 
ATOM     33  C   UNL A   1      40.319  27.485  26.874  1.00  0.00     0.010 A 
ATOM     34  C   UNL A   1      39.261  26.548  28.830  1.00  0.00     0.010 A 
ATOM     35  C   UNL A   1      39.881  27.620  28.187  1.00  0.00    -0.014 A 
BRANCH  35  36
ATOM     36  C   UNL A   1      40.143  28.783  29.026  1.00  0.00     0.031 A 
ATOM     37  C   UNL A   1      39.091  29.789  29.273  1.00  0.00     0.074 A 
ATOM     38  C   UNL A   1      41.290  28.815  29.741  1.00  0.00     0.049 A 
ATOM     39  N   UNL A   1      39.301  30.953  29.784  1.00  0.00    -0.248 NA
ATOM     40  C   UNL A   1      37.691  29.553  28.940  1.00  0.00     0.031 C 
ATOM     41  C   UNL A   1      41.603  29.656  30.893  1.00  0.00     0.029 A 
ATOM     42  N   UNL A   1      42.509  28.199  29.425  1.00  0.00    -0.354 N 
ATOM     43  C   UNL A   1      38.080  31.504  30.099  1.00  0.00     0.074 A 
ATOM     44  C   UNL A   1      37.107  30.609  29.516  1.00  0.00     0.031 C 
ATOM     45  C   UNL A   1      42.936  29.752  31.008  1.00  0.00     0.029 A 
ATOM     46  C   UNL A   1      43.513  29.104  29.843  1.00  0.00     0.049 A 
ATOM     47  H   UNL A   1      42.639  27.320  29.000  1.00  0.00     0.167 HD
ATOM     48  C   UNL A   1      38.030  32.595  30.915  1.00  0.00     0.037 A 
ATOM     49  C   UNL A   1      44.310  29.717  28.918  1.00  0.00     0.037 A 
ATOM     50  C   UNL A   1      39.370  33.078  31.245  1.00  0.00     0.049 A 
ATOM     51  C   UNL A   1      44.148  31.224  28.845  1.00  0.00     0.074 A 
ATOM     52  C   UNL A   1      40.224  32.911  32.323  1.00  0.00     0.029 A 
ATOM     53  N   UNL A   1      40.141  33.615  30.231  1.00  0.00    -0.354 N 
ATOM     54  N   UNL A   1      43.292  31.910  29.550  1.00  0.00    -0.248 NA
ATOM     55  C   UNL A   1      44.886  32.066  27.899  1.00  0.00     0.031 C 
ATOM     56  C   UNL A   1      41.532  33.309  31.920  1.00  0.00     0.029 A 
ATOM     57  C   UNL A   1      41.467  33.724  30.603  1.00  0.00     0.049 A 
ATOM     58  H   UNL A   1      39.788  33.887  29.353  1.00  0.00     0.167 HD
ATOM     59  C   UNL A   1      43.299  33.213  29.132  1.00  0.00     0.074 A 
ATOM     60  C   UNL A   1      44.326  33.269  28.109  1.00  0.00     0.031 C 
ATOM     61  C   UNL A   1      42.438  34.152  29.613  1.00  0.00     0.037 A 
BRANCH  48  62
ATOM     62  C   UNL A   1      36.773  33.085  31.595  1.00  0.00     0.057 A 
ATOM     63  C   UNL A   1      36.527  32.794  32.950  1.00  0.00     0.134 A 
ATOM     64  C   UNL A   1      35.747  33.809  30.964  1.00  0.00     0.134 A 
ATOM     65  F   UNL A   1      37.450  32.207  33.724  1.00  0.00    -0.206 F 
ATOM     66  C   UNL A   1      35.315  33.091  33.587  1.00  0.00     0.040 A 
ATOM     67  C   UNL A   1      34.506  34.060  31.569  1.00  0.00     0.040 A 
ATOM     68  F   UNL A   1      35.918  34.363  29.758  1.00  0.00    -0.206 F 
ATOM     69  C   UNL A   1      34.280  33.687  32.884  1.00  0.00     0.006 A 
ENDBRANCH  48  62
BRANCH  49  70
ATOM     70  C   UNL A   1      44.617  28.831  27.763  1.00  0.00     0.057 A 
ATOM     71  C   UNL A   1      45.547  27.791  27.945  1.00  0.00     0.134 A 
ATOM     72  C   UNL A   1      43.757  28.734  26.666  1.00  0.00     0.134 A 
ATOM     73  F   UNL A   1      46.402  27.823  28.980  1.00  0.00    -0.206 F 
ATOM     74  C   UNL A   1      45.535  26.644  27.148  1.00  0.00     0.040 A 
ATOM     75  C   UNL A   1      43.750  27.596  25.849  1.00  0.00     0.040 A 
ATOM     76  F   UNL A   1      42.827  29.672  26.440  1.00  0.00    -0.206 F 
ATOM     77  C   UNL A   1      44.608  26.530  26.118  1.00  0.00     0.006 A 
ENDBRANCH  49  70
BRANCH  61  78
ATOM     78  C   UNL A   1      42.464  35.577  29.166  1.00  0.00     0.057 A 
ATOM     79  C   UNL A   1      41.712  36.020  28.071  1.00  0.00     0.134 A 
ATOM     80  C   UNL A   1      43.351  36.510  29.732  1.00  0.00     0.134 A 
ATOM     81  F   UNL A   1      40.856  35.196  27.448  1.00  0.00    -0.206 F 
ATOM     82  C   UNL A   1      41.831  37.320  27.569  1.00  0.00     0.040 A 
ATOM     83  C   UNL A   1      43.511  37.797  29.213  1.00  0.00     0.040 A 
ATOM     84  F   UNL A   1      44.084  36.209  30.815  1.00  0.00    -0.206 F 
ATOM     85  C   UNL A   1      42.746  38.207  28.130  1.00  0.00     0.006 A 
ENDBRANCH  61  78
ENDBRANCH  35  36
ENDBRANCH  27  30
ENDBRANCH  25  26
ENDBRANCH  24  25
ENDBRANCH   1  24
TORSDOF 14
ENDMDL
