MODEL 1
REMARK VINA RESULT:     -11.2      0.000      0.000
REMARK SMILES NC(=O)C[C@@H](NC(=O)c1ccc(CO)cc1)C(=O)NCCCCNC(=O)c1ccc(-c2c3nc(c(-c4c(F)cccc4F)c4ccc([nH]4)c(-c4c(F)cccc4F)c4nc(c(-c5c(F)cccc5F)c5ccc2[nH]5)C=C4)C=C3)cc1
REMARK SMILES IDX 20 1 19 2 17 3 18 4 5 6 4 7 2 8 1 9 3 12 6 13 7 14 8 16 9 17
REMARK SMILES IDX 10 18 16 19 11 20 15 21 12 22 13 23 14 24 21 26 22 27 23 28
REMARK SMILES IDX 24 29 25 30 26 32 27 33 28 34 80 35 29 36 79 37 30 38 31 39
REMARK SMILES IDX 32 40 73 41 33 42 78 43 72 44 74 45 34 46 77 47 71 48 70 49
REMARK SMILES IDX 35 51 61 52 44 53 60 54 45 55 48 56 59 57 75 58 46 59 47 60
REMARK SMILES IDX 58 62 76 63 49 64 36 65 37 66 42 67 38 68 39 69 41 70 43 71
REMARK SMILES IDX 40 72 62 73 63 74 68 75 64 76 65 77 67 78 69 79 66 80 50 81
REMARK SMILES IDX 51 82 56 83 52 84 53 85 55 86 57 87 54 88
REMARK H PARENT 19 5 1 10 1 11 6 15 14 25 24 31 74 50 48 61
REMARK Flexibility Score: inf
ROOT
ATOM      1  C   UNL A   1      35.776  21.078  25.669  1.00  0.00     0.116 C 
ENDROOT
BRANCH   1   2
ATOM      2  N   UNL A   1      34.664  20.164  25.506  1.00  0.00    -0.354 N 
ATOM      3  C   UNL A   1      33.338  20.421  25.342  1.00  0.00     0.243 C 
ATOM      4  O   UNL A   1      32.557  19.466  25.397  1.00  0.00    -0.273 OA
ATOM      5  H   UNL A   1      34.906  19.208  25.514  1.00  0.00     0.163 HD
BRANCH   3   6
ATOM      6  C   UNL A   1      32.810  21.862  25.240  1.00  0.00     0.180 C 
BRANCH   6   7
ATOM      7  C   UNL A   1      32.250  21.970  23.808  1.00  0.00     0.134 C 
BRANCH   7   8
ATOM      8  C   UNL A   1      33.168  22.671  22.848  1.00  0.00     0.220 C 
ATOM      9  N   UNL A   1      32.624  22.961  21.631  1.00  0.00    -0.370 N 
ATOM     10  H   UNL A   1      33.165  23.421  20.948  1.00  0.00     0.159 HD
ATOM     11  H   UNL A   1      31.692  22.713  21.436  1.00  0.00     0.159 HD
ATOM     12  O   UNL A   1      34.327  22.958  23.114  1.00  0.00    -0.275 OA
ENDBRANCH   7   8
ENDBRANCH   6   7
BRANCH   6  13
ATOM     13  N   UNL A   1      31.835  22.265  26.275  1.00  0.00    -0.340 N 
ATOM     14  C   UNL A   1      31.278  23.492  26.567  1.00  0.00     0.251 C 
ATOM     15  H   UNL A   1      31.532  21.532  26.858  1.00  0.00     0.164 HD
ATOM     16  O   UNL A   1      30.278  23.538  27.279  1.00  0.00    -0.269 OA
BRANCH  14  17
ATOM     17  C   UNL A   1      31.958  24.751  26.199  1.00  0.00     0.039 A 
ATOM     18  C   UNL A   1      31.183  25.917  26.180  1.00  0.00     0.014 A 
ATOM     19  C   UNL A   1      33.328  24.820  25.953  1.00  0.00     0.014 A 
ATOM     20  C   UNL A   1      31.799  27.163  26.058  1.00  0.00     0.007 A 
ATOM     21  C   UNL A   1      33.945  26.071  25.838  1.00  0.00     0.007 A 
ATOM     22  C   UNL A   1      33.193  27.251  25.937  1.00  0.00    -0.023 A 
BRANCH  22  23
ATOM     23  C   UNL A   1      33.864  28.600  25.951  1.00  0.00     0.191 C 
BRANCH  23  24
ATOM     24  O   UNL A   1      33.649  29.275  24.722  1.00  0.00    -0.392 OA
ATOM     25  H   UNL A   1      34.439  29.789  24.493  1.00  0.00     0.211 HD
ENDBRANCH  23  24
ENDBRANCH  22  23
ENDBRANCH  14  17
ENDBRANCH   6  13
ENDBRANCH   3   6
ENDBRANCH   1   2
BRANCH   1  26
ATOM     26  C   UNL A   1      36.816  20.856  24.577  1.00  0.00     0.023 C 
BRANCH  26  27
ATOM     27  C   UNL A   1      37.835  19.764  24.909  1.00  0.00     0.023 C 
BRANCH  27  28
ATOM     28  C   UNL A   1      38.976  20.215  25.814  1.00  0.00     0.116 C 
BRANCH  28  29
ATOM     29  N   UNL A   1      40.093  19.283  25.803  1.00  0.00    -0.352 N 
ATOM     30  C   UNL A   1      41.418  19.536  26.056  1.00  0.00     0.251 C 
ATOM     31  H   UNL A   1      39.870  18.350  25.586  1.00  0.00     0.163 HD
ATOM     32  O   UNL A   1      42.270  18.681  25.833  1.00  0.00    -0.269 OA
BRANCH  30  33
ATOM     33  C   UNL A   1      41.808  20.858  26.580  1.00  0.00     0.039 A 
ATOM     34  C   UNL A   1      42.222  21.848  25.686  1.00  0.00     0.014 A 
ATOM     35  C   UNL A   1      41.737  21.122  27.951  1.00  0.00     0.014 A 
ATOM     36  C   UNL A   1      42.516  23.123  26.165  1.00  0.00     0.010 A 
ATOM     37  C   UNL A   1      41.958  22.413  28.415  1.00  0.00     0.010 A 
ATOM     38  C   UNL A   1      42.361  23.424  27.528  1.00  0.00    -0.014 A 
BRANCH  38  39
ATOM     39  C   UNL A   1      42.648  24.781  28.053  1.00  0.00     0.031 A 
ATOM     40  C   UNL A   1      44.051  25.147  28.452  1.00  0.00     0.074 A 
ATOM     41  C   UNL A   1      41.643  25.661  28.222  1.00  0.00     0.049 A 
ATOM     42  N   UNL A   1      44.496  26.255  28.986  1.00  0.00    -0.248 NA
ATOM     43  C   UNL A   1      45.085  24.120  28.250  1.00  0.00     0.031 C 
ATOM     44  C   UNL A   1      40.234  25.410  27.913  1.00  0.00     0.029 A 
ATOM     45  N   UNL A   1      41.654  26.946  28.703  1.00  0.00    -0.354 N 
ATOM     46  C   UNL A   1      45.854  26.051  29.197  1.00  0.00     0.074 A 
ATOM     47  C   UNL A   1      46.149  24.696  28.789  1.00  0.00     0.031 C 
ATOM     48  C   UNL A   1      39.521  26.514  28.190  1.00  0.00     0.029 A 
ATOM     49  C   UNL A   1      40.414  27.535  28.727  1.00  0.00     0.049 A 
ATOM     50  H   UNL A   1      42.473  27.402  29.001  1.00  0.00     0.167 HD
ATOM     51  C   UNL A   1      46.778  26.923  29.665  1.00  0.00     0.037 A 
ATOM     52  C   UNL A   1      40.041  28.762  29.141  1.00  0.00     0.037 A 
ATOM     53  C   UNL A   1      46.487  28.280  30.047  1.00  0.00     0.049 A 
ATOM     54  C   UNL A   1      41.085  29.711  29.658  1.00  0.00     0.074 A 
ATOM     55  C   UNL A   1      47.362  29.259  30.482  1.00  0.00     0.029 A 
ATOM     56  N   UNL A   1      45.222  28.846  30.038  1.00  0.00    -0.354 N 
ATOM     57  N   UNL A   1      42.377  29.528  29.791  1.00  0.00    -0.248 NA
ATOM     58  C   UNL A   1      40.621  31.042  30.076  1.00  0.00     0.031 C 
ATOM     59  C   UNL A   1      46.619  30.408  30.777  1.00  0.00     0.029 A 
ATOM     60  C   UNL A   1      45.289  30.158  30.476  1.00  0.00     0.049 A 
ATOM     61  H   UNL A   1      44.397  28.384  29.761  1.00  0.00     0.167 HD
ATOM     62  C   UNL A   1      42.884  30.729  30.274  1.00  0.00     0.074 A 
ATOM     63  C   UNL A   1      41.762  31.635  30.400  1.00  0.00     0.031 C 
ATOM     64  C   UNL A   1      44.164  31.051  30.581  1.00  0.00     0.037 A 
BRANCH  51  65
ATOM     65  C   UNL A   1      48.192  26.433  29.784  1.00  0.00     0.057 A 
ATOM     66  C   UNL A   1      48.657  25.793  30.941  1.00  0.00     0.134 A 
ATOM     67  C   UNL A   1      49.093  26.580  28.722  1.00  0.00     0.134 A 
ATOM     68  F   UNL A   1      47.849  25.632  32.001  1.00  0.00    -0.206 F 
ATOM     69  C   UNL A   1      49.974  25.344  31.049  1.00  0.00     0.040 A 
ATOM     70  C   UNL A   1      50.405  26.110  28.807  1.00  0.00     0.040 A 
ATOM     71  F   UNL A   1      48.711  27.178  27.583  1.00  0.00    -0.206 F 
ATOM     72  C   UNL A   1      50.851  25.497  29.976  1.00  0.00     0.006 A 
ENDBRANCH  51  65
BRANCH  52  73
ATOM     73  C   UNL A   1      38.617  29.176  29.055  1.00  0.00     0.057 A 
ATOM     74  C   UNL A   1      37.774  29.092  30.169  1.00  0.00     0.134 A 
ATOM     75  C   UNL A   1      38.062  29.650  27.861  1.00  0.00     0.134 A 
ATOM     76  F   UNL A   1      38.244  28.628  31.337  1.00  0.00    -0.206 F 
ATOM     77  C   UNL A   1      36.426  29.444  30.095  1.00  0.00     0.040 A 
ATOM     78  C   UNL A   1      36.721  30.029  27.778  1.00  0.00     0.040 A 
ATOM     79  F   UNL A   1      38.819  29.763  26.760  1.00  0.00    -0.206 F 
ATOM     80  C   UNL A   1      35.897  29.918  28.897  1.00  0.00     0.006 A 
ENDBRANCH  52  73
BRANCH  64  81
ATOM     81  C   UNL A   1      44.428  32.456  31.039  1.00  0.00     0.057 A 
ATOM     82  C   UNL A   1      44.690  33.494  30.136  1.00  0.00     0.134 A 
ATOM     83  C   UNL A   1      44.376  32.780  32.401  1.00  0.00     0.134 A 
ATOM     84  F   UNL A   1      44.765  33.248  28.819  1.00  0.00    -0.206 F 
ATOM     85  C   UNL A   1      44.914  34.800  30.574  1.00  0.00     0.040 A 
ATOM     86  C   UNL A   1      44.572  34.088  32.848  1.00  0.00     0.040 A 
ATOM     87  F   UNL A   1      44.121  31.835  33.317  1.00  0.00    -0.206 F 
ATOM     88  C   UNL A   1      44.848  35.101  31.933  1.00  0.00     0.006 A 
ENDBRANCH  64  81
ENDBRANCH  38  39
ENDBRANCH  30  33
ENDBRANCH  28  29
ENDBRANCH  27  28
ENDBRANCH  26  27
ENDBRANCH   1  26
TORSDOF 17
ENDMDL
MODEL 2
REMARK VINA RESULT:     -11.2      1.762      3.541
REMARK SMILES NC(=O)C[C@@H](NC(=O)c1ccc(CO)cc1)C(=O)NCCCCNC(=O)c1ccc(-c2c3nc(c(-c4c(F)cccc4F)c4ccc([nH]4)c(-c4c(F)cccc4F)c4nc(c(-c5c(F)cccc5F)c5ccc2[nH]5)C=C4)C=C3)cc1
REMARK SMILES IDX 20 1 19 2 17 3 18 4 5 6 4 7 2 8 1 9 3 12 6 13 7 14 8 16 9 17
REMARK SMILES IDX 10 18 16 19 11 20 15 21 12 22 13 23 14 24 21 26 22 27 23 28
REMARK SMILES IDX 24 29 25 30 26 32 27 33 28 34 80 35 29 36 79 37 30 38 31 39
REMARK SMILES IDX 32 40 73 41 33 42 78 43 72 44 74 45 34 46 77 47 71 48 70 49
REMARK SMILES IDX 35 51 61 52 44 53 60 54 45 55 48 56 59 57 75 58 46 59 47 60
REMARK SMILES IDX 58 62 76 63 49 64 36 65 37 66 42 67 38 68 39 69 41 70 43 71
REMARK SMILES IDX 40 72 62 73 63 74 68 75 64 76 65 77 67 78 69 79 66 80 50 81
REMARK SMILES IDX 51 82 56 83 52 84 53 85 55 86 57 87 54 88
REMARK H PARENT 19 5 1 10 1 11 6 15 14 25 24 31 74 50 48 61
REMARK Flexibility Score: inf
ROOT
ATOM      1  C   UNL A   1      36.989  21.932  24.689  1.00  0.00     0.116 C 
ENDROOT
BRANCH   1   2
ATOM      2  N   UNL A   1      36.187  22.474  23.611  1.00  0.00    -0.354 N 
ATOM      3  C   UNL A   1      34.989  23.118  23.651  1.00  0.00     0.243 C 
ATOM      4  O   UNL A   1      34.418  23.335  22.579  1.00  0.00    -0.273 OA
ATOM      5  H   UNL A   1      36.569  22.360  22.710  1.00  0.00     0.163 HD
BRANCH   3   6
ATOM      6  C   UNL A   1      34.296  23.434  24.987  1.00  0.00     0.180 C 
BRANCH   6   7
ATOM      7  C   UNL A   1      34.765  24.858  25.341  1.00  0.00     0.134 C 
BRANCH   7   8
ATOM      8  C   UNL A   1      33.729  25.918  25.096  1.00  0.00     0.220 C 
ATOM      9  N   UNL A   1      33.537  26.793  26.126  1.00  0.00    -0.370 N 
ATOM     10  H   UNL A   1      32.874  27.516  26.039  1.00  0.00     0.159 HD
ATOM     11  H   UNL A   1      34.061  26.701  26.954  1.00  0.00     0.159 HD
ATOM     12  O   UNL A   1      33.085  26.001  24.059  1.00  0.00    -0.275 OA
ENDBRANCH   7   8
ENDBRANCH   6   7
BRANCH   6  13
ATOM     13  N   UNL A   1      32.825  23.288  25.000  1.00  0.00    -0.340 N 
ATOM     14  C   UNL A   1      32.025  22.170  25.103  1.00  0.00     0.251 C 
ATOM     15  H   UNL A   1      32.331  24.136  24.921  1.00  0.00     0.164 HD
ATOM     16  O   UNL A   1      30.838  22.310  25.381  1.00  0.00    -0.269 OA
BRANCH  14  17
ATOM     17  C   UNL A   1      32.519  20.835  24.705  1.00  0.00     0.039 A 
ATOM     18  C   UNL A   1      33.008  20.003  25.719  1.00  0.00     0.014 A 
ATOM     19  C   UNL A   1      32.440  20.366  23.394  1.00  0.00     0.014 A 
ATOM     20  C   UNL A   1      33.281  18.661  25.450  1.00  0.00     0.007 A 
ATOM     21  C   UNL A   1      32.708  19.018  23.129  1.00  0.00     0.007 A 
ATOM     22  C   UNL A   1      33.085  18.146  24.162  1.00  0.00    -0.023 A 
BRANCH  22  23
ATOM     23  C   UNL A   1      33.243  16.669  23.911  1.00  0.00     0.191 C 
BRANCH  23  24
ATOM     24  O   UNL A   1      34.028  16.443  22.751  1.00  0.00    -0.392 OA
ATOM     25  H   UNL A   1      33.886  17.165  22.119  1.00  0.00     0.211 HD
ENDBRANCH  23  24
ENDBRANCH  22  23
ENDBRANCH  14  17
ENDBRANCH   6  13
ENDBRANCH   3   6
ENDBRANCH   1   2
BRANCH   1  26
ATOM     26  C   UNL A   1      36.589  20.490  24.979  1.00  0.00     0.023 C 
BRANCH  26  27
ATOM     27  C   UNL A   1      37.770  19.516  25.001  1.00  0.00     0.023 C 
BRANCH  27  28
ATOM     28  C   UNL A   1      39.062  20.097  25.564  1.00  0.00     0.116 C 
BRANCH  28  29
ATOM     29  N   UNL A   1      40.085  19.083  25.765  1.00  0.00    -0.352 N 
ATOM     30  C   UNL A   1      41.413  19.257  26.061  1.00  0.00     0.251 C 
ATOM     31  H   UNL A   1      39.786  18.150  25.677  1.00  0.00     0.163 HD
ATOM     32  O   UNL A   1      42.191  18.309  26.023  1.00  0.00    -0.269 OA
BRANCH  30  33
ATOM     33  C   UNL A   1      41.900  20.607  26.404  1.00  0.00     0.039 A 
ATOM     34  C   UNL A   1      42.265  21.479  25.376  1.00  0.00     0.014 A 
ATOM     35  C   UNL A   1      41.968  21.013  27.740  1.00  0.00     0.014 A 
ATOM     36  C   UNL A   1      42.651  22.782  25.688  1.00  0.00     0.010 A 
ATOM     37  C   UNL A   1      42.280  22.333  28.042  1.00  0.00     0.010 A 
ATOM     38  C   UNL A   1      42.636  23.227  27.020  1.00  0.00    -0.014 A 
BRANCH  38  39
ATOM     39  C   UNL A   1      43.021  24.616  27.369  1.00  0.00     0.031 A 
ATOM     40  C   UNL A   1      44.467  25.026  27.318  1.00  0.00     0.074 A 
ATOM     41  C   UNL A   1      42.083  25.489  27.784  1.00  0.00     0.049 A 
ATOM     42  N   UNL A   1      45.014  26.169  27.641  1.00  0.00    -0.248 NA
ATOM     43  C   UNL A   1      45.427  24.005  26.869  1.00  0.00     0.031 C 
ATOM     44  C   UNL A   1      40.654  25.198  27.918  1.00  0.00     0.029 A 
ATOM     45  N   UNL A   1      42.194  26.799  28.176  1.00  0.00    -0.354 N 
ATOM     46  C   UNL A   1      46.380  25.999  27.452  1.00  0.00     0.074 A 
ATOM     47  C   UNL A   1      46.584  24.628  27.041  1.00  0.00     0.031 C 
ATOM     48  C   UNL A   1      40.019  26.304  28.339  1.00  0.00     0.029 A 
ATOM     49  C   UNL A   1      40.997  27.369  28.538  1.00  0.00     0.049 A 
ATOM     50  H   UNL A   1      43.050  27.284  28.197  1.00  0.00     0.167 HD
ATOM     51  C   UNL A   1      47.373  26.911  27.582  1.00  0.00     0.037 A 
ATOM     52  C   UNL A   1      40.724  28.611  28.982  1.00  0.00     0.037 A 
ATOM     53  C   UNL A   1      47.164  28.282  27.966  1.00  0.00     0.049 A 
ATOM     54  C   UNL A   1      41.844  29.604  29.121  1.00  0.00     0.074 A 
ATOM     55  C   UNL A   1      48.096  29.298  28.075  1.00  0.00     0.029 A 
ATOM     56  N   UNL A   1      45.935  28.827  28.303  1.00  0.00    -0.354 N 
ATOM     57  N   UNL A   1      43.123  29.449  28.875  1.00  0.00    -0.248 NA
ATOM     58  C   UNL A   1      41.482  30.948  29.592  1.00  0.00     0.031 C 
ATOM     59  C   UNL A   1      47.437  30.449  28.519  1.00  0.00     0.029 A 
ATOM     60  C   UNL A   1      46.086  30.162  28.637  1.00  0.00     0.049 A 
ATOM     61  H   UNL A   1      45.080  28.337  28.305  1.00  0.00     0.167 HD
ATOM     62  C   UNL A   1      43.712  30.682  29.127  1.00  0.00     0.074 A 
ATOM     63  C   UNL A   1      42.648  31.577  29.534  1.00  0.00     0.031 C 
ATOM     64  C   UNL A   1      45.014  31.042  29.026  1.00  0.00     0.037 A 
BRANCH  51  65
ATOM     65  C   UNL A   1      48.774  26.450  27.302  1.00  0.00     0.057 A 
ATOM     66  C   UNL A   1      49.316  26.480  26.009  1.00  0.00     0.134 A 
ATOM     67  C   UNL A   1      49.598  25.992  28.337  1.00  0.00     0.134 A 
ATOM     68  F   UNL A   1      48.575  26.894  24.970  1.00  0.00    -0.206 F 
ATOM     69  C   UNL A   1      50.616  26.044  25.753  1.00  0.00     0.040 A 
ATOM     70  C   UNL A   1      50.910  25.581  28.097  1.00  0.00     0.040 A 
ATOM     71  F   UNL A   1      49.144  25.943  29.599  1.00  0.00    -0.206 F 
ATOM     72  C   UNL A   1      51.420  25.598  26.801  1.00  0.00     0.006 A 
ENDBRANCH  51  65
BRANCH  52  73
ATOM     73  C   UNL A   1      39.326  28.997  29.301  1.00  0.00     0.057 A 
ATOM     74  C   UNL A   1      38.812  28.839  30.593  1.00  0.00     0.134 A 
ATOM     75  C   UNL A   1      38.469  29.517  28.325  1.00  0.00     0.134 A 
ATOM     76  F   UNL A   1      39.580  28.329  31.567  1.00  0.00    -0.206 F 
ATOM     77  C   UNL A   1      37.490  29.164  30.899  1.00  0.00     0.040 A 
ATOM     78  C   UNL A   1      37.151  29.870  28.622  1.00  0.00     0.040 A 
ATOM     79  F   UNL A   1      38.903  29.701  27.069  1.00  0.00    -0.206 F 
ATOM     80  C   UNL A   1      36.656  29.686  29.912  1.00  0.00     0.006 A 
ENDBRANCH  52  73
BRANCH  64  81
ATOM     81  C   UNL A   1      45.356  32.474  29.316  1.00  0.00     0.057 A 
ATOM     82  C   UNL A   1      45.284  33.469  28.333  1.00  0.00     0.134 A 
ATOM     83  C   UNL A   1      45.722  32.869  30.610  1.00  0.00     0.134 A 
ATOM     84  F   UNL A   1      44.951  33.155  27.071  1.00  0.00    -0.206 F 
ATOM     85  C   UNL A   1      45.586  34.800  28.620  1.00  0.00     0.040 A 
ATOM     86  C   UNL A   1      46.001  34.202  30.915  1.00  0.00     0.040 A 
ATOM     87  F   UNL A   1      45.803  31.967  31.600  1.00  0.00    -0.206 F 
ATOM     88  C   UNL A   1      45.939  35.171  29.917  1.00  0.00     0.006 A 
ENDBRANCH  64  81
ENDBRANCH  38  39
ENDBRANCH  30  33
ENDBRANCH  28  29
ENDBRANCH  27  28
ENDBRANCH  26  27
ENDBRANCH   1  26
TORSDOF 17
ENDMDL
MODEL 3
REMARK VINA RESULT:     -11.2      1.456      6.314
REMARK SMILES NC(=O)C[C@@H](NC(=O)c1ccc(CO)cc1)C(=O)NCCCCNC(=O)c1ccc(-c2c3nc(c(-c4c(F)cccc4F)c4ccc([nH]4)c(-c4c(F)cccc4F)c4nc(c(-c5c(F)cccc5F)c5ccc2[nH]5)C=C4)C=C3)cc1
REMARK SMILES IDX 20 1 19 2 17 3 18 4 5 6 4 7 2 8 1 9 3 12 6 13 7 14 8 16 9 17
REMARK SMILES IDX 10 18 16 19 11 20 15 21 12 22 13 23 14 24 21 26 22 27 23 28
REMARK SMILES IDX 24 29 25 30 26 32 27 33 28 34 80 35 29 36 79 37 30 38 31 39
REMARK SMILES IDX 32 40 73 41 33 42 78 43 72 44 74 45 34 46 77 47 71 48 70 49
REMARK SMILES IDX 35 51 61 52 44 53 60 54 45 55 48 56 59 57 75 58 46 59 47 60
REMARK SMILES IDX 58 62 76 63 49 64 36 65 37 66 42 67 38 68 39 69 41 70 43 71
REMARK SMILES IDX 40 72 62 73 63 74 68 75 64 76 65 77 67 78 69 79 66 80 50 81
REMARK SMILES IDX 51 82 56 83 52 84 53 85 55 86 57 87 54 88
REMARK H PARENT 19 5 1 10 1 11 6 15 14 25 24 31 74 50 48 61
REMARK Flexibility Score: inf
ROOT
ATOM      1  C   UNL A   1      35.850  21.179  25.681  1.00  0.00     0.116 C 
ENDROOT
BRANCH   1   2
ATOM      2  N   UNL A   1      34.751  20.247  25.531  1.00  0.00    -0.354 N 
ATOM      3  C   UNL A   1      33.421  20.483  25.361  1.00  0.00     0.243 C 
ATOM      4  O   UNL A   1      32.654  19.518  25.431  1.00  0.00    -0.273 OA
ATOM      5  H   UNL A   1      35.006  19.295  25.555  1.00  0.00     0.163 HD
BRANCH   3   6
ATOM      6  C   UNL A   1      32.873  21.914  25.235  1.00  0.00     0.180 C 
BRANCH   6   7
ATOM      7  C   UNL A   1      32.311  21.990  23.802  1.00  0.00     0.134 C 
BRANCH   7   8
ATOM      8  C   UNL A   1      33.204  22.716  22.837  1.00  0.00     0.220 C 
ATOM      9  N   UNL A   1      32.638  23.011  21.631  1.00  0.00    -0.370 N 
ATOM     10  H   UNL A   1      33.163  23.487  20.946  1.00  0.00     0.159 HD
ATOM     11  H   UNL A   1      31.708  22.749  21.446  1.00  0.00     0.159 HD
ATOM     12  O   UNL A   1      34.362  23.021  23.091  1.00  0.00    -0.275 OA
ENDBRANCH   7   8
ENDBRANCH   6   7
BRANCH   6  13
ATOM     13  N   UNL A   1      31.893  22.321  26.264  1.00  0.00    -0.340 N 
ATOM     14  C   UNL A   1      31.325  23.546  26.541  1.00  0.00     0.251 C 
ATOM     15  H   UNL A   1      31.594  21.592  26.854  1.00  0.00     0.164 HD
ATOM     16  O   UNL A   1      30.324  23.592  27.251  1.00  0.00    -0.269 OA
BRANCH  14  17
ATOM     17  C   UNL A   1      31.996  24.806  26.161  1.00  0.00     0.039 A 
ATOM     18  C   UNL A   1      31.207  25.962  26.101  1.00  0.00     0.014 A 
ATOM     19  C   UNL A   1      33.370  24.889  25.942  1.00  0.00     0.014 A 
ATOM     20  C   UNL A   1      31.809  27.213  25.966  1.00  0.00     0.007 A 
ATOM     21  C   UNL A   1      33.973  26.145  25.815  1.00  0.00     0.007 A 
ATOM     22  C   UNL A   1      33.204  27.318  25.872  1.00  0.00    -0.023 A 
BRANCH  22  23
ATOM     23  C   UNL A   1      33.856  28.675  25.872  1.00  0.00     0.191 C 
BRANCH  23  24
ATOM     24  O   UNL A   1      33.652  29.325  24.628  1.00  0.00    -0.392 OA
ATOM     25  H   UNL A   1      34.161  28.871  23.938  1.00  0.00     0.211 HD
ENDBRANCH  23  24
ENDBRANCH  22  23
ENDBRANCH  14  17
ENDBRANCH   6  13
ENDBRANCH   3   6
ENDBRANCH   1   2
BRANCH   1  26
ATOM     26  C   UNL A   1      36.924  20.912  24.634  1.00  0.00     0.023 C 
BRANCH  26  27
ATOM     27  C   UNL A   1      37.863  19.760  24.995  1.00  0.00     0.023 C 
BRANCH  27  28
ATOM     28  C   UNL A   1      39.103  20.173  25.780  1.00  0.00     0.116 C 
BRANCH  28  29
ATOM     29  N   UNL A   1      40.085  19.104  25.869  1.00  0.00    -0.352 N 
ATOM     30  C   UNL A   1      41.440  19.203  26.062  1.00  0.00     0.251 C 
ATOM     31  H   UNL A   1      39.732  18.190  25.778  1.00  0.00     0.163 HD
ATOM     32  O   UNL A   1      42.162  18.219  25.934  1.00  0.00    -0.269 OA
BRANCH  30  33
ATOM     33  C   UNL A   1      42.021  20.515  26.403  1.00  0.00     0.039 A 
ATOM     34  C   UNL A   1      42.470  21.347  25.376  1.00  0.00     0.014 A 
ATOM     35  C   UNL A   1      42.094  20.927  27.737  1.00  0.00     0.014 A 
ATOM     36  C   UNL A   1      42.948  22.620  25.685  1.00  0.00     0.010 A 
ATOM     37  C   UNL A   1      42.499  22.223  28.034  1.00  0.00     0.010 A 
ATOM     38  C   UNL A   1      42.941  23.078  27.013  1.00  0.00    -0.014 A 
BRANCH  38  39
ATOM     39  C   UNL A   1      43.424  24.437  27.358  1.00  0.00     0.031 A 
ATOM     40  C   UNL A   1      42.443  25.490  27.795  1.00  0.00     0.074 A 
ATOM     41  C   UNL A   1      44.729  24.740  27.225  1.00  0.00     0.049 A 
ATOM     42  N   UNL A   1      42.655  26.749  28.081  1.00  0.00    -0.248 NA
ATOM     43  C   UNL A   1      41.034  25.079  27.897  1.00  0.00     0.031 C 
ATOM     44  C   UNL A   1      45.771  23.818  26.768  1.00  0.00     0.029 A 
ATOM     45  N   UNL A   1      45.402  25.913  27.457  1.00  0.00    -0.354 N 
ATOM     46  C   UNL A   1      41.406  27.281  28.380  1.00  0.00     0.074 A 
ATOM     47  C   UNL A   1      40.437  26.226  28.184  1.00  0.00     0.031 C 
ATOM     48  C   UNL A   1      46.954  24.455  26.776  1.00  0.00     0.029 A 
ATOM     49  C   UNL A   1      46.749  25.835  27.203  1.00  0.00     0.049 A 
ATOM     50  H   UNL A   1      44.959  26.733  27.774  1.00  0.00     0.167 HD
ATOM     51  C   UNL A   1      41.097  28.529  28.803  1.00  0.00     0.037 A 
ATOM     52  C   UNL A   1      47.709  26.775  27.302  1.00  0.00     0.037 A 
ATOM     53  C   UNL A   1      42.067  29.570  29.022  1.00  0.00     0.049 A 
ATOM     54  C   UNL A   1      47.341  28.154  27.773  1.00  0.00     0.074 A 
ATOM     55  C   UNL A   1      41.862  30.852  29.501  1.00  0.00     0.029 A 
ATOM     56  N   UNL A   1      43.425  29.446  28.774  1.00  0.00    -0.354 N 
ATOM     57  N   UNL A   1      46.166  28.625  28.115  1.00  0.00    -0.248 NA
ATOM     58  C   UNL A   1      48.434  29.131  27.879  1.00  0.00     0.031 C 
ATOM     59  C   UNL A   1      43.093  31.517  29.504  1.00  0.00     0.029 A 
ATOM     60  C   UNL A   1      44.070  30.634  29.075  1.00  0.00     0.049 A 
ATOM     61  H   UNL A   1      43.866  28.633  28.434  1.00  0.00     0.167 HD
ATOM     62  C   UNL A   1      46.383  29.940  28.510  1.00  0.00     0.074 A 
ATOM     63  C   UNL A   1      47.804  30.187  28.375  1.00  0.00     0.031 C 
ATOM     64  C   UNL A   1      45.488  30.857  28.948  1.00  0.00     0.037 A 
BRANCH  51  65
ATOM     65  C   UNL A   1      39.650  28.832  29.063  1.00  0.00     0.057 A 
ATOM     66  C   UNL A   1      39.080  28.676  30.334  1.00  0.00     0.134 A 
ATOM     67  C   UNL A   1      38.822  29.304  28.038  1.00  0.00     0.134 A 
ATOM     68  F   UNL A   1      39.814  28.214  31.357  1.00  0.00    -0.206 F 
ATOM     69  C   UNL A   1      37.732  28.952  30.568  1.00  0.00     0.040 A 
ATOM     70  C   UNL A   1      37.480  29.612  28.266  1.00  0.00     0.040 A 
ATOM     71  F   UNL A   1      39.306  29.482  26.798  1.00  0.00    -0.206 F 
ATOM     72  C   UNL A   1      36.929  29.428  29.533  1.00  0.00     0.006 A 
ENDBRANCH  51  65
BRANCH  52  73
ATOM     73  C   UNL A   1      49.118  26.437  26.977  1.00  0.00     0.057 A 
ATOM     74  C   UNL A   1      49.625  26.627  25.686  1.00  0.00     0.134 A 
ATOM     75  C   UNL A   1      49.985  25.906  27.938  1.00  0.00     0.134 A 
ATOM     76  F   UNL A   1      48.837  27.115  24.717  1.00  0.00    -0.206 F 
ATOM     77  C   UNL A   1      50.937  26.281  25.357  1.00  0.00     0.040 A 
ATOM     78  C   UNL A   1      51.307  25.579  27.630  1.00  0.00     0.040 A 
ATOM     79  F   UNL A   1      49.564  25.708  29.196  1.00  0.00    -0.206 F 
ATOM     80  C   UNL A   1      51.783  25.758  26.333  1.00  0.00     0.006 A 
ENDBRANCH  52  73
BRANCH  64  81
ATOM     81  C   UNL A   1      46.022  32.199  29.358  1.00  0.00     0.057 A 
ATOM     82  C   UNL A   1      46.100  33.273  28.463  1.00  0.00     0.134 A 
ATOM     83  C   UNL A   1      46.424  32.428  30.681  1.00  0.00     0.134 A 
ATOM     84  F   UNL A   1      45.742  33.116  27.179  1.00  0.00    -0.206 F 
ATOM     85  C   UNL A   1      46.581  34.520  28.863  1.00  0.00     0.040 A 
ATOM     86  C   UNL A   1      46.881  33.678  31.099  1.00  0.00     0.040 A 
ATOM     87  F   UNL A   1      46.367  31.443  31.590  1.00  0.00    -0.206 F 
ATOM     88  C   UNL A   1      46.966  34.727  30.187  1.00  0.00     0.006 A 
ENDBRANCH  64  81
ENDBRANCH  38  39
ENDBRANCH  30  33
ENDBRANCH  28  29
ENDBRANCH  27  28
ENDBRANCH  26  27
ENDBRANCH   1  26
TORSDOF 17
ENDMDL
