MODEL 1
REMARK VINA RESULT:     -11.6      0.000      0.000
REMARK SMILES COCC[C@]1(C(=O)NCCCCNC(=O)c2ccc(-c3c4nc(c(-c5c(F)cccc5F)c5ccc([nH]5)c(-c5c(F)cccc5F)c5nc(c(-c6c(F)cccc6F)c6ccc3[nH]6)C=C5)C=C4)cc2)CCCN(C(=O)Cc2c(C)nc(C)[nH]c2=O)C1
REMARK SMILES IDX 10 1 9 2 8 3 6 4 7 5 5 7 70 8 86 9 71 10 73 11 72 12 4 13
REMARK SMILES IDX 3 14 2 15 1 16 74 17 75 18 76 19 77 20 78 21 84 22 79 23
REMARK SMILES IDX 80 24 83 25 85 26 81 27 82 29 11 30 12 31 13 32 14 33 15 35
REMARK SMILES IDX 16 36 17 37 69 38 18 39 68 40 19 41 20 42 21 43 62 44 22 45
REMARK SMILES IDX 67 46 61 47 63 48 23 49 66 50 60 51 59 52 24 54 50 55 33 56
REMARK SMILES IDX 49 57 34 58 37 59 48 60 64 61 35 62 36 63 47 65 65 66 38 67
REMARK SMILES IDX 25 68 26 69 31 70 27 71 28 72 30 73 32 74 29 75 51 76 52 77
REMARK SMILES IDX 57 78 53 79 54 80 56 81 58 82 55 83 39 84 40 85 45 86 41 87
REMARK SMILES IDX 42 88 44 89 46 90 43 91
REMARK H PARENT 8 6 83 28 13 34 63 53 37 64
REMARK Flexibility Score: inf
ROOT
ATOM      1  C   UNL A   1      37.027  21.261  24.520  1.00  0.00     0.023 C 
ENDROOT
BRANCH   1   2
ATOM      2  C   UNL A   1      36.529  22.174  25.643  1.00  0.00     0.116 C 
BRANCH   2   3
ATOM      3  N   UNL A   1      35.502  21.515  26.426  1.00  0.00    -0.356 N 
ATOM      4  C   UNL A   1      34.300  22.020  26.814  1.00  0.00     0.228 C 
ATOM      5  O   UNL A   1      34.022  21.849  28.003  1.00  0.00    -0.274 OA
ATOM      6  H   UNL A   1      35.697  20.592  26.710  1.00  0.00     0.163 HD
BRANCH   4   7
ATOM      7  C   UNL A   1      33.417  22.867  25.883  1.00  0.00     0.069 C 
ATOM      8  C   UNL A   1      31.984  22.778  26.515  1.00  0.00     0.021 C 
ATOM      9  C   UNL A   1      33.923  24.335  25.741  1.00  0.00     0.136 C 
ATOM     10  C   UNL A   1      31.029  23.916  26.168  1.00  0.00     0.023 C 
ATOM     11  N   UNL A   1      32.848  25.245  25.345  1.00  0.00    -0.341 N 
ATOM     12  C   UNL A   1      31.731  25.259  26.271  1.00  0.00     0.119 C 
BRANCH   7  13
ATOM     13  C   UNL A   1      33.365  22.185  24.467  1.00  0.00     0.047 C 
BRANCH  13  14
ATOM     14  C   UNL A   1      32.662  20.817  24.334  1.00  0.00     0.161 C 
BRANCH  14  15
ATOM     15  O   UNL A   1      33.515  19.712  24.627  1.00  0.00    -0.385 OA
ATOM     16  C   UNL A   1      32.873  18.609  25.249  1.00  0.00     0.194 C 
ENDBRANCH  14  15
ENDBRANCH  13  14
ENDBRANCH   7  13
BRANCH  11  17
ATOM     17  C   UNL A   1      32.867  25.847  24.092  1.00  0.00     0.227 C 
ATOM     18  O   UNL A   1      32.332  25.306  23.120  1.00  0.00    -0.275 OA
BRANCH  17  19
ATOM     19  C   UNL A   1      33.555  27.209  23.917  1.00  0.00     0.143 C 
BRANCH  19  20
ATOM     20  C   UNL A   1      32.854  28.307  24.675  1.00  0.00     0.048 A 
ATOM     21  C   UNL A   1      33.214  28.835  25.863  1.00  0.00     0.049 A 
ATOM     22  C   UNL A   1      31.659  28.907  24.025  1.00  0.00     0.254 A 
ATOM     23  C   UNL A   1      34.331  28.287  26.714  1.00  0.00     0.067 C 
ATOM     24  N   UNL A   1      32.631  29.959  26.409  1.00  0.00    -0.240 NA
ATOM     25  N   UNL A   1      31.180  30.047  24.590  1.00  0.00    -0.311 N 
ATOM     26  O   UNL A   1      31.146  28.439  23.015  1.00  0.00    -0.269 OA
ATOM     27  C   UNL A   1      31.679  30.535  25.755  1.00  0.00     0.105 A 
ATOM     28  H   UNL A   1      30.449  30.532  24.143  1.00  0.00     0.171 HD
ATOM     29  C   UNL A   1      31.068  31.809  26.261  1.00  0.00     0.087 C 
ENDBRANCH  19  20
ENDBRANCH  17  19
ENDBRANCH  11  17
ENDBRANCH   4   7
ENDBRANCH   2   3
ENDBRANCH   1   2
BRANCH   1  30
ATOM     30  C   UNL A   1      37.802  20.035  24.993  1.00  0.00     0.023 C 
BRANCH  30  31
ATOM     31  C   UNL A   1      39.029  20.348  25.834  1.00  0.00     0.116 C 
BRANCH  31  32
ATOM     32  N   UNL A   1      39.969  19.238  25.889  1.00  0.00    -0.352 N 
ATOM     33  C   UNL A   1      41.326  19.268  26.083  1.00  0.00     0.251 C 
ATOM     34  H   UNL A   1      39.576  18.343  25.771  1.00  0.00     0.163 HD
ATOM     35  O   UNL A   1      41.994  18.247  25.956  1.00  0.00    -0.269 OA
BRANCH  33  36
ATOM     36  C   UNL A   1      41.976  20.549  26.414  1.00  0.00     0.039 A 
ATOM     37  C   UNL A   1      42.330  21.412  25.376  1.00  0.00     0.014 A 
ATOM     38  C   UNL A   1      42.191  20.912  27.746  1.00  0.00     0.014 A 
ATOM     39  C   UNL A   1      42.843  22.672  25.679  1.00  0.00     0.010 A 
ATOM     40  C   UNL A   1      42.621  22.198  28.047  1.00  0.00     0.010 A 
ATOM     41  C   UNL A   1      42.957  23.088  27.016  1.00  0.00    -0.014 A 
BRANCH  41  42
ATOM     42  C   UNL A   1      43.429  24.452  27.357  1.00  0.00     0.031 A 
ATOM     43  C   UNL A   1      42.443  25.501  27.790  1.00  0.00     0.074 A 
ATOM     44  C   UNL A   1      44.732  24.760  27.217  1.00  0.00     0.049 A 
ATOM     45  N   UNL A   1      42.649  26.760  28.075  1.00  0.00    -0.248 NA
ATOM     46  C   UNL A   1      41.034  25.085  27.888  1.00  0.00     0.031 C 
ATOM     47  C   UNL A   1      45.775  23.843  26.753  1.00  0.00     0.029 A 
ATOM     48  N   UNL A   1      45.401  25.936  27.442  1.00  0.00    -0.354 N 
ATOM     49  C   UNL A   1      41.399  27.288  28.372  1.00  0.00     0.074 A 
ATOM     50  C   UNL A   1      40.434  26.230  28.174  1.00  0.00     0.031 C 
ATOM     51  C   UNL A   1      46.955  24.483  26.755  1.00  0.00     0.029 A 
ATOM     52  C   UNL A   1      46.747  25.863  27.180  1.00  0.00     0.049 A 
ATOM     53  H   UNL A   1      44.958  26.756  27.761  1.00  0.00     0.167 HD
ATOM     54  C   UNL A   1      41.088  28.536  28.797  1.00  0.00     0.037 A 
ATOM     55  C   UNL A   1      47.704  26.806  27.268  1.00  0.00     0.037 A 
ATOM     56  C   UNL A   1      42.056  29.578  29.012  1.00  0.00     0.049 A 
ATOM     57  C   UNL A   1      47.332  28.186  27.733  1.00  0.00     0.074 A 
ATOM     58  C   UNL A   1      41.851  30.858  29.499  1.00  0.00     0.029 A 
ATOM     59  N   UNL A   1      43.413  29.462  28.749  1.00  0.00    -0.354 N 
ATOM     60  N   UNL A   1      46.157  28.651  28.084  1.00  0.00    -0.248 NA
ATOM     61  C   UNL A   1      48.419  29.171  27.822  1.00  0.00     0.031 C 
ATOM     62  C   UNL A   1      43.076  31.531  29.484  1.00  0.00     0.029 A 
ATOM     63  C   UNL A   1      44.054  30.655  29.042  1.00  0.00     0.049 A 
ATOM     64  H   UNL A   1      43.855  28.652  28.407  1.00  0.00     0.167 HD
ATOM     65  C   UNL A   1      46.367  29.971  28.461  1.00  0.00     0.074 A 
ATOM     66  C   UNL A   1      47.785  30.226  28.312  1.00  0.00     0.031 C 
ATOM     67  C   UNL A   1      45.469  30.890  28.893  1.00  0.00     0.037 A 
BRANCH  54  68
ATOM     68  C   UNL A   1      39.641  28.836  29.059  1.00  0.00     0.057 A 
ATOM     69  C   UNL A   1      39.062  28.643  30.320  1.00  0.00     0.134 A 
ATOM     70  C   UNL A   1      38.822  29.353  28.046  1.00  0.00     0.134 A 
ATOM     71  F   UNL A   1      39.785  28.138  31.331  1.00  0.00    -0.206 F 
ATOM     72  C   UNL A   1      37.715  28.925  30.558  1.00  0.00     0.040 A 
ATOM     73  C   UNL A   1      37.483  29.667  28.279  1.00  0.00     0.040 A 
ATOM     74  F   UNL A   1      39.312  29.567  26.816  1.00  0.00    -0.206 F 
ATOM     75  C   UNL A   1      36.924  29.446  29.537  1.00  0.00     0.006 A 
ENDBRANCH  54  68
BRANCH  55  76
ATOM     76  C   UNL A   1      49.112  26.472  26.929  1.00  0.00     0.057 A 
ATOM     77  C   UNL A   1      49.603  26.653  25.631  1.00  0.00     0.134 A 
ATOM     78  C   UNL A   1      49.993  25.957  27.885  1.00  0.00     0.134 A 
ATOM     79  F   UNL A   1      48.802  27.127  24.665  1.00  0.00    -0.206 F 
ATOM     80  C   UNL A   1      50.914  26.313  25.290  1.00  0.00     0.040 A 
ATOM     81  C   UNL A   1      51.315  25.638  27.566  1.00  0.00     0.040 A 
ATOM     82  F   UNL A   1      49.587  25.769  29.150  1.00  0.00    -0.206 F 
ATOM     83  C   UNL A   1      51.776  25.807  26.263  1.00  0.00     0.006 A 
ENDBRANCH  55  76
BRANCH  67  84
ATOM     84  C   UNL A   1      45.996  32.243  29.270  1.00  0.00     0.057 A 
ATOM     85  C   UNL A   1      46.045  33.301  28.354  1.00  0.00     0.134 A 
ATOM     86  C   UNL A   1      46.425  32.500  30.579  1.00  0.00     0.134 A 
ATOM     87  F   UNL A   1      45.662  33.118  27.082  1.00  0.00    -0.206 F 
ATOM     88  C   UNL A   1      46.523  34.561  28.720  1.00  0.00     0.040 A 
ATOM     89  C   UNL A   1      46.878  33.762  30.964  1.00  0.00     0.040 A 
ATOM     90  F   UNL A   1      46.395  31.532  31.508  1.00  0.00    -0.206 F 
ATOM     91  C   UNL A   1      46.934  34.795  30.031  1.00  0.00     0.006 A 
ENDBRANCH  67  84
ENDBRANCH  41  42
ENDBRANCH  33  36
ENDBRANCH  31  32
ENDBRANCH  30  31
ENDBRANCH   1  30
TORSDOF 17
ENDMDL
MODEL 2
REMARK VINA RESULT:     -11.3      4.457      9.364
REMARK SMILES COCC[C@]1(C(=O)NCCCCNC(=O)c2ccc(-c3c4nc(c(-c5c(F)cccc5F)c5ccc([nH]5)c(-c5c(F)cccc5F)c5nc(c(-c6c(F)cccc6F)c6ccc3[nH]6)C=C5)C=C4)cc2)CCCN(C(=O)Cc2c(C)nc(C)[nH]c2=O)C1
REMARK SMILES IDX 10 1 9 2 8 3 6 4 7 5 5 7 70 8 86 9 71 10 73 11 72 12 4 13
REMARK SMILES IDX 3 14 2 15 1 16 74 17 75 18 76 19 77 20 78 21 84 22 79 23
REMARK SMILES IDX 80 24 83 25 85 26 81 27 82 29 11 30 12 31 13 32 14 33 15 35
REMARK SMILES IDX 16 36 17 37 69 38 18 39 68 40 19 41 20 42 21 43 62 44 22 45
REMARK SMILES IDX 67 46 61 47 63 48 23 49 66 50 60 51 59 52 24 54 50 55 33 56
REMARK SMILES IDX 49 57 34 58 37 59 48 60 64 61 35 62 36 63 47 65 65 66 38 67
REMARK SMILES IDX 25 68 26 69 31 70 27 71 28 72 30 73 32 74 29 75 51 76 52 77
REMARK SMILES IDX 57 78 53 79 54 80 56 81 58 82 55 83 39 84 40 85 45 86 41 87
REMARK SMILES IDX 42 88 44 89 46 90 43 91
REMARK H PARENT 8 6 83 28 13 34 63 53 37 64
REMARK Flexibility Score: inf
ROOT
ATOM      1  C   UNL A   1      31.584  30.489  25.822  1.00  0.00     0.023 C 
ENDROOT
BRANCH   1   2
ATOM      2  C   UNL A   1      32.914  29.757  25.624  1.00  0.00     0.116 C 
BRANCH   2   3
ATOM      3  N   UNL A   1      33.276  29.717  24.220  1.00  0.00    -0.356 N 
ATOM      4  C   UNL A   1      33.686  28.639  23.498  1.00  0.00     0.228 C 
ATOM      5  O   UNL A   1      34.688  28.827  22.804  1.00  0.00    -0.274 OA
ATOM      6  H   UNL A   1      33.218  30.570  23.732  1.00  0.00     0.163 HD
BRANCH   4   7
ATOM      7  C   UNL A   1      33.043  27.250  23.644  1.00  0.00     0.069 C 
ATOM      8  C   UNL A   1      33.308  26.550  22.265  1.00  0.00     0.021 C 
ATOM      9  C   UNL A   1      33.613  26.443  24.849  1.00  0.00     0.136 C 
ATOM     10  C   UNL A   1      33.292  25.025  22.277  1.00  0.00     0.023 C 
ATOM     11  N   UNL A   1      33.438  25.001  24.671  1.00  0.00    -0.341 N 
ATOM     12  C   UNL A   1      34.066  24.487  23.468  1.00  0.00     0.119 C 
BRANCH   7  13
ATOM     13  C   UNL A   1      31.488  27.421  23.808  1.00  0.00     0.047 C 
BRANCH  13  14
ATOM     14  C   UNL A   1      30.579  27.087  22.606  1.00  0.00     0.161 C 
BRANCH  14  15
ATOM     15  O   UNL A   1      30.068  28.243  21.944  1.00  0.00    -0.385 OA
ATOM     16  C   UNL A   1      29.948  29.397  22.763  1.00  0.00     0.194 C 
ENDBRANCH  14  15
ENDBRANCH  13  14
ENDBRANCH   7  13
BRANCH  11  17
ATOM     17  C   UNL A   1      32.571  24.295  25.496  1.00  0.00     0.227 C 
ATOM     18  O   UNL A   1      31.355  24.505  25.468  1.00  0.00    -0.275 OA
BRANCH  17  19
ATOM     19  C   UNL A   1      33.134  23.230  26.450  1.00  0.00     0.143 C 
BRANCH  19  20
ATOM     20  C   UNL A   1      33.500  21.955  25.733  1.00  0.00     0.048 A 
ATOM     21  C   UNL A   1      34.738  21.527  25.412  1.00  0.00     0.049 A 
ATOM     22  C   UNL A   1      32.379  21.044  25.379  1.00  0.00     0.254 A 
ATOM     23  C   UNL A   1      35.981  22.360  25.599  1.00  0.00     0.067 C 
ATOM     24  N   UNL A   1      35.010  20.268  24.922  1.00  0.00    -0.240 NA
ATOM     25  N   UNL A   1      32.729  19.800  24.958  1.00  0.00    -0.311 N 
ATOM     26  O   UNL A   1      31.201  21.365  25.492  1.00  0.00    -0.269 OA
ATOM     27  C   UNL A   1      34.025  19.453  24.746  1.00  0.00     0.105 A 
ATOM     28  H   UNL A   1      32.023  19.133  24.801  1.00  0.00     0.171 HD
ATOM     29  C   UNL A   1      34.272  18.043  24.296  1.00  0.00     0.087 C 
ENDBRANCH  19  20
ENDBRANCH  17  19
ENDBRANCH  11  17
ENDBRANCH   4   7
ENDBRANCH   2   3
ENDBRANCH   1   2
BRANCH   1  30
ATOM     30  C   UNL A   1      31.589  31.522  26.944  1.00  0.00     0.023 C 
BRANCH  30  31
ATOM     31  C   UNL A   1      32.846  32.373  27.016  1.00  0.00     0.116 C 
BRANCH  31  32
ATOM     32  N   UNL A   1      32.579  33.731  27.466  1.00  0.00    -0.352 N 
ATOM     33  C   UNL A   1      33.177  34.436  28.480  1.00  0.00     0.251 C 
ATOM     34  H   UNL A   1      31.872  34.209  26.977  1.00  0.00     0.163 HD
ATOM     35  O   UNL A   1      32.731  35.525  28.825  1.00  0.00    -0.269 OA
BRANCH  33  36
ATOM     36  C   UNL A   1      34.343  33.853  29.168  1.00  0.00     0.039 A 
ATOM     37  C   UNL A   1      34.127  32.918  30.181  1.00  0.00     0.014 A 
ATOM     38  C   UNL A   1      35.641  34.198  28.782  1.00  0.00     0.014 A 
ATOM     39  C   UNL A   1      35.219  32.277  30.765  1.00  0.00     0.010 A 
ATOM     40  C   UNL A   1      36.721  33.497  29.303  1.00  0.00     0.010 A 
ATOM     41  C   UNL A   1      36.521  32.535  30.304  1.00  0.00    -0.014 A 
BRANCH  41  42
ATOM     42  C   UNL A   1      37.688  31.808  30.859  1.00  0.00     0.031 A 
ATOM     43  C   UNL A   1      38.198  32.144  32.232  1.00  0.00     0.074 A 
ATOM     44  C   UNL A   1      38.323  30.893  30.103  1.00  0.00     0.049 A 
ATOM     45  N   UNL A   1      39.235  31.663  32.868  1.00  0.00    -0.248 NA
ATOM     46  C   UNL A   1      37.461  33.177  32.978  1.00  0.00     0.031 C 
ATOM     47  C   UNL A   1      37.954  30.520  28.735  1.00  0.00     0.029 A 
ATOM     48  N   UNL A   1      39.420  30.115  30.374  1.00  0.00    -0.354 N 
ATOM     49  C   UNL A   1      39.282  32.343  34.079  1.00  0.00     0.074 A 
ATOM     50  C   UNL A   1      38.208  33.311  34.064  1.00  0.00     0.031 C 
ATOM     51  C   UNL A   1      38.793  29.566  28.299  1.00  0.00     0.029 A 
ATOM     52  C   UNL A   1      39.781  29.290  29.337  1.00  0.00     0.049 A 
ATOM     53  H   UNL A   1      39.904  30.145  31.232  1.00  0.00     0.167 HD
ATOM     54  C   UNL A   1      40.129  32.158  35.120  1.00  0.00     0.037 A 
ATOM     55  C   UNL A   1      40.797  28.413  29.235  1.00  0.00     0.037 A 
ATOM     56  C   UNL A   1      41.182  31.179  35.137  1.00  0.00     0.049 A 
ATOM     57  C   UNL A   1      41.728  28.233  30.401  1.00  0.00     0.074 A 
ATOM     58  C   UNL A   1      42.055  30.871  36.165  1.00  0.00     0.029 A 
ATOM     59  N   UNL A   1      41.507  30.351  34.072  1.00  0.00    -0.354 N 
ATOM     60  N   UNL A   1      41.716  28.829  31.569  1.00  0.00    -0.248 NA
ATOM     61  C   UNL A   1      42.812  27.254  30.238  1.00  0.00     0.031 C 
ATOM     62  C   UNL A   1      42.941  29.891  35.706  1.00  0.00     0.029 A 
ATOM     63  C   UNL A   1      42.584  29.548  34.412  1.00  0.00     0.049 A 
ATOM     64  H   UNL A   1      41.042  30.335  33.206  1.00  0.00     0.167 HD
ATOM     65  C   UNL A   1      42.768  28.278  32.289  1.00  0.00     0.074 A 
ATOM     66  C   UNL A   1      43.387  27.288  31.431  1.00  0.00     0.031 C 
ATOM     67  C   UNL A   1      43.185  28.564  33.547  1.00  0.00     0.037 A 
BRANCH  54  68
ATOM     68  C   UNL A   1      39.943  33.034  36.325  1.00  0.00     0.057 A 
ATOM     69  C   UNL A   1      39.066  32.690  37.362  1.00  0.00     0.134 A 
ATOM     70  C   UNL A   1      40.674  34.221  36.466  1.00  0.00     0.134 A 
ATOM     71  F   UNL A   1      38.325  31.573  37.284  1.00  0.00    -0.206 F 
ATOM     72  C   UNL A   1      38.899  33.507  38.481  1.00  0.00     0.040 A 
ATOM     73  C   UNL A   1      40.538  35.032  37.594  1.00  0.00     0.040 A 
ATOM     74  F   UNL A   1      41.535  34.609  35.514  1.00  0.00    -0.206 F 
ATOM     75  C   UNL A   1      39.643  34.679  38.602  1.00  0.00     0.006 A 
ENDBRANCH  54  68
BRANCH  55  76
ATOM     76  C   UNL A   1      40.975  27.622  27.991  1.00  0.00     0.057 A 
ATOM     77  C   UNL A   1      40.384  26.362  27.846  1.00  0.00     0.134 A 
ATOM     78  C   UNL A   1      41.746  28.097  26.924  1.00  0.00     0.134 A 
ATOM     79  F   UNL A   1      39.648  25.843  28.840  1.00  0.00    -0.206 F 
ATOM     80  C   UNL A   1      40.570  25.592  26.696  1.00  0.00     0.040 A 
ATOM     81  C   UNL A   1      41.919  27.352  25.756  1.00  0.00     0.040 A 
ATOM     82  F   UNL A   1      42.332  29.302  26.995  1.00  0.00    -0.206 F 
ATOM     83  C   UNL A   1      41.337  26.091  25.643  1.00  0.00     0.006 A 
ENDBRANCH  55  76
BRANCH  67  84
ATOM     84  C   UNL A   1      44.341  27.773  34.084  1.00  0.00     0.057 A 
ATOM     85  C   UNL A   1      44.164  26.534  34.712  1.00  0.00     0.134 A 
ATOM     86  C   UNL A   1      45.653  28.242  33.936  1.00  0.00     0.134 A 
ATOM     87  F   UNL A   1      42.933  26.035  34.898  1.00  0.00    -0.206 F 
ATOM     88  C   UNL A   1      45.249  25.799  35.195  1.00  0.00     0.040 A 
ATOM     89  C   UNL A   1      46.748  27.504  34.388  1.00  0.00     0.040 A 
ATOM     90  F   UNL A   1      45.894  29.417  33.335  1.00  0.00    -0.206 F 
ATOM     91  C   UNL A   1      46.546  26.282  35.026  1.00  0.00     0.006 A 
ENDBRANCH  67  84
ENDBRANCH  41  42
ENDBRANCH  33  36
ENDBRANCH  31  32
ENDBRANCH  30  31
ENDBRANCH   1  30
TORSDOF 17
ENDMDL
MODEL 3
REMARK VINA RESULT:     -11.1      4.589      9.604
REMARK SMILES COCC[C@]1(C(=O)NCCCCNC(=O)c2ccc(-c3c4nc(c(-c5c(F)cccc5F)c5ccc([nH]5)c(-c5c(F)cccc5F)c5nc(c(-c6c(F)cccc6F)c6ccc3[nH]6)C=C5)C=C4)cc2)CCCN(C(=O)Cc2c(C)nc(C)[nH]c2=O)C1
REMARK SMILES IDX 10 1 9 2 8 3 6 4 7 5 5 7 70 8 86 9 71 10 73 11 72 12 4 13
REMARK SMILES IDX 3 14 2 15 1 16 74 17 75 18 76 19 77 20 78 21 84 22 79 23
REMARK SMILES IDX 80 24 83 25 85 26 81 27 82 29 11 30 12 31 13 32 14 33 15 35
REMARK SMILES IDX 16 36 17 37 69 38 18 39 68 40 19 41 20 42 21 43 62 44 22 45
REMARK SMILES IDX 67 46 61 47 63 48 23 49 66 50 60 51 59 52 24 54 50 55 33 56
REMARK SMILES IDX 49 57 34 58 37 59 48 60 64 61 35 62 36 63 47 65 65 66 38 67
REMARK SMILES IDX 25 68 26 69 31 70 27 71 28 72 30 73 32 74 29 75 51 76 52 77
REMARK SMILES IDX 57 78 53 79 54 80 56 81 58 82 55 83 39 84 40 85 45 86 41 87
REMARK SMILES IDX 42 88 44 89 46 90 43 91
REMARK H PARENT 8 6 83 28 13 34 63 53 37 64
REMARK Flexibility Score: inf
ROOT
ATOM      1  C   UNL A   1      31.639  30.770  26.021  1.00  0.00     0.023 C 
ENDROOT
BRANCH   1   2
ATOM      2  C   UNL A   1      30.838  30.366  24.781  1.00  0.00     0.116 C 
BRANCH   2   3
ATOM      3  N   UNL A   1      31.685  29.690  23.817  1.00  0.00    -0.356 N 
ATOM      4  C   UNL A   1      32.350  28.514  23.975  1.00  0.00     0.228 C 
ATOM      5  O   UNL A   1      33.531  28.532  23.621  1.00  0.00    -0.274 OA
ATOM      6  H   UNL A   1      31.790  30.134  22.945  1.00  0.00     0.163 HD
BRANCH   4   7
ATOM      7  C   UNL A   1      31.727  27.296  24.676  1.00  0.00     0.069 C 
ATOM      8  C   UNL A   1      30.211  27.347  24.276  1.00  0.00     0.021 C 
ATOM      9  C   UNL A   1      32.411  25.953  24.277  1.00  0.00     0.136 C 
ATOM     10  C   UNL A   1      29.457  26.023  24.344  1.00  0.00     0.023 C 
ATOM     11  N   UNL A   1      31.521  24.809  24.478  1.00  0.00    -0.341 N 
ATOM     12  C   UNL A   1      30.280  24.902  23.731  1.00  0.00     0.119 C 
BRANCH   7  13
ATOM     13  C   UNL A   1      31.823  27.498  26.233  1.00  0.00     0.047 C 
BRANCH  13  14
ATOM     14  C   UNL A   1      33.215  27.442  26.898  1.00  0.00     0.161 C 
BRANCH  14  15
ATOM     15  O   UNL A   1      33.592  28.669  27.523  1.00  0.00    -0.385 OA
ATOM     16  C   UNL A   1      34.778  29.259  27.014  1.00  0.00     0.194 C 
ENDBRANCH  14  15
ENDBRANCH  13  14
ENDBRANCH   7  13
BRANCH  11  17
ATOM     17  C   UNL A   1      31.806  23.865  25.458  1.00  0.00     0.227 C 
ATOM     18  O   UNL A   1      31.685  24.137  26.656  1.00  0.00    -0.275 OA
BRANCH  17  19
ATOM     19  C   UNL A   1      32.269  22.460  25.044  1.00  0.00     0.143 C 
BRANCH  19  20
ATOM     20  C   UNL A   1      33.769  22.313  25.092  1.00  0.00     0.048 A 
ATOM     21  C   UNL A   1      34.652  22.655  24.132  1.00  0.00     0.049 A 
ATOM     22  C   UNL A   1      34.345  21.775  26.352  1.00  0.00     0.254 A 
ATOM     23  C   UNL A   1      34.248  23.117  22.755  1.00  0.00     0.067 C 
ATOM     24  N   UNL A   1      36.018  22.662  24.316  1.00  0.00    -0.240 NA
ATOM     25  N   UNL A   1      35.694  21.872  26.483  1.00  0.00    -0.311 N 
ATOM     26  O   UNL A   1      33.655  21.304  27.251  1.00  0.00    -0.269 OA
ATOM     27  C   UNL A   1      36.483  22.311  25.468  1.00  0.00     0.105 A 
ATOM     28  H   UNL A   1      36.112  21.615  27.336  1.00  0.00     0.171 HD
ATOM     29  C   UNL A   1      37.955  22.384  25.751  1.00  0.00     0.087 C 
ENDBRANCH  19  20
ENDBRANCH  17  19
ENDBRANCH  11  17
ENDBRANCH   4   7
ENDBRANCH   2   3
ENDBRANCH   1   2
BRANCH   1  30
ATOM     30  C   UNL A   1      31.399  32.201  26.493  1.00  0.00     0.023 C 
BRANCH  30  31
ATOM     31  C   UNL A   1      32.552  32.812  27.273  1.00  0.00     0.116 C 
BRANCH  31  32
ATOM     32  N   UNL A   1      32.314  34.203  27.627  1.00  0.00    -0.352 N 
ATOM     33  C   UNL A   1      32.953  34.976  28.563  1.00  0.00     0.251 C 
ATOM     34  H   UNL A   1      31.595  34.652  27.126  1.00  0.00     0.163 HD
ATOM     35  O   UNL A   1      32.530  36.093  28.840  1.00  0.00    -0.269 OA
BRANCH  33  36
ATOM     36  C   UNL A   1      34.135  34.431  29.255  1.00  0.00     0.039 A 
ATOM     37  C   UNL A   1      33.954  33.740  30.454  1.00  0.00     0.014 A 
ATOM     38  C   UNL A   1      35.409  34.566  28.697  1.00  0.00     0.014 A 
ATOM     39  C   UNL A   1      35.048  33.127  31.062  1.00  0.00     0.010 A 
ATOM     40  C   UNL A   1      36.480  33.883  29.257  1.00  0.00     0.010 A 
ATOM     41  C   UNL A   1      36.311  33.161  30.449  1.00  0.00    -0.014 A 
BRANCH  41  42
ATOM     42  C   UNL A   1      37.470  32.450  31.040  1.00  0.00     0.031 A 
ATOM     43  C   UNL A   1      38.087  32.951  32.316  1.00  0.00     0.074 A 
ATOM     44  C   UNL A   1      38.002  31.395  30.396  1.00  0.00     0.049 A 
ATOM     45  N   UNL A   1      39.135  32.503  32.958  1.00  0.00    -0.248 NA
ATOM     46  C   UNL A   1      37.459  34.128  32.938  1.00  0.00     0.031 C 
ATOM     47  C   UNL A   1      37.525  30.849  29.123  1.00  0.00     0.029 A 
ATOM     48  N   UNL A   1      39.070  30.596  30.719  1.00  0.00    -0.354 N 
ATOM     49  C   UNL A   1      39.299  33.350  34.047  1.00  0.00     0.074 A 
ATOM     50  C   UNL A   1      38.282  34.372  33.947  1.00  0.00     0.031 C 
ATOM     51  C   UNL A   1      38.279  29.789  28.789  1.00  0.00     0.029 A 
ATOM     52  C   UNL A   1      39.316  29.606  29.800  1.00  0.00     0.049 A 
ATOM     53  H   UNL A   1      39.610  30.721  31.533  1.00  0.00     0.167 HD
ATOM     54  C   UNL A   1      40.201  33.265  35.054  1.00  0.00     0.037 A 
ATOM     55  C   UNL A   1      40.273  28.660  29.774  1.00  0.00     0.037 A 
ATOM     56  C   UNL A   1      41.197  32.233  35.160  1.00  0.00     0.049 A 
ATOM     57  C   UNL A   1      41.268  28.593  30.899  1.00  0.00     0.074 A 
ATOM     58  C   UNL A   1      42.118  32.024  36.171  1.00  0.00     0.029 A 
ATOM     59  N   UNL A   1      41.406  31.238  34.215  1.00  0.00    -0.354 N 
ATOM     60  N   UNL A   1      41.365  29.354  31.962  1.00  0.00    -0.248 NA
ATOM     61  C   UNL A   1      42.283  27.533  30.824  1.00  0.00     0.031 C 
ATOM     62  C   UNL A   1      42.915  30.932  35.816  1.00  0.00     0.029 A 
ATOM     63  C   UNL A   1      42.456  30.427  34.610  1.00  0.00     0.049 A 
ATOM     64  H   UNL A   1      40.884  31.125  33.389  1.00  0.00     0.167 HD
ATOM     65  C   UNL A   1      42.430  28.848  32.697  1.00  0.00     0.074 A 
ATOM     66  C   UNL A   1      42.935  27.705  31.964  1.00  0.00     0.031 C 
ATOM     67  C   UNL A   1      42.943  29.289  33.871  1.00  0.00     0.037 A 
BRANCH  54  68
ATOM     68  C   UNL A   1      40.143  34.319  36.122  1.00  0.00     0.057 A 
ATOM     69  C   UNL A   1      39.336  34.178  37.259  1.00  0.00     0.134 A 
ATOM     70  C   UNL A   1      40.928  35.476  36.029  1.00  0.00     0.134 A 
ATOM     71  F   UNL A   1      38.548  33.101  37.404  1.00  0.00    -0.206 F 
ATOM     72  C   UNL A   1      39.288  35.160  38.249  1.00  0.00     0.040 A 
ATOM     73  C   UNL A   1      40.912  36.451  37.027  1.00  0.00     0.040 A 
ATOM     74  F   UNL A   1      41.728  35.674  34.971  1.00  0.00    -0.206 F 
ATOM     75  C   UNL A   1      40.084  36.298  38.137  1.00  0.00     0.006 A 
ENDBRANCH  54  68
BRANCH  55  76
ATOM     76  C   UNL A   1      40.325  27.684  28.655  1.00  0.00     0.057 A 
ATOM     77  C   UNL A   1      41.070  27.949  27.500  1.00  0.00     0.134 A 
ATOM     78  C   UNL A   1      39.627  26.472  28.706  1.00  0.00     0.134 A 
ATOM     79  F   UNL A   1      41.747  29.102  27.383  1.00  0.00    -0.206 F 
ATOM     80  C   UNL A   1      41.102  27.057  26.427  1.00  0.00     0.040 A 
ATOM     81  C   UNL A   1      39.672  25.557  27.653  1.00  0.00     0.040 A 
ATOM     82  F   UNL A   1      38.903  26.153  29.789  1.00  0.00    -0.206 F 
ATOM     83  C   UNL A   1      40.403  25.853  26.505  1.00  0.00     0.006 A 
ENDBRANCH  55  76
BRANCH  67  84
ATOM     84  C   UNL A   1      44.087  28.513  34.456  1.00  0.00     0.057 A 
ATOM     85  C   UNL A   1      45.421  28.863  34.214  1.00  0.00     0.134 A 
ATOM     86  C   UNL A   1      43.847  27.423  35.303  1.00  0.00     0.134 A 
ATOM     87  F   UNL A   1      45.719  29.888  33.402  1.00  0.00    -0.206 F 
ATOM     88  C   UNL A   1      46.477  28.142  34.777  1.00  0.00     0.040 A 
ATOM     89  C   UNL A   1      44.893  26.713  35.894  1.00  0.00     0.040 A 
ATOM     90  F   UNL A   1      42.592  27.040  35.584  1.00  0.00    -0.206 F 
ATOM     91  C   UNL A   1      46.213  27.069  35.625  1.00  0.00     0.006 A 
ENDBRANCH  67  84
ENDBRANCH  41  42
ENDBRANCH  33  36
ENDBRANCH  31  32
ENDBRANCH  30  31
ENDBRANCH   1  30
TORSDOF 17
ENDMDL
