MODEL 1
REMARK VINA RESULT:     -12.6      0.000      0.000
REMARK SMILES Cc1cccc(C[NH2+]Cc2c(C(=O)NCCCCNC(=O)c3ccc(-c4c5nc(c(-c6c(F)cccc6F)c6ccc([nH]6)c(-c6c(F)cccc6F)c6nc(c(-c7c(F)cccc7F)c7ccc4[nH]7)C=C6)C=C5)cc3)c(C)n(Cc3cccc(F)c3)c2C)c1
REMARK SMILES IDX 15 1 14 2 12 3 13 4 11 6 10 7 87 8 76 9 78 10 88 11 77 12
REMARK SMILES IDX 9 13 8 14 7 17 6 18 1 19 2 20 3 21 89 22 4 23 5 24 79 25
REMARK SMILES IDX 80 26 81 27 86 28 82 29 84 30 83 31 85 32 16 33 17 34 18 35
REMARK SMILES IDX 19 36 20 37 21 39 22 40 23 41 75 42 24 43 74 44 25 45 26 46
REMARK SMILES IDX 27 47 68 48 28 49 73 50 67 51 69 52 29 53 72 54 66 55 65 56
REMARK SMILES IDX 30 58 56 59 39 60 55 61 40 62 43 63 54 64 70 65 41 66 42 67
REMARK SMILES IDX 53 69 71 70 44 71 31 72 32 73 37 74 33 75 34 76 36 77 38 78
REMARK SMILES IDX 35 79 57 80 58 81 63 82 59 83 60 84 62 85 64 86 61 87 45 88
REMARK SMILES IDX 46 89 51 90 47 91 48 92 50 93 52 94 49 95
REMARK H PARENT 14 5 8 15 8 16 19 38 69 57 43 68
REMARK Flexibility Score: inf
ROOT
ATOM      1  C   UNL A   1      37.317  23.577  26.071  1.00  0.00     0.116 C 
ENDROOT
BRANCH   1   2
ATOM      2  N   UNL A   1      37.226  23.352  24.648  1.00  0.00    -0.352 N 
ATOM      3  C   UNL A   1      36.274  23.085  23.707  1.00  0.00     0.253 C 
ATOM      4  O   UNL A   1      36.786  23.058  22.578  1.00  0.00    -0.269 OA
ATOM      5  H   UNL A   1      38.117  23.408  24.233  1.00  0.00     0.163 HD
BRANCH   3   6
ATOM      6  C   UNL A   1      34.808  22.859  23.882  1.00  0.00     0.069 A 
ATOM      7  C   UNL A   1      33.581  23.593  23.536  1.00  0.00     0.040 A 
ATOM      8  C   UNL A   1      32.506  22.853  24.047  1.00  0.00     0.025 A 
ATOM      9  C   UNL A   1      34.370  21.720  24.591  1.00  0.00     0.028 A 
ATOM     10  N   UNL A   1      32.995  21.671  24.571  1.00  0.00    -0.343 N 
ATOM     11  C   UNL A   1      31.047  23.167  24.118  1.00  0.00     0.065 C 
ATOM     12  C   UNL A   1      35.209  20.671  25.271  1.00  0.00     0.065 C 
BRANCH   7  13
ATOM     13  C   UNL A   1      33.541  24.900  22.789  1.00  0.00     0.300 C 
BRANCH  13  14
ATOM     14  N   UNL A   1      33.840  26.138  23.485  1.00  0.00    -0.339 N 
ATOM     15  H   UNL A   1      34.657  26.557  23.041  1.00  0.00     0.346 HD
ATOM     16  H   UNL A   1      32.994  26.704  23.417  1.00  0.00     0.346 HD
BRANCH  14  17
ATOM     17  C   UNL A   1      34.120  26.013  24.906  1.00  0.00     0.297 C 
BRANCH  17  18
ATOM     18  C   UNL A   1      33.262  26.995  25.677  1.00  0.00     0.006 A 
ATOM     19  C   UNL A   1      33.649  30.440  27.268  1.00  0.00     0.044 C 
ATOM     20  C   UNL A   1      33.057  29.123  26.863  1.00  0.00    -0.051 A 
ATOM     21  C   UNL A   1      31.815  28.717  27.359  1.00  0.00     0.003 A 
ATOM     22  C   UNL A   1      33.745  28.275  25.988  1.00  0.00     0.013 A 
ATOM     23  C   UNL A   1      31.292  27.470  27.015  1.00  0.00     0.001 A 
ATOM     24  C   UNL A   1      32.018  26.608  26.192  1.00  0.00     0.009 A 
ENDBRANCH  17  18
ENDBRANCH  14  17
ENDBRANCH  13  14
ENDBRANCH   7  13
BRANCH  10  25
ATOM     25  C   UNL A   1      32.159  20.584  25.113  1.00  0.00     0.157 C 
BRANCH  25  26
ATOM     26  C   UNL A   1      32.501  19.205  24.587  1.00  0.00    -0.025 A 
ATOM     27  C   UNL A   1      32.486  18.984  23.197  1.00  0.00     0.006 A 
ATOM     28  C   UNL A   1      32.861  18.144  25.432  1.00  0.00     0.044 A 
ATOM     29  C   UNL A   1      32.895  17.759  22.664  1.00  0.00     0.003 A 
ATOM     30  C   UNL A   1      33.276  16.934  24.889  1.00  0.00     0.123 A 
ATOM     31  C   UNL A   1      33.305  16.735  23.515  1.00  0.00     0.039 A 
ATOM     32  F   UNL A   1      33.677  15.950  25.705  1.00  0.00    -0.207 F 
ENDBRANCH  25  26
ENDBRANCH  10  25
ENDBRANCH   3   6
ENDBRANCH   1   2
BRANCH   1  33
ATOM     33  C   UNL A   1      38.577  24.372  26.446  1.00  0.00     0.023 C 
BRANCH  33  34
ATOM     34  C   UNL A   1      39.895  23.625  26.221  1.00  0.00     0.023 C 
BRANCH  34  35
ATOM     35  C   UNL A   1      39.917  22.239  26.845  1.00  0.00     0.116 C 
BRANCH  35  36
ATOM     36  N   UNL A   1      40.792  21.276  26.184  1.00  0.00    -0.352 N 
ATOM     37  C   UNL A   1      42.180  21.239  26.133  1.00  0.00     0.251 C 
ATOM     38  H   UNL A   1      40.332  20.548  25.708  1.00  0.00     0.163 HD
ATOM     39  O   UNL A   1      42.748  20.389  25.490  1.00  0.00    -0.269 OA
BRANCH  37  40
ATOM     40  C   UNL A   1      42.960  22.175  26.995  1.00  0.00     0.039 A 
ATOM     41  C   UNL A   1      42.852  22.022  28.381  1.00  0.00     0.014 A 
ATOM     42  C   UNL A   1      43.581  23.303  26.465  1.00  0.00     0.014 A 
ATOM     43  C   UNL A   1      43.107  23.115  29.209  1.00  0.00     0.010 A 
ATOM     44  C   UNL A   1      43.731  24.418  27.269  1.00  0.00     0.010 A 
ATOM     45  C   UNL A   1      43.419  24.347  28.630  1.00  0.00    -0.014 A 
BRANCH  45  46
ATOM     46  C   UNL A   1      43.265  25.615  29.338  1.00  0.00     0.031 A 
ATOM     47  C   UNL A   1      42.065  26.461  29.163  1.00  0.00     0.074 A 
ATOM     48  C   UNL A   1      44.216  26.007  30.218  1.00  0.00     0.049 A 
ATOM     49  N   UNL A   1      42.054  27.737  29.359  1.00  0.00    -0.248 NA
ATOM     50  C   UNL A   1      40.776  25.934  28.727  1.00  0.00     0.031 C 
ATOM     51  C   UNL A   1      44.141  27.111  31.172  1.00  0.00     0.029 A 
ATOM     52  N   UNL A   1      45.556  25.598  30.268  1.00  0.00    -0.354 N 
ATOM     53  C   UNL A   1      40.749  28.161  29.307  1.00  0.00     0.074 A 
ATOM     54  C   UNL A   1      39.992  27.006  28.878  1.00  0.00     0.031 C 
ATOM     55  C   UNL A   1      45.388  27.500  31.479  1.00  0.00     0.029 A 
ATOM     56  C   UNL A   1      46.302  26.737  30.651  1.00  0.00     0.049 A 
ATOM     57  H   UNL A   1      45.907  24.698  30.076  1.00  0.00     0.167 HD
ATOM     58  C   UNL A   1      40.420  29.417  29.721  1.00  0.00     0.037 A 
ATOM     59  C   UNL A   1      47.243  27.265  29.816  1.00  0.00     0.037 A 
ATOM     60  C   UNL A   1      41.580  30.182  30.155  1.00  0.00     0.049 A 
ATOM     61  C   UNL A   1      46.939  28.663  29.326  1.00  0.00     0.074 A 
ATOM     62  C   UNL A   1      42.157  30.453  31.384  1.00  0.00     0.029 A 
ATOM     63  N   UNL A   1      42.508  30.565  29.205  1.00  0.00    -0.354 N 
ATOM     64  N   UNL A   1      45.881  29.352  29.656  1.00  0.00    -0.248 NA
ATOM     65  C   UNL A   1      47.767  29.361  28.337  1.00  0.00     0.031 C 
ATOM     66  C   UNL A   1      43.463  30.974  31.157  1.00  0.00     0.029 A 
ATOM     67  C   UNL A   1      43.671  31.024  29.792  1.00  0.00     0.049 A 
ATOM     68  H   UNL A   1      42.359  30.516  28.234  1.00  0.00     0.167 HD
ATOM     69  C   UNL A   1      45.837  30.496  28.906  1.00  0.00     0.074 A 
ATOM     70  C   UNL A   1      47.047  30.472  28.109  1.00  0.00     0.031 C 
ATOM     71  C   UNL A   1      44.792  31.368  28.940  1.00  0.00     0.037 A 
BRANCH  58  72
ATOM     72  C   UNL A   1      38.998  29.861  29.908  1.00  0.00     0.057 A 
ATOM     73  C   UNL A   1      38.456  30.047  31.192  1.00  0.00     0.134 A 
ATOM     74  C   UNL A   1      38.108  30.097  28.847  1.00  0.00     0.134 A 
ATOM     75  F   UNL A   1      39.206  29.931  32.296  1.00  0.00    -0.206 F 
ATOM     76  C   UNL A   1      37.105  30.347  31.406  1.00  0.00     0.040 A 
ATOM     77  C   UNL A   1      36.742  30.342  29.046  1.00  0.00     0.040 A 
ATOM     78  F   UNL A   1      38.534  30.122  27.577  1.00  0.00    -0.206 F 
ATOM     79  C   UNL A   1      36.233  30.457  30.333  1.00  0.00     0.006 A 
ENDBRANCH  58  72
BRANCH  59  80
ATOM     80  C   UNL A   1      47.979  26.226  29.051  1.00  0.00     0.057 A 
ATOM     81  C   UNL A   1      47.606  25.990  27.715  1.00  0.00     0.134 A 
ATOM     82  C   UNL A   1      49.222  25.745  29.462  1.00  0.00     0.134 A 
ATOM     83  F   UNL A   1      46.421  26.427  27.260  1.00  0.00    -0.206 F 
ATOM     84  C   UNL A   1      48.480  25.404  26.799  1.00  0.00     0.040 A 
ATOM     85  C   UNL A   1      50.102  25.144  28.556  1.00  0.00     0.040 A 
ATOM     86  F   UNL A   1      49.654  25.949  30.715  1.00  0.00    -0.206 F 
ATOM     87  C   UNL A   1      49.748  25.008  27.213  1.00  0.00     0.006 A 
ENDBRANCH  59  80
BRANCH  71  88
ATOM     88  C   UNL A   1      44.766  32.635  28.146  1.00  0.00     0.057 A 
ATOM     89  C   UNL A   1      45.122  33.865  28.712  1.00  0.00     0.134 A 
ATOM     90  C   UNL A   1      44.252  32.675  26.839  1.00  0.00     0.134 A 
ATOM     91  F   UNL A   1      45.595  33.934  29.966  1.00  0.00    -0.206 F 
ATOM     92  C   UNL A   1      44.984  35.069  28.013  1.00  0.00     0.040 A 
ATOM     93  C   UNL A   1      44.071  33.873  26.145  1.00  0.00     0.040 A 
ATOM     94  F   UNL A   1      43.920  31.551  26.185  1.00  0.00    -0.206 F 
ATOM     95  C   UNL A   1      44.441  35.077  26.731  1.00  0.00     0.006 A 
ENDBRANCH  71  88
ENDBRANCH  45  46
ENDBRANCH  37  40
ENDBRANCH  35  36
ENDBRANCH  34  35
ENDBRANCH  33  34
ENDBRANCH   1  33
TORSDOF 17
ENDMDL
MODEL 2
REMARK VINA RESULT:     -12.1      1.506      2.236
REMARK SMILES Cc1cccc(C[NH2+]Cc2c(C(=O)NCCCCNC(=O)c3ccc(-c4c5nc(c(-c6c(F)cccc6F)c6ccc([nH]6)c(-c6c(F)cccc6F)c6nc(c(-c7c(F)cccc7F)c7ccc4[nH]7)C=C6)C=C5)cc3)c(C)n(Cc3cccc(F)c3)c2C)c1
REMARK SMILES IDX 15 1 14 2 12 3 13 4 11 6 10 7 87 8 76 9 78 10 88 11 77 12
REMARK SMILES IDX 9 13 8 14 7 17 6 18 1 19 2 20 3 21 89 22 4 23 5 24 79 25
REMARK SMILES IDX 80 26 81 27 86 28 82 29 84 30 83 31 85 32 16 33 17 34 18 35
REMARK SMILES IDX 19 36 20 37 21 39 22 40 23 41 75 42 24 43 74 44 25 45 26 46
REMARK SMILES IDX 27 47 68 48 28 49 73 50 67 51 69 52 29 53 72 54 66 55 65 56
REMARK SMILES IDX 30 58 56 59 39 60 55 61 40 62 43 63 54 64 70 65 41 66 42 67
REMARK SMILES IDX 53 69 71 70 44 71 31 72 32 73 37 74 33 75 34 76 36 77 38 78
REMARK SMILES IDX 35 79 57 80 58 81 63 82 59 83 60 84 62 85 64 86 61 87 45 88
REMARK SMILES IDX 46 89 51 90 47 91 48 92 50 93 52 94 49 95
REMARK H PARENT 14 5 8 15 8 16 19 38 69 57 43 68
REMARK Flexibility Score: inf
ROOT
ATOM      1  C   UNL A   1      37.765  22.139  25.516  1.00  0.00     0.116 C 
ENDROOT
BRANCH   1   2
ATOM      2  N   UNL A   1      36.867  23.264  25.611  1.00  0.00    -0.352 N 
ATOM      3  C   UNL A   1      35.567  23.570  25.329  1.00  0.00     0.253 C 
ATOM      4  O   UNL A   1      35.309  24.725  25.701  1.00  0.00    -0.269 OA
ATOM      5  H   UNL A   1      37.329  24.043  25.995  1.00  0.00     0.163 HD
BRANCH   3   6
ATOM      6  C   UNL A   1      34.512  22.725  24.691  1.00  0.00     0.069 A 
ATOM      7  C   UNL A   1      33.792  22.730  23.409  1.00  0.00     0.040 A 
ATOM      8  C   UNL A   1      32.864  21.682  23.460  1.00  0.00     0.025 A 
ATOM      9  C   UNL A   1      33.948  21.662  25.429  1.00  0.00     0.028 A 
ATOM     10  N   UNL A   1      33.058  20.978  24.634  1.00  0.00    -0.343 N 
ATOM     11  C   UNL A   1      31.777  21.289  22.513  1.00  0.00     0.065 C 
ATOM     12  C   UNL A   1      34.236  21.264  26.852  1.00  0.00     0.065 C 
BRANCH   7  13
ATOM     13  C   UNL A   1      34.030  23.710  22.291  1.00  0.00     0.300 C 
BRANCH  13  14
ATOM     14  N   UNL A   1      32.904  24.378  21.666  1.00  0.00    -0.339 N 
ATOM     15  H   UNL A   1      33.271  25.008  20.951  1.00  0.00     0.346 HD
ATOM     16  H   UNL A   1      32.310  23.634  21.298  1.00  0.00     0.346 HD
BRANCH  14  17
ATOM     17  C   UNL A   1      32.057  25.158  22.554  1.00  0.00     0.297 C 
BRANCH  17  18
ATOM     18  C   UNL A   1      32.840  26.340  23.088  1.00  0.00     0.006 A 
ATOM     19  C   UNL A   1      33.563  27.952  26.468  1.00  0.00     0.044 C 
ATOM     20  C   UNL A   1      33.525  27.718  24.987  1.00  0.00    -0.051 A 
ATOM     21  C   UNL A   1      34.021  28.677  24.100  1.00  0.00     0.003 A 
ATOM     22  C   UNL A   1      32.982  26.537  24.470  1.00  0.00     0.013 A 
ATOM     23  C   UNL A   1      33.940  28.473  22.722  1.00  0.00     0.001 A 
ATOM     24  C   UNL A   1      33.339  27.318  22.219  1.00  0.00     0.009 A 
ENDBRANCH  17  18
ENDBRANCH  14  17
ENDBRANCH  13  14
ENDBRANCH   7  13
BRANCH  10  25
ATOM     25  C   UNL A   1      32.338  19.745  25.002  1.00  0.00     0.157 C 
BRANCH  25  26
ATOM     26  C   UNL A   1      33.017  18.464  24.563  1.00  0.00    -0.025 A 
ATOM     27  C   UNL A   1      32.923  18.072  23.215  1.00  0.00     0.006 A 
ATOM     28  C   UNL A   1      33.763  17.667  25.445  1.00  0.00     0.044 A 
ATOM     29  C   UNL A   1      33.619  16.955  22.746  1.00  0.00     0.003 A 
ATOM     30  C   UNL A   1      34.461  16.565  24.964  1.00  0.00     0.123 A 
ATOM     31  C   UNL A   1      34.402  16.208  23.623  1.00  0.00     0.039 A 
ATOM     32  F   UNL A   1      35.220  15.849  25.803  1.00  0.00    -0.207 F 
ENDBRANCH  25  26
ENDBRANCH  10  25
ENDBRANCH   3   6
ENDBRANCH   1   2
BRANCH   1  33
ATOM     33  C   UNL A   1      39.101  22.411  26.225  1.00  0.00     0.023 C 
BRANCH  33  34
ATOM     34  C   UNL A   1      40.126  21.279  26.112  1.00  0.00     0.023 C 
BRANCH  34  35
ATOM     35  C   UNL A   1      41.565  21.751  26.253  1.00  0.00     0.116 C 
BRANCH  35  36
ATOM     36  N   UNL A   1      42.536  21.029  25.439  1.00  0.00    -0.352 N 
ATOM     37  C   UNL A   1      43.807  21.419  25.032  1.00  0.00     0.251 C 
ATOM     38  H   UNL A   1      42.251  20.137  25.136  1.00  0.00     0.163 HD
ATOM     39  O   UNL A   1      44.465  20.711  24.308  1.00  0.00    -0.269 OA
BRANCH  37  40
ATOM     40  C   UNL A   1      44.403  22.658  25.614  1.00  0.00     0.039 A 
ATOM     41  C   UNL A   1      44.913  22.582  26.915  1.00  0.00     0.014 A 
ATOM     42  C   UNL A   1      44.250  23.896  24.997  1.00  0.00     0.014 A 
ATOM     43  C   UNL A   1      44.998  23.743  27.681  1.00  0.00     0.010 A 
ATOM     44  C   UNL A   1      44.230  25.033  25.784  1.00  0.00     0.010 A 
ATOM     45  C   UNL A   1      44.529  24.945  27.147  1.00  0.00    -0.014 A 
BRANCH  45  46
ATOM     46  C   UNL A   1      44.157  26.088  27.978  1.00  0.00     0.031 A 
ATOM     47  C   UNL A   1      42.796  26.663  27.943  1.00  0.00     0.074 A 
ATOM     48  C   UNL A   1      45.062  26.607  28.841  1.00  0.00     0.049 A 
ATOM     49  N   UNL A   1      42.527  27.887  28.259  1.00  0.00    -0.248 NA
ATOM     50  C   UNL A   1      41.622  25.905  27.525  1.00  0.00     0.031 C 
ATOM     51  C   UNL A   1      44.820  27.587  29.897  1.00  0.00     0.029 A 
ATOM     52  N   UNL A   1      46.458  26.496  28.786  1.00  0.00    -0.354 N 
ATOM     53  C   UNL A   1      41.162  28.018  28.312  1.00  0.00     0.074 A 
ATOM     54  C   UNL A   1      40.640  26.764  27.815  1.00  0.00     0.031 C 
ATOM     55  C   UNL A   1      45.974  28.212  30.177  1.00  0.00     0.029 A 
ATOM     56  C   UNL A   1      46.969  27.736  29.235  1.00  0.00     0.049 A 
ATOM     57  H   UNL A   1      46.979  25.714  28.493  1.00  0.00     0.167 HD
ATOM     58  C   UNL A   1      40.602  29.135  28.857  1.00  0.00     0.037 A 
ATOM     59  C   UNL A   1      47.716  28.522  28.407  1.00  0.00     0.037 A 
ATOM     60  C   UNL A   1      41.600  30.097  29.302  1.00  0.00     0.049 A 
ATOM     61  C   UNL A   1      47.089  29.856  28.066  1.00  0.00     0.074 A 
ATOM     62  C   UNL A   1      42.190  30.388  30.521  1.00  0.00     0.029 A 
ATOM     63  N   UNL A   1      42.358  30.748  28.347  1.00  0.00    -0.354 N 
ATOM     64  N   UNL A   1      45.934  30.268  28.511  1.00  0.00    -0.248 NA
ATOM     65  C   UNL A   1      47.679  30.794  27.106  1.00  0.00     0.031 C 
ATOM     66  C   UNL A   1      43.337  31.198  30.278  1.00  0.00     0.029 A 
ATOM     67  C   UNL A   1      43.433  31.401  28.915  1.00  0.00     0.049 A 
ATOM     68  H   UNL A   1      42.154  30.747  27.384  1.00  0.00     0.167 HD
ATOM     69  C   UNL A   1      45.595  31.432  27.875  1.00  0.00     0.074 A 
ATOM     70  C   UNL A   1      46.725  31.736  27.019  1.00  0.00     0.031 C 
ATOM     71  C   UNL A   1      44.394  32.049  28.043  1.00  0.00     0.037 A 
BRANCH  58  72
ATOM     72  C   UNL A   1      39.134  29.242  29.157  1.00  0.00     0.057 A 
ATOM     73  C   UNL A   1      38.207  29.567  28.151  1.00  0.00     0.134 A 
ATOM     74  C   UNL A   1      38.583  29.056  30.436  1.00  0.00     0.134 A 
ATOM     75  F   UNL A   1      38.577  29.700  26.870  1.00  0.00    -0.206 F 
ATOM     76  C   UNL A   1      36.851  29.789  28.417  1.00  0.00     0.040 A 
ATOM     77  C   UNL A   1      37.240  29.329  30.727  1.00  0.00     0.040 A 
ATOM     78  F   UNL A   1      39.323  28.579  31.447  1.00  0.00    -0.206 F 
ATOM     79  C   UNL A   1      36.369  29.709  29.715  1.00  0.00     0.006 A 
ENDBRANCH  58  72
BRANCH  59  80
ATOM     80  C   UNL A   1      48.602  27.734  27.512  1.00  0.00     0.057 A 
ATOM     81  C   UNL A   1      49.824  27.263  28.026  1.00  0.00     0.134 A 
ATOM     82  C   UNL A   1      48.133  27.145  26.338  1.00  0.00     0.134 A 
ATOM     83  F   UNL A   1      50.328  27.790  29.153  1.00  0.00    -0.206 F 
ATOM     84  C   UNL A   1      50.491  26.175  27.461  1.00  0.00     0.040 A 
ATOM     85  C   UNL A   1      48.799  26.063  25.754  1.00  0.00     0.040 A 
ATOM     86  F   UNL A   1      46.966  27.529  25.799  1.00  0.00    -0.206 F 
ATOM     87  C   UNL A   1      49.958  25.550  26.337  1.00  0.00     0.006 A 
ENDBRANCH  59  80
BRANCH  71  88
ATOM     88  C   UNL A   1      44.044  33.339  27.374  1.00  0.00     0.057 A 
ATOM     89  C   UNL A   1      43.827  34.513  28.106  1.00  0.00     0.134 A 
ATOM     90  C   UNL A   1      43.780  33.406  25.995  1.00  0.00     0.134 A 
ATOM     91  F   UNL A   1      44.023  34.542  29.433  1.00  0.00    -0.206 F 
ATOM     92  C   UNL A   1      43.381  35.692  27.500  1.00  0.00     0.040 A 
ATOM     93  C   UNL A   1      43.296  34.565  25.384  1.00  0.00     0.040 A 
ATOM     94  F   UNL A   1      43.995  32.353  25.192  1.00  0.00    -0.206 F 
ATOM     95  C   UNL A   1      43.098  35.715  26.137  1.00  0.00     0.006 A 
ENDBRANCH  71  88
ENDBRANCH  45  46
ENDBRANCH  37  40
ENDBRANCH  35  36
ENDBRANCH  34  35
ENDBRANCH  33  34
ENDBRANCH   1  33
TORSDOF 17
ENDMDL
MODEL 3
REMARK VINA RESULT:     -11.8      1.825      2.235
REMARK SMILES Cc1cccc(C[NH2+]Cc2c(C(=O)NCCCCNC(=O)c3ccc(-c4c5nc(c(-c6c(F)cccc6F)c6ccc([nH]6)c(-c6c(F)cccc6F)c6nc(c(-c7c(F)cccc7F)c7ccc4[nH]7)C=C6)C=C5)cc3)c(C)n(Cc3cccc(F)c3)c2C)c1
REMARK SMILES IDX 15 1 14 2 12 3 13 4 11 6 10 7 87 8 76 9 78 10 88 11 77 12
REMARK SMILES IDX 9 13 8 14 7 17 6 18 1 19 2 20 3 21 89 22 4 23 5 24 79 25
REMARK SMILES IDX 80 26 81 27 86 28 82 29 84 30 83 31 85 32 16 33 17 34 18 35
REMARK SMILES IDX 19 36 20 37 21 39 22 40 23 41 75 42 24 43 74 44 25 45 26 46
REMARK SMILES IDX 27 47 68 48 28 49 73 50 67 51 69 52 29 53 72 54 66 55 65 56
REMARK SMILES IDX 30 58 56 59 39 60 55 61 40 62 43 63 54 64 70 65 41 66 42 67
REMARK SMILES IDX 53 69 71 70 44 71 31 72 32 73 37 74 33 75 34 76 36 77 38 78
REMARK SMILES IDX 35 79 57 80 58 81 63 82 59 83 60 84 62 85 64 86 61 87 45 88
REMARK SMILES IDX 46 89 51 90 47 91 48 92 50 93 52 94 49 95
REMARK H PARENT 14 5 8 15 8 16 19 38 69 57 43 68
REMARK Flexibility Score: inf
ROOT
ATOM      1  C   UNL A   1      37.658  23.532  26.227  1.00  0.00     0.116 C 
ENDROOT
BRANCH   1   2
ATOM      2  N   UNL A   1      37.471  23.481  24.797  1.00  0.00    -0.352 N 
ATOM      3  C   UNL A   1      36.453  23.361  23.896  1.00  0.00     0.253 C 
ATOM      4  O   UNL A   1      36.892  23.451  22.740  1.00  0.00    -0.269 OA
ATOM      5  H   UNL A   1      38.336  23.555  24.333  1.00  0.00     0.163 HD
BRANCH   3   6
ATOM      6  C   UNL A   1      34.991  23.168  24.139  1.00  0.00     0.069 A 
ATOM      7  C   UNL A   1      33.772  23.959  23.911  1.00  0.00     0.040 A 
ATOM      8  C   UNL A   1      32.703  23.220  24.434  1.00  0.00     0.025 A 
ATOM      9  C   UNL A   1      34.555  21.999  24.798  1.00  0.00     0.028 A 
ATOM     10  N   UNL A   1      33.181  21.992  24.853  1.00  0.00    -0.343 N 
ATOM     11  C   UNL A   1      31.262  23.571  24.609  1.00  0.00     0.065 C 
ATOM     12  C   UNL A   1      35.395  20.883  25.360  1.00  0.00     0.065 C 
BRANCH   7  13
ATOM     13  C   UNL A   1      33.735  25.313  23.253  1.00  0.00     0.300 C 
BRANCH  13  14
ATOM     14  N   UNL A   1      32.841  26.337  23.761  1.00  0.00    -0.339 N 
ATOM     15  H   UNL A   1      31.944  25.896  23.966  1.00  0.00     0.346 HD
ATOM     16  H   UNL A   1      33.307  26.729  24.580  1.00  0.00     0.346 HD
BRANCH  14  17
ATOM     17  C   UNL A   1      32.593  27.460  22.871  1.00  0.00     0.297 C 
BRANCH  17  18
ATOM     18  C   UNL A   1      31.109  27.765  22.847  1.00  0.00     0.006 A 
ATOM     19  C   UNL A   1      28.845  30.698  21.941  1.00  0.00     0.044 C 
ATOM     20  C   UNL A   1      29.301  29.359  22.441  1.00  0.00    -0.051 A 
ATOM     21  C   UNL A   1      28.404  28.488  23.064  1.00  0.00     0.003 A 
ATOM     22  C   UNL A   1      30.636  28.966  22.297  1.00  0.00     0.013 A 
ATOM     23  C   UNL A   1      28.846  27.263  23.567  1.00  0.00     0.001 A 
ATOM     24  C   UNL A   1      30.193  26.910  23.474  1.00  0.00     0.009 A 
ENDBRANCH  17  18
ENDBRANCH  14  17
ENDBRANCH  13  14
ENDBRANCH   7  13
BRANCH  10  25
ATOM     25  C   UNL A   1      32.340  20.897  25.372  1.00  0.00     0.157 C 
BRANCH  25  26
ATOM     26  C   UNL A   1      32.531  19.569  24.667  1.00  0.00    -0.025 A 
ATOM     27  C   UNL A   1      32.815  18.425  25.437  1.00  0.00     0.006 A 
ATOM     28  C   UNL A   1      32.407  19.430  23.276  1.00  0.00     0.044 A 
ATOM     29  C   UNL A   1      32.896  17.165  24.839  1.00  0.00     0.003 A 
ATOM     30  C   UNL A   1      32.477  18.169  22.696  1.00  0.00     0.123 A 
ATOM     31  C   UNL A   1      32.712  17.036  23.465  1.00  0.00     0.039 A 
ATOM     32  F   UNL A   1      32.294  18.041  21.376  1.00  0.00    -0.207 F 
ENDBRANCH  25  26
ENDBRANCH  10  25
ENDBRANCH   3   6
ENDBRANCH   1   2
BRANCH   1  33
ATOM     33  C   UNL A   1      38.649  24.632  26.636  1.00  0.00     0.023 C 
BRANCH  33  34
ATOM     34  C   UNL A   1      40.124  24.265  26.451  1.00  0.00     0.023 C 
BRANCH  34  35
ATOM     35  C   UNL A   1      40.489  22.912  27.042  1.00  0.00     0.116 C 
BRANCH  35  36
ATOM     36  N   UNL A   1      41.307  22.062  26.184  1.00  0.00    -0.352 N 
ATOM     37  C   UNL A   1      42.641  22.201  25.820  1.00  0.00     0.251 C 
ATOM     38  H   UNL A   1      40.847  21.275  25.810  1.00  0.00     0.163 HD
ATOM     39  O   UNL A   1      43.153  21.423  25.050  1.00  0.00    -0.269 OA
BRANCH  37  40
ATOM     40  C   UNL A   1      43.470  23.239  26.501  1.00  0.00     0.039 A 
ATOM     41  C   UNL A   1      43.761  23.049  27.856  1.00  0.00     0.014 A 
ATOM     42  C   UNL A   1      43.747  24.460  25.894  1.00  0.00     0.014 A 
ATOM     43  C   UNL A   1      44.058  24.155  28.650  1.00  0.00     0.010 A 
ATOM     44  C   UNL A   1      43.935  25.572  26.693  1.00  0.00     0.010 A 
ATOM     45  C   UNL A   1      44.013  25.430  28.082  1.00  0.00    -0.014 A 
BRANCH  45  46
ATOM     46  C   UNL A   1      43.861  26.646  28.879  1.00  0.00     0.031 A 
ATOM     47  C   UNL A   1      42.549  27.305  29.047  1.00  0.00     0.074 A 
ATOM     48  C   UNL A   1      44.935  27.158  29.524  1.00  0.00     0.049 A 
ATOM     49  N   UNL A   1      42.407  28.561  29.313  1.00  0.00    -0.248 NA
ATOM     50  C   UNL A   1      41.280  26.599  28.905  1.00  0.00     0.031 C 
ATOM     51  C   UNL A   1      44.944  28.218  30.530  1.00  0.00     0.029 A 
ATOM     52  N   UNL A   1      46.290  26.954  29.226  1.00  0.00    -0.354 N 
ATOM     53  C   UNL A   1      41.084  28.784  29.602  1.00  0.00     0.074 A 
ATOM     54  C   UNL A   1      40.415  27.538  29.303  1.00  0.00     0.031 C 
ATOM     55  C   UNL A   1      46.161  28.783  30.549  1.00  0.00     0.029 A 
ATOM     56  C   UNL A   1      46.939  28.184  29.482  1.00  0.00     0.049 A 
ATOM     57  H   UNL A   1      46.705  26.122  28.903  1.00  0.00     0.167 HD
ATOM     58  C   UNL A   1      40.693  29.967  30.154  1.00  0.00     0.037 A 
ATOM     59  C   UNL A   1      47.561  28.865  28.477  1.00  0.00     0.037 A 
ATOM     60  C   UNL A   1      41.806  30.890  30.339  1.00  0.00     0.049 A 
ATOM     61  C   UNL A   1      46.952  30.212  28.155  1.00  0.00     0.074 A 
ATOM     62  C   UNL A   1      42.625  31.218  31.406  1.00  0.00     0.029 A 
ATOM     63  N   UNL A   1      42.407  31.427  29.217  1.00  0.00    -0.354 N 
ATOM     64  N   UNL A   1      45.922  30.726  28.770  1.00  0.00    -0.248 NA
ATOM     65  C   UNL A   1      47.404  31.047  27.037  1.00  0.00     0.031 C 
ATOM     66  C   UNL A   1      43.748  31.935  30.901  1.00  0.00     0.029 A 
ATOM     67  C   UNL A   1      43.602  32.044  29.531  1.00  0.00     0.049 A 
ATOM     68  H   UNL A   1      42.030  31.378  28.309  1.00  0.00     0.167 HD
ATOM     69  C   UNL A   1      45.534  31.867  28.119  1.00  0.00     0.074 A 
ATOM     70  C   UNL A   1      46.500  32.041  27.054  1.00  0.00     0.031 C 
ATOM     71  C   UNL A   1      44.418  32.571  28.455  1.00  0.00     0.037 A 
BRANCH  58  72
ATOM     72  C   UNL A   1      39.314  30.189  30.705  1.00  0.00     0.057 A 
ATOM     73  C   UNL A   1      38.919  29.624  31.931  1.00  0.00     0.134 A 
ATOM     74  C   UNL A   1      38.322  30.936  30.048  1.00  0.00     0.134 A 
ATOM     75  F   UNL A   1      39.780  28.949  32.703  1.00  0.00    -0.206 F 
ATOM     76  C   UNL A   1      37.610  29.712  32.416  1.00  0.00     0.040 A 
ATOM     77  C   UNL A   1      36.994  30.986  30.492  1.00  0.00     0.040 A 
ATOM     78  F   UNL A   1      38.611  31.667  28.961  1.00  0.00    -0.206 F 
ATOM     79  C   UNL A   1      36.631  30.362  31.678  1.00  0.00     0.006 A 
ENDBRANCH  58  72
BRANCH  59  80
ATOM     80  C   UNL A   1      48.224  27.965  27.498  1.00  0.00     0.057 A 
ATOM     81  C   UNL A   1      49.478  27.422  27.832  1.00  0.00     0.134 A 
ATOM     82  C   UNL A   1      47.522  27.361  26.455  1.00  0.00     0.134 A 
ATOM     83  F   UNL A   1      50.202  27.961  28.826  1.00  0.00    -0.206 F 
ATOM     84  C   UNL A   1      49.960  26.257  27.232  1.00  0.00     0.040 A 
ATOM     85  C   UNL A   1      48.001  26.201  25.837  1.00  0.00     0.040 A 
ATOM     86  F   UNL A   1      46.312  27.811  26.093  1.00  0.00    -0.206 F 
ATOM     87  C   UNL A   1      49.202  25.624  26.252  1.00  0.00     0.006 A 
ENDBRANCH  59  80
BRANCH  71  88
ATOM     88  C   UNL A   1      44.019  33.836  27.765  1.00  0.00     0.057 A 
ATOM     89  C   UNL A   1      43.923  35.051  28.454  1.00  0.00     0.134 A 
ATOM     90  C   UNL A   1      43.587  33.841  26.428  1.00  0.00     0.134 A 
ATOM     91  F   UNL A   1      44.283  35.140  29.744  1.00  0.00    -0.206 F 
ATOM     92  C   UNL A   1      43.433  36.211  27.844  1.00  0.00     0.040 A 
ATOM     93  C   UNL A   1      43.059  34.981  25.819  1.00  0.00     0.040 A 
ATOM     94  F   UNL A   1      43.675  32.742  25.662  1.00  0.00    -0.206 F 
ATOM     95  C   UNL A   1      42.984  36.174  26.527  1.00  0.00     0.006 A 
ENDBRANCH  71  88
ENDBRANCH  45  46
ENDBRANCH  37  40
ENDBRANCH  35  36
ENDBRANCH  34  35
ENDBRANCH  33  34
ENDBRANCH   1  33
TORSDOF 17
ENDMDL
