MODEL 1
REMARK VINA RESULT:     -11.9      0.000      0.000
REMARK SMILES CSc1ccc([C@H]2[NH2+][C@@H](C(=O)NCCCCNC(=O)c3ccc(-c4c5nc(c(-c6c(F)cccc6F)c6ccc([nH]6)c(-c6c(F)cccc6F)c6nc(c(-c7c(F)cccc7F)c7ccc4[nH]7)C=C6)C=C5)cc3)C(C)(C)S2)cc1
REMARK SMILES IDX 14 1 13 2 12 3 10 4 11 5 9 7 7 8 8 9 77 10 74 13 75 14 76 15
REMARK SMILES IDX 6 16 3 17 4 18 79 19 5 20 78 21 2 22 1 23 15 24 16 25 17 26
REMARK SMILES IDX 18 27 19 29 20 30 21 31 73 32 22 33 72 34 23 35 24 36 25 37
REMARK SMILES IDX 66 38 26 39 71 40 65 41 67 42 27 43 70 44 64 45 63 46 28 48
REMARK SMILES IDX 54 49 37 50 53 51 38 52 41 53 52 54 68 55 39 56 40 57 51 59
REMARK SMILES IDX 69 60 42 61 29 62 30 63 35 64 31 65 32 66 34 67 36 68 33 69
REMARK SMILES IDX 55 70 56 71 61 72 57 73 58 74 60 75 62 76 59 77 43 78 44 79
REMARK SMILES IDX 49 80 45 81 46 82 48 83 50 84 47 85
REMARK H PARENT 12 6 8 11 8 12 17 28 67 47 41 58
REMARK Flexibility Score: inf
ROOT
ATOM      1  C   UNL A   1      31.527  28.179  26.546  1.00  0.00     0.023 C 
ENDROOT
BRANCH   1   2
ATOM      2  C   UNL A   1      31.070  26.894  25.857  1.00  0.00     0.116 C 
BRANCH   2   3
ATOM      3  N   UNL A   1      31.144  25.744  26.736  1.00  0.00    -0.351 N 
ATOM      4  C   UNL A   1      31.496  24.443  26.531  1.00  0.00     0.279 C 
ATOM      5  O   UNL A   1      31.349  23.683  27.496  1.00  0.00    -0.268 OA
ATOM      6  H   UNL A   1      30.889  25.942  27.666  1.00  0.00     0.163 HD
BRANCH   4   7
ATOM      7  C   UNL A   1      32.011  23.885  25.185  1.00  0.00     0.289 C 
ATOM      8  C   UNL A   1      32.276  21.924  23.834  1.00  0.00     0.274 C 
ATOM      9  N   UNL A   1      31.488  22.533  24.904  1.00  0.00    -0.320 N 
ATOM     10  S   UNL A   1      33.860  22.782  23.650  1.00  0.00    -0.081 SA
ATOM     11  H   UNL A   1      31.555  21.959  25.745  1.00  0.00     0.348 HD
ATOM     12  H   UNL A   1      30.512  22.596  24.617  1.00  0.00     0.348 HD
ATOM     13  C   UNL A   1      33.531  24.021  24.953  1.00  0.00     0.077 C 
ATOM     14  C   UNL A   1      34.473  23.700  26.110  1.00  0.00     0.030 C 
ATOM     15  C   UNL A   1      33.874  25.425  24.437  1.00  0.00     0.030 C 
BRANCH   8  16
ATOM     16  C   UNL A   1      32.421  20.426  24.052  1.00  0.00     0.020 A 
ATOM     17  C   UNL A   1      32.896  17.655  24.487  1.00  0.00     0.007 A 
ATOM     18  C   UNL A   1      32.888  18.556  25.553  1.00  0.00     0.015 A 
ATOM     19  C   UNL A   1      32.637  18.147  23.203  1.00  0.00     0.015 A 
ATOM     20  C   UNL A   1      32.662  19.924  25.338  1.00  0.00     0.012 A 
ATOM     21  C   UNL A   1      32.391  19.508  22.989  1.00  0.00     0.012 A 
BRANCH  17  22
ATOM     22  S   UNL A   1      33.205  15.899  24.623  1.00  0.00    -0.130 SA
ATOM     23  C   UNL A   1      34.891  15.815  25.278  1.00  0.00     0.091 C 
ENDBRANCH  17  22
ENDBRANCH   8  16
ENDBRANCH   4   7
ENDBRANCH   2   3
ENDBRANCH   1   2
BRANCH   1  24
ATOM     24  C   UNL A   1      32.880  28.701  26.091  1.00  0.00     0.023 C 
BRANCH  24  25
ATOM     25  C   UNL A   1      33.907  28.840  27.203  1.00  0.00     0.116 C 
BRANCH  25  26
ATOM     26  N   UNL A   1      33.881  30.143  27.856  1.00  0.00    -0.352 N 
ATOM     27  C   UNL A   1      34.882  30.766  28.566  1.00  0.00     0.251 C 
ATOM     28  H   UNL A   1      33.036  30.643  27.778  1.00  0.00     0.163 HD
ATOM     29  O   UNL A   1      34.674  31.813  29.160  1.00  0.00    -0.269 OA
BRANCH  27  30
ATOM     30  C   UNL A   1      36.206  30.118  28.627  1.00  0.00     0.039 A 
ATOM     31  C   UNL A   1      37.051  30.189  27.519  1.00  0.00     0.014 A 
ATOM     32  C   UNL A   1      36.632  29.521  29.816  1.00  0.00     0.014 A 
ATOM     33  C   UNL A   1      38.364  29.731  27.632  1.00  0.00     0.010 A 
ATOM     34  C   UNL A   1      37.962  29.154  29.954  1.00  0.00     0.010 A 
ATOM     35  C   UNL A   1      38.840  29.251  28.863  1.00  0.00    -0.014 A 
BRANCH  35  36
ATOM     36  C   UNL A   1      40.242  28.804  29.037  1.00  0.00     0.031 A 
ATOM     37  C   UNL A   1      41.254  29.767  29.594  1.00  0.00     0.074 A 
ATOM     38  C   UNL A   1      40.621  27.579  28.623  1.00  0.00     0.049 A 
ATOM     39  N   UNL A   1      42.552  29.642  29.691  1.00  0.00    -0.248 NA
ATOM     40  C   UNL A   1      40.739  31.062  30.069  1.00  0.00     0.031 C 
ATOM     41  C   UNL A   1      39.742  26.571  28.028  1.00  0.00     0.029 A 
ATOM     42  N   UNL A   1      41.855  26.980  28.631  1.00  0.00    -0.354 N 
ATOM     43  C   UNL A   1      43.007  30.846  30.212  1.00  0.00     0.074 A 
ATOM     44  C   UNL A   1      41.857  31.710  30.354  1.00  0.00     0.031 C 
ATOM     45  C   UNL A   1      40.459  25.468  27.753  1.00  0.00     0.029 A 
ATOM     46  C   UNL A   1      41.853  25.705  28.116  1.00  0.00     0.049 A 
ATOM     47  H   UNL A   1      42.666  27.420  28.974  1.00  0.00     0.167 HD
ATOM     48  C   UNL A   1      44.265  31.191  30.569  1.00  0.00     0.037 A 
ATOM     49  C   UNL A   1      42.866  24.834  27.952  1.00  0.00     0.037 A 
ATOM     50  C   UNL A   1      45.398  30.313  30.470  1.00  0.00     0.049 A 
ATOM     51  C   UNL A   1      44.253  25.238  28.372  1.00  0.00     0.074 A 
ATOM     52  C   UNL A   1      46.711  30.553  30.834  1.00  0.00     0.029 A 
ATOM     53  N   UNL A   1      45.345  29.015  29.986  1.00  0.00    -0.354 N 
ATOM     54  N   UNL A   1      44.664  26.369  28.890  1.00  0.00    -0.248 NA
ATOM     55  C   UNL A   1      45.317  24.240  28.188  1.00  0.00     0.031 C 
ATOM     56  C   UNL A   1      47.456  29.402  30.556  1.00  0.00     0.029 A 
ATOM     57  C   UNL A   1      46.600  28.438  30.048  1.00  0.00     0.049 A 
ATOM     58  H   UNL A   1      44.534  28.570  29.649  1.00  0.00     0.167 HD
ATOM     59  C   UNL A   1      46.022  26.208  29.127  1.00  0.00     0.074 A 
ATOM     60  C   UNL A   1      46.365  24.867  28.702  1.00  0.00     0.031 C 
ATOM     61  C   UNL A   1      46.908  27.090  29.648  1.00  0.00     0.037 A 
BRANCH  48  62
ATOM     62  C   UNL A   1      44.468  32.569  31.124  1.00  0.00     0.057 A 
ATOM     63  C   UNL A   1      44.327  32.835  32.492  1.00  0.00     0.134 A 
ATOM     64  C   UNL A   1      44.823  33.636  30.290  1.00  0.00     0.134 A 
ATOM     65  F   UNL A   1      43.970  31.860  33.341  1.00  0.00    -0.206 F 
ATOM     66  C   UNL A   1      44.509  34.118  33.009  1.00  0.00     0.040 A 
ATOM     67  C   UNL A   1      45.032  34.919  30.798  1.00  0.00     0.040 A 
ATOM     68  F   UNL A   1      44.975  33.448  28.970  1.00  0.00    -0.206 F 
ATOM     69  C   UNL A   1      44.870  35.164  32.160  1.00  0.00     0.006 A 
ENDBRANCH  48  62
BRANCH  49  70
ATOM     70  C   UNL A   1      42.613  23.481  27.397  1.00  0.00     0.057 A 
ATOM     71  C   UNL A   1      42.701  23.245  26.019  1.00  0.00     0.134 A 
ATOM     72  C   UNL A   1      42.247  22.405  28.213  1.00  0.00     0.134 A 
ATOM     73  F   UNL A   1      43.030  24.242  25.184  1.00  0.00    -0.206 F 
ATOM     74  C   UNL A   1      42.410  21.996  25.469  1.00  0.00     0.040 A 
ATOM     75  C   UNL A   1      41.973  21.145  27.679  1.00  0.00     0.040 A 
ATOM     76  F   UNL A   1      42.151  22.565  29.541  1.00  0.00    -0.206 F 
ATOM     77  C   UNL A   1      42.046  20.939  26.303  1.00  0.00     0.006 A 
ENDBRANCH  49  70
BRANCH  61  78
ATOM     78  C   UNL A   1      48.315  26.614  29.843  1.00  0.00     0.057 A 
ATOM     79  C   UNL A   1      49.302  26.810  28.870  1.00  0.00     0.134 A 
ATOM     80  C   UNL A   1      48.693  25.993  31.040  1.00  0.00     0.134 A 
ATOM     81  F   UNL A   1      48.997  27.387  27.698  1.00  0.00    -0.206 F 
ATOM     82  C   UNL A   1      50.616  26.389  29.076  1.00  0.00     0.040 A 
ATOM     83  C   UNL A   1      50.008  25.588  31.265  1.00  0.00     0.040 A 
ATOM     84  F   UNL A   1      47.793  25.785  32.014  1.00  0.00    -0.206 F 
ATOM     85  C   UNL A   1      50.973  25.783  30.279  1.00  0.00     0.006 A 
ENDBRANCH  61  78
ENDBRANCH  35  36
ENDBRANCH  27  30
ENDBRANCH  25  26
ENDBRANCH  24  25
ENDBRANCH   1  24
TORSDOF 13
ENDMDL
MODEL 2
REMARK VINA RESULT:     -11.7      2.824      8.148
REMARK SMILES CSc1ccc([C@H]2[NH2+][C@@H](C(=O)NCCCCNC(=O)c3ccc(-c4c5nc(c(-c6c(F)cccc6F)c6ccc([nH]6)c(-c6c(F)cccc6F)c6nc(c(-c7c(F)cccc7F)c7ccc4[nH]7)C=C6)C=C5)cc3)C(C)(C)S2)cc1
REMARK SMILES IDX 14 1 13 2 12 3 10 4 11 5 9 7 7 8 8 9 77 10 74 13 75 14 76 15
REMARK SMILES IDX 6 16 3 17 4 18 79 19 5 20 78 21 2 22 1 23 15 24 16 25 17 26
REMARK SMILES IDX 18 27 19 29 20 30 21 31 73 32 22 33 72 34 23 35 24 36 25 37
REMARK SMILES IDX 66 38 26 39 71 40 65 41 67 42 27 43 70 44 64 45 63 46 28 48
REMARK SMILES IDX 54 49 37 50 53 51 38 52 41 53 52 54 68 55 39 56 40 57 51 59
REMARK SMILES IDX 69 60 42 61 29 62 30 63 35 64 31 65 32 66 34 67 36 68 33 69
REMARK SMILES IDX 55 70 56 71 61 72 57 73 58 74 60 75 62 76 59 77 43 78 44 79
REMARK SMILES IDX 49 80 45 81 46 82 48 83 50 84 47 85
REMARK H PARENT 12 6 8 11 8 12 17 28 67 47 41 58
REMARK Flexibility Score: inf
ROOT
ATOM      1  C   UNL A   1      36.884  20.740  24.971  1.00  0.00     0.023 C 
ENDROOT
BRANCH   1   2
ATOM      2  C   UNL A   1      35.469  20.166  25.001  1.00  0.00     0.116 C 
BRANCH   2   3
ATOM      3  N   UNL A   1      34.643  20.795  26.012  1.00  0.00    -0.351 N 
ATOM      4  C   UNL A   1      33.973  21.983  26.053  1.00  0.00     0.279 C 
ATOM      5  O   UNL A   1      33.434  22.264  27.130  1.00  0.00    -0.268 OA
ATOM      6  H   UNL A   1      34.546  20.259  26.832  1.00  0.00     0.163 HD
BRANCH   4   7
ATOM      7  C   UNL A   1      33.894  22.975  24.872  1.00  0.00     0.289 C 
ATOM      8  C   UNL A   1      33.933  25.283  24.229  1.00  0.00     0.274 C 
ATOM      9  N   UNL A   1      34.365  24.325  25.245  1.00  0.00    -0.320 N 
ATOM     10  S   UNL A   1      32.582  24.591  23.242  1.00  0.00    -0.081 SA
ATOM     11  H   UNL A   1      33.970  24.586  26.148  1.00  0.00     0.348 HD
ATOM     12  H   UNL A   1      35.382  24.328  25.307  1.00  0.00     0.348 HD
ATOM     13  C   UNL A   1      32.558  22.977  24.099  1.00  0.00     0.077 C 
ATOM     14  C   UNL A   1      31.258  22.924  24.897  1.00  0.00     0.030 C 
ATOM     15  C   UNL A   1      32.530  21.839  23.070  1.00  0.00     0.030 C 
BRANCH   8  16
ATOM     16  C   UNL A   1      33.596  26.627  24.858  1.00  0.00     0.020 A 
ATOM     17  C   UNL A   1      32.765  29.090  26.013  1.00  0.00     0.007 A 
ATOM     18  C   UNL A   1      32.696  27.900  26.739  1.00  0.00     0.015 A 
ATOM     19  C   UNL A   1      33.279  29.043  24.713  1.00  0.00     0.015 A 
ATOM     20  C   UNL A   1      33.098  26.683  26.167  1.00  0.00     0.012 A 
ATOM     21  C   UNL A   1      33.699  27.834  24.147  1.00  0.00     0.012 A 
BRANCH  17  22
ATOM     22  S   UNL A   1      32.253  30.695  26.613  1.00  0.00    -0.130 SA
ATOM     23  C   UNL A   1      33.655  31.236  27.622  1.00  0.00     0.091 C 
ENDBRANCH  17  22
ENDBRANCH   8  16
ENDBRANCH   4   7
ENDBRANCH   2   3
ENDBRANCH   1   2
BRANCH   1  24
ATOM     24  C   UNL A   1      37.994  19.701  24.968  1.00  0.00     0.023 C 
BRANCH  24  25
ATOM     25  C   UNL A   1      39.195  20.061  25.828  1.00  0.00     0.116 C 
BRANCH  25  26
ATOM     26  N   UNL A   1      40.191  19.000  25.906  1.00  0.00    -0.352 N 
ATOM     27  C   UNL A   1      41.545  19.109  26.124  1.00  0.00     0.251 C 
ATOM     28  H   UNL A   1      39.849  18.084  25.787  1.00  0.00     0.163 HD
ATOM     29  O   UNL A   1      42.277  18.134  26.044  1.00  0.00    -0.269 OA
BRANCH  27  30
ATOM     30  C   UNL A   1      42.102  20.444  26.416  1.00  0.00     0.039 A 
ATOM     31  C   UNL A   1      42.432  21.292  25.358  1.00  0.00     0.014 A 
ATOM     32  C   UNL A   1      42.209  20.876  27.740  1.00  0.00     0.014 A 
ATOM     33  C   UNL A   1      42.793  22.611  25.628  1.00  0.00     0.010 A 
ATOM     34  C   UNL A   1      42.477  22.212  28.000  1.00  0.00     0.010 A 
ATOM     35  C   UNL A   1      42.776  23.091  26.948  1.00  0.00    -0.014 A 
BRANCH  35  36
ATOM     36  C   UNL A   1      43.102  24.501  27.271  1.00  0.00     0.031 A 
ATOM     37  C   UNL A   1      44.537  24.949  27.229  1.00  0.00     0.074 A 
ATOM     38  C   UNL A   1      42.135  25.345  27.679  1.00  0.00     0.049 A 
ATOM     39  N   UNL A   1      45.063  26.082  27.615  1.00  0.00    -0.248 NA
ATOM     40  C   UNL A   1      45.517  23.974  26.721  1.00  0.00     0.031 C 
ATOM     41  C   UNL A   1      40.713  25.018  27.802  1.00  0.00     0.029 A 
ATOM     42  N   UNL A   1      42.208  26.656  28.078  1.00  0.00    -0.354 N 
ATOM     43  C   UNL A   1      46.431  25.945  27.420  1.00  0.00     0.074 A 
ATOM     44  C   UNL A   1      46.661  24.601  26.940  1.00  0.00     0.031 C 
ATOM     45  C   UNL A   1      40.045  26.106  28.219  1.00  0.00     0.029 A 
ATOM     46  C   UNL A   1      40.994  27.194  28.431  1.00  0.00     0.049 A 
ATOM     47  H   UNL A   1      43.051  27.164  28.108  1.00  0.00     0.167 HD
ATOM     48  C   UNL A   1      47.406  26.866  27.595  1.00  0.00     0.037 A 
ATOM     49  C   UNL A   1      40.688  28.426  28.878  1.00  0.00     0.037 A 
ATOM     50  C   UNL A   1      47.169  28.215  28.029  1.00  0.00     0.049 A 
ATOM     51  C   UNL A   1      41.790  29.436  29.051  1.00  0.00     0.074 A 
ATOM     52  C   UNL A   1      48.083  29.238  28.209  1.00  0.00     0.029 A 
ATOM     53  N   UNL A   1      45.920  28.734  28.331  1.00  0.00    -0.354 N 
ATOM     54  N   UNL A   1      43.076  29.302  28.835  1.00  0.00    -0.248 NA
ATOM     55  C   UNL A   1      41.396  30.771  29.525  1.00  0.00     0.031 C 
ATOM     56  C   UNL A   1      47.387  30.373  28.635  1.00  0.00     0.029 A 
ATOM     57  C   UNL A   1      46.037  30.064  28.691  1.00  0.00     0.049 A 
ATOM     58  H   UNL A   1      45.074  28.230  28.295  1.00  0.00     0.167 HD
ATOM     59  C   UNL A   1      43.639  30.540  29.111  1.00  0.00     0.074 A 
ATOM     60  C   UNL A   1      42.553  31.416  29.503  1.00  0.00     0.031 C 
ATOM     61  C   UNL A   1      44.937  30.922  29.046  1.00  0.00     0.037 A 
BRANCH  48  62
ATOM     62  C   UNL A   1      48.813  26.444  27.291  1.00  0.00     0.057 A 
ATOM     63  C   UNL A   1      49.356  26.582  26.008  1.00  0.00     0.134 A 
ATOM     64  C   UNL A   1      49.636  25.912  28.290  1.00  0.00     0.134 A 
ATOM     65  F   UNL A   1      48.612  27.067  25.003  1.00  0.00    -0.206 F 
ATOM     66  C   UNL A   1      50.662  26.183  25.721  1.00  0.00     0.040 A 
ATOM     67  C   UNL A   1      50.953  25.533  28.022  1.00  0.00     0.040 A 
ATOM     68  F   UNL A   1      49.177  25.755  29.541  1.00  0.00    -0.206 F 
ATOM     69  C   UNL A   1      51.467  25.663  26.734  1.00  0.00     0.006 A 
ENDBRANCH  48  62
BRANCH  49  70
ATOM     70  C   UNL A   1      39.280  28.794  29.167  1.00  0.00     0.057 A 
ATOM     71  C   UNL A   1      38.473  29.369  28.176  1.00  0.00     0.134 A 
ATOM     72  C   UNL A   1      38.715  28.614  30.434  1.00  0.00     0.134 A 
ATOM     73  F   UNL A   1      38.964  29.583  26.947  1.00  0.00    -0.206 F 
ATOM     74  C   UNL A   1      37.164  29.777  28.443  1.00  0.00     0.040 A 
ATOM     75  C   UNL A   1      37.401  28.998  30.709  1.00  0.00     0.040 A 
ATOM     76  F   UNL A   1      39.433  28.064  31.423  1.00  0.00    -0.206 F 
ATOM     77  C   UNL A   1      36.625  29.589  29.714  1.00  0.00     0.006 A 
ENDBRANCH  49  70
BRANCH  61  78
ATOM     78  C   UNL A   1      45.246  32.355  29.350  1.00  0.00     0.057 A 
ATOM     79  C   UNL A   1      45.209  33.344  28.360  1.00  0.00     0.134 A 
ATOM     80  C   UNL A   1      45.538  32.755  30.661  1.00  0.00     0.134 A 
ATOM     81  F   UNL A   1      44.948  33.020  27.085  1.00  0.00    -0.206 F 
ATOM     82  C   UNL A   1      45.468  34.681  28.662  1.00  0.00     0.040 A 
ATOM     83  C   UNL A   1      45.777  34.091  30.977  1.00  0.00     0.040 A 
ATOM     84  F   UNL A   1      45.580  31.853  31.654  1.00  0.00    -0.206 F 
ATOM     85  C   UNL A   1      45.746  35.059  29.975  1.00  0.00     0.006 A 
ENDBRANCH  61  78
ENDBRANCH  35  36
ENDBRANCH  27  30
ENDBRANCH  25  26
ENDBRANCH  24  25
ENDBRANCH   1  24
TORSDOF 13
ENDMDL
MODEL 3
REMARK VINA RESULT:     -11.6      3.619      8.727
REMARK SMILES CSc1ccc([C@H]2[NH2+][C@@H](C(=O)NCCCCNC(=O)c3ccc(-c4c5nc(c(-c6c(F)cccc6F)c6ccc([nH]6)c(-c6c(F)cccc6F)c6nc(c(-c7c(F)cccc7F)c7ccc4[nH]7)C=C6)C=C5)cc3)C(C)(C)S2)cc1
REMARK SMILES IDX 14 1 13 2 12 3 10 4 11 5 9 7 7 8 8 9 77 10 74 13 75 14 76 15
REMARK SMILES IDX 6 16 3 17 4 18 79 19 5 20 78 21 2 22 1 23 15 24 16 25 17 26
REMARK SMILES IDX 18 27 19 29 20 30 21 31 73 32 22 33 72 34 23 35 24 36 25 37
REMARK SMILES IDX 66 38 26 39 71 40 65 41 67 42 27 43 70 44 64 45 63 46 28 48
REMARK SMILES IDX 54 49 37 50 53 51 38 52 41 53 52 54 68 55 39 56 40 57 51 59
REMARK SMILES IDX 69 60 42 61 29 62 30 63 35 64 31 65 32 66 34 67 36 68 33 69
REMARK SMILES IDX 55 70 56 71 61 72 57 73 58 74 60 75 62 76 59 77 43 78 44 79
REMARK SMILES IDX 49 80 45 81 46 82 48 83 50 84 47 85
REMARK H PARENT 12 6 8 11 8 12 17 28 67 47 41 58
REMARK Flexibility Score: inf
ROOT
ATOM      1  C   UNL A   1      35.323  22.078  24.515  1.00  0.00     0.023 C 
ENDROOT
BRANCH   1   2
ATOM      2  C   UNL A   1      33.943  22.262  23.885  1.00  0.00     0.116 C 
BRANCH   2   3
ATOM      3  N   UNL A   1      33.947  23.266  22.840  1.00  0.00    -0.351 N 
ATOM      4  C   UNL A   1      33.227  24.409  22.652  1.00  0.00     0.279 C 
ATOM      5  O   UNL A   1      33.413  24.996  21.579  1.00  0.00    -0.268 OA
ATOM      6  H   UNL A   1      34.598  23.087  22.124  1.00  0.00     0.163 HD
BRANCH   4   7
ATOM      7  C   UNL A   1      32.197  24.962  23.661  1.00  0.00     0.289 C 
ATOM      8  C   UNL A   1      30.328  26.430  23.970  1.00  0.00     0.274 C 
ATOM      9  N   UNL A   1      31.060  25.627  22.992  1.00  0.00    -0.320 N 
ATOM     10  S   UNL A   1      31.356  26.742  25.427  1.00  0.00    -0.081 SA
ATOM     11  H   UNL A   1      31.408  26.230  22.248  1.00  0.00     0.348 HD
ATOM     12  H   UNL A   1      30.439  24.923  22.594  1.00  0.00     0.348 HD
ATOM     13  C   UNL A   1      32.790  25.779  24.830  1.00  0.00     0.077 C 
ATOM     14  C   UNL A   1      33.897  26.785  24.523  1.00  0.00     0.030 C 
ATOM     15  C   UNL A   1      33.292  24.845  25.939  1.00  0.00     0.030 C 
BRANCH   8  16
ATOM     16  C   UNL A   1      29.784  27.699  23.330  1.00  0.00     0.020 A 
ATOM     17  C   UNL A   1      28.696  29.953  21.978  1.00  0.00     0.007 A 
ATOM     18  C   UNL A   1      27.868  29.059  22.659  1.00  0.00     0.015 A 
ATOM     19  C   UNL A   1      30.076  29.726  22.002  1.00  0.00     0.015 A 
ATOM     20  C   UNL A   1      28.403  27.942  23.319  1.00  0.00     0.012 A 
ATOM     21  C   UNL A   1      30.613  28.624  22.676  1.00  0.00     0.012 A 
BRANCH  17  22
ATOM     22  S   UNL A   1      28.137  31.389  21.071  1.00  0.00    -0.130 SA
ATOM     23  C   UNL A   1      28.485  32.763  22.199  1.00  0.00     0.091 C 
ENDBRANCH  17  22
ENDBRANCH   8  16
ENDBRANCH   4   7
ENDBRANCH   2   3
ENDBRANCH   1   2
BRANCH   1  24
ATOM     24  C   UNL A   1      36.338  23.149  24.151  1.00  0.00     0.023 C 
BRANCH  24  25
ATOM     25  C   UNL A   1      37.207  23.611  25.309  1.00  0.00     0.116 C 
BRANCH  25  26
ATOM     26  N   UNL A   1      38.379  22.771  25.525  1.00  0.00    -0.352 N 
ATOM     27  C   UNL A   1      39.543  23.078  26.191  1.00  0.00     0.251 C 
ATOM     28  H   UNL A   1      38.330  21.865  25.144  1.00  0.00     0.163 HD
ATOM     29  O   UNL A   1      40.491  22.309  26.190  1.00  0.00    -0.269 OA
BRANCH  27  30
ATOM     30  C   UNL A   1      39.635  24.382  26.877  1.00  0.00     0.039 A 
ATOM     31  C   UNL A   1      39.090  24.519  28.155  1.00  0.00     0.014 A 
ATOM     32  C   UNL A   1      40.339  25.431  26.283  1.00  0.00     0.014 A 
ATOM     33  C   UNL A   1      39.325  25.690  28.874  1.00  0.00     0.010 A 
ATOM     34  C   UNL A   1      40.650  26.554  27.035  1.00  0.00     0.010 A 
ATOM     35  C   UNL A   1      40.143  26.697  28.336  1.00  0.00    -0.014 A 
BRANCH  35  36
ATOM     36  C   UNL A   1      40.459  27.933  29.090  1.00  0.00     0.031 A 
ATOM     37  C   UNL A   1      41.792  28.052  29.777  1.00  0.00     0.074 A 
ATOM     38  C   UNL A   1      39.531  28.901  29.228  1.00  0.00     0.049 A 
ATOM     39  N   UNL A   1      42.218  28.968  30.606  1.00  0.00    -0.248 NA
ATOM     40  C   UNL A   1      42.760  26.971  29.526  1.00  0.00     0.031 C 
ATOM     41  C   UNL A   1      38.188  28.883  28.645  1.00  0.00     0.029 A 
ATOM     42  N   UNL A   1      39.578  30.087  29.915  1.00  0.00    -0.354 N 
ATOM     43  C   UNL A   1      43.488  28.561  30.993  1.00  0.00     0.074 A 
ATOM     44  C   UNL A   1      43.740  27.288  30.357  1.00  0.00     0.031 C 
ATOM     45  C   UNL A   1      37.549  30.017  28.977  1.00  0.00     0.029 A 
ATOM     46  C   UNL A   1      38.421  30.823  29.827  1.00  0.00     0.049 A 
ATOM     47  H   UNL A   1      40.367  30.384  30.424  1.00  0.00     0.167 HD
ATOM     48  C   UNL A   1      44.378  29.205  31.783  1.00  0.00     0.037 A 
ATOM     49  C   UNL A   1      38.104  32.010  30.376  1.00  0.00     0.037 A 
ATOM     50  C   UNL A   1      44.142  30.492  32.376  1.00  0.00     0.049 A 
ATOM     51  C   UNL A   1      39.117  32.712  31.238  1.00  0.00     0.074 A 
ATOM     52  C   UNL A   1      44.989  31.247  33.168  1.00  0.00     0.029 A 
ATOM     53  N   UNL A   1      42.975  31.224  32.224  1.00  0.00    -0.354 N 
ATOM     54  N   UNL A   1      40.325  32.329  31.572  1.00  0.00    -0.248 NA
ATOM     55  C   UNL A   1      38.723  34.013  31.797  1.00  0.00     0.031 C 
ATOM     56  C   UNL A   1      44.327  32.431  33.507  1.00  0.00     0.029 A 
ATOM     57  C   UNL A   1      43.081  32.425  32.901  1.00  0.00     0.049 A 
ATOM     58  H   UNL A   1      42.187  30.932  31.710  1.00  0.00     0.167 HD
ATOM     59  C   UNL A   1      40.849  33.355  32.347  1.00  0.00     0.074 A 
ATOM     60  C   UNL A   1      39.829  34.380  32.428  1.00  0.00     0.031 C 
ATOM     61  C   UNL A   1      42.063  33.443  32.940  1.00  0.00     0.037 A 
BRANCH  48  62
ATOM     62  C   UNL A   1      45.695  28.531  32.024  1.00  0.00     0.057 A 
ATOM     63  C   UNL A   1      46.791  28.744  31.178  1.00  0.00     0.134 A 
ATOM     64  C   UNL A   1      45.877  27.677  33.118  1.00  0.00     0.134 A 
ATOM     65  F   UNL A   1      46.676  29.537  30.102  1.00  0.00    -0.206 F 
ATOM     66  C   UNL A   1      48.016  28.113  31.397  1.00  0.00     0.040 A 
ATOM     67  C   UNL A   1      47.105  27.059  33.362  1.00  0.00     0.040 A 
ATOM     68  F   UNL A   1      44.868  27.432  33.967  1.00  0.00    -0.206 F 
ATOM     69  C   UNL A   1      48.177  27.272  32.497  1.00  0.00     0.006 A 
ENDBRANCH  48  62
BRANCH  49  70
ATOM     70  C   UNL A   1      36.784  32.634  30.107  1.00  0.00     0.057 A 
ATOM     71  C   UNL A   1      36.617  33.522  29.036  1.00  0.00     0.134 A 
ATOM     72  C   UNL A   1      35.673  32.391  30.923  1.00  0.00     0.134 A 
ATOM     73  F   UNL A   1      37.650  33.807  28.231  1.00  0.00    -0.206 F 
ATOM     74  C   UNL A   1      35.401  34.165  28.801  1.00  0.00     0.040 A 
ATOM     75  C   UNL A   1      34.445  33.012  30.686  1.00  0.00     0.040 A 
ATOM     76  F   UNL A   1      35.767  31.547  31.960  1.00  0.00    -0.206 F 
ATOM     77  C   UNL A   1      34.309  33.908  29.629  1.00  0.00     0.006 A 
ENDBRANCH  49  70
BRANCH  61  78
ATOM     78  C   UNL A   1      42.377  34.709  33.675  1.00  0.00     0.057 A 
ATOM     79  C   UNL A   1      42.915  35.826  33.026  1.00  0.00     0.134 A 
ATOM     80  C   UNL A   1      42.091  34.824  35.041  1.00  0.00     0.134 A 
ATOM     81  F   UNL A   1      43.222  35.771  31.721  1.00  0.00    -0.206 F 
ATOM     82  C   UNL A   1      43.174  37.011  33.716  1.00  0.00     0.040 A 
ATOM     83  C   UNL A   1      42.325  36.010  35.736  1.00  0.00     0.040 A 
ATOM     84  F   UNL A   1      41.566  33.790  35.717  1.00  0.00    -0.206 F 
ATOM     85  C   UNL A   1      42.872  37.107  35.073  1.00  0.00     0.006 A 
ENDBRANCH  61  78
ENDBRANCH  35  36
ENDBRANCH  27  30
ENDBRANCH  25  26
ENDBRANCH  24  25
ENDBRANCH   1  24
TORSDOF 13
ENDMDL
