MODEL 1
REMARK VINA RESULT:     -10.6      0.000      0.000
REMARK SMILES C[C@@H](NC(=O)C[C@H]1CCCCO1)C(=O)NCCCCNC(=O)c1ccc(-c2c3nc(c(-c4c(F)cccc4F)c4ccc([nH]4)c(-c4c(F)cccc4F)c4nc(c(-c5c(F)cccc5F)c5ccc2[nH]5)C=C4)C=C3)cc1
REMARK SMILES IDX 17 1 16 2 15 3 13 4 14 5 2 7 1 8 3 9 4 10 5 12 6 13 7 14
REMARK SMILES IDX 8 15 12 16 9 17 11 18 10 19 18 20 19 21 20 22 21 23 22 25
REMARK SMILES IDX 23 26 24 27 76 28 25 29 75 30 26 31 27 32 28 33 69 34 29 35
REMARK SMILES IDX 74 36 68 37 70 38 30 39 73 40 67 41 66 42 31 44 57 45 40 46
REMARK SMILES IDX 56 47 41 48 44 49 55 50 71 51 42 52 43 53 54 55 72 56 45 57
REMARK SMILES IDX 32 58 33 59 38 60 34 61 35 62 37 63 39 64 36 65 58 66 59 67
REMARK SMILES IDX 64 68 60 69 61 70 63 71 65 72 62 73 46 74 47 75 52 76 48 77
REMARK SMILES IDX 49 78 51 79 53 80 50 81
REMARK H PARENT 15 6 3 11 20 24 70 43 44 54
REMARK Flexibility Score: inf
ROOT
ATOM      1  C   UNL A   1      32.404  27.570  26.225  1.00  0.00     0.023 C 
ENDROOT
BRANCH   1   2
ATOM      2  C   UNL A   1      31.042  26.988  25.829  1.00  0.00     0.116 C 
BRANCH   2   3
ATOM      3  N   UNL A   1      30.703  25.731  26.476  1.00  0.00    -0.354 N 
ATOM      4  C   UNL A   1      31.159  24.457  26.284  1.00  0.00     0.242 C 
ATOM      5  O   UNL A   1      31.031  23.702  27.259  1.00  0.00    -0.273 OA
ATOM      6  H   UNL A   1      30.021  25.812  27.181  1.00  0.00     0.163 HD
BRANCH   4   7
ATOM      7  C   UNL A   1      31.872  23.916  25.002  1.00  0.00     0.168 C 
ATOM      8  C   UNL A   1      30.918  23.734  23.822  1.00  0.00     0.041 C 
BRANCH   7   9
ATOM      9  N   UNL A   1      33.130  24.491  24.492  1.00  0.00    -0.345 N 
ATOM     10  C   UNL A   1      33.892  24.055  23.443  1.00  0.00     0.223 C 
ATOM     11  H   UNL A   1      33.463  25.288  24.965  1.00  0.00     0.164 HD
ATOM     12  O   UNL A   1      34.132  24.844  22.527  1.00  0.00    -0.275 OA
BRANCH  10  13
ATOM     13  C   UNL A   1      34.497  22.671  23.471  1.00  0.00     0.132 C 
BRANCH  13  14
ATOM     14  C   UNL A   1      35.662  22.657  24.441  1.00  0.00     0.127 C 
ATOM     15  C   UNL A   1      36.924  22.008  23.908  1.00  0.00     0.033 C 
ATOM     16  O   UNL A   1      36.020  23.982  24.854  1.00  0.00    -0.378 OA
ATOM     17  C   UNL A   1      37.847  21.814  25.104  1.00  0.00     0.005 C 
ATOM     18  C   UNL A   1      36.757  23.945  26.073  1.00  0.00     0.160 C 
ATOM     19  C   UNL A   1      38.009  23.075  25.960  1.00  0.00     0.029 C 
ENDBRANCH  13  14
ENDBRANCH  10  13
ENDBRANCH   7   9
ENDBRANCH   4   7
ENDBRANCH   2   3
ENDBRANCH   1   2
BRANCH   1  20
ATOM     20  C   UNL A   1      32.445  28.888  27.017  1.00  0.00     0.023 C 
BRANCH  20  21
ATOM     21  C   UNL A   1      33.717  29.742  27.030  1.00  0.00     0.116 C 
BRANCH  21  22
ATOM     22  N   UNL A   1      33.778  30.823  27.998  1.00  0.00    -0.352 N 
ATOM     23  C   UNL A   1      34.841  31.180  28.813  1.00  0.00     0.251 C 
ATOM     24  H   UNL A   1      32.965  31.370  28.085  1.00  0.00     0.163 HD
ATOM     25  O   UNL A   1      34.757  32.136  29.557  1.00  0.00    -0.269 OA
BRANCH  23  26
ATOM     26  C   UNL A   1      36.069  30.340  28.819  1.00  0.00     0.039 A 
ATOM     27  C   UNL A   1      36.871  30.324  27.675  1.00  0.00     0.014 A 
ATOM     28  C   UNL A   1      36.464  29.634  29.955  1.00  0.00     0.014 A 
ATOM     29  C   UNL A   1      38.129  29.717  27.723  1.00  0.00     0.010 A 
ATOM     30  C   UNL A   1      37.737  29.065  30.019  1.00  0.00     0.010 A 
ATOM     31  C   UNL A   1      38.601  29.148  28.919  1.00  0.00    -0.014 A 
BRANCH  31  32
ATOM     32  C   UNL A   1      40.039  28.802  29.072  1.00  0.00     0.031 A 
ATOM     33  C   UNL A   1      41.038  29.777  29.620  1.00  0.00     0.074 A 
ATOM     34  C   UNL A   1      40.456  27.598  28.629  1.00  0.00     0.049 A 
ATOM     35  N   UNL A   1      42.321  29.609  29.828  1.00  0.00    -0.248 NA
ATOM     36  C   UNL A   1      40.544  31.120  29.957  1.00  0.00     0.031 C 
ATOM     37  C   UNL A   1      39.601  26.592  27.992  1.00  0.00     0.029 A 
ATOM     38  N   UNL A   1      41.697  27.012  28.642  1.00  0.00    -0.354 N 
ATOM     39  C   UNL A   1      42.787  30.818  30.326  1.00  0.00     0.074 A 
ATOM     40  C   UNL A   1      41.660  31.728  30.339  1.00  0.00     0.031 C 
ATOM     41  C   UNL A   1      40.334  25.505  27.707  1.00  0.00     0.029 A 
ATOM     42  C   UNL A   1      41.713  25.743  28.117  1.00  0.00     0.049 A 
ATOM     43  H   UNL A   1      42.500  27.461  28.995  1.00  0.00     0.167 HD
ATOM     44  C   UNL A   1      44.035  31.133  30.754  1.00  0.00     0.037 A 
ATOM     45  C   UNL A   1      42.723  24.862  27.985  1.00  0.00     0.037 A 
ATOM     46  C   UNL A   1      45.156  30.228  30.741  1.00  0.00     0.049 A 
ATOM     47  C   UNL A   1      44.090  25.229  28.486  1.00  0.00     0.074 A 
ATOM     48  C   UNL A   1      46.442  30.440  31.209  1.00  0.00     0.029 A 
ATOM     49  N   UNL A   1      45.127  28.940  30.229  1.00  0.00    -0.354 N 
ATOM     50  N   UNL A   1      44.490  26.342  29.048  1.00  0.00    -0.248 NA
ATOM     51  C   UNL A   1      45.142  24.213  28.342  1.00  0.00     0.031 C 
ATOM     52  C   UNL A   1      47.201  29.293  30.946  1.00  0.00     0.029 A 
ATOM     53  C   UNL A   1      46.377  28.353  30.352  1.00  0.00     0.049 A 
ATOM     54  H   UNL A   1      44.336  28.506  29.835  1.00  0.00     0.167 HD
ATOM     55  C   UNL A   1      45.833  26.153  29.347  1.00  0.00     0.074 A 
ATOM     56  C   UNL A   1      46.175  24.812  28.919  1.00  0.00     0.031 C 
ATOM     57  C   UNL A   1      46.704  27.015  29.926  1.00  0.00     0.037 A 
BRANCH  44  58
ATOM     58  C   UNL A   1      44.250  32.518  31.290  1.00  0.00     0.057 A 
ATOM     59  C   UNL A   1      44.636  33.574  30.454  1.00  0.00     0.134 A 
ATOM     60  C   UNL A   1      44.027  32.812  32.641  1.00  0.00     0.134 A 
ATOM     61  F   UNL A   1      44.870  33.357  29.151  1.00  0.00    -0.206 F 
ATOM     62  C   UNL A   1      44.819  34.867  30.947  1.00  0.00     0.040 A 
ATOM     63  C   UNL A   1      44.185  34.106  33.141  1.00  0.00     0.040 A 
ATOM     64  F   UNL A   1      43.644  31.850  33.494  1.00  0.00    -0.206 F 
ATOM     65  C   UNL A   1      44.587  35.136  32.294  1.00  0.00     0.006 A 
ENDBRANCH  44  58
BRANCH  45  66
ATOM     66  C   UNL A   1      42.466  23.527  27.391  1.00  0.00     0.057 A 
ATOM     67  C   UNL A   1      42.564  23.322  26.010  1.00  0.00     0.134 A 
ATOM     68  C   UNL A   1      42.116  22.428  28.184  1.00  0.00     0.134 A 
ATOM     69  F   UNL A   1      42.881  24.341  25.198  1.00  0.00    -0.206 F 
ATOM     70  C   UNL A   1      42.304  22.077  25.435  1.00  0.00     0.040 A 
ATOM     71  C   UNL A   1      41.875  21.172  27.625  1.00  0.00     0.040 A 
ATOM     72  F   UNL A   1      42.019  22.557  29.515  1.00  0.00    -0.206 F 
ATOM     73  C   UNL A   1      41.961  20.996  26.245  1.00  0.00     0.006 A 
ENDBRANCH  45  66
BRANCH  57  74
ATOM     74  C   UNL A   1      48.104  26.526  30.150  1.00  0.00     0.057 A 
ATOM     75  C   UNL A   1      48.471  25.854  31.323  1.00  0.00     0.134 A 
ATOM     76  C   UNL A   1      49.086  26.701  29.168  1.00  0.00     0.134 A 
ATOM     77  F   UNL A   1      47.579  25.670  32.309  1.00  0.00    -0.206 F 
ATOM     78  C   UNL A   1      49.772  25.391  31.520  1.00  0.00     0.040 A 
ATOM     79  C   UNL A   1      50.385  26.222  29.344  1.00  0.00     0.040 A 
ATOM     80  F   UNL A   1      48.798  27.332  28.020  1.00  0.00    -0.206 F 
ATOM     81  C   UNL A   1      50.733  25.568  30.525  1.00  0.00     0.006 A 
ENDBRANCH  57  74
ENDBRANCH  31  32
ENDBRANCH  23  26
ENDBRANCH  21  22
ENDBRANCH  20  21
ENDBRANCH   1  20
TORSDOF 14
ENDMDL
MODEL 2
REMARK VINA RESULT:     -10.6      1.907      7.415
REMARK SMILES C[C@@H](NC(=O)C[C@H]1CCCCO1)C(=O)NCCCCNC(=O)c1ccc(-c2c3nc(c(-c4c(F)cccc4F)c4ccc([nH]4)c(-c4c(F)cccc4F)c4nc(c(-c5c(F)cccc5F)c5ccc2[nH]5)C=C4)C=C3)cc1
REMARK SMILES IDX 17 1 16 2 15 3 13 4 14 5 2 7 1 8 3 9 4 10 5 12 6 13 7 14
REMARK SMILES IDX 8 15 12 16 9 17 11 18 10 19 18 20 19 21 20 22 21 23 22 25
REMARK SMILES IDX 23 26 24 27 76 28 25 29 75 30 26 31 27 32 28 33 69 34 29 35
REMARK SMILES IDX 74 36 68 37 70 38 30 39 73 40 67 41 66 42 31 44 57 45 40 46
REMARK SMILES IDX 56 47 41 48 44 49 55 50 71 51 42 52 43 53 54 55 72 56 45 57
REMARK SMILES IDX 32 58 33 59 38 60 34 61 35 62 37 63 39 64 36 65 58 66 59 67
REMARK SMILES IDX 64 68 60 69 61 70 63 71 65 72 62 73 46 74 47 75 52 76 48 77
REMARK SMILES IDX 49 78 51 79 53 80 50 81
REMARK H PARENT 15 6 3 11 20 24 70 43 44 54
REMARK Flexibility Score: inf
ROOT
ATOM      1  C   UNL A   1      36.807  22.972  24.256  1.00  0.00     0.023 C 
ENDROOT
BRANCH   1   2
ATOM      2  C   UNL A   1      35.797  23.853  25.001  1.00  0.00     0.116 C 
BRANCH   2   3
ATOM      3  N   UNL A   1      34.787  24.470  24.159  1.00  0.00    -0.354 N 
ATOM      4  C   UNL A   1      33.844  25.425  24.419  1.00  0.00     0.242 C 
ATOM      5  O   UNL A   1      33.451  26.057  23.428  1.00  0.00    -0.273 OA
ATOM      6  H   UNL A   1      34.781  24.142  23.231  1.00  0.00     0.163 HD
BRANCH   4   7
ATOM      7  C   UNL A   1      33.294  25.818  25.829  1.00  0.00     0.168 C 
ATOM      8  C   UNL A   1      33.597  27.269  26.203  1.00  0.00     0.041 C 
BRANCH   7   9
ATOM      9  N   UNL A   1      31.917  25.511  26.256  1.00  0.00    -0.345 N 
ATOM     10  C   UNL A   1      31.282  24.299  26.245  1.00  0.00     0.223 C 
ATOM     11  H   UNL A   1      31.389  26.271  26.591  1.00  0.00     0.164 HD
ATOM     12  O   UNL A   1      30.818  23.873  27.305  1.00  0.00    -0.275 OA
BRANCH  10  13
ATOM     13  C   UNL A   1      31.078  23.562  24.943  1.00  0.00     0.132 C 
BRANCH  13  14
ATOM     14  C   UNL A   1      31.848  22.256  24.984  1.00  0.00     0.127 C 
ATOM     15  C   UNL A   1      32.281  21.732  23.629  1.00  0.00     0.033 C 
ATOM     16  O   UNL A   1      33.032  22.369  25.784  1.00  0.00    -0.378 OA
ATOM     17  C   UNL A   1      32.746  20.299  23.850  1.00  0.00     0.005 C 
ATOM     18  C   UNL A   1      33.479  21.081  26.200  1.00  0.00     0.160 C 
ATOM     19  C   UNL A   1      33.732  20.150  25.014  1.00  0.00     0.029 C 
ENDBRANCH  13  14
ENDBRANCH  10  13
ENDBRANCH   7   9
ENDBRANCH   4   7
ENDBRANCH   2   3
ENDBRANCH   1   2
BRANCH   1  20
ATOM     20  C   UNL A   1      37.224  21.630  24.882  1.00  0.00     0.023 C 
BRANCH  20  21
ATOM     21  C   UNL A   1      38.530  21.521  25.676  1.00  0.00     0.116 C 
BRANCH  21  22
ATOM     22  N   UNL A   1      39.299  20.299  25.519  1.00  0.00    -0.352 N 
ATOM     23  C   UNL A   1      40.589  20.039  25.956  1.00  0.00     0.251 C 
ATOM     24  H   UNL A   1      38.848  19.564  25.045  1.00  0.00     0.163 HD
ATOM     25  O   UNL A   1      41.096  18.950  25.779  1.00  0.00    -0.269 OA
BRANCH  23  26
ATOM     26  C   UNL A   1      41.378  21.131  26.587  1.00  0.00     0.039 A 
ATOM     27  C   UNL A   1      42.051  22.032  25.758  1.00  0.00     0.014 A 
ATOM     28  C   UNL A   1      41.400  21.309  27.970  1.00  0.00     0.014 A 
ATOM     29  C   UNL A   1      42.623  23.182  26.309  1.00  0.00     0.010 A 
ATOM     30  C   UNL A   1      41.932  22.478  28.517  1.00  0.00     0.010 A 
ATOM     31  C   UNL A   1      42.502  23.450  27.684  1.00  0.00    -0.014 A 
BRANCH  31  32
ATOM     32  C   UNL A   1      42.809  24.803  28.218  1.00  0.00     0.031 A 
ATOM     33  C   UNL A   1      44.193  25.193  28.646  1.00  0.00     0.074 A 
ATOM     34  C   UNL A   1      41.789  25.668  28.390  1.00  0.00     0.049 A 
ATOM     35  N   UNL A   1      44.614  26.343  29.114  1.00  0.00    -0.248 NA
ATOM     36  C   UNL A   1      45.234  24.159  28.561  1.00  0.00     0.031 C 
ATOM     37  C   UNL A   1      40.382  25.380  28.099  1.00  0.00     0.029 A 
ATOM     38  N   UNL A   1      41.771  26.961  28.850  1.00  0.00    -0.354 N 
ATOM     39  C   UNL A   1      45.968  26.175  29.372  1.00  0.00     0.074 A 
ATOM     40  C   UNL A   1      46.286  24.797  29.060  1.00  0.00     0.031 C 
ATOM     41  C   UNL A   1      39.645  26.472  28.355  1.00  0.00     0.029 A 
ATOM     42  C   UNL A   1      40.519  27.528  28.850  1.00  0.00     0.049 A 
ATOM     43  H   UNL A   1      42.579  27.436  29.152  1.00  0.00     0.167 HD
ATOM     44  C   UNL A   1      46.867  27.092  29.809  1.00  0.00     0.037 A 
ATOM     45  C   UNL A   1      40.118  28.764  29.202  1.00  0.00     0.037 A 
ATOM     46  C   UNL A   1      46.550  28.463  30.119  1.00  0.00     0.049 A 
ATOM     47  C   UNL A   1      41.136  29.766  29.663  1.00  0.00     0.074 A 
ATOM     48  C   UNL A   1      47.405  29.479  30.512  1.00  0.00     0.029 A 
ATOM     49  N   UNL A   1      45.276  29.010  30.080  1.00  0.00    -0.354 N 
ATOM     50  N   UNL A   1      42.430  29.620  29.805  1.00  0.00    -0.248 NA
ATOM     51  C   UNL A   1      40.640  31.107  30.002  1.00  0.00     0.031 C 
ATOM     52  C   UNL A   1      46.644  30.631  30.744  1.00  0.00     0.029 A 
ATOM     53  C   UNL A   1      45.320  30.342  30.458  1.00  0.00     0.049 A 
ATOM     54  H   UNL A   1      44.461  28.522  29.821  1.00  0.00     0.167 HD
ATOM     55  C   UNL A   1      42.906  30.854  30.226  1.00  0.00     0.074 A 
ATOM     56  C   UNL A   1      41.764  31.742  30.302  1.00  0.00     0.031 C 
ATOM     57  C   UNL A   1      44.177  31.217  30.524  1.00  0.00     0.037 A 
BRANCH  44  58
ATOM     58  C   UNL A   1      48.290  26.642  29.961  1.00  0.00     0.057 A 
ATOM     59  C   UNL A   1      48.733  25.999  31.124  1.00  0.00     0.134 A 
ATOM     60  C   UNL A   1      49.216  26.812  28.925  1.00  0.00     0.134 A 
ATOM     61  F   UNL A   1      47.896  25.811  32.157  1.00  0.00    -0.206 F 
ATOM     62  C   UNL A   1      50.052  25.564  31.262  1.00  0.00     0.040 A 
ATOM     63  C   UNL A   1      50.532  26.360  29.041  1.00  0.00     0.040 A 
ATOM     64  F   UNL A   1      48.855  27.410  27.779  1.00  0.00    -0.206 F 
ATOM     65  C   UNL A   1      50.954  25.739  30.214  1.00  0.00     0.006 A 
ENDBRANCH  44  58
BRANCH  45  66
ATOM     66  C   UNL A   1      38.686  29.136  29.089  1.00  0.00     0.057 A 
ATOM     67  C   UNL A   1      38.143  29.550  27.867  1.00  0.00     0.134 A 
ATOM     68  C   UNL A   1      37.828  29.091  30.195  1.00  0.00     0.134 A 
ATOM     69  F   UNL A   1      38.920  29.628  26.777  1.00  0.00    -0.206 F 
ATOM     70  C   UNL A   1      36.804  29.925  27.751  1.00  0.00     0.040 A 
ATOM     71  C   UNL A   1      36.482  29.441  30.088  1.00  0.00     0.040 A 
ATOM     72  F   UNL A   1      38.285  28.690  31.390  1.00  0.00    -0.206 F 
ATOM     73  C   UNL A   1      35.968  29.867  28.865  1.00  0.00     0.006 A 
ENDBRANCH  45  66
BRANCH  57  74
ATOM     74  C   UNL A   1      44.403  32.642  30.936  1.00  0.00     0.057 A 
ATOM     75  C   UNL A   1      44.656  33.650  29.997  1.00  0.00     0.134 A 
ATOM     76  C   UNL A   1      44.334  33.014  32.284  1.00  0.00     0.134 A 
ATOM     77  F   UNL A   1      44.750  33.354  28.692  1.00  0.00    -0.206 F 
ATOM     78  C   UNL A   1      44.852  34.975  30.386  1.00  0.00     0.040 A 
ATOM     79  C   UNL A   1      44.506  34.340  32.683  1.00  0.00     0.040 A 
ATOM     80  F   UNL A   1      44.091  32.098  33.233  1.00  0.00    -0.206 F 
ATOM     81  C   UNL A   1      44.771  35.325  31.733  1.00  0.00     0.006 A 
ENDBRANCH  57  74
ENDBRANCH  31  32
ENDBRANCH  23  26
ENDBRANCH  21  22
ENDBRANCH  20  21
ENDBRANCH   1  20
TORSDOF 14
ENDMDL
MODEL 3
REMARK VINA RESULT:     -10.5      1.956      7.200
REMARK SMILES C[C@@H](NC(=O)C[C@H]1CCCCO1)C(=O)NCCCCNC(=O)c1ccc(-c2c3nc(c(-c4c(F)cccc4F)c4ccc([nH]4)c(-c4c(F)cccc4F)c4nc(c(-c5c(F)cccc5F)c5ccc2[nH]5)C=C4)C=C3)cc1
REMARK SMILES IDX 17 1 16 2 15 3 13 4 14 5 2 7 1 8 3 9 4 10 5 12 6 13 7 14
REMARK SMILES IDX 8 15 12 16 9 17 11 18 10 19 18 20 19 21 20 22 21 23 22 25
REMARK SMILES IDX 23 26 24 27 76 28 25 29 75 30 26 31 27 32 28 33 69 34 29 35
REMARK SMILES IDX 74 36 68 37 70 38 30 39 73 40 67 41 66 42 31 44 57 45 40 46
REMARK SMILES IDX 56 47 41 48 44 49 55 50 71 51 42 52 43 53 54 55 72 56 45 57
REMARK SMILES IDX 32 58 33 59 38 60 34 61 35 62 37 63 39 64 36 65 58 66 59 67
REMARK SMILES IDX 64 68 60 69 61 70 63 71 65 72 62 73 46 74 47 75 52 76 48 77
REMARK SMILES IDX 49 78 51 79 53 80 50 81
REMARK H PARENT 15 6 3 11 20 24 70 43 44 54
REMARK Flexibility Score: inf
ROOT
ATOM      1  C   UNL A   1      36.890  22.994  24.220  1.00  0.00     0.023 C 
ENDROOT
BRANCH   1   2
ATOM      2  C   UNL A   1      35.824  23.795  24.978  1.00  0.00     0.116 C 
BRANCH   2   3
ATOM      3  N   UNL A   1      34.794  24.386  24.140  1.00  0.00    -0.354 N 
ATOM      4  C   UNL A   1      33.832  25.320  24.404  1.00  0.00     0.242 C 
ATOM      5  O   UNL A   1      33.418  25.940  23.414  1.00  0.00    -0.273 OA
ATOM      6  H   UNL A   1      34.790  24.055  23.214  1.00  0.00     0.163 HD
BRANCH   4   7
ATOM      7  C   UNL A   1      33.282  25.704  25.816  1.00  0.00     0.168 C 
ATOM      8  C   UNL A   1      33.613  27.142  26.213  1.00  0.00     0.041 C 
BRANCH   7   9
ATOM      9  N   UNL A   1      31.896  25.420  26.231  1.00  0.00    -0.345 N 
ATOM     10  C   UNL A   1      31.253  24.212  26.251  1.00  0.00     0.223 C 
ATOM     11  H   UNL A   1      31.368  26.195  26.531  1.00  0.00     0.164 HD
ATOM     12  O   UNL A   1      30.769  23.827  27.317  1.00  0.00    -0.275 OA
BRANCH  10  13
ATOM     13  C   UNL A   1      31.065  23.432  24.972  1.00  0.00     0.132 C 
BRANCH  13  14
ATOM     14  C   UNL A   1      31.883  22.158  25.042  1.00  0.00     0.127 C 
ATOM     15  C   UNL A   1      32.375  21.645  23.702  1.00  0.00     0.033 C 
ATOM     16  O   UNL A   1      33.039  22.319  25.874  1.00  0.00    -0.378 OA
ATOM     17  C   UNL A   1      32.888  20.232  23.944  1.00  0.00     0.005 C 
ATOM     18  C   UNL A   1      33.524  21.052  26.310  1.00  0.00     0.160 C 
ATOM     19  C   UNL A   1      33.847  20.127  25.136  1.00  0.00     0.029 C 
ENDBRANCH  13  14
ENDBRANCH  10  13
ENDBRANCH   7   9
ENDBRANCH   4   7
ENDBRANCH   2   3
ENDBRANCH   1   2
BRANCH   1  20
ATOM     20  C   UNL A   1      37.286  21.604  24.746  1.00  0.00     0.023 C 
BRANCH  20  21
ATOM     21  C   UNL A   1      38.507  21.442  25.657  1.00  0.00     0.116 C 
BRANCH  21  22
ATOM     22  N   UNL A   1      39.258  20.204  25.543  1.00  0.00    -0.352 N 
ATOM     23  C   UNL A   1      40.537  19.935  26.007  1.00  0.00     0.251 C 
ATOM     24  H   UNL A   1      38.803  19.465  25.079  1.00  0.00     0.163 HD
ATOM     25  O   UNL A   1      41.028  18.833  25.865  1.00  0.00    -0.269 OA
BRANCH  23  26
ATOM     26  C   UNL A   1      41.333  21.029  26.625  1.00  0.00     0.039 A 
ATOM     27  C   UNL A   1      42.064  21.875  25.787  1.00  0.00     0.014 A 
ATOM     28  C   UNL A   1      41.307  21.264  27.999  1.00  0.00     0.014 A 
ATOM     29  C   UNL A   1      42.649  23.031  26.314  1.00  0.00     0.010 A 
ATOM     30  C   UNL A   1      41.852  22.439  28.520  1.00  0.00     0.010 A 
ATOM     31  C   UNL A   1      42.482  23.359  27.671  1.00  0.00    -0.014 A 
BRANCH  31  32
ATOM     32  C   UNL A   1      42.810  24.724  28.162  1.00  0.00     0.031 A 
ATOM     33  C   UNL A   1      41.759  25.781  28.330  1.00  0.00     0.074 A 
ATOM     34  C   UNL A   1      44.104  25.028  28.384  1.00  0.00     0.049 A 
ATOM     35  N   UNL A   1      41.894  27.010  28.765  1.00  0.00    -0.248 NA
ATOM     36  C   UNL A   1      40.387  25.427  27.939  1.00  0.00     0.031 C 
ATOM     37  C   UNL A   1      45.233  24.117  28.172  1.00  0.00     0.029 A 
ATOM     38  N   UNL A   1      44.695  26.182  28.835  1.00  0.00    -0.354 N 
ATOM     39  C   UNL A   1      40.627  27.574  28.709  1.00  0.00     0.074 A 
ATOM     40  C   UNL A   1      39.747  26.570  28.147  1.00  0.00     0.031 C 
ATOM     41  C   UNL A   1      46.372  24.735  28.523  1.00  0.00     0.029 A 
ATOM     42  C   UNL A   1      46.060  26.090  28.961  1.00  0.00     0.049 A 
ATOM     43  H   UNL A   1      44.187  26.999  29.047  1.00  0.00     0.167 HD
ATOM     44  C   UNL A   1      40.230  28.807  29.110  1.00  0.00     0.037 A 
ATOM     45  C   UNL A   1      46.963  26.992  29.389  1.00  0.00     0.037 A 
ATOM     46  C   UNL A   1      41.106  29.806  29.669  1.00  0.00     0.049 A 
ATOM     47  C   UNL A   1      46.495  28.343  29.846  1.00  0.00     0.074 A 
ATOM     48  C   UNL A   1      40.784  31.061  30.157  1.00  0.00     0.029 A 
ATOM     49  N   UNL A   1      42.478  29.666  29.808  1.00  0.00    -0.354 N 
ATOM     50  N   UNL A   1      45.278  28.825  29.882  1.00  0.00    -0.248 NA
ATOM     51  C   UNL A   1      47.525  29.271  30.332  1.00  0.00     0.031 C 
ATOM     52  C   UNL A   1      41.966  31.694  30.559  1.00  0.00     0.029 A 
ATOM     53  C   UNL A   1      43.019  30.818  30.357  1.00  0.00     0.049 A 
ATOM     54  H   UNL A   1      42.993  28.866  29.555  1.00  0.00     0.167 HD
ATOM     55  C   UNL A   1      45.391  30.102  30.415  1.00  0.00     0.074 A 
ATOM     56  C   UNL A   1      46.794  30.314  30.703  1.00  0.00     0.031 C 
ATOM     57  C   UNL A   1      44.417  31.016  30.644  1.00  0.00     0.037 A 
BRANCH  44  58
ATOM     58  C   UNL A   1      38.773  29.141  28.972  1.00  0.00     0.057 A 
ATOM     59  C   UNL A   1      38.229  29.547  27.746  1.00  0.00     0.134 A 
ATOM     60  C   UNL A   1      37.898  29.015  30.057  1.00  0.00     0.134 A 
ATOM     61  F   UNL A   1      39.016  29.693  26.669  1.00  0.00    -0.206 F 
ATOM     62  C   UNL A   1      36.871  29.840  27.611  1.00  0.00     0.040 A 
ATOM     63  C   UNL A   1      36.534  29.283  29.929  1.00  0.00     0.040 A 
ATOM     64  F   UNL A   1      38.351  28.619  31.256  1.00  0.00    -0.206 F 
ATOM     65  C   UNL A   1      36.018  29.703  28.704  1.00  0.00     0.006 A 
ENDBRANCH  44  58
BRANCH  45  66
ATOM     66  C   UNL A   1      48.400  26.628  29.448  1.00  0.00     0.057 A 
ATOM     67  C   UNL A   1      48.930  25.957  30.556  1.00  0.00     0.134 A 
ATOM     68  C   UNL A   1      49.278  26.944  28.404  1.00  0.00     0.134 A 
ATOM     69  F   UNL A   1      48.140  25.642  31.593  1.00  0.00    -0.206 F 
ATOM     70  C   UNL A   1      50.284  25.629  30.634  1.00  0.00     0.040 A 
ATOM     71  C   UNL A   1      50.630  26.602  28.459  1.00  0.00     0.040 A 
ATOM     72  F   UNL A   1      48.829  27.576  27.309  1.00  0.00    -0.206 F 
ATOM     73  C   UNL A   1      51.138  25.949  29.580  1.00  0.00     0.006 A 
ENDBRANCH  45  66
BRANCH  57  74
ATOM     74  C   UNL A   1      44.834  32.319  31.258  1.00  0.00     0.057 A 
ATOM     75  C   UNL A   1      44.880  32.500  32.646  1.00  0.00     0.134 A 
ATOM     76  C   UNL A   1      45.223  33.395  30.451  1.00  0.00     0.134 A 
ATOM     77  F   UNL A   1      44.503  31.512  33.473  1.00  0.00    -0.206 F 
ATOM     78  C   UNL A   1      45.281  33.711  33.210  1.00  0.00     0.040 A 
ATOM     79  C   UNL A   1      45.648  34.604  31.004  1.00  0.00     0.040 A 
ATOM     80  F   UNL A   1      45.206  33.286  29.114  1.00  0.00    -0.206 F 
ATOM     81  C   UNL A   1      45.673  34.766  32.388  1.00  0.00     0.006 A 
ENDBRANCH  57  74
ENDBRANCH  31  32
ENDBRANCH  23  26
ENDBRANCH  21  22
ENDBRANCH  20  21
ENDBRANCH   1  20
TORSDOF 14
ENDMDL
