MODEL 1
REMARK VINA RESULT:     -11.1      0.000      0.000
REMARK SMILES CCC[C@@H](C(=O)NCCCCNC(=O)c1ccc(-c2c3nc(c(-c4c(F)cccc4F)c4ccc([nH]4)c(-c4c(F)cccc4F)c4nc(c(-c5c(F)cccc5F)c5ccc2[nH]5)C=C4)C=C3)cc1)n1nc(/C=C/c2ccc(OC)cc2)ccc1=O
REMARK SMILES IDX 8 1 7 2 5 3 6 4 4 6 3 7 2 8 1 9 69 10 70 11 84 12 71 13
REMARK SMILES IDX 83 14 85 15 82 16 72 17 73 18 74 19 75 20 81 21 76 22 80 23
REMARK SMILES IDX 77 24 78 25 79 26 9 27 10 28 11 29 12 30 13 31 14 33 15 34
REMARK SMILES IDX 16 35 68 36 17 37 67 38 18 39 19 40 20 41 61 42 21 43 66 44
REMARK SMILES IDX 60 45 62 46 22 47 65 48 59 49 58 50 23 52 49 53 32 54 48 55
REMARK SMILES IDX 33 56 36 57 47 58 63 59 34 60 35 61 46 63 64 64 37 65 24 66
REMARK SMILES IDX 25 67 30 68 26 69 27 70 29 71 31 72 28 73 50 74 51 75 56 76
REMARK SMILES IDX 52 77 53 78 55 79 57 80 54 81 38 82 39 83 44 84 40 85 41 86
REMARK SMILES IDX 43 87 45 88 42 89
REMARK H PARENT 7 5 12 32 62 51 36 62
REMARK Flexibility Score: inf
ROOT
ATOM      1  C   UNL A   1      30.809  29.814  23.961  1.00  0.00     0.116 C 
ENDROOT
BRANCH   1   2
ATOM      2  N   UNL A   1      32.135  29.479  23.506  1.00  0.00    -0.354 N 
ATOM      3  C   UNL A   1      32.978  28.475  23.888  1.00  0.00     0.245 C 
ATOM      4  O   UNL A   1      34.121  28.553  23.423  1.00  0.00    -0.273 OA
ATOM      5  H   UNL A   1      32.493  30.072  22.805  1.00  0.00     0.163 HD
BRANCH   3   6
ATOM      6  C   UNL A   1      32.508  27.320  24.824  1.00  0.00     0.200 C 
BRANCH   6   7
ATOM      7  C   UNL A   1      33.240  27.221  26.183  1.00  0.00     0.037 C 
BRANCH   7   8
ATOM      8  C   UNL A   1      33.555  28.494  26.967  1.00  0.00    -0.001 C 
ATOM      9  C   UNL A   1      34.994  28.976  26.895  1.00  0.00     0.004 C 
ENDBRANCH   7   8
ENDBRANCH   6   7
BRANCH   6  10
ATOM     10  N   UNL A   1      32.765  26.088  24.034  1.00  0.00    -0.217 N 
ATOM     11  N   UNL A   1      33.832  25.317  24.450  1.00  0.00    -0.170 NA
ATOM     12  C   UNL A   1      32.062  25.847  22.866  1.00  0.00     0.267 A 
ATOM     13  C   UNL A   1      34.222  24.334  23.700  1.00  0.00     0.084 A 
ATOM     14  C   UNL A   1      32.520  24.690  22.063  1.00  0.00     0.075 A 
ATOM     15  O   UNL A   1      31.110  26.515  22.469  1.00  0.00    -0.268 OA
ATOM     16  C   UNL A   1      33.571  23.955  22.435  1.00  0.00     0.036 A 
BRANCH  13  17
ATOM     17  C   UNL A   1      35.380  23.544  24.200  1.00  0.00     0.031 C 
ATOM     18  C   UNL A   1      36.304  23.897  25.104  1.00  0.00     0.010 C 
BRANCH  18  19
ATOM     19  C   UNL A   1      37.419  22.998  25.437  1.00  0.00    -0.025 A 
ATOM     20  C   UNL A   1      37.440  21.694  24.937  1.00  0.00     0.012 A 
ATOM     21  C   UNL A   1      38.450  23.408  26.293  1.00  0.00     0.012 A 
ATOM     22  C   UNL A   1      38.486  20.827  25.274  1.00  0.00     0.047 A 
ATOM     23  C   UNL A   1      39.497  22.540  26.627  1.00  0.00     0.047 A 
ATOM     24  C   UNL A   1      39.521  21.245  26.115  1.00  0.00     0.118 A 
BRANCH  24  25
ATOM     25  O   UNL A   1      40.478  20.302  26.364  1.00  0.00    -0.497 OA
ATOM     26  C   UNL A   1      41.351  20.551  27.461  1.00  0.00     0.278 C 
ENDBRANCH  24  25
ENDBRANCH  18  19
ENDBRANCH  13  17
ENDBRANCH   6  10
ENDBRANCH   3   6
ENDBRANCH   1   2
BRANCH   1  27
ATOM     27  C   UNL A   1      30.840  30.167  25.448  1.00  0.00     0.023 C 
BRANCH  27  28
ATOM     28  C   UNL A   1      31.053  31.645  25.753  1.00  0.00     0.023 C 
BRANCH  28  29
ATOM     29  C   UNL A   1      32.087  31.924  26.831  1.00  0.00     0.116 C 
BRANCH  29  30
ATOM     30  N   UNL A   1      32.140  33.320  27.244  1.00  0.00    -0.352 N 
ATOM     31  C   UNL A   1      33.118  33.959  27.972  1.00  0.00     0.251 C 
ATOM     32  H   UNL A   1      31.378  33.878  26.966  1.00  0.00     0.163 HD
ATOM     33  O   UNL A   1      32.983  35.124  28.319  1.00  0.00    -0.269 OA
BRANCH  31  34
ATOM     34  C   UNL A   1      34.315  33.191  28.371  1.00  0.00     0.039 A 
ATOM     35  C   UNL A   1      35.556  33.830  28.374  1.00  0.00     0.014 A 
ATOM     36  C   UNL A   1      34.188  31.877  28.824  1.00  0.00     0.014 A 
ATOM     37  C   UNL A   1      36.661  33.174  28.916  1.00  0.00     0.010 A 
ATOM     38  C   UNL A   1      35.267  31.261  29.443  1.00  0.00     0.010 A 
ATOM     39  C   UNL A   1      36.513  31.904  29.498  1.00  0.00    -0.014 A 
BRANCH  39  40
ATOM     40  C   UNL A   1      37.647  31.222  30.167  1.00  0.00     0.031 A 
ATOM     41  C   UNL A   1      37.953  31.523  31.606  1.00  0.00     0.074 A 
ATOM     42  C   UNL A   1      38.450  30.404  29.458  1.00  0.00     0.049 A 
ATOM     43  N   UNL A   1      38.956  31.115  32.341  1.00  0.00    -0.248 NA
ATOM     44  C   UNL A   1      37.031  32.435  32.300  1.00  0.00     0.031 C 
ATOM     45  C   UNL A   1      38.295  30.083  28.037  1.00  0.00     0.029 A 
ATOM     46  N   UNL A   1      39.565  29.702  29.837  1.00  0.00    -0.354 N 
ATOM     47  C   UNL A   1      38.797  31.739  33.571  1.00  0.00     0.074 A 
ATOM     48  C   UNL A   1      37.636  32.595  33.467  1.00  0.00     0.031 C 
ATOM     49  C   UNL A   1      39.267  29.230  27.671  1.00  0.00     0.029 A 
ATOM     50  C   UNL A   1      40.128  28.969  28.820  1.00  0.00     0.049 A 
ATOM     51  H   UNL A   1      39.930  29.722  30.752  1.00  0.00     0.167 HD
ATOM     52  C   UNL A   1      39.534  31.591  34.696  1.00  0.00     0.037 A 
ATOM     53  C   UNL A   1      41.218  28.180  28.816  1.00  0.00     0.037 A 
ATOM     54  C   UNL A   1      40.663  30.708  34.810  1.00  0.00     0.049 A 
ATOM     55  C   UNL A   1      42.001  28.004  30.087  1.00  0.00     0.074 A 
ATOM     56  C   UNL A   1      41.437  30.435  35.924  1.00  0.00     0.029 A 
ATOM     57  N   UNL A   1      41.173  29.945  33.771  1.00  0.00    -0.354 N 
ATOM     58  N   UNL A   1      41.802  28.551  31.261  1.00  0.00    -0.248 NA
ATOM     59  C   UNL A   1      43.156  27.096  30.034  1.00  0.00     0.031 C 
ATOM     60  C   UNL A   1      42.433  29.527  35.551  1.00  0.00     0.029 A 
ATOM     61  C   UNL A   1      42.257  29.208  34.214  1.00  0.00     0.049 A 
ATOM     62  H   UNL A   1      40.816  29.930  32.853  1.00  0.00     0.167 HD
ATOM     63  C   UNL A   1      42.789  28.036  32.092  1.00  0.00     0.074 A 
ATOM     64  C   UNL A   1      43.578  27.124  31.290  1.00  0.00     0.031 C 
ATOM     65  C   UNL A   1      43.022  28.298  33.402  1.00  0.00     0.037 A 
BRANCH  52  66
ATOM     66  C   UNL A   1      39.127  32.397  35.894  1.00  0.00     0.057 A 
ATOM     67  C   UNL A   1      39.605  33.698  36.101  1.00  0.00     0.134 A 
ATOM     68  C   UNL A   1      38.243  31.874  36.844  1.00  0.00     0.134 A 
ATOM     69  F   UNL A   1      40.469  34.251  35.236  1.00  0.00    -0.206 F 
ATOM     70  C   UNL A   1      39.241  34.438  37.226  1.00  0.00     0.040 A 
ATOM     71  C   UNL A   1      37.850  32.615  37.959  1.00  0.00     0.040 A 
ATOM     72  F   UNL A   1      37.746  30.636  36.704  1.00  0.00    -0.206 F 
ATOM     73  C   UNL A   1      38.356  33.898  38.157  1.00  0.00     0.006 A 
ENDBRANCH  52  66
BRANCH  53  74
ATOM     74  C   UNL A   1      41.615  27.467  27.576  1.00  0.00     0.057 A 
ATOM     75  C   UNL A   1      42.419  28.091  26.615  1.00  0.00     0.134 A 
ATOM     76  C   UNL A   1      41.203  26.154  27.322  1.00  0.00     0.134 A 
ATOM     77  F   UNL A   1      42.829  29.355  26.797  1.00  0.00    -0.206 F 
ATOM     78  C   UNL A   1      42.785  27.442  25.436  1.00  0.00     0.040 A 
ATOM     79  C   UNL A   1      41.579  25.485  26.156  1.00  0.00     0.040 A 
ATOM     80  F   UNL A   1      40.439  25.499  28.208  1.00  0.00    -0.206 F 
ATOM     81  C   UNL A   1      42.368  26.132  25.206  1.00  0.00     0.006 A 
ENDBRANCH  53  74
BRANCH  65  82
ATOM     82  C   UNL A   1      44.154  27.564  34.054  1.00  0.00     0.057 A 
ATOM     83  C   UNL A   1      45.442  28.109  34.121  1.00  0.00     0.134 A 
ATOM     84  C   UNL A   1      43.942  26.320  34.660  1.00  0.00     0.134 A 
ATOM     85  F   UNL A   1      45.711  29.292  33.547  1.00  0.00    -0.206 F 
ATOM     86  C   UNL A   1      46.485  27.432  34.754  1.00  0.00     0.040 A 
ATOM     87  C   UNL A   1      44.971  25.644  35.315  1.00  0.00     0.040 A 
ATOM     88  F   UNL A   1      42.728  25.749  34.636  1.00  0.00    -0.206 F 
ATOM     89  C   UNL A   1      46.249  26.198  35.359  1.00  0.00     0.006 A 
ENDBRANCH  65  82
ENDBRANCH  39  40
ENDBRANCH  31  34
ENDBRANCH  29  30
ENDBRANCH  28  29
ENDBRANCH  27  28
ENDBRANCH   1  27
TORSDOF 17
ENDMDL
MODEL 2
REMARK VINA RESULT:     -11.1      4.113      9.054
REMARK SMILES CCC[C@@H](C(=O)NCCCCNC(=O)c1ccc(-c2c3nc(c(-c4c(F)cccc4F)c4ccc([nH]4)c(-c4c(F)cccc4F)c4nc(c(-c5c(F)cccc5F)c5ccc2[nH]5)C=C4)C=C3)cc1)n1nc(/C=C/c2ccc(OC)cc2)ccc1=O
REMARK SMILES IDX 8 1 7 2 5 3 6 4 4 6 3 7 2 8 1 9 69 10 70 11 84 12 71 13
REMARK SMILES IDX 83 14 85 15 82 16 72 17 73 18 74 19 75 20 81 21 76 22 80 23
REMARK SMILES IDX 77 24 78 25 79 26 9 27 10 28 11 29 12 30 13 31 14 33 15 34
REMARK SMILES IDX 16 35 68 36 17 37 67 38 18 39 19 40 20 41 61 42 21 43 66 44
REMARK SMILES IDX 60 45 62 46 22 47 65 48 59 49 58 50 23 52 49 53 32 54 48 55
REMARK SMILES IDX 33 56 36 57 47 58 63 59 34 60 35 61 46 63 64 64 37 65 24 66
REMARK SMILES IDX 25 67 30 68 26 69 27 70 29 71 31 72 28 73 50 74 51 75 56 76
REMARK SMILES IDX 52 77 53 78 55 79 57 80 54 81 38 82 39 83 44 84 40 85 41 86
REMARK SMILES IDX 43 87 45 88 42 89
REMARK H PARENT 7 5 12 32 62 51 36 62
REMARK Flexibility Score: inf
ROOT
ATOM      1  C   UNL A   1      35.828  22.910  25.245  1.00  0.00     0.116 C 
ENDROOT
BRANCH   1   2
ATOM      2  N   UNL A   1      35.300  23.403  23.997  1.00  0.00    -0.354 N 
ATOM      3  C   UNL A   1      34.214  23.004  23.274  1.00  0.00     0.245 C 
ATOM      4  O   UNL A   1      34.118  23.523  22.155  1.00  0.00    -0.273 OA
ATOM      5  H   UNL A   1      35.806  24.150  23.602  1.00  0.00     0.163 HD
BRANCH   3   6
ATOM      6  C   UNL A   1      33.177  21.987  23.841  1.00  0.00     0.200 C 
BRANCH   6   7
ATOM      7  C   UNL A   1      32.267  21.306  22.792  1.00  0.00     0.037 C 
BRANCH   7   8
ATOM      8  C   UNL A   1      32.205  19.782  22.718  1.00  0.00    -0.001 C 
ATOM      9  C   UNL A   1      32.604  19.042  23.984  1.00  0.00     0.004 C 
ENDBRANCH   7   8
ENDBRANCH   6   7
BRANCH   6  10
ATOM     10  N   UNL A   1      32.344  22.799  24.765  1.00  0.00    -0.217 N 
ATOM     11  N   UNL A   1      31.698  23.882  24.202  1.00  0.00    -0.170 NA
ATOM     12  C   UNL A   1      32.367  22.551  26.127  1.00  0.00     0.267 A 
ATOM     13  C   UNL A   1      31.107  24.732  24.982  1.00  0.00     0.084 A 
ATOM     14  C   UNL A   1      31.645  23.529  26.974  1.00  0.00     0.075 A 
ATOM     15  O   UNL A   1      32.933  21.599  26.658  1.00  0.00    -0.268 OA
ATOM     16  C   UNL A   1      31.044  24.599  26.447  1.00  0.00     0.036 A 
BRANCH  13  17
ATOM     17  C   UNL A   1      30.434  25.879  24.316  1.00  0.00     0.031 C 
ATOM     18  C   UNL A   1      30.988  26.890  23.633  1.00  0.00     0.010 C 
BRANCH  18  19
ATOM     19  C   UNL A   1      30.162  27.976  23.085  1.00  0.00    -0.025 A 
ATOM     20  C   UNL A   1      28.773  27.940  23.229  1.00  0.00     0.012 A 
ATOM     21  C   UNL A   1      30.737  29.036  22.371  1.00  0.00     0.012 A 
ATOM     22  C   UNL A   1      27.981  28.958  22.686  1.00  0.00     0.047 A 
ATOM     23  C   UNL A   1      29.943  30.055  21.830  1.00  0.00     0.047 A 
ATOM     24  C   UNL A   1      28.560  30.021  21.989  1.00  0.00     0.118 A 
BRANCH  24  25
ATOM     25  O   UNL A   1      27.676  30.947  21.509  1.00  0.00    -0.497 OA
ATOM     26  C   UNL A   1      28.125  32.296  21.463  1.00  0.00     0.278 C 
ENDBRANCH  24  25
ENDBRANCH  18  19
ENDBRANCH  13  17
ENDBRANCH   6  10
ENDBRANCH   3   6
ENDBRANCH   1   2
BRANCH   1  27
ATOM     27  C   UNL A   1      36.118  21.413  25.134  1.00  0.00     0.023 C 
BRANCH  27  28
ATOM     28  C   UNL A   1      37.495  21.064  24.583  1.00  0.00     0.023 C 
BRANCH  28  29
ATOM     29  C   UNL A   1      38.615  21.107  25.610  1.00  0.00     0.116 C 
BRANCH  29  30
ATOM     30  N   UNL A   1      39.469  19.928  25.594  1.00  0.00    -0.352 N 
ATOM     31  C   UNL A   1      40.776  19.813  26.011  1.00  0.00     0.251 C 
ATOM     32  H   UNL A   1      39.059  19.106  25.240  1.00  0.00     0.163 HD
ATOM     33  O   UNL A   1      41.397  18.772  25.855  1.00  0.00    -0.269 OA
BRANCH  31  34
ATOM     34  C   UNL A   1      41.432  20.996  26.604  1.00  0.00     0.039 A 
ATOM     35  C   UNL A   1      42.060  21.915  25.760  1.00  0.00     0.014 A 
ATOM     36  C   UNL A   1      41.344  21.234  27.977  1.00  0.00     0.014 A 
ATOM     37  C   UNL A   1      42.524  23.120  26.287  1.00  0.00     0.010 A 
ATOM     38  C   UNL A   1      41.725  22.469  28.482  1.00  0.00     0.010 A 
ATOM     39  C   UNL A   1      42.317  23.425  27.643  1.00  0.00    -0.014 A 
BRANCH  39  40
ATOM     40  C   UNL A   1      42.713  24.736  28.210  1.00  0.00     0.031 A 
ATOM     41  C   UNL A   1      41.674  25.799  28.428  1.00  0.00     0.074 A 
ATOM     42  C   UNL A   1      44.014  24.999  28.445  1.00  0.00     0.049 A 
ATOM     43  N   UNL A   1      41.828  27.039  28.814  1.00  0.00    -0.248 NA
ATOM     44  C   UNL A   1      40.280  25.428  28.135  1.00  0.00     0.031 C 
ATOM     45  C   UNL A   1      45.124  24.072  28.212  1.00  0.00     0.029 A 
ATOM     46  N   UNL A   1      44.622  26.132  28.921  1.00  0.00    -0.354 N 
ATOM     47  C   UNL A   1      40.559  27.601  28.786  1.00  0.00     0.074 A 
ATOM     48  C   UNL A   1      39.655  26.585  28.293  1.00  0.00     0.031 C 
ATOM     49  C   UNL A   1      46.275  24.668  28.568  1.00  0.00     0.029 A 
ATOM     50  C   UNL A   1      45.988  26.024  29.023  1.00  0.00     0.049 A 
ATOM     51  H   UNL A   1      44.127  26.948  29.167  1.00  0.00     0.167 HD
ATOM     52  C   UNL A   1      40.174  28.842  29.164  1.00  0.00     0.037 A 
ATOM     53  C   UNL A   1      46.904  26.920  29.434  1.00  0.00     0.037 A 
ATOM     54  C   UNL A   1      41.068  29.836  29.694  1.00  0.00     0.049 A 
ATOM     55  C   UNL A   1      46.449  28.281  29.882  1.00  0.00     0.074 A 
ATOM     56  C   UNL A   1      40.768  31.101  30.168  1.00  0.00     0.029 A 
ATOM     57  N   UNL A   1      42.438  29.672  29.827  1.00  0.00    -0.354 N 
ATOM     58  N   UNL A   1      45.236  28.778  29.911  1.00  0.00    -0.248 NA
ATOM     59  C   UNL A   1      47.489  29.204  30.361  1.00  0.00     0.031 C 
ATOM     60  C   UNL A   1      41.963  31.712  30.564  1.00  0.00     0.029 A 
ATOM     61  C   UNL A   1      43.000  30.814  30.368  1.00  0.00     0.049 A 
ATOM     62  H   UNL A   1      42.937  28.861  29.574  1.00  0.00     0.167 HD
ATOM     63  C   UNL A   1      45.363  30.059  30.433  1.00  0.00     0.074 A 
ATOM     64  C   UNL A   1      46.769  30.258  30.718  1.00  0.00     0.031 C 
ATOM     65  C   UNL A   1      44.401  30.988  30.654  1.00  0.00     0.037 A 
BRANCH  52  66
ATOM     66  C   UNL A   1      38.720  29.180  29.028  1.00  0.00     0.057 A 
ATOM     67  C   UNL A   1      37.838  29.083  30.113  1.00  0.00     0.134 A 
ATOM     68  C   UNL A   1      38.196  29.618  27.806  1.00  0.00     0.134 A 
ATOM     69  F   UNL A   1      38.274  28.653  31.307  1.00  0.00    -0.206 F 
ATOM     70  C   UNL A   1      36.481  29.379  29.979  1.00  0.00     0.040 A 
ATOM     71  C   UNL A   1      36.846  29.943  27.667  1.00  0.00     0.040 A 
ATOM     72  F   UNL A   1      38.987  29.737  26.729  1.00  0.00    -0.206 F 
ATOM     73  C   UNL A   1      35.983  29.817  28.753  1.00  0.00     0.006 A 
ENDBRANCH  52  66
BRANCH  53  74
ATOM     74  C   UNL A   1      48.340  26.550  29.474  1.00  0.00     0.057 A 
ATOM     75  C   UNL A   1      49.172  26.778  28.371  1.00  0.00     0.134 A 
ATOM     76  C   UNL A   1      48.915  25.964  30.606  1.00  0.00     0.134 A 
ATOM     77  F   UNL A   1      48.672  27.322  27.251  1.00  0.00    -0.206 F 
ATOM     78  C   UNL A   1      50.520  26.418  28.386  1.00  0.00     0.040 A 
ATOM     79  C   UNL A   1      50.267  25.617  30.643  1.00  0.00     0.040 A 
ATOM     80  F   UNL A   1      48.173  25.728  31.698  1.00  0.00    -0.206 F 
ATOM     81  C   UNL A   1      51.072  25.840  29.527  1.00  0.00     0.006 A 
ENDBRANCH  53  74
BRANCH  65  82
ATOM     82  C   UNL A   1      44.833  32.288  31.260  1.00  0.00     0.057 A 
ATOM     83  C   UNL A   1      45.199  33.384  30.469  1.00  0.00     0.134 A 
ATOM     84  C   UNL A   1      44.839  32.458  32.650  1.00  0.00     0.134 A 
ATOM     85  F   UNL A   1      45.226  33.279  29.132  1.00  0.00    -0.206 F 
ATOM     86  C   UNL A   1      45.574  34.600  31.042  1.00  0.00     0.040 A 
ATOM     87  C   UNL A   1      45.191  33.675  33.233  1.00  0.00     0.040 A 
ATOM     88  F   UNL A   1      44.491  31.448  33.462  1.00  0.00    -0.206 F 
ATOM     89  C   UNL A   1      45.564  34.750  32.428  1.00  0.00     0.006 A 
ENDBRANCH  65  82
ENDBRANCH  39  40
ENDBRANCH  31  34
ENDBRANCH  29  30
ENDBRANCH  28  29
ENDBRANCH  27  28
ENDBRANCH   1  27
TORSDOF 17
ENDMDL
MODEL 3
REMARK VINA RESULT:     -11.0      2.075      6.813
REMARK SMILES CCC[C@@H](C(=O)NCCCCNC(=O)c1ccc(-c2c3nc(c(-c4c(F)cccc4F)c4ccc([nH]4)c(-c4c(F)cccc4F)c4nc(c(-c5c(F)cccc5F)c5ccc2[nH]5)C=C4)C=C3)cc1)n1nc(/C=C/c2ccc(OC)cc2)ccc1=O
REMARK SMILES IDX 8 1 7 2 5 3 6 4 4 6 3 7 2 8 1 9 69 10 70 11 84 12 71 13
REMARK SMILES IDX 83 14 85 15 82 16 72 17 73 18 74 19 75 20 81 21 76 22 80 23
REMARK SMILES IDX 77 24 78 25 79 26 9 27 10 28 11 29 12 30 13 31 14 33 15 34
REMARK SMILES IDX 16 35 68 36 17 37 67 38 18 39 19 40 20 41 61 42 21 43 66 44
REMARK SMILES IDX 60 45 62 46 22 47 65 48 59 49 58 50 23 52 49 53 32 54 48 55
REMARK SMILES IDX 33 56 36 57 47 58 63 59 34 60 35 61 46 63 64 64 37 65 24 66
REMARK SMILES IDX 25 67 30 68 26 69 27 70 29 71 31 72 28 73 50 74 51 75 56 76
REMARK SMILES IDX 52 77 53 78 55 79 57 80 54 81 38 82 39 83 44 84 40 85 41 86
REMARK SMILES IDX 43 87 45 88 42 89
REMARK H PARENT 7 5 12 32 62 51 36 62
REMARK Flexibility Score: inf
ROOT
ATOM      1  C   UNL A   1      32.407  27.352  26.805  1.00  0.00     0.116 C 
ENDROOT
BRANCH   1   2
ATOM      2  N   UNL A   1      31.360  26.369  26.678  1.00  0.00    -0.354 N 
ATOM      3  C   UNL A   1      30.382  26.233  25.735  1.00  0.00     0.245 C 
ATOM      4  O   UNL A   1      29.529  25.375  25.995  1.00  0.00    -0.273 OA
ATOM      5  H   UNL A   1      31.348  25.685  27.386  1.00  0.00     0.163 HD
BRANCH   3   6
ATOM      6  C   UNL A   1      30.371  27.087  24.431  1.00  0.00     0.200 C 
BRANCH   6   7
ATOM      7  C   UNL A   1      29.049  27.065  23.629  1.00  0.00     0.037 C 
BRANCH   7   8
ATOM      8  C   UNL A   1      28.622  28.300  22.838  1.00  0.00    -0.001 C 
ATOM      9  C   UNL A   1      29.191  29.624  23.320  1.00  0.00     0.004 C 
ENDBRANCH   7   8
ENDBRANCH   6   7
BRANCH   6  10
ATOM     10  N   UNL A   1      31.458  26.500  23.606  1.00  0.00    -0.217 N 
ATOM     11  N   UNL A   1      31.537  25.122  23.603  1.00  0.00    -0.170 NA
ATOM     12  C   UNL A   1      32.412  27.318  23.023  1.00  0.00     0.267 A 
ATOM     13  C   UNL A   1      32.567  24.556  23.055  1.00  0.00     0.084 A 
ATOM     14  C   UNL A   1      33.550  26.624  22.377  1.00  0.00     0.075 A 
ATOM     15  O   UNL A   1      32.372  28.546  23.011  1.00  0.00    -0.268 OA
ATOM     16  C   UNL A   1      33.657  25.293  22.394  1.00  0.00     0.036 A 
BRANCH  13  17
ATOM     17  C   UNL A   1      32.595  23.069  23.089  1.00  0.00     0.031 C 
ATOM     18  C   UNL A   1      32.859  22.261  24.125  1.00  0.00     0.010 C 
BRANCH  18  19
ATOM     19  C   UNL A   1      32.897  20.801  23.956  1.00  0.00    -0.025 A 
ATOM     20  C   UNL A   1      33.706  20.022  24.786  1.00  0.00     0.012 A 
ATOM     21  C   UNL A   1      32.168  20.168  22.941  1.00  0.00     0.012 A 
ATOM     22  C   UNL A   1      33.765  18.634  24.612  1.00  0.00     0.047 A 
ATOM     23  C   UNL A   1      32.226  18.780  22.770  1.00  0.00     0.047 A 
ATOM     24  C   UNL A   1      33.024  18.006  23.608  1.00  0.00     0.118 A 
BRANCH  24  25
ATOM     25  O   UNL A   1      33.172  16.649  23.546  1.00  0.00    -0.497 OA
ATOM     26  C   UNL A   1      33.348  15.967  24.783  1.00  0.00     0.278 C 
ENDBRANCH  24  25
ENDBRANCH  18  19
ENDBRANCH  13  17
ENDBRANCH   6  10
ENDBRANCH   3   6
ENDBRANCH   1   2
BRANCH   1  27
ATOM     27  C   UNL A   1      31.874  28.594  27.522  1.00  0.00     0.023 C 
BRANCH  27  28
ATOM     28  C   UNL A   1      31.392  29.709  26.603  1.00  0.00     0.023 C 
BRANCH  28  29
ATOM     29  C   UNL A   1      32.463  30.716  26.217  1.00  0.00     0.116 C 
BRANCH  29  30
ATOM     30  N   UNL A   1      32.183  32.071  26.670  1.00  0.00    -0.352 N 
ATOM     31  C   UNL A   1      32.934  32.864  27.509  1.00  0.00     0.251 C 
ATOM     32  H   UNL A   1      31.350  32.473  26.333  1.00  0.00     0.163 HD
ATOM     33  O   UNL A   1      32.526  33.958  27.872  1.00  0.00    -0.269 OA
BRANCH  31  34
ATOM     34  C   UNL A   1      34.223  32.342  28.004  1.00  0.00     0.039 A 
ATOM     35  C   UNL A   1      35.288  33.229  28.179  1.00  0.00     0.014 A 
ATOM     36  C   UNL A   1      34.343  31.002  28.376  1.00  0.00     0.014 A 
ATOM     37  C   UNL A   1      36.449  32.786  28.812  1.00  0.00     0.010 A 
ATOM     38  C   UNL A   1      35.462  30.587  29.085  1.00  0.00     0.010 A 
ATOM     39  C   UNL A   1      36.525  31.475  29.311  1.00  0.00    -0.014 A 
BRANCH  39  40
ATOM     40  C   UNL A   1      37.708  31.004  30.072  1.00  0.00     0.031 A 
ATOM     41  C   UNL A   1      38.678  30.054  29.428  1.00  0.00     0.074 A 
ATOM     42  C   UNL A   1      37.860  31.359  31.362  1.00  0.00     0.049 A 
ATOM     43  N   UNL A   1      39.712  29.447  29.951  1.00  0.00    -0.248 NA
ATOM     44  C   UNL A   1      38.430  29.712  28.018  1.00  0.00     0.031 C 
ATOM     45  C   UNL A   1      36.950  32.222  32.120  1.00  0.00     0.029 A 
ATOM     46  N   UNL A   1      38.832  31.024  32.270  1.00  0.00    -0.354 N 
ATOM     47  C   UNL A   1      40.219  28.636  28.945  1.00  0.00     0.074 A 
ATOM     48  C   UNL A   1      39.349  28.785  27.799  1.00  0.00     0.031 C 
ATOM     49  C   UNL A   1      37.421  32.367  33.369  1.00  0.00     0.029 A 
ATOM     50  C   UNL A   1      38.644  31.584  33.511  1.00  0.00     0.049 A 
ATOM     51  H   UNL A   1      39.593  30.437  32.054  1.00  0.00     0.167 HD
ATOM     52  C   UNL A   1      41.326  27.859  28.963  1.00  0.00     0.037 A 
ATOM     53  C   UNL A   1      39.376  31.473  34.635  1.00  0.00     0.037 A 
ATOM     54  C   UNL A   1      42.213  27.744  30.089  1.00  0.00     0.049 A 
ATOM     55  C   UNL A   1      40.620  30.631  34.621  1.00  0.00     0.074 A 
ATOM     56  C   UNL A   1      43.397  27.036  30.187  1.00  0.00     0.029 A 
ATOM     57  N   UNL A   1      42.015  28.366  31.312  1.00  0.00    -0.354 N 
ATOM     58  N   UNL A   1      41.124  29.920  33.642  1.00  0.00    -0.248 NA
ATOM     59  C   UNL A   1      41.402  30.582  35.865  1.00  0.00     0.031 C 
ATOM     60  C   UNL A   1      43.902  27.207  31.480  1.00  0.00     0.029 A 
ATOM     61  C   UNL A   1      43.050  28.050  32.175  1.00  0.00     0.049 A 
ATOM     62  H   UNL A   1      41.251  28.946  31.534  1.00  0.00     0.167 HD
ATOM     63  C   UNL A   1      42.293  29.359  34.142  1.00  0.00     0.074 A 
ATOM     64  C   UNL A   1      42.429  29.824  35.507  1.00  0.00     0.031 C 
ATOM     65  C   UNL A   1      43.172  28.532  33.527  1.00  0.00     0.037 A 
BRANCH  52  66
ATOM     66  C   UNL A   1      41.641  27.084  27.718  1.00  0.00     0.057 A 
ATOM     67  C   UNL A   1      41.206  25.763  27.544  1.00  0.00     0.134 A 
ATOM     68  C   UNL A   1      42.376  27.664  26.678  1.00  0.00     0.134 A 
ATOM     69  F   UNL A   1      40.512  25.144  28.511  1.00  0.00    -0.206 F 
ATOM     70  C   UNL A   1      41.517  25.038  26.394  1.00  0.00     0.040 A 
ATOM     71  C   UNL A   1      42.670  26.958  25.511  1.00  0.00     0.040 A 
ATOM     72  F   UNL A   1      42.819  28.927  26.778  1.00  0.00    -0.206 F 
ATOM     73  C   UNL A   1      42.247  25.638  25.370  1.00  0.00     0.006 A 
ENDBRANCH  52  66
BRANCH  53  74
ATOM     74  C   UNL A   1      38.970  32.206  35.861  1.00  0.00     0.057 A 
ATOM     75  C   UNL A   1      38.184  31.587  36.840  1.00  0.00     0.134 A 
ATOM     76  C   UNL A   1      39.353  33.532  36.083  1.00  0.00     0.134 A 
ATOM     77  F   UNL A   1      37.772  30.321  36.673  1.00  0.00    -0.206 F 
ATOM     78  C   UNL A   1      37.778  32.267  37.989  1.00  0.00     0.040 A 
ATOM     79  C   UNL A   1      38.972  34.219  37.237  1.00  0.00     0.040 A 
ATOM     80  F   UNL A   1      40.114  34.178  35.186  1.00  0.00    -0.206 F 
ATOM     81  C   UNL A   1      38.176  33.586  38.192  1.00  0.00     0.006 A 
ENDBRANCH  53  74
BRANCH  65  82
ATOM     82  C   UNL A   1      44.373  28.104  34.314  1.00  0.00     0.057 A 
ATOM     83  C   UNL A   1      44.377  26.925  35.069  1.00  0.00     0.134 A 
ATOM     84  C   UNL A   1      45.553  28.857  34.279  1.00  0.00     0.134 A 
ATOM     85  F   UNL A   1      43.272  26.167  35.152  1.00  0.00    -0.206 F 
ATOM     86  C   UNL A   1      45.508  26.519  35.777  1.00  0.00     0.040 A 
ATOM     87  C   UNL A   1      46.697  28.450  34.964  1.00  0.00     0.040 A 
ATOM     88  F   UNL A   1      45.615  29.993  33.567  1.00  0.00    -0.206 F 
ATOM     89  C   UNL A   1      46.675  27.280  35.720  1.00  0.00     0.006 A 
ENDBRANCH  65  82
ENDBRANCH  39  40
ENDBRANCH  31  34
ENDBRANCH  29  30
ENDBRANCH  28  29
ENDBRANCH  27  28
ENDBRANCH   1  27
TORSDOF 17
ENDMDL
