MODEL 1
REMARK VINA RESULT:     -10.3      0.000      0.000
REMARK SMILES C[C@H](Nc1nc(CC(=O)NCCCCNC(=O)c2ccc(-c3c4nc(c(-c5c(F)cccc5F)c5ccc([nH]5)c(-c5c(F)cccc5F)c5nc(c(-c6c(F)cccc6F)c6ccc3[nH]6)C=C5)C=C4)cc2)cs1)c1ccccc1
REMARK SMILES IDX 11 1 10 2 8 3 9 4 7 6 6 7 4 8 5 9 73 10 72 11 3 12 2 14 1 15
REMARK SMILES IDX 74 16 75 17 79 18 76 19 78 20 77 21 12 22 13 23 14 24 15 25
REMARK SMILES IDX 16 26 17 28 18 29 19 30 71 31 20 32 70 33 21 34 22 35 23 36
REMARK SMILES IDX 64 37 24 38 69 39 63 40 65 41 25 42 68 43 62 44 61 45 26 47
REMARK SMILES IDX 52 48 35 49 51 50 36 51 39 52 50 53 66 54 37 55 38 56 49 58
REMARK SMILES IDX 67 59 40 60 27 61 28 62 33 63 29 64 30 65 32 66 34 67 31 68
REMARK SMILES IDX 53 69 54 70 59 71 55 72 56 73 58 74 60 75 57 76 41 77 42 78
REMARK SMILES IDX 47 79 43 80 44 81 46 82 48 83 45 84
REMARK H PARENT 10 5 3 13 15 27 65 46 39 57
REMARK Flexibility Score: inf
ROOT
ATOM      1  C   UNL A   1      33.201  35.514  29.473  1.00  0.00     0.116 C 
ENDROOT
BRANCH   1   2
ATOM      2  N   UNL A   1      33.338  36.700  30.301  1.00  0.00    -0.356 N 
ATOM      3  C   UNL A   1      33.127  36.831  31.645  1.00  0.00     0.226 C 
ATOM      4  O   UNL A   1      33.227  37.953  32.145  1.00  0.00    -0.275 OA
ATOM      5  H   UNL A   1      33.621  37.518  29.832  1.00  0.00     0.163 HD
BRANCH   3   6
ATOM      6  C   UNL A   1      32.829  35.614  32.498  1.00  0.00     0.157 C 
BRANCH   6   7
ATOM      7  C   UNL A   1      34.044  34.801  32.785  1.00  0.00     0.063 A 
ATOM      8  C   UNL A   1      36.257  34.582  32.879  1.00  0.00     0.183 A 
ATOM      9  N   UNL A   1      35.274  35.419  32.647  1.00  0.00    -0.225 NA
ATOM     10  S   UNL A   1      35.756  32.975  33.236  1.00  0.00    -0.105 S 
ATOM     11  C   UNL A   1      34.114  33.475  33.170  1.00  0.00     0.093 A 
BRANCH   8  12
ATOM     12  N   UNL A   1      37.555  34.953  32.963  1.00  0.00    -0.355 N 
ATOM     13  H   UNL A   1      37.872  35.814  32.607  1.00  0.00     0.163 HD
BRANCH  12  14
ATOM     14  C   UNL A   1      38.460  34.004  33.611  1.00  0.00     0.108 C 
ATOM     15  C   UNL A   1      39.807  34.080  32.862  1.00  0.00     0.036 C 
BRANCH  14  16
ATOM     16  C   UNL A   1      38.664  34.260  35.101  1.00  0.00    -0.026 A 
ATOM     17  C   UNL A   1      38.137  33.451  36.116  1.00  0.00     0.006 A 
ATOM     18  C   UNL A   1      39.458  35.360  35.487  1.00  0.00     0.006 A 
ATOM     19  C   UNL A   1      38.338  33.774  37.465  1.00  0.00     0.000 A 
ATOM     20  C   UNL A   1      39.653  35.687  36.829  1.00  0.00     0.000 A 
ATOM     21  C   UNL A   1      39.083  34.898  37.820  1.00  0.00     0.000 A 
ENDBRANCH  14  16
ENDBRANCH  12  14
ENDBRANCH   8  12
ENDBRANCH   6   7
ENDBRANCH   3   6
ENDBRANCH   1   2
BRANCH   1  22
ATOM     22  C   UNL A   1      34.405  35.327  28.547  1.00  0.00     0.023 C 
BRANCH  22  23
ATOM     23  C   UNL A   1      35.378  34.225  28.967  1.00  0.00     0.023 C 
BRANCH  23  24
ATOM     24  C   UNL A   1      34.722  32.958  29.495  1.00  0.00     0.116 C 
BRANCH  24  25
ATOM     25  N   UNL A   1      34.065  32.184  28.455  1.00  0.00    -0.352 N 
ATOM     26  C   UNL A   1      34.493  31.036  27.836  1.00  0.00     0.251 C 
ATOM     27  H   UNL A   1      33.194  32.528  28.154  1.00  0.00     0.163 HD
ATOM     28  O   UNL A   1      33.873  30.582  26.878  1.00  0.00    -0.269 OA
BRANCH  26  29
ATOM     29  C   UNL A   1      35.728  30.367  28.299  1.00  0.00     0.039 A 
ATOM     30  C   UNL A   1      36.892  30.506  27.541  1.00  0.00     0.014 A 
ATOM     31  C   UNL A   1      35.745  29.616  29.478  1.00  0.00     0.014 A 
ATOM     32  C   UNL A   1      38.086  29.943  27.996  1.00  0.00     0.010 A 
ATOM     33  C   UNL A   1      36.951  29.127  29.972  1.00  0.00     0.010 A 
ATOM     34  C   UNL A   1      38.134  29.279  29.234  1.00  0.00    -0.014 A 
BRANCH  34  35
ATOM     35  C   UNL A   1      39.413  28.739  29.762  1.00  0.00     0.031 A 
ATOM     36  C   UNL A   1      40.040  29.335  30.994  1.00  0.00     0.074 A 
ATOM     37  C   UNL A   1      40.037  27.741  29.103  1.00  0.00     0.049 A 
ATOM     38  N   UNL A   1      41.165  29.017  31.584  1.00  0.00    -0.248 NA
ATOM     39  C   UNL A   1      39.324  30.450  31.634  1.00  0.00     0.031 C 
ATOM     40  C   UNL A   1      39.564  27.118  27.864  1.00  0.00     0.029 A 
ATOM     41  N   UNL A   1      41.207  27.080  29.379  1.00  0.00    -0.354 N 
ATOM     42  C   UNL A   1      41.296  29.898  32.650  1.00  0.00     0.074 A 
ATOM     43  C   UNL A   1      40.165  30.799  32.596  1.00  0.00     0.031 C 
ATOM     44  C   UNL A   1      40.421  26.149  27.504  1.00  0.00     0.029 A 
ATOM     45  C   UNL A   1      41.522  26.107  28.461  1.00  0.00     0.049 A 
ATOM     46  H   UNL A   1      41.769  27.284  30.162  1.00  0.00     0.167 HD
ATOM     47  C   UNL A   1      42.258  29.939  33.602  1.00  0.00     0.037 A 
ATOM     48  C   UNL A   1      42.580  25.277  28.395  1.00  0.00     0.037 A 
ATOM     49  C   UNL A   1      43.367  29.024  33.671  1.00  0.00     0.049 A 
ATOM     50  C   UNL A   1      43.628  25.338  29.473  1.00  0.00     0.074 A 
ATOM     51  C   UNL A   1      44.358  28.944  34.634  1.00  0.00     0.029 A 
ATOM     52  N   UNL A   1      43.635  28.034  32.738  1.00  0.00    -0.354 N 
ATOM     53  N   UNL A   1      43.693  26.123  30.521  1.00  0.00    -0.248 NA
ATOM     54  C   UNL A   1      44.743  24.387  29.367  1.00  0.00     0.031 C 
ATOM     55  C   UNL A   1      45.253  27.938  34.258  1.00  0.00     0.029 A 
ATOM     56  C   UNL A   1      44.788  27.352  33.094  1.00  0.00     0.049 A 
ATOM     57  H   UNL A   1      43.087  27.844  31.943  1.00  0.00     0.167 HD
ATOM     58  C   UNL A   1      44.833  25.737  31.215  1.00  0.00     0.074 A 
ATOM     59  C   UNL A   1      45.418  24.636  30.478  1.00  0.00     0.031 C 
ATOM     60  C   UNL A   1      45.350  26.248  32.359  1.00  0.00     0.037 A 
BRANCH  47  61
ATOM     61  C   UNL A   1      42.153  31.002  34.658  1.00  0.00     0.057 A 
ATOM     62  C   UNL A   1      41.528  30.764  35.888  1.00  0.00     0.134 A 
ATOM     63  C   UNL A   1      42.743  32.258  34.466  1.00  0.00     0.134 A 
ATOM     64  F   UNL A   1      40.933  29.586  36.133  1.00  0.00    -0.206 F 
ATOM     65  C   UNL A   1      41.476  31.742  36.884  1.00  0.00     0.040 A 
ATOM     66  C   UNL A   1      42.723  33.234  35.465  1.00  0.00     0.040 A 
ATOM     67  F   UNL A   1      43.364  32.551  33.314  1.00  0.00    -0.206 F 
ATOM     68  C   UNL A   1      42.086  32.977  36.676  1.00  0.00     0.006 A 
ENDBRANCH  47  61
BRANCH  48  69
ATOM     69  C   UNL A   1      42.702  24.303  27.280  1.00  0.00     0.057 A 
ATOM     70  C   UNL A   1      42.184  23.007  27.386  1.00  0.00     0.134 A 
ATOM     71  C   UNL A   1      43.372  24.630  26.094  1.00  0.00     0.134 A 
ATOM     72  F   UNL A   1      41.547  22.625  28.504  1.00  0.00    -0.206 F 
ATOM     73  C   UNL A   1      42.358  22.062  26.374  1.00  0.00     0.040 A 
ATOM     74  C   UNL A   1      43.526  23.706  25.060  1.00  0.00     0.040 A 
ATOM     75  F   UNL A   1      43.884  25.859  25.923  1.00  0.00    -0.206 F 
ATOM     76  C   UNL A   1      43.028  22.412  25.204  1.00  0.00     0.006 A 
ENDBRANCH  48  69
BRANCH  60  77
ATOM     77  C   UNL A   1      46.579  25.586  32.913  1.00  0.00     0.057 A 
ATOM     78  C   UNL A   1      46.509  24.556  33.860  1.00  0.00     0.134 A 
ATOM     79  C   UNL A   1      47.851  25.973  32.474  1.00  0.00     0.134 A 
ATOM     80  F   UNL A   1      45.322  24.144  34.331  1.00  0.00    -0.206 F 
ATOM     81  C   UNL A   1      47.660  23.960  34.376  1.00  0.00     0.040 A 
ATOM     82  C   UNL A   1      49.009  25.363  32.958  1.00  0.00     0.040 A 
ATOM     83  F   UNL A   1      47.991  26.945  31.560  1.00  0.00    -0.206 F 
ATOM     84  C   UNL A   1      48.915  24.359  33.920  1.00  0.00     0.006 A 
ENDBRANCH  60  77
ENDBRANCH  34  35
ENDBRANCH  26  29
ENDBRANCH  24  25
ENDBRANCH  23  24
ENDBRANCH  22  23
ENDBRANCH   1  22
TORSDOF 15
ENDMDL
MODEL 2
REMARK VINA RESULT:     -10.0      5.290     10.795
REMARK SMILES C[C@H](Nc1nc(CC(=O)NCCCCNC(=O)c2ccc(-c3c4nc(c(-c5c(F)cccc5F)c5ccc([nH]5)c(-c5c(F)cccc5F)c5nc(c(-c6c(F)cccc6F)c6ccc3[nH]6)C=C5)C=C4)cc2)cs1)c1ccccc1
REMARK SMILES IDX 11 1 10 2 8 3 9 4 7 6 6 7 4 8 5 9 73 10 72 11 3 12 2 14 1 15
REMARK SMILES IDX 74 16 75 17 79 18 76 19 78 20 77 21 12 22 13 23 14 24 15 25
REMARK SMILES IDX 16 26 17 28 18 29 19 30 71 31 20 32 70 33 21 34 22 35 23 36
REMARK SMILES IDX 64 37 24 38 69 39 63 40 65 41 25 42 68 43 62 44 61 45 26 47
REMARK SMILES IDX 52 48 35 49 51 50 36 51 39 52 50 53 66 54 37 55 38 56 49 58
REMARK SMILES IDX 67 59 40 60 27 61 28 62 33 63 29 64 30 65 32 66 34 67 31 68
REMARK SMILES IDX 53 69 54 70 59 71 55 72 56 73 58 74 60 75 57 76 41 77 42 78
REMARK SMILES IDX 47 79 43 80 44 81 46 82 48 83 45 84
REMARK H PARENT 10 5 3 13 15 27 65 46 39 57
REMARK Flexibility Score: inf
ROOT
ATOM      1  C   UNL A   1      36.206  21.670  25.301  1.00  0.00     0.116 C 
ENDROOT
BRANCH   1   2
ATOM      2  N   UNL A   1      35.506  21.822  26.566  1.00  0.00    -0.356 N 
ATOM      3  C   UNL A   1      34.170  21.681  26.823  1.00  0.00     0.226 C 
ATOM      4  O   UNL A   1      33.766  21.930  27.960  1.00  0.00    -0.275 OA
ATOM      5  H   UNL A   1      36.067  22.057  27.340  1.00  0.00     0.163 HD
BRANCH   3   6
ATOM      6  C   UNL A   1      33.229  21.182  25.745  1.00  0.00     0.157 C 
BRANCH   6   7
ATOM      7  C   UNL A   1      32.642  22.288  24.937  1.00  0.00     0.063 A 
ATOM      8  C   UNL A   1      31.163  23.930  24.678  1.00  0.00     0.183 A 
ATOM      9  N   UNL A   1      31.622  23.026  25.510  1.00  0.00    -0.225 NA
ATOM     10  S   UNL A   1      31.906  23.916  23.126  1.00  0.00    -0.105 S 
ATOM     11  C   UNL A   1      32.978  22.681  23.655  1.00  0.00     0.093 A 
BRANCH   8  12
ATOM     12  N   UNL A   1      30.271  24.887  25.025  1.00  0.00    -0.355 N 
ATOM     13  H   UNL A   1      29.560  24.718  25.684  1.00  0.00     0.163 HD
BRANCH  12  14
ATOM     14  C   UNL A   1      30.424  26.184  24.369  1.00  0.00     0.108 C 
ATOM     15  C   UNL A   1      29.024  26.612  23.881  1.00  0.00     0.036 C 
BRANCH  14  16
ATOM     16  C   UNL A   1      31.029  27.265  25.261  1.00  0.00    -0.026 A 
ATOM     17  C   UNL A   1      31.175  27.145  26.650  1.00  0.00     0.006 A 
ATOM     18  C   UNL A   1      31.499  28.447  24.653  1.00  0.00     0.006 A 
ATOM     19  C   UNL A   1      31.707  28.198  27.406  1.00  0.00     0.000 A 
ATOM     20  C   UNL A   1      32.023  29.499  25.405  1.00  0.00     0.000 A 
ATOM     21  C   UNL A   1      32.116  29.378  26.786  1.00  0.00     0.000 A 
ENDBRANCH  14  16
ENDBRANCH  12  14
ENDBRANCH   8  12
ENDBRANCH   6   7
ENDBRANCH   3   6
ENDBRANCH   1   2
BRANCH   1  22
ATOM     22  C   UNL A   1      36.523  20.203  25.002  1.00  0.00     0.023 C 
BRANCH  22  23
ATOM     23  C   UNL A   1      37.981  19.919  24.639  1.00  0.00     0.023 C 
BRANCH  23  24
ATOM     24  C   UNL A   1      38.982  20.194  25.750  1.00  0.00     0.116 C 
BRANCH  24  25
ATOM     25  N   UNL A   1      40.072  19.233  25.783  1.00  0.00    -0.352 N 
ATOM     26  C   UNL A   1      41.391  19.438  26.102  1.00  0.00     0.251 C 
ATOM     27  H   UNL A   1      39.831  18.309  25.545  1.00  0.00     0.163 HD
ATOM     28  O   UNL A   1      42.211  18.536  25.949  1.00  0.00    -0.269 OA
BRANCH  26  29
ATOM     29  C   UNL A   1      41.833  20.760  26.594  1.00  0.00     0.039 A 
ATOM     30  C   UNL A   1      42.261  21.713  25.667  1.00  0.00     0.014 A 
ATOM     31  C   UNL A   1      41.815  21.068  27.958  1.00  0.00     0.014 A 
ATOM     32  C   UNL A   1      42.615  22.992  26.101  1.00  0.00     0.010 A 
ATOM     33  C   UNL A   1      42.086  22.367  28.379  1.00  0.00     0.010 A 
ATOM     34  C   UNL A   1      42.495  23.341  27.457  1.00  0.00    -0.014 A 
BRANCH  34  35
ATOM     35  C   UNL A   1      42.799  24.720  27.920  1.00  0.00     0.031 A 
ATOM     36  C   UNL A   1      44.220  25.136  28.192  1.00  0.00     0.074 A 
ATOM     37  C   UNL A   1      41.789  25.585  28.143  1.00  0.00     0.049 A 
ATOM     38  N   UNL A   1      44.675  26.284  28.628  1.00  0.00    -0.248 NA
ATOM     39  C   UNL A   1      45.265  24.125  27.968  1.00  0.00     0.031 C 
ATOM     40  C   UNL A   1      40.364  25.285  27.977  1.00  0.00     0.029 A 
ATOM     41  N   UNL A   1      41.804  26.890  28.566  1.00  0.00    -0.354 N 
ATOM     42  C   UNL A   1      46.051  26.127  28.743  1.00  0.00     0.074 A 
ATOM     43  C   UNL A   1      46.353  24.759  28.383  1.00  0.00     0.031 C 
ATOM     44  C   UNL A   1      39.647  26.382  28.266  1.00  0.00     0.029 A 
ATOM     45  C   UNL A   1      40.553  27.450  28.676  1.00  0.00     0.049 A 
ATOM     46  H   UNL A   1      42.633  27.380  28.771  1.00  0.00     0.167 HD
ATOM     47  C   UNL A   1      46.982  27.045  29.094  1.00  0.00     0.037 A 
ATOM     48  C   UNL A   1      40.180  28.683  29.068  1.00  0.00     0.037 A 
ATOM     49  C   UNL A   1      46.683  28.415  29.424  1.00  0.00     0.049 A 
ATOM     50  C   UNL A   1      41.237  29.686  29.442  1.00  0.00     0.074 A 
ATOM     51  C   UNL A   1      47.564  29.437  29.729  1.00  0.00     0.029 A 
ATOM     52  N   UNL A   1      45.406  28.951  29.497  1.00  0.00    -0.354 N 
ATOM     53  N   UNL A   1      42.540  29.545  29.466  1.00  0.00    -0.248 NA
ATOM     54  C   UNL A   1      40.772  31.024  29.830  1.00  0.00     0.031 C 
ATOM     55  C   UNL A   1      46.818  30.580  30.035  1.00  0.00     0.029 A 
ATOM     56  C   UNL A   1      45.477  30.285  29.863  1.00  0.00     0.049 A 
ATOM     57  H   UNL A   1      44.575  28.456  29.316  1.00  0.00     0.167 HD
ATOM     58  C   UNL A   1      43.050  30.784  29.835  1.00  0.00     0.074 A 
ATOM     59  C   UNL A   1      41.916  31.667  30.007  1.00  0.00     0.031 C 
ATOM     60  C   UNL A   1      44.340  31.157  30.016  1.00  0.00     0.037 A 
BRANCH  47  61
ATOM     61  C   UNL A   1      48.418  26.608  29.131  1.00  0.00     0.057 A 
ATOM     62  C   UNL A   1      49.274  26.787  28.036  1.00  0.00     0.134 A 
ATOM     63  C   UNL A   1      48.968  26.061  30.297  1.00  0.00     0.134 A 
ATOM     64  F   UNL A   1      48.810  27.294  26.884  1.00  0.00    -0.206 F 
ATOM     65  C   UNL A   1      50.620  26.421  28.094  1.00  0.00     0.040 A 
ATOM     66  C   UNL A   1      50.319  25.718  30.377  1.00  0.00     0.040 A 
ATOM     67  F   UNL A   1      48.206  25.868  31.384  1.00  0.00    -0.206 F 
ATOM     68  C   UNL A   1      51.148  25.896  29.272  1.00  0.00     0.006 A 
ENDBRANCH  47  61
BRANCH  48  69
ATOM     69  C   UNL A   1      38.741  29.052  29.115  1.00  0.00     0.057 A 
ATOM     70  C   UNL A   1      38.083  29.558  27.988  1.00  0.00     0.134 A 
ATOM     71  C   UNL A   1      37.997  28.943  30.297  1.00  0.00     0.134 A 
ATOM     72  F   UNL A   1      38.744  29.704  26.830  1.00  0.00    -0.206 F 
ATOM     73  C   UNL A   1      36.752  29.975  28.041  1.00  0.00     0.040 A 
ATOM     74  C   UNL A   1      36.657  29.327  30.358  1.00  0.00     0.040 A 
ATOM     75  F   UNL A   1      38.564  28.456  31.411  1.00  0.00    -0.206 F 
ATOM     76  C   UNL A   1      36.034  29.857  29.229  1.00  0.00     0.006 A 
ENDBRANCH  48  69
BRANCH  60  77
ATOM     77  C   UNL A   1      44.597  32.594  30.367  1.00  0.00     0.057 A 
ATOM     78  C   UNL A   1      44.677  33.034  31.695  1.00  0.00     0.134 A 
ATOM     79  C   UNL A   1      44.790  33.547  29.359  1.00  0.00     0.134 A 
ATOM     80  F   UNL A   1      44.491  32.175  32.709  1.00  0.00    -0.206 F 
ATOM     81  C   UNL A   1      44.902  34.376  32.006  1.00  0.00     0.040 A 
ATOM     82  C   UNL A   1      45.049  34.885  29.657  1.00  0.00     0.040 A 
ATOM     83  F   UNL A   1      44.739  33.192  28.066  1.00  0.00    -0.206 F 
ATOM     84  C   UNL A   1      45.095  35.305  30.985  1.00  0.00     0.006 A 
ENDBRANCH  60  77
ENDBRANCH  34  35
ENDBRANCH  26  29
ENDBRANCH  24  25
ENDBRANCH  23  24
ENDBRANCH  22  23
ENDBRANCH   1  22
TORSDOF 15
ENDMDL
MODEL 3
REMARK VINA RESULT:     -10.0      2.528      4.477
REMARK SMILES C[C@H](Nc1nc(CC(=O)NCCCCNC(=O)c2ccc(-c3c4nc(c(-c5c(F)cccc5F)c5ccc([nH]5)c(-c5c(F)cccc5F)c5nc(c(-c6c(F)cccc6F)c6ccc3[nH]6)C=C5)C=C4)cc2)cs1)c1ccccc1
REMARK SMILES IDX 11 1 10 2 8 3 9 4 7 6 6 7 4 8 5 9 73 10 72 11 3 12 2 14 1 15
REMARK SMILES IDX 74 16 75 17 79 18 76 19 78 20 77 21 12 22 13 23 14 24 15 25
REMARK SMILES IDX 16 26 17 28 18 29 19 30 71 31 20 32 70 33 21 34 22 35 23 36
REMARK SMILES IDX 64 37 24 38 69 39 63 40 65 41 25 42 68 43 62 44 61 45 26 47
REMARK SMILES IDX 52 48 35 49 51 50 36 51 39 52 50 53 66 54 37 55 38 56 49 58
REMARK SMILES IDX 67 59 40 60 27 61 28 62 33 63 29 64 30 65 32 66 34 67 31 68
REMARK SMILES IDX 53 69 54 70 59 71 55 72 56 73 58 74 60 75 57 76 41 77 42 78
REMARK SMILES IDX 47 79 43 80 44 81 46 82 48 83 45 84
REMARK H PARENT 10 5 3 13 15 27 65 46 39 57
REMARK Flexibility Score: inf
ROOT
ATOM      1  C   UNL A   1      34.528  35.662  33.054  1.00  0.00     0.116 C 
ENDROOT
BRANCH   1   2
ATOM      2  N   UNL A   1      34.665  34.996  34.338  1.00  0.00    -0.356 N 
ATOM      3  C   UNL A   1      35.716  34.257  34.807  1.00  0.00     0.226 C 
ATOM      4  O   UNL A   1      35.599  33.709  35.906  1.00  0.00    -0.275 OA
ATOM      5  H   UNL A   1      33.901  35.089  34.952  1.00  0.00     0.163 HD
BRANCH   3   6
ATOM      6  C   UNL A   1      37.004  34.162  34.014  1.00  0.00     0.157 C 
BRANCH   6   7
ATOM      7  C   UNL A   1      37.648  32.823  34.121  1.00  0.00     0.063 A 
ATOM      8  C   UNL A   1      39.248  31.495  34.913  1.00  0.00     0.183 A 
ATOM      9  N   UNL A   1      38.750  32.709  34.949  1.00  0.00    -0.225 NA
ATOM     10  S   UNL A   1      38.441  30.423  33.836  1.00  0.00    -0.105 S 
ATOM     11  C   UNL A   1      37.292  31.651  33.481  1.00  0.00     0.093 A 
BRANCH   8  12
ATOM     12  N   UNL A   1      40.231  31.063  35.735  1.00  0.00    -0.355 N 
ATOM     13  H   UNL A   1      40.111  31.024  36.711  1.00  0.00     0.163 HD
BRANCH  12  14
ATOM     14  C   UNL A   1      41.482  30.658  35.094  1.00  0.00     0.108 C 
ATOM     15  C   UNL A   1      42.628  31.349  35.861  1.00  0.00     0.036 C 
BRANCH  14  16
ATOM     16  C   UNL A   1      41.700  29.147  35.059  1.00  0.00    -0.026 A 
ATOM     17  C   UNL A   1      41.544  28.358  33.912  1.00  0.00     0.006 A 
ATOM     18  C   UNL A   1      42.115  28.505  36.244  1.00  0.00     0.006 A 
ATOM     19  C   UNL A   1      41.727  26.970  33.969  1.00  0.00     0.000 A 
ATOM     20  C   UNL A   1      42.291  27.122  36.304  1.00  0.00     0.000 A 
ATOM     21  C   UNL A   1      42.085  26.352  35.167  1.00  0.00     0.000 A 
ENDBRANCH  14  16
ENDBRANCH  12  14
ENDBRANCH   8  12
ENDBRANCH   6   7
ENDBRANCH   3   6
ENDBRANCH   1   2
BRANCH   1  22
ATOM     22  C   UNL A   1      33.102  36.166  32.827  1.00  0.00     0.023 C 
BRANCH  22  23
ATOM     23  C   UNL A   1      32.877  36.889  31.498  1.00  0.00     0.023 C 
BRANCH  23  24
ATOM     24  C   UNL A   1      33.663  36.329  30.323  1.00  0.00     0.116 C 
BRANCH  24  25
ATOM     25  N   UNL A   1      32.837  35.579  29.393  1.00  0.00    -0.352 N 
ATOM     26  C   UNL A   1      33.141  34.433  28.701  1.00  0.00     0.251 C 
ATOM     27  H   UNL A   1      31.935  35.940  29.238  1.00  0.00     0.163 HD
ATOM     28  O   UNL A   1      32.369  34.002  27.849  1.00  0.00    -0.269 OA
BRANCH  26  29
ATOM     29  C   UNL A   1      34.422  33.738  28.955  1.00  0.00     0.039 A 
ATOM     30  C   UNL A   1      35.508  34.007  28.120  1.00  0.00     0.014 A 
ATOM     31  C   UNL A   1      34.558  32.837  30.015  1.00  0.00     0.014 A 
ATOM     32  C   UNL A   1      36.747  33.418  28.384  1.00  0.00     0.010 A 
ATOM     33  C   UNL A   1      35.811  32.317  30.326  1.00  0.00     0.010 A 
ATOM     34  C   UNL A   1      36.918  32.595  29.511  1.00  0.00    -0.014 A 
BRANCH  34  35
ATOM     35  C   UNL A   1      38.248  32.021  29.843  1.00  0.00     0.031 A 
ATOM     36  C   UNL A   1      39.241  32.817  30.647  1.00  0.00     0.074 A 
ATOM     37  C   UNL A   1      38.580  30.800  29.377  1.00  0.00     0.049 A 
ATOM     38  N   UNL A   1      40.458  32.495  31.008  1.00  0.00    -0.248 NA
ATOM     39  C   UNL A   1      38.823  34.159  31.083  1.00  0.00     0.031 C 
ATOM     40  C   UNL A   1      37.730  29.954  28.536  1.00  0.00     0.029 A 
ATOM     41  N   UNL A   1      39.725  30.062  29.539  1.00  0.00    -0.354 N 
ATOM     42  C   UNL A   1      40.952  33.595  31.697  1.00  0.00     0.074 A 
ATOM     43  C   UNL A   1      39.926  34.615  31.660  1.00  0.00     0.031 C 
ATOM     44  C   UNL A   1      38.372  28.802  28.280  1.00  0.00     0.029 A 
ATOM     45  C   UNL A   1      39.691  28.843  28.904  1.00  0.00     0.049 A 
ATOM     46  H   UNL A   1      40.499  30.375  30.061  1.00  0.00     0.167 HD
ATOM     47  C   UNL A   1      42.143  33.736  32.326  1.00  0.00     0.037 A 
ATOM     48  C   UNL A   1      40.619  27.871  28.828  1.00  0.00     0.037 A 
ATOM     49  C   UNL A   1      43.152  32.710  32.387  1.00  0.00     0.049 A 
ATOM     50  C   UNL A   1      41.930  28.051  29.545  1.00  0.00     0.074 A 
ATOM     51  C   UNL A   1      44.364  32.734  33.055  1.00  0.00     0.029 A 
ATOM     52  N   UNL A   1      43.068  31.479  31.755  1.00  0.00    -0.354 N 
ATOM     53  N   UNL A   1      42.349  29.065  30.262  1.00  0.00    -0.248 NA
ATOM     54  C   UNL A   1      42.891  26.943  29.454  1.00  0.00     0.031 C 
ATOM     55  C   UNL A   1      45.035  31.538  32.786  1.00  0.00     0.029 A 
ATOM     56  C   UNL A   1      44.216  30.744  32.000  1.00  0.00     0.049 A 
ATOM     57  H   UNL A   1      42.305  31.173  31.212  1.00  0.00     0.167 HD
ATOM     58  C   UNL A   1      43.604  28.703  30.736  1.00  0.00     0.074 A 
ATOM     59  C   UNL A   1      43.869  27.370  30.239  1.00  0.00     0.031 C 
ATOM     60  C   UNL A   1      44.460  29.411  31.512  1.00  0.00     0.037 A 
BRANCH  47  61
ATOM     61  C   UNL A   1      42.424  35.043  33.010  1.00  0.00     0.057 A 
ATOM     62  C   UNL A   1      42.061  35.273  34.343  1.00  0.00     0.134 A 
ATOM     63  C   UNL A   1      43.124  36.059  32.347  1.00  0.00     0.134 A 
ATOM     64  F   UNL A   1      41.379  34.347  35.033  1.00  0.00    -0.206 F 
ATOM     65  C   UNL A   1      42.368  36.474  34.987  1.00  0.00     0.040 A 
ATOM     66  C   UNL A   1      43.462  37.252  32.988  1.00  0.00     0.040 A 
ATOM     67  F   UNL A   1      43.508  35.902  31.071  1.00  0.00    -0.206 F 
ATOM     68  C   UNL A   1      43.080  37.462  34.312  1.00  0.00     0.006 A 
ENDBRANCH  47  61
BRANCH  48  69
ATOM     69  C   UNL A   1      40.346  26.629  28.058  1.00  0.00     0.057 A 
ATOM     70  C   UNL A   1      40.921  26.412  26.800  1.00  0.00     0.134 A 
ATOM     71  C   UNL A   1      39.475  25.647  28.544  1.00  0.00     0.134 A 
ATOM     72  F   UNL A   1      41.750  27.324  26.271  1.00  0.00    -0.206 F 
ATOM     73  C   UNL A   1      40.613  25.284  26.039  1.00  0.00     0.040 A 
ATOM     74  C   UNL A   1      39.182  24.498  27.808  1.00  0.00     0.040 A 
ATOM     75  F   UNL A   1      38.898  25.788  29.747  1.00  0.00    -0.206 F 
ATOM     76  C   UNL A   1      39.743  24.320  26.544  1.00  0.00     0.006 A 
ENDBRANCH  48  69
BRANCH  60  77
ATOM     77  C   UNL A   1      45.739  28.736  31.916  1.00  0.00     0.057 A 
ATOM     78  C   UNL A   1      45.832  27.939  33.064  1.00  0.00     0.134 A 
ATOM     79  C   UNL A   1      46.891  28.870  31.129  1.00  0.00     0.134 A 
ATOM     80  F   UNL A   1      44.769  27.777  33.868  1.00  0.00    -0.206 F 
ATOM     81  C   UNL A   1      47.031  27.329  33.434  1.00  0.00     0.040 A 
ATOM     82  C   UNL A   1      48.087  28.239  31.470  1.00  0.00     0.040 A 
ATOM     83  F   UNL A   1      46.870  29.609  30.010  1.00  0.00    -0.206 F 
ATOM     84  C   UNL A   1      48.162  27.474  32.633  1.00  0.00     0.006 A 
ENDBRANCH  60  77
ENDBRANCH  34  35
ENDBRANCH  26  29
ENDBRANCH  24  25
ENDBRANCH  23  24
ENDBRANCH  22  23
ENDBRANCH   1  22
TORSDOF 15
ENDMDL
