MODEL 1
REMARK VINA RESULT:      -8.3      0.000      0.000
REMARK SMILES CCCCCNC(=O)Oc1cccc(-c2ccc([C@@H](C)C(=O)NCCCCNC(=O)c3ccc(-c4c5nc(c(-c6c(F)cccc6F)c6ccc([nH]6)c(-c6c(F)cccc6F)c6nc(c(-c7c(F)cccc7F)c7ccc4[nH]7)C=C6)C=C5)cc3)cc2F)c1
REMARK SMILES IDX 19 1 20 2 18 3 15 4 16 5 86 6 17 7 85 8 87 9 14 10 10 11
REMARK SMILES IDX 11 12 88 13 12 14 13 15 9 16 7 17 6 18 8 20 5 21 4 22 3 23
REMARK SMILES IDX 2 24 1 25 21 26 22 27 23 28 24 30 25 31 26 32 27 33 28 34
REMARK SMILES IDX 29 35 30 37 31 38 32 39 84 40 33 41 83 42 34 43 35 44 36 45
REMARK SMILES IDX 77 46 37 47 82 48 76 49 78 50 38 51 81 52 75 53 74 54 39 56
REMARK SMILES IDX 65 57 48 58 64 59 49 60 52 61 63 62 79 63 50 64 51 65 62 67
REMARK SMILES IDX 80 68 53 69 40 70 41 71 46 72 42 73 43 74 45 75 47 76 44 77
REMARK SMILES IDX 66 78 67 79 72 80 68 81 69 82 71 83 73 84 70 85 54 86 55 87
REMARK SMILES IDX 60 88 56 89 57 90 59 91 61 92 58 93
REMARK H PARENT 6 19 23 29 28 36 78 55 52 66
REMARK Flexibility Score: inf
ROOT
ATOM      1  C   UNL A   1      46.323  25.663  26.545  1.00  0.00     0.105 C 
ATOM      2  C   UNL A   1      47.473  25.393  25.574  1.00  0.00     0.023 C 
ENDROOT
BRANCH   1   3
ATOM      3  C   UNL A   1      45.899  27.115  26.686  1.00  0.00    -0.033 A 
ATOM      4  C   UNL A   1      44.978  29.792  27.160  1.00  0.00     0.018 A 
ATOM      5  C   UNL A   1      46.339  29.445  27.244  1.00  0.00     0.012 A 
ATOM      6  C   UNL A   1      44.105  28.762  26.776  1.00  0.00     0.131 A 
ATOM      7  C   UNL A   1      46.793  28.148  26.971  1.00  0.00     0.005 A 
ATOM      8  C   UNL A   1      44.543  27.451  26.568  1.00  0.00     0.044 A 
ATOM      9  F   UNL A   1      42.797  29.006  26.589  1.00  0.00    -0.206 F 
BRANCH   4  10
ATOM     10  C   UNL A   1      44.522  31.168  27.483  1.00  0.00    -0.012 A 
ATOM     11  C   UNL A   1      44.081  33.478  26.845  1.00  0.00     0.133 A 
ATOM     12  C   UNL A   1      43.615  33.783  28.118  1.00  0.00     0.047 A 
ATOM     13  C   UNL A   1      44.527  32.193  26.522  1.00  0.00     0.056 A 
ATOM     14  C   UNL A   1      43.588  32.785  29.083  1.00  0.00     0.004 A 
ATOM     15  C   UNL A   1      44.048  31.500  28.771  1.00  0.00     0.009 A 
BRANCH  11  16
ATOM     16  O   UNL A   1      44.227  34.555  25.955  1.00  0.00    -0.410 OA
BRANCH  16  17
ATOM     17  C   UNL A   1      44.927  34.379  24.771  1.00  0.00     0.412 C 
ATOM     18  N   UNL A   1      46.189  34.905  24.824  1.00  0.00    -0.321 N 
ATOM     19  H   UNL A   1      46.733  34.837  24.006  1.00  0.00     0.167 HD
ATOM     20  O   UNL A   1      44.508  33.834  23.758  1.00  0.00    -0.224 OA
BRANCH  18  21
ATOM     21  C   UNL A   1      46.804  35.554  25.965  1.00  0.00     0.119 C 
BRANCH  21  22
ATOM     22  C   UNL A   1      47.809  34.644  26.671  1.00  0.00     0.021 C 
BRANCH  22  23
ATOM     23  C   UNL A   1      47.425  34.244  28.100  1.00  0.00     0.002 C 
BRANCH  23  24
ATOM     24  C   UNL A   1      47.607  32.764  28.446  1.00  0.00    -0.003 C 
ATOM     25  C   UNL A   1      48.988  32.432  28.991  1.00  0.00     0.004 C 
ENDBRANCH  23  24
ENDBRANCH  22  23
ENDBRANCH  21  22
ENDBRANCH  18  21
ENDBRANCH  16  17
ENDBRANCH  11  16
ENDBRANCH   4  10
ENDBRANCH   1   3
BRANCH   1  26
ATOM     26  C   UNL A   1      46.460  24.929  27.889  1.00  0.00     0.227 C 
ATOM     27  O   UNL A   1      47.410  25.187  28.638  1.00  0.00    -0.274 OA
ATOM     28  N   UNL A   1      45.576  23.994  28.337  1.00  0.00    -0.356 N 
ATOM     29  H   UNL A   1      45.765  23.662  29.245  1.00  0.00     0.163 HD
BRANCH  28  30
ATOM     30  C   UNL A   1      44.410  23.401  27.718  1.00  0.00     0.116 C 
BRANCH  30  31
ATOM     31  C   UNL A   1      43.372  22.959  28.750  1.00  0.00     0.023 C 
BRANCH  31  32
ATOM     32  C   UNL A   1      42.094  22.364  28.165  1.00  0.00     0.023 C 
BRANCH  32  33
ATOM     33  C   UNL A   1      41.938  22.529  26.659  1.00  0.00     0.116 C 
BRANCH  33  34
ATOM     34  N   UNL A   1      40.637  22.123  26.140  1.00  0.00    -0.352 N 
ATOM     35  C   UNL A   1      39.465  22.847  26.168  1.00  0.00     0.251 C 
ATOM     36  H   UNL A   1      40.591  21.231  25.725  1.00  0.00     0.163 HD
ATOM     37  O   UNL A   1      38.413  22.378  25.751  1.00  0.00    -0.269 OA
BRANCH  35  38
ATOM     38  C   UNL A   1      39.503  24.196  26.765  1.00  0.00     0.039 A 
ATOM     39  C   UNL A   1      38.990  24.383  28.049  1.00  0.00     0.014 A 
ATOM     40  C   UNL A   1      40.185  25.221  26.107  1.00  0.00     0.014 A 
ATOM     41  C   UNL A   1      39.247  25.582  28.719  1.00  0.00     0.010 A 
ATOM     42  C   UNL A   1      40.509  26.376  26.805  1.00  0.00     0.010 A 
ATOM     43  C   UNL A   1      40.055  26.562  28.122  1.00  0.00    -0.014 A 
BRANCH  43  44
ATOM     44  C   UNL A   1      40.467  27.790  28.846  1.00  0.00     0.031 A 
ATOM     45  C   UNL A   1      41.796  27.827  29.543  1.00  0.00     0.074 A 
ATOM     46  C   UNL A   1      39.598  28.810  28.990  1.00  0.00     0.049 A 
ATOM     47  N   UNL A   1      42.272  28.720  30.372  1.00  0.00    -0.248 NA
ATOM     48  C   UNL A   1      42.688  26.681  29.311  1.00  0.00     0.031 C 
ATOM     49  C   UNL A   1      38.253  28.867  28.415  1.00  0.00     0.029 A 
ATOM     50  N   UNL A   1      39.709  29.983  29.693  1.00  0.00    -0.354 N 
ATOM     51  C   UNL A   1      43.499  28.223  30.791  1.00  0.00     0.074 A 
ATOM     52  C   UNL A   1      43.672  26.932  30.161  1.00  0.00     0.031 C 
ATOM     53  C   UNL A   1      37.665  30.016  28.786  1.00  0.00     0.029 A 
ATOM     54  C   UNL A   1      38.575  30.757  29.656  1.00  0.00     0.049 A 
ATOM     55  H   UNL A   1      40.525  30.245  30.179  1.00  0.00     0.167 HD
ATOM     56  C   UNL A   1      44.407  28.799  31.615  1.00  0.00     0.037 A 
ATOM     57  C   UNL A   1      38.291  31.921  30.269  1.00  0.00     0.037 A 
ATOM     58  C   UNL A   1      44.248  30.102  32.203  1.00  0.00     0.049 A 
ATOM     59  C   UNL A   1      39.328  32.564  31.146  1.00  0.00     0.074 A 
ATOM     60  C   UNL A   1      45.149  30.815  32.973  1.00  0.00     0.029 A 
ATOM     61  N   UNL A   1      43.110  30.886  32.087  1.00  0.00    -0.354 N 
ATOM     62  N   UNL A   1      40.518  32.123  31.473  1.00  0.00    -0.248 NA
ATOM     63  C   UNL A   1      38.988  33.867  31.732  1.00  0.00     0.031 C 
ATOM     64  C   UNL A   1      44.540  32.014  33.356  1.00  0.00     0.029 A 
ATOM     65  C   UNL A   1      43.278  32.067  32.788  1.00  0.00     0.049 A 
ATOM     66  H   UNL A   1      42.303  30.638  31.581  1.00  0.00     0.167 HD
ATOM     67  C   UNL A   1      41.079  33.102  32.282  1.00  0.00     0.074 A 
ATOM     68  C   UNL A   1      40.100  34.165  32.391  1.00  0.00     0.031 C 
ATOM     69  C   UNL A   1      42.296  33.120  32.879  1.00  0.00     0.037 A 
BRANCH  56  70
ATOM     70  C   UNL A   1      45.646  28.011  31.926  1.00  0.00     0.057 A 
ATOM     71  C   UNL A   1      45.674  27.033  32.930  1.00  0.00     0.134 A 
ATOM     72  C   UNL A   1      46.831  28.237  31.213  1.00  0.00     0.134 A 
ATOM     73  F   UNL A   1      44.578  26.777  33.659  1.00  0.00    -0.206 F 
ATOM     74  C   UNL A   1      46.845  26.340  33.241  1.00  0.00     0.040 A 
ATOM     75  C   UNL A   1      47.999  27.528  31.494  1.00  0.00     0.040 A 
ATOM     76  F   UNL A   1      46.873  29.156  30.235  1.00  0.00    -0.206 F 
ATOM     77  C   UNL A   1      48.011  26.584  32.520  1.00  0.00     0.006 A 
ENDBRANCH  56  70
BRANCH  57  78
ATOM     78  C   UNL A   1      36.968  32.560  30.054  1.00  0.00     0.057 A 
ATOM     79  C   UNL A   1      35.873  32.240  30.863  1.00  0.00     0.134 A 
ATOM     80  C   UNL A   1      36.776  33.525  29.058  1.00  0.00     0.134 A 
ATOM     81  F   UNL A   1      35.992  31.310  31.822  1.00  0.00    -0.206 F 
ATOM     82  C   UNL A   1      34.630  32.849  30.685  1.00  0.00     0.040 A 
ATOM     83  C   UNL A   1      35.545  34.157  28.882  1.00  0.00     0.040 A 
ATOM     84  F   UNL A   1      37.790  33.880  28.256  1.00  0.00    -0.206 F 
ATOM     85  C   UNL A   1      34.465  33.817  29.696  1.00  0.00     0.006 A 
ENDBRANCH  57  78
BRANCH  69  86
ATOM     86  C   UNL A   1      42.657  34.339  33.674  1.00  0.00     0.057 A 
ATOM     87  C   UNL A   1      43.191  35.484  33.071  1.00  0.00     0.134 A 
ATOM     88  C   UNL A   1      42.406  34.388  35.052  1.00  0.00     0.134 A 
ATOM     89  F   UNL A   1      43.465  35.496  31.757  1.00  0.00    -0.206 F 
ATOM     90  C   UNL A   1      43.477  36.632  33.813  1.00  0.00     0.040 A 
ATOM     91  C   UNL A   1      42.665  35.537  35.799  1.00  0.00     0.040 A 
ATOM     92  F   UNL A   1      41.888  33.327  35.687  1.00  0.00    -0.206 F 
ATOM     93  C   UNL A   1      43.204  36.662  35.180  1.00  0.00     0.006 A 
ENDBRANCH  69  86
ENDBRANCH  43  44
ENDBRANCH  35  38
ENDBRANCH  33  34
ENDBRANCH  32  33
ENDBRANCH  31  32
ENDBRANCH  30  31
ENDBRANCH  28  30
ENDBRANCH   1  26
TORSDOF 19
ENDMDL
MODEL 2
REMARK VINA RESULT:      -8.3      5.089     12.257
REMARK SMILES CCCCCNC(=O)Oc1cccc(-c2ccc([C@@H](C)C(=O)NCCCCNC(=O)c3ccc(-c4c5nc(c(-c6c(F)cccc6F)c6ccc([nH]6)c(-c6c(F)cccc6F)c6nc(c(-c7c(F)cccc7F)c7ccc4[nH]7)C=C6)C=C5)cc3)cc2F)c1
REMARK SMILES IDX 19 1 20 2 18 3 15 4 16 5 86 6 17 7 85 8 87 9 14 10 10 11
REMARK SMILES IDX 11 12 88 13 12 14 13 15 9 16 7 17 6 18 8 20 5 21 4 22 3 23
REMARK SMILES IDX 2 24 1 25 21 26 22 27 23 28 24 30 25 31 26 32 27 33 28 34
REMARK SMILES IDX 29 35 30 37 31 38 32 39 84 40 33 41 83 42 34 43 35 44 36 45
REMARK SMILES IDX 77 46 37 47 82 48 76 49 78 50 38 51 81 52 75 53 74 54 39 56
REMARK SMILES IDX 65 57 48 58 64 59 49 60 52 61 63 62 79 63 50 64 51 65 62 67
REMARK SMILES IDX 80 68 53 69 40 70 41 71 46 72 42 73 43 74 45 75 47 76 44 77
REMARK SMILES IDX 66 78 67 79 72 80 68 81 69 82 71 83 73 84 70 85 54 86 55 87
REMARK SMILES IDX 60 88 56 89 57 90 59 91 61 92 58 93
REMARK H PARENT 6 19 23 29 28 36 78 55 52 66
REMARK Flexibility Score: inf
ROOT
ATOM      1  C   UNL A   1      35.960  30.881  28.840  1.00  0.00     0.105 C 
ATOM      2  C   UNL A   1      35.505  32.132  29.590  1.00  0.00     0.023 C 
ENDROOT
BRANCH   1   3
ATOM      3  C   UNL A   1      34.929  30.245  27.921  1.00  0.00    -0.033 A 
ATOM      4  C   UNL A   1      33.040  29.219  26.019  1.00  0.00     0.018 A 
ATOM      5  C   UNL A   1      34.192  28.501  26.389  1.00  0.00     0.012 A 
ATOM      6  C   UNL A   1      32.842  30.443  26.678  1.00  0.00     0.131 A 
ATOM      7  C   UNL A   1      35.091  28.983  27.348  1.00  0.00     0.005 A 
ATOM      8  C   UNL A   1      33.771  30.960  27.586  1.00  0.00     0.044 A 
ATOM      9  F   UNL A   1      31.735  31.170  26.457  1.00  0.00    -0.206 F 
BRANCH   4  10
ATOM     10  C   UNL A   1      32.119  28.698  24.978  1.00  0.00    -0.012 A 
ATOM     11  C   UNL A   1      30.332  27.205  24.259  1.00  0.00     0.133 A 
ATOM     12  C   UNL A   1      30.346  27.740  22.976  1.00  0.00     0.047 A 
ATOM     13  C   UNL A   1      31.198  27.672  25.252  1.00  0.00     0.056 A 
ATOM     14  C   UNL A   1      31.238  28.762  22.683  1.00  0.00     0.004 A 
ATOM     15  C   UNL A   1      32.120  29.224  23.667  1.00  0.00     0.009 A 
BRANCH  11  16
ATOM     16  O   UNL A   1      29.519  26.077  24.461  1.00  0.00    -0.410 OA
BRANCH  16  17
ATOM     17  C   UNL A   1      29.894  25.116  25.387  1.00  0.00     0.412 C 
ATOM     18  N   UNL A   1      30.476  24.023  24.806  1.00  0.00    -0.321 N 
ATOM     19  H   UNL A   1      30.744  23.290  25.407  1.00  0.00     0.167 HD
ATOM     20  O   UNL A   1      29.732  25.180  26.599  1.00  0.00    -0.224 OA
BRANCH  18  21
ATOM     21  C   UNL A   1      30.740  23.837  23.392  1.00  0.00     0.119 C 
BRANCH  21  22
ATOM     22  C   UNL A   1      32.197  23.466  23.123  1.00  0.00     0.021 C 
BRANCH  22  23
ATOM     23  C   UNL A   1      32.989  24.502  22.317  1.00  0.00     0.002 C 
BRANCH  23  24
ATOM     24  C   UNL A   1      33.483  25.718  23.104  1.00  0.00    -0.003 C 
ATOM     25  C   UNL A   1      34.081  25.364  24.457  1.00  0.00     0.004 C 
ENDBRANCH  23  24
ENDBRANCH  22  23
ENDBRANCH  21  22
ENDBRANCH  18  21
ENDBRANCH  16  17
ENDBRANCH  11  16
ENDBRANCH   4  10
ENDBRANCH   1   3
BRANCH   1  26
ATOM     26  C   UNL A   1      36.708  29.865  29.719  1.00  0.00     0.227 C 
ATOM     27  O   UNL A   1      36.218  29.506  30.797  1.00  0.00    -0.274 OA
ATOM     28  N   UNL A   1      37.902  29.304  29.384  1.00  0.00    -0.356 N 
ATOM     29  H   UNL A   1      38.222  28.623  30.019  1.00  0.00     0.163 HD
BRANCH  28  30
ATOM     30  C   UNL A   1      38.786  29.529  28.259  1.00  0.00     0.116 C 
BRANCH  30  31
ATOM     31  C   UNL A   1      39.994  28.592  28.280  1.00  0.00     0.023 C 
BRANCH  31  32
ATOM     32  C   UNL A   1      39.674  27.121  28.028  1.00  0.00     0.023 C 
BRANCH  32  33
ATOM     33  C   UNL A   1      40.194  26.565  26.711  1.00  0.00     0.116 C 
BRANCH  33  34
ATOM     34  N   UNL A   1      40.268  25.109  26.658  1.00  0.00    -0.352 N 
ATOM     35  C   UNL A   1      41.405  24.334  26.579  1.00  0.00     0.251 C 
ATOM     36  H   UNL A   1      39.410  24.627  26.680  1.00  0.00     0.163 HD
ATOM     37  O   UNL A   1      41.342  23.115  26.481  1.00  0.00    -0.269 OA
BRANCH  35  38
ATOM     38  C   UNL A   1      42.709  25.024  26.565  1.00  0.00     0.039 A 
ATOM     39  C   UNL A   1      43.196  25.528  25.358  1.00  0.00     0.014 A 
ATOM     40  C   UNL A   1      43.357  25.297  27.771  1.00  0.00     0.014 A 
ATOM     41  C   UNL A   1      44.291  26.395  25.372  1.00  0.00     0.010 A 
ATOM     42  C   UNL A   1      44.391  26.223  27.790  1.00  0.00     0.010 A 
ATOM     43  C   UNL A   1      44.859  26.791  26.593  1.00  0.00    -0.014 A 
BRANCH  43  44
ATOM     44  C   UNL A   1      45.933  27.812  26.667  1.00  0.00     0.031 A 
ATOM     45  C   UNL A   1      45.568  29.264  26.785  1.00  0.00     0.074 A 
ATOM     46  C   UNL A   1      47.219  27.450  26.492  1.00  0.00     0.049 A 
ATOM     47  N   UNL A   1      46.331  30.321  26.686  1.00  0.00    -0.248 NA
ATOM     48  C   UNL A   1      44.143  29.564  26.996  1.00  0.00     0.031 C 
ATOM     49  C   UNL A   1      47.698  26.080  26.303  1.00  0.00     0.029 A 
ATOM     50  N   UNL A   1      48.358  28.213  26.414  1.00  0.00    -0.354 N 
ATOM     51  C   UNL A   1      45.474  31.410  26.782  1.00  0.00     0.074 A 
ATOM     52  C   UNL A   1      44.132  30.884  26.900  1.00  0.00     0.031 C 
ATOM     53  C   UNL A   1      49.030  26.099  26.133  1.00  0.00     0.029 A 
ATOM     54  C   UNL A   1      49.493  27.483  26.162  1.00  0.00     0.049 A 
ATOM     55  H   UNL A   1      48.359  29.191  26.527  1.00  0.00     0.167 HD
ATOM     56  C   UNL A   1      45.781  32.729  26.786  1.00  0.00     0.037 A 
ATOM     57  C   UNL A   1      50.763  27.884  25.956  1.00  0.00     0.037 A 
ATOM     58  C   UNL A   1      47.122  33.243  26.713  1.00  0.00     0.049 A 
ATOM     59  C   UNL A   1      51.088  29.350  26.007  1.00  0.00     0.074 A 
ATOM     60  C   UNL A   1      47.548  34.556  26.806  1.00  0.00     0.029 A 
ATOM     61  N   UNL A   1      48.256  32.466  26.525  1.00  0.00    -0.354 N 
ATOM     62  N   UNL A   1      50.281  30.368  26.177  1.00  0.00    -0.248 NA
ATOM     63  C   UNL A   1      52.501  29.722  25.845  1.00  0.00     0.031 C 
ATOM     64  C   UNL A   1      48.936  34.577  26.634  1.00  0.00     0.029 A 
ATOM     65  C   UNL A   1      49.379  33.274  26.480  1.00  0.00     0.049 A 
ATOM     66  H   UNL A   1      48.260  31.486  26.438  1.00  0.00     0.167 HD
ATOM     67  C   UNL A   1      51.087  31.499  26.167  1.00  0.00     0.074 A 
ATOM     68  C   UNL A   1      52.448  31.041  25.981  1.00  0.00     0.031 C 
ATOM     69  C   UNL A   1      50.730  32.800  26.302  1.00  0.00     0.037 A 
BRANCH  56  70
ATOM     70  C   UNL A   1      44.639  33.697  26.868  1.00  0.00     0.057 A 
ATOM     71  C   UNL A   1      44.152  34.173  28.094  1.00  0.00     0.134 A 
ATOM     72  C   UNL A   1      44.011  34.158  25.703  1.00  0.00     0.134 A 
ATOM     73  F   UNL A   1      44.698  33.761  29.247  1.00  0.00    -0.206 F 
ATOM     74  C   UNL A   1      43.058  35.038  28.158  1.00  0.00     0.040 A 
ATOM     75  C   UNL A   1      42.937  35.048  25.754  1.00  0.00     0.040 A 
ATOM     76  F   UNL A   1      44.430  33.747  24.496  1.00  0.00    -0.206 F 
ATOM     77  C   UNL A   1      42.450  35.481  26.987  1.00  0.00     0.006 A 
ENDBRANCH  56  70
BRANCH  57  78
ATOM     78  C   UNL A   1      51.819  26.872  25.704  1.00  0.00     0.057 A 
ATOM     79  C   UNL A   1      52.198  26.536  24.400  1.00  0.00     0.134 A 
ATOM     80  C   UNL A   1      52.495  26.243  26.757  1.00  0.00     0.134 A 
ATOM     81  F   UNL A   1      51.575  27.093  23.351  1.00  0.00    -0.206 F 
ATOM     82  C   UNL A   1      53.205  25.603  24.150  1.00  0.00     0.040 A 
ATOM     83  C   UNL A   1      53.518  25.324  26.522  1.00  0.00     0.040 A 
ATOM     84  F   UNL A   1      52.183  26.530  28.028  1.00  0.00    -0.206 F 
ATOM     85  C   UNL A   1      53.874  24.999  25.213  1.00  0.00     0.006 A 
ENDBRANCH  57  78
BRANCH  69  86
ATOM     86  C   UNL A   1      51.828  33.822  26.292  1.00  0.00     0.057 A 
ATOM     87  C   UNL A   1      52.223  34.471  25.117  1.00  0.00     0.134 A 
ATOM     88  C   UNL A   1      52.452  34.204  27.487  1.00  0.00     0.134 A 
ATOM     89  F   UNL A   1      51.672  34.141  23.938  1.00  0.00    -0.206 F 
ATOM     90  C   UNL A   1      53.212  35.457  25.127  1.00  0.00     0.040 A 
ATOM     91  C   UNL A   1      53.424  35.205  27.513  1.00  0.00     0.040 A 
ATOM     92  F   UNL A   1      52.112  33.626  28.648  1.00  0.00    -0.206 F 
ATOM     93  C   UNL A   1      53.808  35.832  26.330  1.00  0.00     0.006 A 
ENDBRANCH  69  86
ENDBRANCH  43  44
ENDBRANCH  35  38
ENDBRANCH  33  34
ENDBRANCH  32  33
ENDBRANCH  31  32
ENDBRANCH  30  31
ENDBRANCH  28  30
ENDBRANCH   1  26
TORSDOF 19
ENDMDL
MODEL 3
REMARK VINA RESULT:      -8.2      2.918      7.684
REMARK SMILES CCCCCNC(=O)Oc1cccc(-c2ccc([C@@H](C)C(=O)NCCCCNC(=O)c3ccc(-c4c5nc(c(-c6c(F)cccc6F)c6ccc([nH]6)c(-c6c(F)cccc6F)c6nc(c(-c7c(F)cccc7F)c7ccc4[nH]7)C=C6)C=C5)cc3)cc2F)c1
REMARK SMILES IDX 19 1 20 2 18 3 15 4 16 5 86 6 17 7 85 8 87 9 14 10 10 11
REMARK SMILES IDX 11 12 88 13 12 14 13 15 9 16 7 17 6 18 8 20 5 21 4 22 3 23
REMARK SMILES IDX 2 24 1 25 21 26 22 27 23 28 24 30 25 31 26 32 27 33 28 34
REMARK SMILES IDX 29 35 30 37 31 38 32 39 84 40 33 41 83 42 34 43 35 44 36 45
REMARK SMILES IDX 77 46 37 47 82 48 76 49 78 50 38 51 81 52 75 53 74 54 39 56
REMARK SMILES IDX 65 57 48 58 64 59 49 60 52 61 63 62 79 63 50 64 51 65 62 67
REMARK SMILES IDX 80 68 53 69 40 70 41 71 46 72 42 73 43 74 45 75 47 76 44 77
REMARK SMILES IDX 66 78 67 79 72 80 68 81 69 82 71 83 73 84 70 85 54 86 55 87
REMARK SMILES IDX 60 88 56 89 57 90 59 91 61 92 58 93
REMARK H PARENT 6 19 23 29 28 36 78 55 52 66
REMARK Flexibility Score: inf
ROOT
ATOM      1  C   UNL A   1      41.443  24.908  27.160  1.00  0.00     0.105 C 
ATOM      2  C   UNL A   1      40.319  23.881  27.019  1.00  0.00     0.023 C 
ENDROOT
BRANCH   1   3
ATOM      3  C   UNL A   1      41.036  26.272  27.692  1.00  0.00    -0.033 A 
ATOM      4  C   UNL A   1      40.033  28.790  28.637  1.00  0.00     0.018 A 
ATOM      5  C   UNL A   1      40.566  27.824  29.509  1.00  0.00     0.012 A 
ATOM      6  C   UNL A   1      40.072  28.470  27.270  1.00  0.00     0.131 A 
ATOM      7  C   UNL A   1      41.095  26.613  29.044  1.00  0.00     0.005 A 
ATOM      8  C   UNL A   1      40.536  27.235  26.806  1.00  0.00     0.044 A 
ATOM      9  F   UNL A   1      39.661  29.354  26.347  1.00  0.00    -0.206 F 
BRANCH   4  10
ATOM     10  C   UNL A   1      39.453  30.053  29.160  1.00  0.00    -0.012 A 
ATOM     11  C   UNL A   1      37.706  31.751  29.191  1.00  0.00     0.133 A 
ATOM     12  C   UNL A   1      38.351  32.454  30.201  1.00  0.00     0.047 A 
ATOM     13  C   UNL A   1      38.239  30.566  28.674  1.00  0.00     0.056 A 
ATOM     14  C   UNL A   1      39.546  31.962  30.707  1.00  0.00     0.004 A 
ATOM     15  C   UNL A   1      40.094  30.785  30.183  1.00  0.00     0.009 A 
BRANCH  11  16
ATOM     16  O   UNL A   1      36.584  32.368  28.613  1.00  0.00    -0.410 OA
BRANCH  16  17
ATOM     17  C   UNL A   1      35.387  31.673  28.520  1.00  0.00     0.412 C 
ATOM     18  N   UNL A   1      34.514  31.992  29.524  1.00  0.00    -0.321 N 
ATOM     19  H   UNL A   1      33.653  31.515  29.532  1.00  0.00     0.167 HD
ATOM     20  O   UNL A   1      35.097  30.846  27.665  1.00  0.00    -0.224 OA
BRANCH  18  21
ATOM     21  C   UNL A   1      34.732  32.963  30.578  1.00  0.00     0.119 C 
BRANCH  21  22
ATOM     22  C   UNL A   1      35.125  32.301  31.898  1.00  0.00     0.021 C 
BRANCH  22  23
ATOM     23  C   UNL A   1      35.278  33.262  33.083  1.00  0.00     0.002 C 
BRANCH  23  24
ATOM     24  C   UNL A   1      35.973  34.590  32.773  1.00  0.00    -0.003 C 
ATOM     25  C   UNL A   1      37.467  34.574  33.055  1.00  0.00     0.004 C 
ENDBRANCH  23  24
ENDBRANCH  22  23
ENDBRANCH  21  22
ENDBRANCH  18  21
ENDBRANCH  16  17
ENDBRANCH  11  16
ENDBRANCH   4  10
ENDBRANCH   1   3
BRANCH   1  26
ATOM     26  C   UNL A   1      42.377  24.978  25.941  1.00  0.00     0.227 C 
ATOM     27  O   UNL A   1      42.024  25.595  24.929  1.00  0.00    -0.274 OA
ATOM     28  N   UNL A   1      43.611  24.402  25.896  1.00  0.00    -0.356 N 
ATOM     29  H   UNL A   1      44.115  24.590  25.070  1.00  0.00     0.163 HD
BRANCH  28  30
ATOM     30  C   UNL A   1      44.314  23.563  26.843  1.00  0.00     0.116 C 
BRANCH  30  31
ATOM     31  C   UNL A   1      45.814  23.498  26.553  1.00  0.00     0.023 C 
BRANCH  31  32
ATOM     32  C   UNL A   1      46.254  24.210  25.276  1.00  0.00     0.023 C 
BRANCH  32  33
ATOM     33  C   UNL A   1      47.395  25.201  25.454  1.00  0.00     0.116 C 
BRANCH  33  34
ATOM     34  N   UNL A   1      47.361  26.331  24.531  1.00  0.00    -0.352 N 
ATOM     35  C   UNL A   1      46.787  27.565  24.746  1.00  0.00     0.251 C 
ATOM     36  H   UNL A   1      47.795  26.195  23.658  1.00  0.00     0.163 HD
ATOM     37  O   UNL A   1      46.769  28.423  23.871  1.00  0.00    -0.269 OA
BRANCH  35  38
ATOM     38  C   UNL A   1      46.147  27.809  26.053  1.00  0.00     0.039 A 
ATOM     39  C   UNL A   1      46.912  28.335  27.096  1.00  0.00     0.014 A 
ATOM     40  C   UNL A   1      44.765  27.660  26.180  1.00  0.00     0.014 A 
ATOM     41  C   UNL A   1      46.270  28.804  28.244  1.00  0.00     0.010 A 
ATOM     42  C   UNL A   1      44.124  28.202  27.285  1.00  0.00     0.010 A 
ATOM     43  C   UNL A   1      44.869  28.791  28.321  1.00  0.00    -0.014 A 
BRANCH  43  44
ATOM     44  C   UNL A   1      44.139  29.401  29.460  1.00  0.00     0.031 A 
ATOM     45  C   UNL A   1      43.787  30.860  29.417  1.00  0.00     0.074 A 
ATOM     46  C   UNL A   1      43.915  28.684  30.578  1.00  0.00     0.049 A 
ATOM     47  N   UNL A   1      43.316  31.628  30.366  1.00  0.00    -0.248 NA
ATOM     48  C   UNL A   1      44.046  31.558  28.148  1.00  0.00     0.031 C 
ATOM     49  C   UNL A   1      44.267  27.276  30.769  1.00  0.00     0.029 A 
ATOM     50  N   UNL A   1      43.364  29.054  31.780  1.00  0.00    -0.354 N 
ATOM     51  C   UNL A   1      43.260  32.904  29.821  1.00  0.00     0.074 A 
ATOM     52  C   UNL A   1      43.788  32.815  28.477  1.00  0.00     0.031 C 
ATOM     53  C   UNL A   1      43.922  26.900  32.011  1.00  0.00     0.029 A 
ATOM     54  C   UNL A   1      43.361  28.049  32.717  1.00  0.00     0.049 A 
ATOM     55  H   UNL A   1      43.006  29.955  31.954  1.00  0.00     0.167 HD
ATOM     56  C   UNL A   1      42.797  34.044  30.385  1.00  0.00     0.037 A 
ATOM     57  C   UNL A   1      42.971  28.058  34.006  1.00  0.00     0.037 A 
ATOM     58  C   UNL A   1      42.232  34.116  31.706  1.00  0.00     0.049 A 
ATOM     59  C   UNL A   1      42.421  29.323  34.600  1.00  0.00     0.074 A 
ATOM     60  C   UNL A   1      41.647  35.201  32.335  1.00  0.00     0.029 A 
ATOM     61  N   UNL A   1      42.186  33.059  32.603  1.00  0.00    -0.354 N 
ATOM     62  N   UNL A   1      42.300  30.507  34.051  1.00  0.00    -0.248 NA
ATOM     63  C   UNL A   1      41.946  29.253  35.989  1.00  0.00     0.031 C 
ATOM     64  C   UNL A   1      41.283  34.810  33.627  1.00  0.00     0.029 A 
ATOM     65  C   UNL A   1      41.599  33.471  33.787  1.00  0.00     0.049 A 
ATOM     66  H   UNL A   1      42.519  32.151  32.423  1.00  0.00     0.167 HD
ATOM     67  C   UNL A   1      41.714  31.317  35.015  1.00  0.00     0.074 A 
ATOM     68  C   UNL A   1      41.498  30.486  36.182  1.00  0.00     0.031 C 
ATOM     69  C   UNL A   1      41.384  32.629  34.938  1.00  0.00     0.037 A 
BRANCH  56  70
ATOM     70  C   UNL A   1      42.891  35.299  29.569  1.00  0.00     0.057 A 
ATOM     71  C   UNL A   1      44.026  36.121  29.596  1.00  0.00     0.134 A 
ATOM     72  C   UNL A   1      41.828  35.696  28.747  1.00  0.00     0.134 A 
ATOM     73  F   UNL A   1      45.074  35.807  30.372  1.00  0.00    -0.206 F 
ATOM     74  C   UNL A   1      44.083  37.311  28.868  1.00  0.00     0.040 A 
ATOM     75  C   UNL A   1      41.886  36.867  27.991  1.00  0.00     0.040 A 
ATOM     76  F   UNL A   1      40.712  34.953  28.670  1.00  0.00    -0.206 F 
ATOM     77  C   UNL A   1      43.013  37.685  28.060  1.00  0.00     0.006 A 
ENDBRANCH  56  70
BRANCH  57  78
ATOM     78  C   UNL A   1      43.072  26.814  34.810  1.00  0.00     0.057 A 
ATOM     79  C   UNL A   1      41.961  25.984  34.996  1.00  0.00     0.134 A 
ATOM     80  C   UNL A   1      44.284  26.411  35.382  1.00  0.00     0.134 A 
ATOM     81  F   UNL A   1      40.769  26.328  34.486  1.00  0.00    -0.206 F 
ATOM     82  C   UNL A   1      42.048  24.801  35.732  1.00  0.00     0.040 A 
ATOM     83  C   UNL A   1      44.391  25.220  36.102  1.00  0.00     0.040 A 
ATOM     84  F   UNL A   1      45.386  27.159  35.231  1.00  0.00    -0.206 F 
ATOM     85  C   UNL A   1      43.269  24.412  36.282  1.00  0.00     0.006 A 
ENDBRANCH  57  78
BRANCH  69  86
ATOM     86  C   UNL A   1      40.719  33.245  36.134  1.00  0.00     0.057 A 
ATOM     87  C   UNL A   1      41.448  33.922  37.118  1.00  0.00     0.134 A 
ATOM     88  C   UNL A   1      39.325  33.212  36.266  1.00  0.00     0.134 A 
ATOM     89  F   UNL A   1      42.788  33.979  37.055  1.00  0.00    -0.206 F 
ATOM     90  C   UNL A   1      40.814  34.535  38.201  1.00  0.00     0.040 A 
ATOM     91  C   UNL A   1      38.679  33.840  37.330  1.00  0.00     0.040 A 
ATOM     92  F   UNL A   1      38.569  32.585  35.352  1.00  0.00    -0.206 F 
ATOM     93  C   UNL A   1      39.424  34.502  38.303  1.00  0.00     0.006 A 
ENDBRANCH  69  86
ENDBRANCH  43  44
ENDBRANCH  35  38
ENDBRANCH  33  34
ENDBRANCH  32  33
ENDBRANCH  31  32
ENDBRANCH  30  31
ENDBRANCH  28  30
ENDBRANCH   1  26
TORSDOF 19
ENDMDL
