MODEL 1
REMARK VINA RESULT:     -11.9      0.000      0.000
REMARK SMILES C[C@@H](NC(=O)c1cc(C(=O)NCCCCNC(=O)c2ccc(-c3c4nc(c(-c5c(F)cccc5F)c5ccc([nH]5)c(-c5c(F)cccc5F)c5nc(c(-c6c(F)cccc6F)c6ccc3[nH]6)C=C5)C=C4)cc2)n(C)n1)c1ccccc1
REMARK SMILES IDX 13 1 12 2 11 3 9 4 10 5 8 7 6 8 7 9 75 10 73 11 74 12 4 13
REMARK SMILES IDX 3 14 5 16 2 17 1 18 76 19 77 20 81 21 78 22 80 23 79 24
REMARK SMILES IDX 14 25 15 26 16 27 17 28 18 30 19 31 20 32 72 33 21 34 71 35
REMARK SMILES IDX 22 36 23 37 24 38 65 39 25 40 70 41 64 42 66 43 26 44 69 45
REMARK SMILES IDX 63 46 62 47 27 49 53 50 36 51 52 52 37 53 40 54 51 55 67 56
REMARK SMILES IDX 38 57 39 58 50 60 68 61 41 62 28 63 29 64 34 65 30 66 31 67
REMARK SMILES IDX 33 68 35 69 32 70 54 71 55 72 60 73 56 74 57 75 59 76 61 77
REMARK SMILES IDX 58 78 42 79 43 80 48 81 44 82 45 83 47 84 49 85 46 86
REMARK H PARENT 11 6 3 15 16 29 66 48 40 59
REMARK Flexibility Score: inf
ROOT
ATOM      1  C   UNL A   1      36.865  21.425  24.547  1.00  0.00     0.023 C 
ENDROOT
BRANCH   1   2
ATOM      2  C   UNL A   1      37.098  22.724  25.316  1.00  0.00     0.116 C 
BRANCH   2   3
ATOM      3  N   UNL A   1      36.138  22.923  26.366  1.00  0.00    -0.351 N 
ATOM      4  C   UNL A   1      34.781  23.068  26.404  1.00  0.00     0.269 C 
ATOM      5  O   UNL A   1      34.321  22.856  27.535  1.00  0.00    -0.268 OA
ATOM      6  H   UNL A   1      36.551  22.963  27.259  1.00  0.00     0.163 HD
BRANCH   4   7
ATOM      7  C   UNL A   1      33.895  23.468  25.322  1.00  0.00     0.126 A 
ATOM      8  C   UNL A   1      33.247  24.785  23.609  1.00  0.00     0.151 A 
ATOM      9  C   UNL A   1      33.881  24.787  24.863  1.00  0.00     0.069 A 
ATOM     10  N   UNL A   1      32.696  23.590  23.374  1.00  0.00    -0.167 NA
ATOM     11  N   UNL A   1      33.038  22.838  24.444  1.00  0.00    -0.262 N 
ATOM     12  C   UNL A   1      32.429  21.535  24.459  1.00  0.00     0.174 C 
BRANCH   8  13
ATOM     13  C   UNL A   1      33.127  25.891  22.673  1.00  0.00     0.272 C 
ATOM     14  N   UNL A   1      32.255  26.921  22.915  1.00  0.00    -0.344 N 
ATOM     15  H   UNL A   1      32.399  27.679  22.302  1.00  0.00     0.164 HD
ATOM     16  O   UNL A   1      33.788  25.933  21.634  1.00  0.00    -0.267 OA
BRANCH  14  17
ATOM     17  C   UNL A   1      31.162  27.175  23.858  1.00  0.00     0.109 C 
ATOM     18  C   UNL A   1      29.906  27.590  23.080  1.00  0.00     0.036 C 
BRANCH  17  19
ATOM     19  C   UNL A   1      31.427  28.029  25.082  1.00  0.00    -0.026 A 
ATOM     20  C   UNL A   1      31.454  27.503  26.385  1.00  0.00     0.006 A 
ATOM     21  C   UNL A   1      31.697  29.399  24.919  1.00  0.00     0.006 A 
ATOM     22  C   UNL A   1      31.748  28.316  27.484  1.00  0.00     0.000 A 
ATOM     23  C   UNL A   1      31.976  30.215  26.020  1.00  0.00     0.000 A 
ATOM     24  C   UNL A   1      32.005  29.672  27.302  1.00  0.00     0.000 A 
ENDBRANCH  17  19
ENDBRANCH  14  17
ENDBRANCH   8  13
ENDBRANCH   4   7
ENDBRANCH   2   3
ENDBRANCH   1   2
BRANCH   1  25
ATOM     25  C   UNL A   1      37.702  20.224  24.988  1.00  0.00     0.023 C 
BRANCH  25  26
ATOM     26  C   UNL A   1      38.966  20.545  25.777  1.00  0.00     0.116 C 
BRANCH  26  27
ATOM     27  N   UNL A   1      39.982  19.506  25.730  1.00  0.00    -0.352 N 
ATOM     28  C   UNL A   1      41.300  19.587  26.112  1.00  0.00     0.251 C 
ATOM     29  H   UNL A   1      39.689  18.633  25.380  1.00  0.00     0.163 HD
ATOM     30  O   UNL A   1      42.048  18.626  25.971  1.00  0.00    -0.269 OA
BRANCH  28  31
ATOM     31  C   UNL A   1      41.819  20.865  26.637  1.00  0.00     0.039 A 
ATOM     32  C   UNL A   1      42.293  21.817  25.731  1.00  0.00     0.014 A 
ATOM     33  C   UNL A   1      41.779  21.146  28.006  1.00  0.00     0.014 A 
ATOM     34  C   UNL A   1      42.651  23.084  26.189  1.00  0.00     0.010 A 
ATOM     35  C   UNL A   1      42.068  22.431  28.450  1.00  0.00     0.010 A 
ATOM     36  C   UNL A   1      42.500  23.413  27.545  1.00  0.00    -0.014 A 
BRANCH  36  37
ATOM     37  C   UNL A   1      42.777  24.783  28.039  1.00  0.00     0.031 A 
ATOM     38  C   UNL A   1      44.169  25.166  28.450  1.00  0.00     0.074 A 
ATOM     39  C   UNL A   1      41.759  25.650  28.196  1.00  0.00     0.049 A 
ATOM     40  N   UNL A   1      44.595  26.283  28.982  1.00  0.00    -0.248 NA
ATOM     41  C   UNL A   1      45.215  24.147  28.270  1.00  0.00     0.031 C 
ATOM     42  C   UNL A   1      40.353  25.372  27.893  1.00  0.00     0.029 A 
ATOM     43  N   UNL A   1      41.748  26.939  28.666  1.00  0.00    -0.354 N 
ATOM     44  C   UNL A   1      45.950  26.092  29.221  1.00  0.00     0.074 A 
ATOM     45  C   UNL A   1      46.265  24.738  28.820  1.00  0.00     0.031 C 
ATOM     46  C   UNL A   1      39.620  26.462  28.168  1.00  0.00     0.029 A 
ATOM     47  C   UNL A   1      40.496  27.504  28.694  1.00  0.00     0.049 A 
ATOM     48  H   UNL A   1      42.560  27.414  28.955  1.00  0.00     0.167 HD
ATOM     49  C   UNL A   1      46.853  26.974  29.710  1.00  0.00     0.037 A 
ATOM     50  C   UNL A   1      40.101  28.725  29.103  1.00  0.00     0.037 A 
ATOM     51  C   UNL A   1      46.544  28.331  30.072  1.00  0.00     0.049 A 
ATOM     52  C   UNL A   1      41.128  29.696  29.610  1.00  0.00     0.074 A 
ATOM     53  C   UNL A   1      47.403  29.327  30.501  1.00  0.00     0.029 A 
ATOM     54  N   UNL A   1      45.272  28.882  30.044  1.00  0.00    -0.354 N 
ATOM     55  N   UNL A   1      42.420  29.530  29.758  1.00  0.00    -0.248 NA
ATOM     56  C   UNL A   1      40.645  31.029  30.000  1.00  0.00     0.031 C 
ATOM     57  C   UNL A   1      46.644  30.473  30.765  1.00  0.00     0.029 A 
ATOM     58  C   UNL A   1      45.319  30.200  30.465  1.00  0.00     0.049 A 
ATOM     59  H   UNL A   1      44.455  28.406  29.767  1.00  0.00     0.167 HD
ATOM     60  C   UNL A   1      42.908  30.739  30.234  1.00  0.00     0.074 A 
ATOM     61  C   UNL A   1      41.775  31.635  30.339  1.00  0.00     0.031 C 
ATOM     62  C   UNL A   1      44.180  31.077  30.557  1.00  0.00     0.037 A 
BRANCH  49  63
ATOM     63  C   UNL A   1      48.265  26.493  29.872  1.00  0.00     0.057 A 
ATOM     64  C   UNL A   1      49.227  26.676  28.870  1.00  0.00     0.134 A 
ATOM     65  C   UNL A   1      48.672  25.854  31.050  1.00  0.00     0.134 A 
ATOM     66  F   UNL A   1      48.896  27.268  27.711  1.00  0.00    -0.206 F 
ATOM     67  C   UNL A   1      50.536  26.216  29.021  1.00  0.00     0.040 A 
ATOM     68  C   UNL A   1      49.985  25.413  31.223  1.00  0.00     0.040 A 
ATOM     69  F   UNL A   1      47.802  25.650  32.051  1.00  0.00    -0.206 F 
ATOM     70  C   UNL A   1      50.919  25.587  30.204  1.00  0.00     0.006 A 
ENDBRANCH  49  63
BRANCH  50  71
ATOM     71  C   UNL A   1      38.670  29.105  29.020  1.00  0.00     0.057 A 
ATOM     72  C   UNL A   1      38.112  29.548  27.816  1.00  0.00     0.134 A 
ATOM     73  C   UNL A   1      37.827  29.033  30.135  1.00  0.00     0.134 A 
ATOM     74  F   UNL A   1      38.875  29.653  26.717  1.00  0.00    -0.206 F 
ATOM     75  C   UNL A   1      36.771  29.922  27.725  1.00  0.00     0.040 A 
ATOM     76  C   UNL A   1      36.478  29.384  30.054  1.00  0.00     0.040 A 
ATOM     77  F   UNL A   1      38.300  28.607  31.315  1.00  0.00    -0.206 F 
ATOM     78  C   UNL A   1      35.949  29.836  28.847  1.00  0.00     0.006 A 
ENDBRANCH  50  71
BRANCH  62  79
ATOM     79  C   UNL A   1      44.416  32.481  31.027  1.00  0.00     0.057 A 
ATOM     80  C   UNL A   1      44.387  32.816  32.386  1.00  0.00     0.134 A 
ATOM     81  C   UNL A   1      44.714  33.497  30.112  1.00  0.00     0.134 A 
ATOM     82  F   UNL A   1      44.093  31.888  33.309  1.00  0.00    -0.206 F 
ATOM     83  C   UNL A   1      44.632  34.120  32.818  1.00  0.00     0.040 A 
ATOM     84  C   UNL A   1      44.983  34.800  30.534  1.00  0.00     0.040 A 
ATOM     85  F   UNL A   1      44.763  33.238  28.797  1.00  0.00    -0.206 F 
ATOM     86  C   UNL A   1      44.937  35.115  31.891  1.00  0.00     0.006 A 
ENDBRANCH  62  79
ENDBRANCH  36  37
ENDBRANCH  28  31
ENDBRANCH  26  27
ENDBRANCH  25  26
ENDBRANCH   1  25
TORSDOF 14
ENDMDL
MODEL 2
REMARK VINA RESULT:     -11.8      0.398      6.171
REMARK SMILES C[C@@H](NC(=O)c1cc(C(=O)NCCCCNC(=O)c2ccc(-c3c4nc(c(-c5c(F)cccc5F)c5ccc([nH]5)c(-c5c(F)cccc5F)c5nc(c(-c6c(F)cccc6F)c6ccc3[nH]6)C=C5)C=C4)cc2)n(C)n1)c1ccccc1
REMARK SMILES IDX 13 1 12 2 11 3 9 4 10 5 8 7 6 8 7 9 75 10 73 11 74 12 4 13
REMARK SMILES IDX 3 14 5 16 2 17 1 18 76 19 77 20 81 21 78 22 80 23 79 24
REMARK SMILES IDX 14 25 15 26 16 27 17 28 18 30 19 31 20 32 72 33 21 34 71 35
REMARK SMILES IDX 22 36 23 37 24 38 65 39 25 40 70 41 64 42 66 43 26 44 69 45
REMARK SMILES IDX 63 46 62 47 27 49 53 50 36 51 52 52 37 53 40 54 51 55 67 56
REMARK SMILES IDX 38 57 39 58 50 60 68 61 41 62 28 63 29 64 34 65 30 66 31 67
REMARK SMILES IDX 33 68 35 69 32 70 54 71 55 72 60 73 56 74 57 75 59 76 61 77
REMARK SMILES IDX 58 78 42 79 43 80 48 81 44 82 45 83 47 84 49 85 46 86
REMARK H PARENT 11 6 3 15 16 29 66 48 40 59
REMARK Flexibility Score: inf
ROOT
ATOM      1  C   UNL A   1      36.915  22.008  24.404  1.00  0.00     0.023 C 
ENDROOT
BRANCH   1   2
ATOM      2  C   UNL A   1      37.068  23.210  25.334  1.00  0.00     0.116 C 
BRANCH   2   3
ATOM      3  N   UNL A   1      36.096  23.214  26.392  1.00  0.00    -0.351 N 
ATOM      4  C   UNL A   1      34.732  23.216  26.436  1.00  0.00     0.269 C 
ATOM      5  O   UNL A   1      34.301  22.857  27.540  1.00  0.00    -0.268 OA
ATOM      6  H   UNL A   1      36.507  23.214  27.288  1.00  0.00     0.163 HD
BRANCH   4   7
ATOM      7  C   UNL A   1      33.805  23.621  25.390  1.00  0.00     0.126 A 
ATOM      8  C   UNL A   1      33.143  24.877  23.638  1.00  0.00     0.151 A 
ATOM      9  C   UNL A   1      33.864  24.905  24.843  1.00  0.00     0.069 A 
ATOM     10  N   UNL A   1      32.483  23.721  23.522  1.00  0.00    -0.167 NA
ATOM     11  N   UNL A   1      32.840  23.010  24.616  1.00  0.00    -0.262 N 
ATOM     12  C   UNL A   1      32.132  21.768  24.761  1.00  0.00     0.174 C 
BRANCH   8  13
ATOM     13  C   UNL A   1      33.045  25.928  22.638  1.00  0.00     0.272 C 
ATOM     14  N   UNL A   1      32.184  26.981  22.812  1.00  0.00    -0.344 N 
ATOM     15  H   UNL A   1      32.343  27.699  22.157  1.00  0.00     0.164 HD
ATOM     16  O   UNL A   1      33.716  25.902  21.605  1.00  0.00    -0.267 OA
BRANCH  14  17
ATOM     17  C   UNL A   1      31.085  27.301  23.728  1.00  0.00     0.109 C 
ATOM     18  C   UNL A   1      29.896  27.844  22.924  1.00  0.00     0.036 C 
BRANCH  17  19
ATOM     19  C   UNL A   1      31.380  28.095  24.984  1.00  0.00    -0.026 A 
ATOM     20  C   UNL A   1      31.568  27.490  26.239  1.00  0.00     0.006 A 
ATOM     21  C   UNL A   1      31.515  29.492  24.900  1.00  0.00     0.006 A 
ATOM     22  C   UNL A   1      31.885  28.254  27.367  1.00  0.00     0.000 A 
ATOM     23  C   UNL A   1      31.817  30.257  26.031  1.00  0.00     0.000 A 
ATOM     24  C   UNL A   1      32.006  29.637  27.263  1.00  0.00     0.000 A 
ENDBRANCH  17  19
ENDBRANCH  14  17
ENDBRANCH   8  13
ENDBRANCH   4   7
ENDBRANCH   2   3
ENDBRANCH   1   2
BRANCH   1  25
ATOM     25  C   UNL A   1      37.585  20.713  24.864  1.00  0.00     0.023 C 
BRANCH  25  26
ATOM     26  C   UNL A   1      38.824  20.877  25.736  1.00  0.00     0.116 C 
BRANCH  26  27
ATOM     27  N   UNL A   1      39.768  19.773  25.650  1.00  0.00    -0.352 N 
ATOM     28  C   UNL A   1      41.088  19.752  26.032  1.00  0.00     0.251 C 
ATOM     29  H   UNL A   1      39.417  18.936  25.269  1.00  0.00     0.163 HD
ATOM     30  O   UNL A   1      41.770  18.748  25.854  1.00  0.00    -0.269 OA
BRANCH  28  31
ATOM     31  C   UNL A   1      41.692  20.972  26.602  1.00  0.00     0.039 A 
ATOM     32  C   UNL A   1      42.199  21.937  25.729  1.00  0.00     0.014 A 
ATOM     33  C   UNL A   1      41.699  21.190  27.982  1.00  0.00     0.014 A 
ATOM     34  C   UNL A   1      42.641  23.159  26.235  1.00  0.00     0.010 A 
ATOM     35  C   UNL A   1      42.072  22.434  28.477  1.00  0.00     0.010 A 
ATOM     36  C   UNL A   1      42.540  23.431  27.608  1.00  0.00    -0.014 A 
BRANCH  36  37
ATOM     37  C   UNL A   1      42.906  24.759  28.157  1.00  0.00     0.031 A 
ATOM     38  C   UNL A   1      41.846  25.797  28.381  1.00  0.00     0.074 A 
ATOM     39  C   UNL A   1      44.203  25.053  28.372  1.00  0.00     0.049 A 
ATOM     40  N   UNL A   1      41.975  27.039  28.774  1.00  0.00    -0.248 NA
ATOM     41  C   UNL A   1      40.459  25.398  28.094  1.00  0.00     0.031 C 
ATOM     42  C   UNL A   1      45.329  24.149  28.131  1.00  0.00     0.029 A 
ATOM     43  N   UNL A   1      44.793  26.204  28.827  1.00  0.00    -0.354 N 
ATOM     44  C   UNL A   1      40.694  27.573  28.758  1.00  0.00     0.074 A 
ATOM     45  C   UNL A   1      39.807  26.537  28.273  1.00  0.00     0.031 C 
ATOM     46  C   UNL A   1      46.472  24.773  28.456  1.00  0.00     0.029 A 
ATOM     47  C   UNL A   1      46.163  26.129  28.900  1.00  0.00     0.049 A 
ATOM     48  H   UNL A   1      44.284  27.008  29.079  1.00  0.00     0.167 HD
ATOM     49  C   UNL A   1      40.290  28.809  29.135  1.00  0.00     0.037 A 
ATOM     50  C   UNL A   1      47.066  27.052  29.278  1.00  0.00     0.037 A 
ATOM     51  C   UNL A   1      41.169  29.823  29.652  1.00  0.00     0.049 A 
ATOM     52  C   UNL A   1      46.590  28.405  29.724  1.00  0.00     0.074 A 
ATOM     53  C   UNL A   1      40.847  31.079  30.137  1.00  0.00     0.029 A 
ATOM     54  N   UNL A   1      42.546  29.695  29.753  1.00  0.00    -0.354 N 
ATOM     55  N   UNL A   1      45.367  28.873  29.779  1.00  0.00    -0.248 NA
ATOM     56  C   UNL A   1      47.618  29.357  30.168  1.00  0.00     0.031 C 
ATOM     57  C   UNL A   1      42.035  31.723  30.500  1.00  0.00     0.029 A 
ATOM     58  C   UNL A   1      43.091  30.855  30.277  1.00  0.00     0.049 A 
ATOM     59  H   UNL A   1      43.060  28.896  29.491  1.00  0.00     0.167 HD
ATOM     60  C   UNL A   1      45.474  30.161  30.284  1.00  0.00     0.074 A 
ATOM     61  C   UNL A   1      46.881  30.398  30.532  1.00  0.00     0.031 C 
ATOM     62  C   UNL A   1      44.495  31.068  30.521  1.00  0.00     0.037 A 
BRANCH  49  63
ATOM     63  C   UNL A   1      38.829  29.124  29.006  1.00  0.00     0.057 A 
ATOM     64  C   UNL A   1      38.267  29.526  27.788  1.00  0.00     0.134 A 
ATOM     65  C   UNL A   1      37.972  29.009  30.108  1.00  0.00     0.134 A 
ATOM     66  F   UNL A   1      39.037  29.670  26.698  1.00  0.00    -0.206 F 
ATOM     67  C   UNL A   1      36.909  29.831  27.675  1.00  0.00     0.040 A 
ATOM     68  C   UNL A   1      36.609  29.286  30.001  1.00  0.00     0.040 A 
ATOM     69  F   UNL A   1      38.446  28.626  31.302  1.00  0.00    -0.206 F 
ATOM     70  C   UNL A   1      36.075  29.705  28.784  1.00  0.00     0.006 A 
ENDBRANCH  49  63
BRANCH  50  71
ATOM     71  C   UNL A   1      48.511  26.716  29.280  1.00  0.00     0.057 A 
ATOM     72  C   UNL A   1      49.305  26.947  28.151  1.00  0.00     0.134 A 
ATOM     73  C   UNL A   1      49.132  26.160  30.404  1.00  0.00     0.134 A 
ATOM     74  F   UNL A   1      48.761  27.463  27.039  1.00  0.00    -0.206 F 
ATOM     75  C   UNL A   1      50.662  26.623  28.133  1.00  0.00     0.040 A 
ATOM     76  C   UNL A   1      50.494  25.851  30.408  1.00  0.00     0.040 A 
ATOM     77  F   UNL A   1      48.427  25.923  31.520  1.00  0.00    -0.206 F 
ATOM     78  C   UNL A   1      51.261  26.077  29.267  1.00  0.00     0.006 A 
ENDBRANCH  50  71
BRANCH  62  79
ATOM     79  C   UNL A   1      44.910  32.386  31.100  1.00  0.00     0.057 A 
ATOM     80  C   UNL A   1      45.214  33.485  30.287  1.00  0.00     0.134 A 
ATOM     81  C   UNL A   1      44.967  32.569  32.487  1.00  0.00     0.134 A 
ATOM     82  F   UNL A   1      45.190  33.368  28.951  1.00  0.00    -0.206 F 
ATOM     83  C   UNL A   1      45.575  34.716  30.834  1.00  0.00     0.040 A 
ATOM     84  C   UNL A   1      45.306  33.801  33.046  1.00  0.00     0.040 A 
ATOM     85  F   UNL A   1      44.682  31.556  33.320  1.00  0.00    -0.206 F 
ATOM     86  C   UNL A   1      45.616  34.879  32.218  1.00  0.00     0.006 A 
ENDBRANCH  62  79
ENDBRANCH  36  37
ENDBRANCH  28  31
ENDBRANCH  26  27
ENDBRANCH  25  26
ENDBRANCH   1  25
TORSDOF 14
ENDMDL
MODEL 3
REMARK VINA RESULT:     -11.8      1.501      6.330
REMARK SMILES C[C@@H](NC(=O)c1cc(C(=O)NCCCCNC(=O)c2ccc(-c3c4nc(c(-c5c(F)cccc5F)c5ccc([nH]5)c(-c5c(F)cccc5F)c5nc(c(-c6c(F)cccc6F)c6ccc3[nH]6)C=C5)C=C4)cc2)n(C)n1)c1ccccc1
REMARK SMILES IDX 13 1 12 2 11 3 9 4 10 5 8 7 6 8 7 9 75 10 73 11 74 12 4 13
REMARK SMILES IDX 3 14 5 16 2 17 1 18 76 19 77 20 81 21 78 22 80 23 79 24
REMARK SMILES IDX 14 25 15 26 16 27 17 28 18 30 19 31 20 32 72 33 21 34 71 35
REMARK SMILES IDX 22 36 23 37 24 38 65 39 25 40 70 41 64 42 66 43 26 44 69 45
REMARK SMILES IDX 63 46 62 47 27 49 53 50 36 51 52 52 37 53 40 54 51 55 67 56
REMARK SMILES IDX 38 57 39 58 50 60 68 61 41 62 28 63 29 64 34 65 30 66 31 67
REMARK SMILES IDX 33 68 35 69 32 70 54 71 55 72 60 73 56 74 57 75 59 76 61 77
REMARK SMILES IDX 58 78 42 79 43 80 48 81 44 82 45 83 47 84 49 85 46 86
REMARK H PARENT 11 6 3 15 16 29 66 48 40 59
REMARK Flexibility Score: inf
ROOT
ATOM      1  C   UNL A   1      37.033  21.584  24.442  1.00  0.00     0.023 C 
ENDROOT
BRANCH   1   2
ATOM      2  C   UNL A   1      37.245  22.863  25.249  1.00  0.00     0.116 C 
BRANCH   2   3
ATOM      3  N   UNL A   1      36.250  23.041  26.270  1.00  0.00    -0.351 N 
ATOM      4  C   UNL A   1      34.887  23.115  26.273  1.00  0.00     0.269 C 
ATOM      5  O   UNL A   1      34.413  22.913  27.400  1.00  0.00    -0.268 OA
ATOM      6  H   UNL A   1      36.640  23.129  27.171  1.00  0.00     0.163 HD
BRANCH   4   7
ATOM      7  C   UNL A   1      34.008  23.437  25.160  1.00  0.00     0.126 A 
ATOM      8  C   UNL A   1      33.272  24.721  23.459  1.00  0.00     0.151 A 
ATOM      9  C   UNL A   1      33.840  24.759  24.743  1.00  0.00     0.069 A 
ATOM     10  N   UNL A   1      32.896  23.474  23.158  1.00  0.00    -0.167 NA
ATOM     11  N   UNL A   1      33.285  22.733  24.220  1.00  0.00    -0.262 N 
ATOM     12  C   UNL A   1      32.855  21.362  24.163  1.00  0.00     0.174 C 
BRANCH   8  13
ATOM     13  C   UNL A   1      33.049  25.837  22.553  1.00  0.00     0.272 C 
ATOM     14  N   UNL A   1      32.144  26.819  22.862  1.00  0.00    -0.344 N 
ATOM     15  H   UNL A   1      32.219  27.593  22.258  1.00  0.00     0.164 HD
ATOM     16  O   UNL A   1      33.652  25.929  21.482  1.00  0.00    -0.267 OA
BRANCH  14  17
ATOM     17  C   UNL A   1      31.092  27.002  23.865  1.00  0.00     0.109 C 
ATOM     18  C   UNL A   1      29.768  27.325  23.160  1.00  0.00     0.036 C 
BRANCH  17  19
ATOM     19  C   UNL A   1      31.366  27.879  25.070  1.00  0.00    -0.026 A 
ATOM     20  C   UNL A   1      31.486  27.366  26.373  1.00  0.00     0.006 A 
ATOM     21  C   UNL A   1      31.551  29.262  24.887  1.00  0.00     0.006 A 
ATOM     22  C   UNL A   1      31.787  28.203  27.453  1.00  0.00     0.000 A 
ATOM     23  C   UNL A   1      31.836  30.100  25.969  1.00  0.00     0.000 A 
ATOM     24  C   UNL A   1      31.958  29.569  27.251  1.00  0.00     0.000 A 
ENDBRANCH  17  19
ENDBRANCH  14  17
ENDBRANCH   8  13
ENDBRANCH   4   7
ENDBRANCH   2   3
ENDBRANCH   1   2
BRANCH   1  25
ATOM     25  C   UNL A   1      37.687  20.321  25.001  1.00  0.00     0.023 C 
BRANCH  25  26
ATOM     26  C   UNL A   1      38.998  20.524  25.750  1.00  0.00     0.116 C 
BRANCH  26  27
ATOM     27  N   UNL A   1      39.872  19.361  25.757  1.00  0.00    -0.352 N 
ATOM     28  C   UNL A   1      41.213  19.307  26.051  1.00  0.00     0.251 C 
ATOM     29  H   UNL A   1      39.449  18.504  25.520  1.00  0.00     0.163 HD
ATOM     30  O   UNL A   1      41.825  18.247  25.971  1.00  0.00    -0.269 OA
BRANCH  28  31
ATOM     31  C   UNL A   1      41.923  20.552  26.405  1.00  0.00     0.039 A 
ATOM     32  C   UNL A   1      42.320  21.410  25.376  1.00  0.00     0.014 A 
ATOM     33  C   UNL A   1      42.137  20.900  27.741  1.00  0.00     0.014 A 
ATOM     34  C   UNL A   1      42.860  22.657  25.690  1.00  0.00     0.010 A 
ATOM     35  C   UNL A   1      42.608  22.170  28.052  1.00  0.00     0.010 A 
ATOM     36  C   UNL A   1      42.967  23.062  27.029  1.00  0.00    -0.014 A 
BRANCH  36  37
ATOM     37  C   UNL A   1      43.442  24.421  27.386  1.00  0.00     0.031 A 
ATOM     38  C   UNL A   1      42.460  25.466  27.831  1.00  0.00     0.074 A 
ATOM     39  C   UNL A   1      44.741  24.733  27.225  1.00  0.00     0.049 A 
ATOM     40  N   UNL A   1      42.666  26.728  28.106  1.00  0.00    -0.248 NA
ATOM     41  C   UNL A   1      41.056  25.044  27.952  1.00  0.00     0.031 C 
ATOM     42  C   UNL A   1      45.779  23.821  26.738  1.00  0.00     0.029 A 
ATOM     43  N   UNL A   1      45.410  25.911  27.440  1.00  0.00    -0.354 N 
ATOM     44  C   UNL A   1      41.418  27.256  28.408  1.00  0.00     0.074 A 
ATOM     45  C   UNL A   1      40.454  26.189  28.239  1.00  0.00     0.031 C 
ATOM     46  C   UNL A   1      46.954  24.469  26.707  1.00  0.00     0.029 A 
ATOM     47  C   UNL A   1      46.749  25.847  27.143  1.00  0.00     0.049 A 
ATOM     48  H   UNL A   1      44.971  26.726  27.776  1.00  0.00     0.167 HD
ATOM     49  C   UNL A   1      41.106  28.509  28.813  1.00  0.00     0.037 A 
ATOM     50  C   UNL A   1      47.703  26.795  27.212  1.00  0.00     0.037 A 
ATOM     51  C   UNL A   1      42.071  29.556  29.016  1.00  0.00     0.049 A 
ATOM     52  C   UNL A   1      47.337  28.168  27.695  1.00  0.00     0.074 A 
ATOM     53  C   UNL A   1      41.866  30.836  29.501  1.00  0.00     0.029 A 
ATOM     54  N   UNL A   1      43.426  29.439  28.748  1.00  0.00    -0.354 N 
ATOM     55  N   UNL A   1      46.165  28.633  28.054  1.00  0.00    -0.248 NA
ATOM     56  C   UNL A   1      48.428  29.150  27.793  1.00  0.00     0.031 C 
ATOM     57  C   UNL A   1      43.095  31.506  29.493  1.00  0.00     0.029 A 
ATOM     58  C   UNL A   1      44.069  30.630  29.040  1.00  0.00     0.049 A 
ATOM     59  H   UNL A   1      43.866  28.630  28.400  1.00  0.00     0.167 HD
ATOM     60  C   UNL A   1      46.379  29.950  28.440  1.00  0.00     0.074 A 
ATOM     61  C   UNL A   1      47.796  30.206  28.284  1.00  0.00     0.031 C 
ATOM     62  C   UNL A   1      45.482  30.864  28.883  1.00  0.00     0.037 A 
BRANCH  49  63
ATOM     63  C   UNL A   1      39.658  28.810  29.067  1.00  0.00     0.057 A 
ATOM     64  C   UNL A   1      39.092  28.684  30.342  1.00  0.00     0.134 A 
ATOM     65  C   UNL A   1      38.825  29.245  28.029  1.00  0.00     0.134 A 
ATOM     66  F   UNL A   1      39.833  28.256  31.376  1.00  0.00    -0.206 F 
ATOM     67  C   UNL A   1      37.741  28.953  30.571  1.00  0.00     0.040 A 
ATOM     68  C   UNL A   1      37.479  29.542  28.252  1.00  0.00     0.040 A 
ATOM     69  F   UNL A   1      39.304  29.390  26.785  1.00  0.00    -0.206 F 
ATOM     70  C   UNL A   1      36.933  29.389  29.524  1.00  0.00     0.006 A 
ENDBRANCH  49  63
BRANCH  50  71
ATOM     71  C   UNL A   1      49.101  26.465  26.841  1.00  0.00     0.057 A 
ATOM     72  C   UNL A   1      49.972  25.882  27.768  1.00  0.00     0.134 A 
ATOM     73  C   UNL A   1      49.598  26.721  25.559  1.00  0.00     0.134 A 
ATOM     74  F   UNL A   1      49.557  25.629  29.018  1.00  0.00    -0.206 F 
ATOM     75  C   UNL A   1      51.294  25.579  27.438  1.00  0.00     0.040 A 
ATOM     76  C   UNL A   1      50.911  26.404  25.208  1.00  0.00     0.040 A 
ATOM     77  F   UNL A   1      48.809  27.270  24.623  1.00  0.00    -0.206 F 
ATOM     78  C   UNL A   1      51.765  25.837  26.153  1.00  0.00     0.006 A 
ENDBRANCH  50  71
BRANCH  62  79
ATOM     79  C   UNL A   1      46.012  32.215  29.256  1.00  0.00     0.057 A 
ATOM     80  C   UNL A   1      46.487  32.490  30.545  1.00  0.00     0.134 A 
ATOM     81  C   UNL A   1      46.084  33.239  28.304  1.00  0.00     0.134 A 
ATOM     82  F   UNL A   1      46.431  31.553  31.503  1.00  0.00    -0.206 F 
ATOM     83  C   UNL A   1      47.002  33.743  30.877  1.00  0.00     0.040 A 
ATOM     84  C   UNL A   1      46.618  34.489  28.619  1.00  0.00     0.040 A 
ATOM     85  F   UNL A   1      45.650  33.037  27.051  1.00  0.00    -0.206 F 
ATOM     86  C   UNL A   1      47.075  34.745  29.911  1.00  0.00     0.006 A 
ENDBRANCH  62  79
ENDBRANCH  36  37
ENDBRANCH  28  31
ENDBRANCH  26  27
ENDBRANCH  25  26
ENDBRANCH   1  25
TORSDOF 14
ENDMDL
