MODEL 1
REMARK VINA RESULT:     -12.4      0.000      0.000
REMARK SMILES COC(=O)c1ccc(C)c2c1[C@H]1C=CC[C@H]1[C@@H](c1ccc(C(=O)NCCCCNC(=O)c3ccc(-c4c5nc(c(-c6c(F)cccc6F)c6ccc([nH]6)c(-c6c(F)cccc6F)c6nc(c(-c7c(F)cccc7F)c7ccc4[nH]7)C=C6)C=C5)cc3)cc1)N2
REMARK SMILES IDX 26 1 25 2 24 3 22 4 23 5 21 7 18 8 19 9 87 10 20 11 86 12
REMARK SMILES IDX 17 13 5 14 6 15 11 16 7 17 10 18 12 19 8 20 88 21 13 22
REMARK SMILES IDX 16 23 9 24 14 26 15 27 3 28 4 29 2 30 1 31 27 32 28 33 29 34
REMARK SMILES IDX 30 35 31 37 32 38 33 39 85 40 34 41 84 42 35 43 36 44 37 45
REMARK SMILES IDX 78 46 38 47 83 48 77 49 79 50 39 51 82 52 76 53 75 54 40 56
REMARK SMILES IDX 66 57 49 58 65 59 50 60 53 61 64 62 80 63 51 64 52 65 63 67
REMARK SMILES IDX 81 68 54 69 41 70 42 71 47 72 43 73 44 74 46 75 48 76 45 77
REMARK SMILES IDX 67 78 68 79 73 80 69 81 70 82 72 83 74 84 71 85 55 86 56 87
REMARK SMILES IDX 61 88 57 89 58 90 60 91 62 92 59 93
REMARK H PARENT 24 6 88 25 29 36 79 55 53 66
REMARK Flexibility Score: inf
ROOT
ATOM      1  C   UNL A   1      39.447  22.774  26.473  1.00  0.00     0.023 C 
ENDROOT
BRANCH   1   2
ATOM      2  C   UNL A   1      38.288  23.707  26.117  1.00  0.00     0.116 C 
BRANCH   2   3
ATOM      3  N   UNL A   1      37.803  23.407  24.792  1.00  0.00    -0.352 N 
ATOM      4  C   UNL A   1      36.536  23.385  24.279  1.00  0.00     0.251 C 
ATOM      5  O   UNL A   1      36.416  23.049  23.100  1.00  0.00    -0.269 OA
ATOM      6  H   UNL A   1      38.508  23.178  24.144  1.00  0.00     0.163 HD
BRANCH   4   7
ATOM      7  C   UNL A   1      35.325  23.780  25.052  1.00  0.00     0.039 A 
ATOM      8  C   UNL A   1      32.932  24.728  26.283  1.00  0.00    -0.025 A 
ATOM      9  C   UNL A   1      33.732  25.554  25.478  1.00  0.00     0.006 A 
ATOM     10  C   UNL A   1      33.405  23.432  26.519  1.00  0.00     0.006 A 
ATOM     11  C   UNL A   1      34.899  25.093  24.869  1.00  0.00     0.014 A 
ATOM     12  C   UNL A   1      34.562  22.956  25.885  1.00  0.00     0.014 A 
BRANCH   8  13
ATOM     13  C   UNL A   1      31.547  25.134  26.811  1.00  0.00     0.114 C 
ATOM     14  C   UNL A   1      30.986  28.061  23.822  1.00  0.00     0.065 A 
ATOM     15  C   UNL A   1      31.562  29.320  24.015  1.00  0.00     0.016 A 
ATOM     16  C   UNL A   1      30.896  27.134  24.883  1.00  0.00    -0.003 A 
ATOM     17  C   UNL A   1      32.049  29.677  25.267  1.00  0.00     0.006 A 
ATOM     18  C   UNL A   1      31.396  27.505  26.162  1.00  0.00     0.042 A 
ATOM     19  C   UNL A   1      30.290  25.756  24.675  1.00  0.00     0.050 C 
ATOM     20  C   UNL A   1      31.980  28.781  26.347  1.00  0.00    -0.028 A 
ATOM     21  N   UNL A   1      31.495  26.544  27.165  1.00  0.00    -0.377 N 
ATOM     22  C   UNL A   1      30.947  24.848  23.661  1.00  0.00    -0.023 C 
ATOM     23  C   UNL A   1      30.313  24.845  25.922  1.00  0.00     0.031 C 
ATOM     24  C   UNL A   1      32.648  29.220  27.626  1.00  0.00     0.046 C 
ATOM     25  H   UNL A   1      31.530  26.818  28.110  1.00  0.00     0.161 HD
ATOM     26  C   UNL A   1      30.887  23.562  24.030  1.00  0.00    -0.030 C 
ATOM     27  C   UNL A   1      30.232  23.417  25.363  1.00  0.00     0.034 C 
BRANCH  14  28
ATOM     28  C   UNL A   1      30.509  27.725  22.461  1.00  0.00     0.338 C 
ATOM     29  O   UNL A   1      31.185  27.221  21.591  1.00  0.00    -0.246 OA
BRANCH  28  30
ATOM     30  O   UNL A   1      29.226  28.161  22.355  1.00  0.00    -0.465 OA
ATOM     31  C   UNL A   1      29.109  29.532  21.975  1.00  0.00     0.282 C 
ENDBRANCH  28  30
ENDBRANCH  14  28
ENDBRANCH   8  13
ENDBRANCH   4   7
ENDBRANCH   2   3
ENDBRANCH   1   2
BRANCH   1  32
ATOM     32  C   UNL A   1      39.286  21.352  25.936  1.00  0.00     0.023 C 
BRANCH  32  33
ATOM     33  C   UNL A   1      39.970  20.284  26.775  1.00  0.00     0.116 C 
BRANCH  33  34
ATOM     34  N   UNL A   1      40.955  19.511  26.030  1.00  0.00    -0.352 N 
ATOM     35  C   UNL A   1      42.267  19.847  25.807  1.00  0.00     0.251 C 
ATOM     36  H   UNL A   1      40.646  18.659  25.646  1.00  0.00     0.163 HD
ATOM     37  O   UNL A   1      43.004  19.157  25.117  1.00  0.00    -0.269 OA
BRANCH  35  38
ATOM     38  C   UNL A   1      42.738  21.107  26.399  1.00  0.00     0.039 A 
ATOM     39  C   UNL A   1      43.027  22.175  25.549  1.00  0.00     0.014 A 
ATOM     40  C   UNL A   1      42.718  21.260  27.787  1.00  0.00     0.014 A 
ATOM     41  C   UNL A   1      43.248  23.432  26.101  1.00  0.00     0.010 A 
ATOM     42  C   UNL A   1      42.885  22.528  28.331  1.00  0.00     0.010 A 
ATOM     43  C   UNL A   1      43.148  23.620  27.490  1.00  0.00    -0.014 A 
BRANCH  43  44
ATOM     44  C   UNL A   1      43.332  24.966  28.074  1.00  0.00     0.031 A 
ATOM     45  C   UNL A   1      44.710  25.436  28.429  1.00  0.00     0.074 A 
ATOM     46  C   UNL A   1      42.260  25.747  28.298  1.00  0.00     0.049 A 
ATOM     47  N   UNL A   1      45.090  26.593  28.905  1.00  0.00    -0.248 NA
ATOM     48  C   UNL A   1      45.805  24.471  28.241  1.00  0.00     0.031 C 
ATOM     49  C   UNL A   1      40.867  25.373  28.041  1.00  0.00     0.029 A 
ATOM     50  N   UNL A   1      42.176  27.022  28.793  1.00  0.00    -0.354 N 
ATOM     51  C   UNL A   1      46.466  26.500  29.056  1.00  0.00     0.074 A 
ATOM     52  C   UNL A   1      46.846  25.152  28.693  1.00  0.00     0.031 C 
ATOM     53  C   UNL A   1      40.070  26.409  28.355  1.00  0.00     0.029 A 
ATOM     54  C   UNL A   1      40.893  27.508  28.847  1.00  0.00     0.049 A 
ATOM     55  H   UNL A   1      42.961  27.541  29.082  1.00  0.00     0.167 HD
ATOM     56  C   UNL A   1      47.341  27.464  29.430  1.00  0.00     0.037 A 
ATOM     57  C   UNL A   1      40.442  28.715  29.238  1.00  0.00     0.037 A 
ATOM     58  C   UNL A   1      46.960  28.800  29.796  1.00  0.00     0.049 A 
ATOM     59  C   UNL A   1      41.433  29.757  29.679  1.00  0.00     0.074 A 
ATOM     60  C   UNL A   1      47.767  29.862  30.163  1.00  0.00     0.029 A 
ATOM     61  N   UNL A   1      45.650  29.256  29.847  1.00  0.00    -0.354 N 
ATOM     62  N   UNL A   1      42.740  29.684  29.740  1.00  0.00    -0.248 NA
ATOM     63  C   UNL A   1      40.881  31.054  30.093  1.00  0.00     0.031 C 
ATOM     64  C   UNL A   1      46.944  30.951  30.468  1.00  0.00     0.029 A 
ATOM     65  C   UNL A   1      45.626  30.579  30.255  1.00  0.00     0.049 A 
ATOM     66  H   UNL A   1      44.856  28.719  29.626  1.00  0.00     0.167 HD
ATOM     67  C   UNL A   1      43.170  30.932  30.170  1.00  0.00     0.074 A 
ATOM     68  C   UNL A   1      41.984  31.747  30.335  1.00  0.00     0.031 C 
ATOM     69  C   UNL A   1      44.431  31.368  30.411  1.00  0.00     0.037 A 
BRANCH  56  70
ATOM     70  C   UNL A   1      48.793  27.092  29.442  1.00  0.00     0.057 A 
ATOM     71  C   UNL A   1      49.393  26.561  30.589  1.00  0.00     0.134 A 
ATOM     72  C   UNL A   1      49.599  27.258  28.307  1.00  0.00     0.134 A 
ATOM     73  F   UNL A   1      48.678  26.375  31.708  1.00  0.00    -0.206 F 
ATOM     74  C   UNL A   1      50.743  26.204  30.605  1.00  0.00     0.040 A 
ATOM     75  C   UNL A   1      50.943  26.882  28.303  1.00  0.00     0.040 A 
ATOM     76  F   UNL A   1      49.078  27.744  27.168  1.00  0.00    -0.206 F 
ATOM     77  C   UNL A   1      51.519  26.357  29.457  1.00  0.00     0.006 A 
ENDBRANCH  56  70
BRANCH  57  78
ATOM     78  C   UNL A   1      38.991  29.028  29.199  1.00  0.00     0.057 A 
ATOM     79  C   UNL A   1      38.185  28.902  30.336  1.00  0.00     0.134 A 
ATOM     80  C   UNL A   1      38.392  29.512  28.030  1.00  0.00     0.134 A 
ATOM     81  F   UNL A   1      38.699  28.440  31.484  1.00  0.00    -0.206 F 
ATOM     82  C   UNL A   1      36.835  29.257  30.314  1.00  0.00     0.040 A 
ATOM     83  C   UNL A   1      37.049  29.891  28.001  1.00  0.00     0.040 A 
ATOM     84  F   UNL A   1      39.119  29.672  26.915  1.00  0.00    -0.206 F 
ATOM     85  C   UNL A   1      36.266  29.763  29.147  1.00  0.00     0.006 A 
ENDBRANCH  57  78
BRANCH  69  86
ATOM     86  C   UNL A   1      44.578  32.796  30.849  1.00  0.00     0.057 A 
ATOM     87  C   UNL A   1      44.586  33.128  32.208  1.00  0.00     0.134 A 
ATOM     88  C   UNL A   1      44.714  33.839  29.924  1.00  0.00     0.134 A 
ATOM     89  F   UNL A   1      44.453  32.176  33.144  1.00  0.00    -0.206 F 
ATOM     90  C   UNL A   1      44.734  34.448  32.635  1.00  0.00     0.040 A 
ATOM     91  C   UNL A   1      44.889  35.160  30.339  1.00  0.00     0.040 A 
ATOM     92  F   UNL A   1      44.729  33.584  28.607  1.00  0.00    -0.206 F 
ATOM     93  C   UNL A   1      44.898  35.467  31.698  1.00  0.00     0.006 A 
ENDBRANCH  69  86
ENDBRANCH  43  44
ENDBRANCH  35  38
ENDBRANCH  33  34
ENDBRANCH  32  33
ENDBRANCH   1  32
TORSDOF 14
ENDMDL
MODEL 2
REMARK VINA RESULT:     -12.3      0.558      1.369
REMARK SMILES COC(=O)c1ccc(C)c2c1[C@H]1C=CC[C@H]1[C@@H](c1ccc(C(=O)NCCCCNC(=O)c3ccc(-c4c5nc(c(-c6c(F)cccc6F)c6ccc([nH]6)c(-c6c(F)cccc6F)c6nc(c(-c7c(F)cccc7F)c7ccc4[nH]7)C=C6)C=C5)cc3)cc1)N2
REMARK SMILES IDX 26 1 25 2 24 3 22 4 23 5 21 7 18 8 19 9 87 10 20 11 86 12
REMARK SMILES IDX 17 13 5 14 6 15 11 16 7 17 10 18 12 19 8 20 88 21 13 22
REMARK SMILES IDX 16 23 9 24 14 26 15 27 3 28 4 29 2 30 1 31 27 32 28 33 29 34
REMARK SMILES IDX 30 35 31 37 32 38 33 39 85 40 34 41 84 42 35 43 36 44 37 45
REMARK SMILES IDX 78 46 38 47 83 48 77 49 79 50 39 51 82 52 76 53 75 54 40 56
REMARK SMILES IDX 66 57 49 58 65 59 50 60 53 61 64 62 80 63 51 64 52 65 63 67
REMARK SMILES IDX 81 68 54 69 41 70 42 71 47 72 43 73 44 74 46 75 48 76 45 77
REMARK SMILES IDX 67 78 68 79 73 80 69 81 70 82 72 83 74 84 71 85 55 86 56 87
REMARK SMILES IDX 61 88 57 89 58 90 60 91 62 92 59 93
REMARK H PARENT 24 6 88 25 29 36 79 55 53 66
REMARK Flexibility Score: inf
ROOT
ATOM      1  C   UNL A   1      39.473  22.721  26.258  1.00  0.00     0.023 C 
ENDROOT
BRANCH   1   2
ATOM      2  C   UNL A   1      38.236  23.588  26.012  1.00  0.00     0.116 C 
BRANCH   2   3
ATOM      3  N   UNL A   1      37.736  23.366  24.677  1.00  0.00    -0.352 N 
ATOM      4  C   UNL A   1      36.469  23.422  24.168  1.00  0.00     0.251 C 
ATOM      5  O   UNL A   1      36.333  23.142  22.976  1.00  0.00    -0.269 OA
ATOM      6  H   UNL A   1      38.429  23.133  24.017  1.00  0.00     0.163 HD
BRANCH   4   7
ATOM      7  C   UNL A   1      35.278  23.838  24.961  1.00  0.00     0.039 A 
ATOM      8  C   UNL A   1      32.918  24.821  26.228  1.00  0.00    -0.025 A 
ATOM      9  C   UNL A   1      33.702  25.627  25.387  1.00  0.00     0.006 A 
ATOM     10  C   UNL A   1      33.393  23.528  26.480  1.00  0.00     0.006 A 
ATOM     11  C   UNL A   1      34.852  25.148  24.761  1.00  0.00     0.014 A 
ATOM     12  C   UNL A   1      34.533  23.035  25.829  1.00  0.00     0.014 A 
BRANCH   8  13
ATOM     13  C   UNL A   1      31.548  25.244  26.780  1.00  0.00     0.114 C 
ATOM     14  C   UNL A   1      30.959  28.160  23.787  1.00  0.00     0.065 A 
ATOM     15  C   UNL A   1      31.551  29.414  23.962  1.00  0.00     0.016 A 
ATOM     16  C   UNL A   1      30.879  27.239  24.854  1.00  0.00    -0.003 A 
ATOM     17  C   UNL A   1      32.064  29.773  25.202  1.00  0.00     0.006 A 
ATOM     18  C   UNL A   1      31.407  27.613  26.122  1.00  0.00     0.042 A 
ATOM     19  C   UNL A   1      30.257  25.866  24.665  1.00  0.00     0.050 C 
ATOM     20  C   UNL A   1      32.008  28.884  26.288  1.00  0.00    -0.028 A 
ATOM     21  N   UNL A   1      31.517  26.656  27.127  1.00  0.00    -0.377 N 
ATOM     22  C   UNL A   1      30.885  24.947  23.643  1.00  0.00    -0.023 C 
ATOM     23  C   UNL A   1      30.294  24.962  25.916  1.00  0.00     0.031 C 
ATOM     24  C   UNL A   1      32.704  29.323  27.551  1.00  0.00     0.046 C 
ATOM     25  H   UNL A   1      31.573  26.934  28.070  1.00  0.00     0.161 HD
ATOM     26  C   UNL A   1      30.820  23.663  24.021  1.00  0.00    -0.030 C 
ATOM     27  C   UNL A   1      30.188  23.532  25.367  1.00  0.00     0.034 C 
BRANCH  14  28
ATOM     28  C   UNL A   1      30.452  27.821  22.436  1.00  0.00     0.338 C 
ATOM     29  O   UNL A   1      30.937  26.991  21.699  1.00  0.00    -0.246 OA
BRANCH  28  30
ATOM     30  O   UNL A   1      29.421  28.663  22.161  1.00  0.00    -0.465 OA
ATOM     31  C   UNL A   1      28.219  28.357  22.867  1.00  0.00     0.282 C 
ENDBRANCH  28  30
ENDBRANCH  14  28
ENDBRANCH   8  13
ENDBRANCH   4   7
ENDBRANCH   2   3
ENDBRANCH   1   2
BRANCH   1  32
ATOM     32  C   UNL A   1      39.343  21.292  25.730  1.00  0.00     0.023 C 
BRANCH  32  33
ATOM     33  C   UNL A   1      39.875  20.225  26.673  1.00  0.00     0.116 C 
BRANCH  33  34
ATOM     34  N   UNL A   1      40.845  19.336  26.048  1.00  0.00    -0.352 N 
ATOM     35  C   UNL A   1      42.188  19.569  25.884  1.00  0.00     0.251 C 
ATOM     36  H   UNL A   1      40.501  18.480  25.707  1.00  0.00     0.163 HD
ATOM     37  O   UNL A   1      42.914  18.783  25.292  1.00  0.00    -0.269 OA
BRANCH  35  38
ATOM     38  C   UNL A   1      42.710  20.837  26.414  1.00  0.00     0.039 A 
ATOM     39  C   UNL A   1      43.128  21.814  25.510  1.00  0.00     0.014 A 
ATOM     40  C   UNL A   1      42.614  21.098  27.783  1.00  0.00     0.014 A 
ATOM     41  C   UNL A   1      43.403  23.093  25.983  1.00  0.00     0.010 A 
ATOM     42  C   UNL A   1      42.837  22.389  28.242  1.00  0.00     0.010 A 
ATOM     43  C   UNL A   1      43.230  23.394  27.344  1.00  0.00    -0.014 A 
BRANCH  43  44
ATOM     44  C   UNL A   1      43.473  24.765  27.839  1.00  0.00     0.031 A 
ATOM     45  C   UNL A   1      44.879  25.234  28.057  1.00  0.00     0.074 A 
ATOM     46  C   UNL A   1      42.429  25.571  28.107  1.00  0.00     0.049 A 
ATOM     47  N   UNL A   1      45.307  26.409  28.440  1.00  0.00    -0.248 NA
ATOM     48  C   UNL A   1      45.947  24.247  27.833  1.00  0.00     0.031 C 
ATOM     49  C   UNL A   1      41.017  25.203  27.983  1.00  0.00     0.029 A 
ATOM     50  N   UNL A   1      42.398  26.871  28.539  1.00  0.00    -0.354 N 
ATOM     51  C   UNL A   1      46.690  26.306  28.485  1.00  0.00     0.074 A 
ATOM     52  C   UNL A   1      47.027  24.937  28.164  1.00  0.00     0.031 C 
ATOM     53  C   UNL A   1      40.257  26.265  28.305  1.00  0.00     0.029 A 
ATOM     54  C   UNL A   1      41.128  27.377  28.671  1.00  0.00     0.049 A 
ATOM     55  H   UNL A   1      43.208  27.394  28.737  1.00  0.00     0.167 HD
ATOM     56  C   UNL A   1      47.601  27.276  28.736  1.00  0.00     0.037 A 
ATOM     57  C   UNL A   1      40.721  28.608  29.032  1.00  0.00     0.037 A 
ATOM     58  C   UNL A   1      47.263  28.635  29.060  1.00  0.00     0.049 A 
ATOM     59  C   UNL A   1      41.754  29.658  29.337  1.00  0.00     0.074 A 
ATOM     60  C   UNL A   1      48.107  29.703  29.305  1.00  0.00     0.029 A 
ATOM     61  N   UNL A   1      45.966  29.110  29.193  1.00  0.00    -0.354 N 
ATOM     62  N   UNL A   1      43.061  29.571  29.296  1.00  0.00    -0.248 NA
ATOM     63  C   UNL A   1      41.249  30.982  29.725  1.00  0.00     0.031 C 
ATOM     64  C   UNL A   1      47.321  30.818  29.617  1.00  0.00     0.029 A 
ATOM     65  C   UNL A   1      45.987  30.452  29.531  1.00  0.00     0.049 A 
ATOM     66  H   UNL A   1      45.151  28.573  29.064  1.00  0.00     0.167 HD
ATOM     67  C   UNL A   1      43.536  30.834  29.624  1.00  0.00     0.074 A 
ATOM     68  C   UNL A   1      42.374  31.672  29.841  1.00  0.00     0.031 C 
ATOM     69  C   UNL A   1      44.816  31.265  29.740  1.00  0.00     0.037 A 
BRANCH  56  70
ATOM     70  C   UNL A   1      49.046  26.886  28.651  1.00  0.00     0.057 A 
ATOM     71  C   UNL A   1      49.739  26.435  29.779  1.00  0.00     0.134 A 
ATOM     72  C   UNL A   1      49.751  26.954  27.441  1.00  0.00     0.134 A 
ATOM     73  F   UNL A   1      49.124  26.345  30.967  1.00  0.00    -0.206 F 
ATOM     74  C   UNL A   1      51.083  26.062  29.706  1.00  0.00     0.040 A 
ATOM     75  C   UNL A   1      51.086  26.560  27.350  1.00  0.00     0.040 A 
ATOM     76  F   UNL A   1      49.136  27.359  26.318  1.00  0.00    -0.206 F 
ATOM     77  C   UNL A   1      51.758  26.117  28.487  1.00  0.00     0.006 A 
ENDBRANCH  56  70
BRANCH  57  78
ATOM     78  C   UNL A   1      39.275  28.938  29.094  1.00  0.00     0.057 A 
ATOM     79  C   UNL A   1      38.577  29.381  27.966  1.00  0.00     0.134 A 
ATOM     80  C   UNL A   1      38.549  28.767  30.279  1.00  0.00     0.134 A 
ATOM     81  F   UNL A   1      39.217  29.570  26.803  1.00  0.00    -0.206 F 
ATOM     82  C   UNL A   1      37.204  29.632  28.010  1.00  0.00     0.040 A 
ATOM     83  C   UNL A   1      37.173  28.993  30.331  1.00  0.00     0.040 A 
ATOM     84  F   UNL A   1      39.160  28.326  31.388  1.00  0.00    -0.206 F 
ATOM     85  C   UNL A   1      36.496  29.428  29.193  1.00  0.00     0.006 A 
ENDBRANCH  57  78
BRANCH  69  86
ATOM     86  C   UNL A   1      45.011  32.711  30.089  1.00  0.00     0.057 A 
ATOM     87  C   UNL A   1      45.075  33.684  29.085  1.00  0.00     0.134 A 
ATOM     88  C   UNL A   1      45.131  33.139  31.417  1.00  0.00     0.134 A 
ATOM     89  F   UNL A   1      44.974  33.339  27.793  1.00  0.00    -0.206 F 
ATOM     90  C   UNL A   1      45.243  35.036  29.390  1.00  0.00     0.040 A 
ATOM     91  C   UNL A   1      45.272  34.490  31.736  1.00  0.00     0.040 A 
ATOM     92  F   UNL A   1      45.061  32.256  32.426  1.00  0.00    -0.206 F 
ATOM     93  C   UNL A   1      45.331  35.442  30.720  1.00  0.00     0.006 A 
ENDBRANCH  69  86
ENDBRANCH  43  44
ENDBRANCH  35  38
ENDBRANCH  33  34
ENDBRANCH  32  33
ENDBRANCH   1  32
TORSDOF 14
ENDMDL
MODEL 3
REMARK VINA RESULT:     -12.1      4.239      9.071
REMARK SMILES COC(=O)c1ccc(C)c2c1[C@H]1C=CC[C@H]1[C@@H](c1ccc(C(=O)NCCCCNC(=O)c3ccc(-c4c5nc(c(-c6c(F)cccc6F)c6ccc([nH]6)c(-c6c(F)cccc6F)c6nc(c(-c7c(F)cccc7F)c7ccc4[nH]7)C=C6)C=C5)cc3)cc1)N2
REMARK SMILES IDX 26 1 25 2 24 3 22 4 23 5 21 7 18 8 19 9 87 10 20 11 86 12
REMARK SMILES IDX 17 13 5 14 6 15 11 16 7 17 10 18 12 19 8 20 88 21 13 22
REMARK SMILES IDX 16 23 9 24 14 26 15 27 3 28 4 29 2 30 1 31 27 32 28 33 29 34
REMARK SMILES IDX 30 35 31 37 32 38 33 39 85 40 34 41 84 42 35 43 36 44 37 45
REMARK SMILES IDX 78 46 38 47 83 48 77 49 79 50 39 51 82 52 76 53 75 54 40 56
REMARK SMILES IDX 66 57 49 58 65 59 50 60 53 61 64 62 80 63 51 64 52 65 63 67
REMARK SMILES IDX 81 68 54 69 41 70 42 71 47 72 43 73 44 74 46 75 48 76 45 77
REMARK SMILES IDX 67 78 68 79 73 80 69 81 70 82 72 83 74 84 71 85 55 86 56 87
REMARK SMILES IDX 61 88 57 89 58 90 60 91 62 92 59 93
REMARK H PARENT 24 6 88 25 29 36 79 55 53 66
REMARK Flexibility Score: inf
ROOT
ATOM      1  C   UNL A   1      31.514  31.186  26.188  1.00  0.00     0.023 C 
ENDROOT
BRANCH   1   2
ATOM      2  C   UNL A   1      31.963  30.164  27.235  1.00  0.00     0.116 C 
BRANCH   2   3
ATOM      3  N   UNL A   1      33.400  30.184  27.357  1.00  0.00    -0.352 N 
ATOM      4  C   UNL A   1      34.369  29.448  26.733  1.00  0.00     0.251 C 
ATOM      5  O   UNL A   1      35.535  29.657  27.071  1.00  0.00    -0.269 OA
ATOM      6  H   UNL A   1      33.744  30.841  28.005  1.00  0.00     0.163 HD
BRANCH   4   7
ATOM      7  C   UNL A   1      34.087  28.457  25.656  1.00  0.00     0.039 A 
ATOM      8  C   UNL A   1      33.402  26.382  23.822  1.00  0.00    -0.025 A 
ATOM      9  C   UNL A   1      33.755  26.111  25.154  1.00  0.00     0.006 A 
ATOM     10  C   UNL A   1      33.477  27.718  23.411  1.00  0.00     0.006 A 
ATOM     11  C   UNL A   1      34.084  27.124  26.055  1.00  0.00     0.014 A 
ATOM     12  C   UNL A   1      33.779  28.741  24.322  1.00  0.00     0.014 A 
BRANCH   8  13
ATOM     13  C   UNL A   1      32.849  25.324  22.855  1.00  0.00     0.114 C 
ATOM     14  C   UNL A   1      31.481  22.826  25.969  1.00  0.00     0.065 A 
ATOM     15  C   UNL A   1      32.400  21.964  26.575  1.00  0.00     0.016 A 
ATOM     16  C   UNL A   1      31.790  23.480  24.757  1.00  0.00    -0.003 A 
ATOM     17  C   UNL A   1      33.635  21.736  25.981  1.00  0.00     0.006 A 
ATOM     18  C   UNL A   1      33.057  23.242  24.153  1.00  0.00     0.042 A 
ATOM     19  C   UNL A   1      30.805  24.434  24.103  1.00  0.00     0.050 C 
ATOM     20  C   UNL A   1      33.982  22.371  24.777  1.00  0.00    -0.028 A 
ATOM     21  N   UNL A   1      33.458  24.021  23.071  1.00  0.00    -0.377 N 
ATOM     22  C   UNL A   1      30.378  25.650  24.893  1.00  0.00    -0.023 C 
ATOM     23  C   UNL A   1      31.316  25.106  22.810  1.00  0.00     0.031 C 
ATOM     24  C   UNL A   1      35.390  22.151  24.284  1.00  0.00     0.046 C 
ATOM     25  H   UNL A   1      34.151  23.691  22.454  1.00  0.00     0.161 HD
ATOM     26  C   UNL A   1      30.173  26.712  24.103  1.00  0.00    -0.030 C 
ATOM     27  C   UNL A   1      30.478  26.387  22.679  1.00  0.00     0.034 C 
BRANCH  14  28
ATOM     28  C   UNL A   1      30.191  23.052  26.661  1.00  0.00     0.338 C 
ATOM     29  O   UNL A   1      29.896  24.056  27.272  1.00  0.00    -0.246 OA
BRANCH  28  30
ATOM     30  O   UNL A   1      29.460  21.911  26.553  1.00  0.00    -0.465 OA
ATOM     31  C   UNL A   1      28.270  21.908  27.340  1.00  0.00     0.282 C 
ENDBRANCH  28  30
ENDBRANCH  14  28
ENDBRANCH   8  13
ENDBRANCH   4   7
ENDBRANCH   2   3
ENDBRANCH   1   2
BRANCH   1  32
ATOM     32  C   UNL A   1      31.450  32.622  26.710  1.00  0.00     0.023 C 
BRANCH  32  33
ATOM     33  C   UNL A   1      32.777  33.164  27.216  1.00  0.00     0.116 C 
BRANCH  33  34
ATOM     34  N   UNL A   1      32.632  34.338  28.066  1.00  0.00    -0.352 N 
ATOM     35  C   UNL A   1      33.447  34.704  29.108  1.00  0.00     0.251 C 
ATOM     36  H   UNL A   1      31.870  34.930  27.873  1.00  0.00     0.163 HD
ATOM     37  O   UNL A   1      33.210  35.682  29.804  1.00  0.00    -0.269 OA
BRANCH  35  38
ATOM     38  C   UNL A   1      34.600  33.836  29.384  1.00  0.00     0.039 A 
ATOM     39  C   UNL A   1      35.864  34.256  28.969  1.00  0.00     0.014 A 
ATOM     40  C   UNL A   1      34.432  32.713  30.198  1.00  0.00     0.014 A 
ATOM     41  C   UNL A   1      36.984  33.566  29.422  1.00  0.00     0.010 A 
ATOM     42  C   UNL A   1      35.555  32.061  30.692  1.00  0.00     0.010 A 
ATOM     43  C   UNL A   1      36.836  32.486  30.308  1.00  0.00    -0.014 A 
BRANCH  43  44
ATOM     44  C   UNL A   1      38.028  31.785  30.831  1.00  0.00     0.031 A 
ATOM     45  C   UNL A   1      38.545  32.123  32.197  1.00  0.00     0.074 A 
ATOM     46  C   UNL A   1      38.647  30.864  30.070  1.00  0.00     0.049 A 
ATOM     47  N   UNL A   1      39.543  31.594  32.855  1.00  0.00    -0.248 NA
ATOM     48  C   UNL A   1      37.861  33.213  32.910  1.00  0.00     0.031 C 
ATOM     49  C   UNL A   1      38.264  30.493  28.705  1.00  0.00     0.029 A 
ATOM     50  N   UNL A   1      39.732  30.072  30.339  1.00  0.00    -0.354 N 
ATOM     51  C   UNL A   1      39.594  32.273  34.064  1.00  0.00     0.074 A 
ATOM     52  C   UNL A   1      38.578  33.302  34.020  1.00  0.00     0.031 C 
ATOM     53  C   UNL A   1      39.087  29.524  28.268  1.00  0.00     0.029 A 
ATOM     54  C   UNL A   1      40.058  29.219  29.312  1.00  0.00     0.049 A 
ATOM     55  H   UNL A   1      40.231  30.110  31.186  1.00  0.00     0.167 HD
ATOM     56  C   UNL A   1      40.394  32.038  35.131  1.00  0.00     0.037 A 
ATOM     57  C   UNL A   1      41.027  28.288  29.238  1.00  0.00     0.037 A 
ATOM     58  C   UNL A   1      41.407  31.019  35.170  1.00  0.00     0.049 A 
ATOM     59  C   UNL A   1      41.922  28.068  30.427  1.00  0.00     0.074 A 
ATOM     60  C   UNL A   1      42.253  30.678  36.210  1.00  0.00     0.029 A 
ATOM     61  N   UNL A   1      41.715  30.179  34.110  1.00  0.00    -0.354 N 
ATOM     62  N   UNL A   1      41.908  28.662  31.595  1.00  0.00    -0.248 NA
ATOM     63  C   UNL A   1      42.959  27.038  30.287  1.00  0.00     0.031 C 
ATOM     64  C   UNL A   1      43.096  29.652  35.768  1.00  0.00     0.029 A 
ATOM     65  C   UNL A   1      42.749  29.330  34.466  1.00  0.00     0.049 A 
ATOM     66  H   UNL A   1      41.265  30.185  33.235  1.00  0.00     0.167 HD
ATOM     67  C   UNL A   1      42.913  28.059  32.340  1.00  0.00     0.074 A 
ATOM     68  C   UNL A   1      43.501  27.039  31.496  1.00  0.00     0.031 C 
ATOM     69  C   UNL A   1      43.317  28.323  33.606  1.00  0.00     0.037 A 
BRANCH  56  70
ATOM     70  C   UNL A   1      40.180  32.900  36.340  1.00  0.00     0.057 A 
ATOM     71  C   UNL A   1      39.184  32.599  37.274  1.00  0.00     0.134 A 
ATOM     72  C   UNL A   1      40.972  34.032  36.578  1.00  0.00     0.134 A 
ATOM     73  F   UNL A   1      38.392  31.529  37.106  1.00  0.00    -0.206 F 
ATOM     74  C   UNL A   1      38.984  33.391  38.406  1.00  0.00     0.040 A 
ATOM     75  C   UNL A   1      40.800  34.817  37.718  1.00  0.00     0.040 A 
ATOM     76  F   UNL A   1      41.959  34.362  35.730  1.00  0.00    -0.206 F 
ATOM     77  C   UNL A   1      39.798  34.500  38.634  1.00  0.00     0.006 A 
ENDBRANCH  56  70
BRANCH  57  78
ATOM     78  C   UNL A   1      41.188  27.460  28.016  1.00  0.00     0.057 A 
ATOM     79  C   UNL A   1      40.550  26.222  27.881  1.00  0.00     0.134 A 
ATOM     80  C   UNL A   1      41.946  27.919  26.933  1.00  0.00     0.134 A 
ATOM     81  F   UNL A   1      39.814  25.726  28.885  1.00  0.00    -0.206 F 
ATOM     82  C   UNL A   1      40.652  25.474  26.706  1.00  0.00     0.040 A 
ATOM     83  C   UNL A   1      42.038  27.193  25.745  1.00  0.00     0.040 A 
ATOM     84  F   UNL A   1      42.564  29.108  26.996  1.00  0.00    -0.206 F 
ATOM     85  C   UNL A   1      41.389  25.964  25.630  1.00  0.00     0.006 A 
ENDBRANCH  57  78
BRANCH  69  86
ATOM     86  C   UNL A   1      44.428  27.472  34.150  1.00  0.00     0.057 A 
ATOM     87  C   UNL A   1      45.760  27.887  34.046  1.00  0.00     0.134 A 
ATOM     88  C   UNL A   1      44.175  26.246  34.778  1.00  0.00     0.134 A 
ATOM     89  F   UNL A   1      46.069  29.047  33.449  1.00  0.00    -0.206 F 
ATOM     90  C   UNL A   1      46.805  27.115  34.557  1.00  0.00     0.040 A 
ATOM     91  C   UNL A   1      45.209  25.479  35.317  1.00  0.00     0.040 A 
ATOM     92  F   UNL A   1      42.918  25.801  34.924  1.00  0.00    -0.206 F 
ATOM     93  C   UNL A   1      46.529  25.912  35.204  1.00  0.00     0.006 A 
ENDBRANCH  69  86
ENDBRANCH  43  44
ENDBRANCH  35  38
ENDBRANCH  33  34
ENDBRANCH  32  33
ENDBRANCH   1  32
TORSDOF 14
ENDMDL
